
  -OEChem-05262214473D

 56 55  0     1  0  0  0  0  0999 V2000
    0.7735   -5.8042   -2.0022 C   0  0  0  0  0  0  0  0  0  0  0  0
   -0.2086   -6.3825   -1.5519 O   0  0  0  0  0  0  0  0  0  0  0  0
    1.4751   -6.3646   -3.1946 C   0  0  0  0  0  0  0  0  0  0  0  0
    2.2765   -7.0687   -2.9186 H   0  0  0  0  0  0  0  0  0  0  0  0
    0.7988   -6.9360   -3.8504 H   0  0  0  0  0  0  0  0  0  0  0  0
    1.9556   -5.6216   -3.8511 H   0  0  0  0  0  0  0  0  0  0  0  0
    1.3322   -4.6359   -1.5106 N   0  0  0  0  0  0  0  0  0  0  0  0
    0.8124   -3.9290   -0.3698 C   0  0  2  0  0  0  0  0  0  0  0  0
    1.0666   -2.4424   -0.5818 C   0  0  0  0  0  0  0  0  0  0  0  0
    2.0598   -2.0076   -1.1610 O   0  0  0  0  0  0  0  0  0  0  0  0
    1.4560   -4.4118    0.9207 C   0  0  0  0  0  0  0  0  0  0  0  0
    2.1528   -4.2578   -1.9805 H   0  0  0  0  0  0  0  0  0  0  0  0
   -0.2667   -4.1160   -0.3467 H   0  0  0  0  0  0  0  0  0  0  0  0
    2.5374   -4.2329    0.9160 H   0  0  0  0  0  0  0  0  0  0  0  0
    1.0390   -3.8932    1.7903 H   0  0  0  0  0  0  0  0  0  0  0  0
    1.2976   -5.4871    1.0566 H   0  0  0  0  0  0  0  0  0  0  0  0
    0.0755   -1.6529   -0.0105 N   0  0  0  0  0  0  0  0  0  0  0  0
    0.1113   -0.2132   -0.0391 C   0  0  2  0  0  0  0  0  0  0  0  0
   -1.1345    0.2906    0.6817 C   0  0  0  0  0  0  0  0  0  0  0  0
   -1.9931   -0.4613    1.1384 O   0  0  0  0  0  0  0  0  0  0  0  0
    0.1600    0.3332   -1.4696 C   0  0  0  0  0  0  0  0  0  0  0  0
    1.4751   -0.0076   -2.1807 C   0  0  0  0  0  0  0  0  0  0  0  0
    1.5181    0.5387   -3.6040 C   0  0  0  0  0  0  0  0  0  0  0  0
    2.7628    0.1919   -4.2861 N   0  3  0  0  0  0  0  0  0  0  0  0
    3.0042    0.5303   -5.6189 C   0  0  0  0  0  0  0  0  0  0  0  0
    4.2128    0.1672   -6.2036 N   0  0  0  0  0  0  0  0  0  0  0  0
    2.0652    1.2226   -6.3765 N   0  0  0  0  0  0  0  0  0  0  0  0
   -0.7323   -2.1024    0.4149 H   0  0  0  0  0  0  0  0  0  0  0  0
    0.9994    0.0936    0.5251 H   0  0  0  0  0  0  0  0  0  0  0  0
    0.0306    1.4220   -1.4491 H   0  0  0  0  0  0  0  0  0  0  0  0
   -0.6819   -0.0676   -2.0494 H   0  0  0  0  0  0  0  0  0  0  0  0
    2.3183    0.3965   -1.6077 H   0  0  0  0  0  0  0  0  0  0  0  0
    1.5991   -1.0958   -2.2232 H   0  0  0  0  0  0  0  0  0  0  0  0
    0.6976    0.1102   -4.1877 H   0  0  0  0  0  0  0  0  0  0  0  0
    1.4208    1.6287   -3.6075 H   0  0  0  0  0  0  0  0  0  0  0  0
    3.4883   -0.3151   -3.7821 H   0  0  0  0  0  0  0  0  0  0  0  0
    4.4199    0.3987   -7.1723 H   0  0  0  0  0  0  0  0  0  0  0  0
    4.9211   -0.3396   -5.6784 H   0  0  0  0  0  0  0  0  0  0  0  0
    2.2360    1.4715   -7.3474 H   0  0  0  0  0  0  0  0  0  0  0  0
    1.1726    1.5008   -5.9756 H   0  0  0  0  0  0  0  0  0  0  0  0
   -1.1967    1.6769    0.7103 N   0  0  0  0  0  0  0  0  0  0  0  0
   -2.3019    2.4024    1.2930 C   0  0  2  0  0  0  0  0  0  0  0  0
   -2.4819    3.6951    0.5080 C   0  0  0  0  0  0  0  0  0  0  0  0
   -1.5429    4.3173    0.0159 O   0  0  0  0  0  0  0  0  0  0  0  0
   -2.0594    2.6905    2.7664 C   0  0  0  0  0  0  0  0  0  0  0  0
   -0.4233    2.2182    0.3356 H   0  0  0  0  0  0  0  0  0  0  0  0
   -3.1913    1.7744    1.1723 H   0  0  0  0  0  0  0  0  0  0  0  0
   -1.1723    3.3186    2.9072 H   0  0  0  0  0  0  0  0  0  0  0  0
   -2.9102    3.2152    3.2133 H   0  0  0  0  0  0  0  0  0  0  0  0
   -1.9006    1.7613    3.3241 H   0  0  0  0  0  0  0  0  0  0  0  0
   -3.8100    4.0950    0.4586 N   0  0  0  0  0  0  0  0  0  0  0  0
   -4.2337    5.3128   -0.1921 C   0  0  0  0  0  0  0  0  0  0  0  0
   -4.5270    3.4975    0.8592 H   0  0  0  0  0  0  0  0  0  0  0  0
   -4.2624    6.1310    0.5426 H   0  0  0  0  0  0  0  0  0  0  0  0
   -3.5250    5.5654   -0.9945 H   0  0  0  0  0  0  0  0  0  0  0  0
   -5.2367    5.1696   -0.6205 H   0  0  0  0  0  0  0  0  0  0  0  0
  1  3  1  0  0  0  0
  1  7  1  0  0  0  0
  1  2  2  0  0  0  0
 42 43  1  0  0  0  0
 43 51  1  0  0  0  0
 43 44  2  0  0  0  0
  8  9  1  0  0  0  0
  9 17  1  0  0  0  0
  9 10  2  0  0  0  0
 18 19  1  0  0  0  0
 19 41  1  0  0  0  0
 19 20  2  0  0  0  0
 25 26  1  0  0  0  0
 25 27  1  0  0  0  0
 24 25  2  0  0  0  0
 42 45  1  0  0  0  0
  8 11  1  0  0  0  0
 51 52  1  0  0  0  0
 21 22  1  0  0  0  0
 22 23  1  0  0  0  0
 18 21  1  0  0  0  0
 23 24  1  0  0  0  0
 41 42  1  0  0  0  0
  7  8  1  0  0  0  0
 17 18  1  0  0  0  0
  3  4  1  0  0  0  0
  3  5  1  0  0  0  0
  3  6  1  0  0  0  0
 45 48  1  0  0  0  0
 45 49  1  0  0  0  0
 45 50  1  0  0  0  0
 11 14  1  0  0  0  0
 11 15  1  0  0  0  0
 11 16  1  0  0  0  0
 52 54  1  0  0  0  0
 52 55  1  0  0  0  0
 52 56  1  0  0  0  0
 22 32  1  0  0  0  0
 22 33  1  0  0  0  0
 21 30  1  0  0  0  0
 21 31  1  0  0  0  0
 23 34  1  0  0  0  0
 23 35  1  0  0  0  0
 42 47  1  0  0  0  0
  8 13  1  0  0  0  0
 18 29  1  0  0  0  0
 26 37  1  0  0  0  0
 26 38  1  0  0  0  0
 27 39  1  0  0  0  0
 27 40  1  0  0  0  0
 51 53  1  0  0  0  0
  7 12  1  0  0  0  0
 41 46  1  0  0  0  0
 17 28  1  0  0  0  0
 24 36  1  0  0  0  0
M  CHG  1  24   1
M  END
$$$$

  -OEChem-05262214473D

 56 55  0     1  0  0  0  0  0999 V2000
    0.7735   -5.8042   -2.0022 C   0  0  0  0  0  0  0  0  0  0  0  0
   -0.2086   -6.3825   -1.5519 O   0  0  0  0  0  0  0  0  0  0  0  0
    1.4751   -6.3646   -3.1946 C   0  0  0  0  0  0  0  0  0  0  0  0
    2.2765   -7.0687   -2.9186 H   0  0  0  0  0  0  0  0  0  0  0  0
    0.7988   -6.9360   -3.8504 H   0  0  0  0  0  0  0  0  0  0  0  0
    1.9556   -5.6216   -3.8511 H   0  0  0  0  0  0  0  0  0  0  0  0
    1.3322   -4.6359   -1.5106 N   0  0  0  0  0  0  0  0  0  0  0  0
    0.8124   -3.9290   -0.3698 C   0  0  2  0  0  0  0  0  0  0  0  0
    1.0666   -2.4424   -0.5818 C   0  0  0  0  0  0  0  0  0  0  0  0
    2.0598   -2.0076   -1.1610 O   0  0  0  0  0  0  0  0  0  0  0  0
    1.4560   -4.4118    0.9207 C   0  0  0  0  0  0  0  0  0  0  0  0
    2.1528   -4.2578   -1.9805 H   0  0  0  0  0  0  0  0  0  0  0  0
   -0.2667   -4.1160   -0.3467 H   0  0  0  0  0  0  0  0  0  0  0  0
    2.5374   -4.2329    0.9160 H   0  0  0  0  0  0  0  0  0  0  0  0
    1.0390   -3.8932    1.7903 H   0  0  0  0  0  0  0  0  0  0  0  0
    1.2976   -5.4871    1.0566 H   0  0  0  0  0  0  0  0  0  0  0  0
    0.0755   -1.6529   -0.0105 N   0  0  0  0  0  0  0  0  0  0  0  0
    0.1113   -0.2132   -0.0391 C   0  0  2  0  0  0  0  0  0  0  0  0
   -1.1345    0.2906    0.6817 C   0  0  0  0  0  0  0  0  0  0  0  0
   -1.8514   -0.4366    1.3660 O   0  0  0  0  0  0  0  0  0  0  0  0
    0.1600    0.3332   -1.4696 C   0  0  0  0  0  0  0  0  0  0  0  0
    1.4751   -0.0076   -2.1807 C   0  0  0  0  0  0  0  0  0  0  0  0
    1.5181    0.5387   -3.6040 C   0  0  0  0  0  0  0  0  0  0  0  0
    2.7628    0.1919   -4.2861 N   0  3  0  0  0  0  0  0  0  0  0  0
    3.0042    0.5303   -5.6189 C   0  0  0  0  0  0  0  0  0  0  0  0
    4.2128    0.1672   -6.2036 N   0  0  0  0  0  0  0  0  0  0  0  0
    2.0652    1.2226   -6.3765 N   0  0  0  0  0  0  0  0  0  0  0  0
   -0.7323   -2.1024    0.4149 H   0  0  0  0  0  0  0  0  0  0  0  0
    0.9994    0.0936    0.5251 H   0  0  0  0  0  0  0  0  0  0  0  0
    0.0306    1.4220   -1.4491 H   0  0  0  0  0  0  0  0  0  0  0  0
   -0.6819   -0.0676   -2.0494 H   0  0  0  0  0  0  0  0  0  0  0  0
    2.3183    0.3965   -1.6077 H   0  0  0  0  0  0  0  0  0  0  0  0
    1.5991   -1.0958   -2.2232 H   0  0  0  0  0  0  0  0  0  0  0  0
    0.6976    0.1102   -4.1877 H   0  0  0  0  0  0  0  0  0  0  0  0
    1.4208    1.6287   -3.6075 H   0  0  0  0  0  0  0  0  0  0  0  0
    3.4883   -0.3151   -3.7821 H   0  0  0  0  0  0  0  0  0  0  0  0
    4.4199    0.3987   -7.1723 H   0  0  0  0  0  0  0  0  0  0  0  0
    4.9211   -0.3396   -5.6784 H   0  0  0  0  0  0  0  0  0  0  0  0
    2.2360    1.4715   -7.3474 H   0  0  0  0  0  0  0  0  0  0  0  0
    1.1726    1.5008   -5.9756 H   0  0  0  0  0  0  0  0  0  0  0  0
   -1.3763    1.6339    0.4300 N   0  0  0  0  0  0  0  0  0  0  0  0
   -2.5223    2.3387    0.9567 C   0  0  2  0  0  0  0  0  0  0  0  0
   -2.9270    3.4017   -0.0561 C   0  0  0  0  0  0  0  0  0  0  0  0
   -2.1161    4.0045   -0.7562 O   0  0  0  0  0  0  0  0  0  0  0  0
   -2.2138    2.9649    2.3078 C   0  0  0  0  0  0  0  0  0  0  0  0
   -0.7099    2.1652   -0.1227 H   0  0  0  0  0  0  0  0  0  0  0  0
   -3.3277    1.6030    1.0564 H   0  0  0  0  0  0  0  0  0  0  0  0
   -1.4091    3.7049    2.2279 H   0  0  0  0  0  0  0  0  0  0  0  0
   -3.0916    3.4743    2.7188 H   0  0  0  0  0  0  0  0  0  0  0  0
   -1.8942    2.2027    3.0267 H   0  0  0  0  0  0  0  0  0  0  0  0
   -4.2962    3.6285   -0.0557 N   0  0  0  0  0  0  0  0  0  0  0  0
   -4.9224    4.6203   -0.8984 C   0  0  0  0  0  0  0  0  0  0  0  0
   -4.8975    3.0548    0.5282 H   0  0  0  0  0  0  0  0  0  0  0  0
   -5.0052    5.5696   -0.3489 H   0  0  0  0  0  0  0  0  0  0  0  0
   -4.3130    4.7715   -1.8015 H   0  0  0  0  0  0  0  0  0  0  0  0
   -5.9262    4.2751   -1.1869 H   0  0  0  0  0  0  0  0  0  0  0  0
  1  3  1  0  0  0  0
  1  7  1  0  0  0  0
  1  2  2  0  0  0  0
 42 43  1  0  0  0  0
 43 51  1  0  0  0  0
 43 44  2  0  0  0  0
  8  9  1  0  0  0  0
  9 17  1  0  0  0  0
  9 10  2  0  0  0  0
 18 19  1  0  0  0  0
 19 41  1  0  0  0  0
 19 20  2  0  0  0  0
 25 26  1  0  0  0  0
 25 27  1  0  0  0  0
 24 25  2  0  0  0  0
 42 45  1  0  0  0  0
  8 11  1  0  0  0  0
 51 52  1  0  0  0  0
 21 22  1  0  0  0  0
 22 23  1  0  0  0  0
 18 21  1  0  0  0  0
 23 24  1  0  0  0  0
 41 42  1  0  0  0  0
  7  8  1  0  0  0  0
 17 18  1  0  0  0  0
  3  4  1  0  0  0  0
  3  5  1  0  0  0  0
  3  6  1  0  0  0  0
 45 48  1  0  0  0  0
 45 49  1  0  0  0  0
 45 50  1  0  0  0  0
 11 14  1  0  0  0  0
 11 15  1  0  0  0  0
 11 16  1  0  0  0  0
 52 54  1  0  0  0  0
 52 55  1  0  0  0  0
 52 56  1  0  0  0  0
 22 32  1  0  0  0  0
 22 33  1  0  0  0  0
 21 30  1  0  0  0  0
 21 31  1  0  0  0  0
 23 34  1  0  0  0  0
 23 35  1  0  0  0  0
 42 47  1  0  0  0  0
  8 13  1  0  0  0  0
 18 29  1  0  0  0  0
 26 37  1  0  0  0  0
 26 38  1  0  0  0  0
 27 39  1  0  0  0  0
 27 40  1  0  0  0  0
 51 53  1  0  0  0  0
  7 12  1  0  0  0  0
 41 46  1  0  0  0  0
 17 28  1  0  0  0  0
 24 36  1  0  0  0  0
M  CHG  1  24   1
M  END
$$$$

  -OEChem-05262214473D

 56 55  0     1  0  0  0  0  0999 V2000
    0.7735   -5.8042   -2.0022 C   0  0  0  0  0  0  0  0  0  0  0  0
   -0.2086   -6.3825   -1.5519 O   0  0  0  0  0  0  0  0  0  0  0  0
    1.4751   -6.3646   -3.1946 C   0  0  0  0  0  0  0  0  0  0  0  0
    2.2765   -7.0687   -2.9186 H   0  0  0  0  0  0  0  0  0  0  0  0
    0.7988   -6.9360   -3.8504 H   0  0  0  0  0  0  0  0  0  0  0  0
    1.9556   -5.6216   -3.8511 H   0  0  0  0  0  0  0  0  0  0  0  0
    1.3322   -4.6359   -1.5106 N   0  0  0  0  0  0  0  0  0  0  0  0
    0.8124   -3.9290   -0.3698 C   0  0  2  0  0  0  0  0  0  0  0  0
    1.0666   -2.4424   -0.5818 C   0  0  0  0  0  0  0  0  0  0  0  0
    2.0598   -2.0076   -1.1610 O   0  0  0  0  0  0  0  0  0  0  0  0
    1.4560   -4.4118    0.9207 C   0  0  0  0  0  0  0  0  0  0  0  0
    2.1528   -4.2578   -1.9805 H   0  0  0  0  0  0  0  0  0  0  0  0
   -0.2667   -4.1160   -0.3467 H   0  0  0  0  0  0  0  0  0  0  0  0
    2.5374   -4.2329    0.9160 H   0  0  0  0  0  0  0  0  0  0  0  0
    1.0390   -3.8932    1.7903 H   0  0  0  0  0  0  0  0  0  0  0  0
    1.2976   -5.4871    1.0566 H   0  0  0  0  0  0  0  0  0  0  0  0
    0.0755   -1.6529   -0.0105 N   0  0  0  0  0  0  0  0  0  0  0  0
    0.1113   -0.2132   -0.0391 C   0  0  2  0  0  0  0  0  0  0  0  0
   -1.1345    0.2906    0.6817 C   0  0  0  0  0  0  0  0  0  0  0  0
   -1.6981   -0.3473    1.5686 O   0  0  0  0  0  0  0  0  0  0  0  0
    0.1600    0.3332   -1.4696 C   0  0  0  0  0  0  0  0  0  0  0  0
    1.4751   -0.0076   -2.1807 C   0  0  0  0  0  0  0  0  0  0  0  0
    1.5181    0.5387   -3.6040 C   0  0  0  0  0  0  0  0  0  0  0  0
    2.7628    0.1919   -4.2861 N   0  3  0  0  0  0  0  0  0  0  0  0
    3.0042    0.5303   -5.6189 C   0  0  0  0  0  0  0  0  0  0  0  0
    4.2128    0.1672   -6.2036 N   0  0  0  0  0  0  0  0  0  0  0  0
    2.0652    1.2226   -6.3765 N   0  0  0  0  0  0  0  0  0  0  0  0
   -0.7323   -2.1024    0.4149 H   0  0  0  0  0  0  0  0  0  0  0  0
    0.9994    0.0936    0.5251 H   0  0  0  0  0  0  0  0  0  0  0  0
    0.0306    1.4220   -1.4491 H   0  0  0  0  0  0  0  0  0  0  0  0
   -0.6819   -0.0676   -2.0494 H   0  0  0  0  0  0  0  0  0  0  0  0
    2.3183    0.3965   -1.6077 H   0  0  0  0  0  0  0  0  0  0  0  0
    1.5991   -1.0958   -2.2232 H   0  0  0  0  0  0  0  0  0  0  0  0
    0.6976    0.1102   -4.1877 H   0  0  0  0  0  0  0  0  0  0  0  0
    1.4208    1.6287   -3.6075 H   0  0  0  0  0  0  0  0  0  0  0  0
    3.4883   -0.3151   -3.7821 H   0  0  0  0  0  0  0  0  0  0  0  0
    4.4199    0.3987   -7.1723 H   0  0  0  0  0  0  0  0  0  0  0  0
    4.9211   -0.3396   -5.6784 H   0  0  0  0  0  0  0  0  0  0  0  0
    2.2360    1.4715   -7.3474 H   0  0  0  0  0  0  0  0  0  0  0  0
    1.1726    1.5008   -5.9756 H   0  0  0  0  0  0  0  0  0  0  0  0
   -1.5684    1.5113    0.1836 N   0  0  0  0  0  0  0  0  0  0  0  0
   -2.7560    2.1792    0.6642 C   0  0  2  0  0  0  0  0  0  0  0  0
   -3.3693    2.9445   -0.5010 C   0  0  0  0  0  0  0  0  0  0  0  0
   -2.6975    3.4691   -1.3868 O   0  0  0  0  0  0  0  0  0  0  0  0
   -2.4356    3.1141    1.8201 C   0  0  0  0  0  0  0  0  0  0  0  0
   -1.0195    1.9819   -0.5297 H   0  0  0  0  0  0  0  0  0  0  0  0
   -3.4483    1.3962    0.9924 H   0  0  0  0  0  0  0  0  0  0  0  0
   -1.7432    3.9053    1.5103 H   0  0  0  0  0  0  0  0  0  0  0  0
   -3.3408    3.5978    2.2018 H   0  0  0  0  0  0  0  0  0  0  0  0
   -1.9674    2.5670    2.6455 H   0  0  0  0  0  0  0  0  0  0  0  0
   -4.7528    3.0096   -0.4122 N   0  0  0  0  0  0  0  0  0  0  0  0
   -5.5634    3.7178   -1.3752 C   0  0  0  0  0  0  0  0  0  0  0  0
   -5.2296    2.5118    0.3339 H   0  0  0  0  0  0  0  0  0  0  0  0
   -5.7303    4.7481   -1.0278 H   0  0  0  0  0  0  0  0  0  0  0  0
   -5.0461    3.7376   -2.3458 H   0  0  0  0  0  0  0  0  0  0  0  0
   -6.5312    3.2070   -1.4859 H   0  0  0  0  0  0  0  0  0  0  0  0
  1  3  1  0  0  0  0
  1  7  1  0  0  0  0
  1  2  2  0  0  0  0
 42 43  1  0  0  0  0
 43 51  1  0  0  0  0
 43 44  2  0  0  0  0
  8  9  1  0  0  0  0
  9 17  1  0  0  0  0
  9 10  2  0  0  0  0
 18 19  1  0  0  0  0
 19 41  1  0  0  0  0
 19 20  2  0  0  0  0
 25 26  1  0  0  0  0
 25 27  1  0  0  0  0
 24 25  2  0  0  0  0
 42 45  1  0  0  0  0
  8 11  1  0  0  0  0
 51 52  1  0  0  0  0
 21 22  1  0  0  0  0
 22 23  1  0  0  0  0
 18 21  1  0  0  0  0
 23 24  1  0  0  0  0
 41 42  1  0  0  0  0
  7  8  1  0  0  0  0
 17 18  1  0  0  0  0
  3  4  1  0  0  0  0
  3  5  1  0  0  0  0
  3  6  1  0  0  0  0
 45 48  1  0  0  0  0
 45 49  1  0  0  0  0
 45 50  1  0  0  0  0
 11 14  1  0  0  0  0
 11 15  1  0  0  0  0
 11 16  1  0  0  0  0
 52 54  1  0  0  0  0
 52 55  1  0  0  0  0
 52 56  1  0  0  0  0
 22 32  1  0  0  0  0
 22 33  1  0  0  0  0
 21 30  1  0  0  0  0
 21 31  1  0  0  0  0
 23 34  1  0  0  0  0
 23 35  1  0  0  0  0
 42 47  1  0  0  0  0
  8 13  1  0  0  0  0
 18 29  1  0  0  0  0
 26 37  1  0  0  0  0
 26 38  1  0  0  0  0
 27 39  1  0  0  0  0
 27 40  1  0  0  0  0
 51 53  1  0  0  0  0
  7 12  1  0  0  0  0
 41 46  1  0  0  0  0
 17 28  1  0  0  0  0
 24 36  1  0  0  0  0
M  CHG  1  24   1
M  END
$$$$

  -OEChem-05262214473D

 56 55  0     1  0  0  0  0  0999 V2000
    0.7735   -5.8042   -2.0022 C   0  0  0  0  0  0  0  0  0  0  0  0
   -0.2086   -6.3825   -1.5519 O   0  0  0  0  0  0  0  0  0  0  0  0
    1.4751   -6.3646   -3.1946 C   0  0  0  0  0  0  0  0  0  0  0  0
    2.2765   -7.0687   -2.9186 H   0  0  0  0  0  0  0  0  0  0  0  0
    0.7988   -6.9360   -3.8504 H   0  0  0  0  0  0  0  0  0  0  0  0
    1.9556   -5.6216   -3.8511 H   0  0  0  0  0  0  0  0  0  0  0  0
    1.3322   -4.6359   -1.5106 N   0  0  0  0  0  0  0  0  0  0  0  0
    0.8124   -3.9290   -0.3698 C   0  0  2  0  0  0  0  0  0  0  0  0
    1.0666   -2.4424   -0.5818 C   0  0  0  0  0  0  0  0  0  0  0  0
    2.0598   -2.0076   -1.1610 O   0  0  0  0  0  0  0  0  0  0  0  0
    1.4560   -4.4118    0.9207 C   0  0  0  0  0  0  0  0  0  0  0  0
    2.1528   -4.2578   -1.9805 H   0  0  0  0  0  0  0  0  0  0  0  0
   -0.2667   -4.1160   -0.3467 H   0  0  0  0  0  0  0  0  0  0  0  0
    2.5374   -4.2329    0.9160 H   0  0  0  0  0  0  0  0  0  0  0  0
    1.0390   -3.8932    1.7903 H   0  0  0  0  0  0  0  0  0  0  0  0
    1.2976   -5.4871    1.0566 H   0  0  0  0  0  0  0  0  0  0  0  0
    0.0755   -1.6529   -0.0105 N   0  0  0  0  0  0  0  0  0  0  0  0
    0.1113   -0.2132   -0.0391 C   0  0  2  0  0  0  0  0  0  0  0  0
   -1.1345    0.2906    0.6817 C   0  0  0  0  0  0  0  0  0  0  0  0
   -1.5436   -0.1995    1.7322 O   0  0  0  0  0  0  0  0  0  0  0  0
    0.1600    0.3332   -1.4696 C   0  0  0  0  0  0  0  0  0  0  0  0
    1.4751   -0.0076   -2.1807 C   0  0  0  0  0  0  0  0  0  0  0  0
    1.5181    0.5387   -3.6040 C   0  0  0  0  0  0  0  0  0  0  0  0
    2.7628    0.1919   -4.2861 N   0  3  0  0  0  0  0  0  0  0  0  0
    3.0042    0.5303   -5.6189 C   0  0  0  0  0  0  0  0  0  0  0  0
    4.2128    0.1672   -6.2036 N   0  0  0  0  0  0  0  0  0  0  0  0
    2.0652    1.2226   -6.3765 N   0  0  0  0  0  0  0  0  0  0  0  0
   -0.7323   -2.1024    0.4149 H   0  0  0  0  0  0  0  0  0  0  0  0
    0.9994    0.0936    0.5251 H   0  0  0  0  0  0  0  0  0  0  0  0
    0.0306    1.4220   -1.4491 H   0  0  0  0  0  0  0  0  0  0  0  0
   -0.6819   -0.0676   -2.0494 H   0  0  0  0  0  0  0  0  0  0  0  0
    2.3183    0.3965   -1.6077 H   0  0  0  0  0  0  0  0  0  0  0  0
    1.5991   -1.0958   -2.2232 H   0  0  0  0  0  0  0  0  0  0  0  0
    0.6976    0.1102   -4.1877 H   0  0  0  0  0  0  0  0  0  0  0  0
    1.4208    1.6287   -3.6075 H   0  0  0  0  0  0  0  0  0  0  0  0
    3.4883   -0.3151   -3.7821 H   0  0  0  0  0  0  0  0  0  0  0  0
    4.4199    0.3987   -7.1723 H   0  0  0  0  0  0  0  0  0  0  0  0
    4.9211   -0.3396   -5.6784 H   0  0  0  0  0  0  0  0  0  0  0  0
    2.2360    1.4715   -7.3474 H   0  0  0  0  0  0  0  0  0  0  0  0
    1.1726    1.5008   -5.9756 H   0  0  0  0  0  0  0  0  0  0  0  0
   -1.7601    1.3171   -0.0120 N   0  0  0  0  0  0  0  0  0  0  0  0
   -2.9873    1.9346    0.4354 C   0  0  2  0  0  0  0  0  0  0  0  0
   -3.7786    2.3547   -0.7962 C   0  0  0  0  0  0  0  0  0  0  0  0
   -3.2476    2.7474   -1.8329 O   0  0  0  0  0  0  0  0  0  0  0  0
   -2.7099    3.1279    1.3364 C   0  0  0  0  0  0  0  0  0  0  0  0
   -1.3309    1.6810   -0.8576 H   0  0  0  0  0  0  0  0  0  0  0  0
   -3.5450    1.1682    0.9846 H   0  0  0  0  0  0  0  0  0  0  0  0
   -2.1518    3.9063    0.8034 H   0  0  0  0  0  0  0  0  0  0  0  0
   -3.6408    3.5773    1.6976 H   0  0  0  0  0  0  0  0  0  0  0  0
   -2.1153    2.8294    2.2065 H   0  0  0  0  0  0  0  0  0  0  0  0
   -5.1486    2.2806   -0.5866 N   0  0  0  0  0  0  0  0  0  0  0  0
   -6.1128    2.6668   -1.5902 C   0  0  0  0  0  0  0  0  0  0  0  0
   -5.5005    1.9057    0.2893 H   0  0  0  0  0  0  0  0  0  0  0  0
   -6.3882    3.7222   -1.4478 H   0  0  0  0  0  0  0  0  0  0  0  0
   -5.6742    2.5342   -2.5902 H   0  0  0  0  0  0  0  0  0  0  0  0
   -7.0105    2.0380   -1.4972 H   0  0  0  0  0  0  0  0  0  0  0  0
  1  3  1  0  0  0  0
  1  7  1  0  0  0  0
  1  2  2  0  0  0  0
 42 43  1  0  0  0  0
 43 51  1  0  0  0  0
 43 44  2  0  0  0  0
  8  9  1  0  0  0  0
  9 17  1  0  0  0  0
  9 10  2  0  0  0  0
 18 19  1  0  0  0  0
 19 41  1  0  0  0  0
 19 20  2  0  0  0  0
 25 26  1  0  0  0  0
 25 27  1  0  0  0  0
 24 25  2  0  0  0  0
 42 45  1  0  0  0  0
  8 11  1  0  0  0  0
 51 52  1  0  0  0  0
 21 22  1  0  0  0  0
 22 23  1  0  0  0  0
 18 21  1  0  0  0  0
 23 24  1  0  0  0  0
 41 42  1  0  0  0  0
  7  8  1  0  0  0  0
 17 18  1  0  0  0  0
  3  4  1  0  0  0  0
  3  5  1  0  0  0  0
  3  6  1  0  0  0  0
 45 48  1  0  0  0  0
 45 49  1  0  0  0  0
 45 50  1  0  0  0  0
 11 14  1  0  0  0  0
 11 15  1  0  0  0  0
 11 16  1  0  0  0  0
 52 54  1  0  0  0  0
 52 55  1  0  0  0  0
 52 56  1  0  0  0  0
 22 32  1  0  0  0  0
 22 33  1  0  0  0  0
 21 30  1  0  0  0  0
 21 31  1  0  0  0  0
 23 34  1  0  0  0  0
 23 35  1  0  0  0  0
 42 47  1  0  0  0  0
  8 13  1  0  0  0  0
 18 29  1  0  0  0  0
 26 37  1  0  0  0  0
 26 38  1  0  0  0  0
 27 39  1  0  0  0  0
 27 40  1  0  0  0  0
 51 53  1  0  0  0  0
  7 12  1  0  0  0  0
 41 46  1  0  0  0  0
 17 28  1  0  0  0  0
 24 36  1  0  0  0  0
M  CHG  1  24   1
M  END
$$$$

  -OEChem-05262214473D

 56 55  0     1  0  0  0  0  0999 V2000
    0.7735   -5.8042   -2.0022 C   0  0  0  0  0  0  0  0  0  0  0  0
   -0.2086   -6.3825   -1.5519 O   0  0  0  0  0  0  0  0  0  0  0  0
    1.4751   -6.3646   -3.1946 C   0  0  0  0  0  0  0  0  0  0  0  0
    2.2765   -7.0687   -2.9186 H   0  0  0  0  0  0  0  0  0  0  0  0
    0.7988   -6.9360   -3.8504 H   0  0  0  0  0  0  0  0  0  0  0  0
    1.9556   -5.6216   -3.8511 H   0  0  0  0  0  0  0  0  0  0  0  0
    1.3322   -4.6359   -1.5106 N   0  0  0  0  0  0  0  0  0  0  0  0
    0.8124   -3.9290   -0.3698 C   0  0  2  0  0  0  0  0  0  0  0  0
    1.0666   -2.4424   -0.5818 C   0  0  0  0  0  0  0  0  0  0  0  0
    2.0598   -2.0076   -1.1610 O   0  0  0  0  0  0  0  0  0  0  0  0
    1.4560   -4.4118    0.9207 C   0  0  0  0  0  0  0  0  0  0  0  0
    2.1528   -4.2578   -1.9805 H   0  0  0  0  0  0  0  0  0  0  0  0
   -0.2667   -4.1160   -0.3467 H   0  0  0  0  0  0  0  0  0  0  0  0
    2.5374   -4.2329    0.9160 H   0  0  0  0  0  0  0  0  0  0  0  0
    1.0390   -3.8932    1.7903 H   0  0  0  0  0  0  0  0  0  0  0  0
    1.2976   -5.4871    1.0566 H   0  0  0  0  0  0  0  0  0  0  0  0
    0.0755   -1.6529   -0.0105 N   0  0  0  0  0  0  0  0  0  0  0  0
    0.1113   -0.2132   -0.0391 C   0  0  2  0  0  0  0  0  0  0  0  0
   -1.1345    0.2906    0.6817 C   0  0  0  0  0  0  0  0  0  0  0  0
   -1.3985   -0.0032    1.8458 O   0  0  0  0  0  0  0  0  0  0  0  0
    0.1600    0.3332   -1.4696 C   0  0  0  0  0  0  0  0  0  0  0  0
    1.4751   -0.0076   -2.1807 C   0  0  0  0  0  0  0  0  0  0  0  0
    1.5181    0.5387   -3.6040 C   0  0  0  0  0  0  0  0  0  0  0  0
    2.7628    0.1919   -4.2861 N   0  3  0  0  0  0  0  0  0  0  0  0
    3.0042    0.5303   -5.6189 C   0  0  0  0  0  0  0  0  0  0  0  0
    4.2128    0.1672   -6.2036 N   0  0  0  0  0  0  0  0  0  0  0  0
    2.0652    1.2226   -6.3765 N   0  0  0  0  0  0  0  0  0  0  0  0
   -0.7323   -2.1024    0.4149 H   0  0  0  0  0  0  0  0  0  0  0  0
    0.9994    0.0936    0.5251 H   0  0  0  0  0  0  0  0  0  0  0  0
    0.0306    1.4220   -1.4491 H   0  0  0  0  0  0  0  0  0  0  0  0
   -0.6819   -0.0676   -2.0494 H   0  0  0  0  0  0  0  0  0  0  0  0
    2.3183    0.3965   -1.6077 H   0  0  0  0  0  0  0  0  0  0  0  0
    1.5991   -1.0958   -2.2232 H   0  0  0  0  0  0  0  0  0  0  0  0
    0.6976    0.1102   -4.1877 H   0  0  0  0  0  0  0  0  0  0  0  0
    1.4208    1.6287   -3.6075 H   0  0  0  0  0  0  0  0  0  0  0  0
    3.4883   -0.3151   -3.7821 H   0  0  0  0  0  0  0  0  0  0  0  0
    4.4199    0.3987   -7.1723 H   0  0  0  0  0  0  0  0  0  0  0  0
    4.9211   -0.3396   -5.6784 H   0  0  0  0  0  0  0  0  0  0  0  0
    2.2360    1.4715   -7.3474 H   0  0  0  0  0  0  0  0  0  0  0  0
    1.1726    1.5008   -5.9756 H   0  0  0  0  0  0  0  0  0  0  0  0
   -1.9383    1.0648   -0.1435 N   0  0  0  0  0  0  0  0  0  0  0  0
   -3.2004    1.6217    0.2859 C   0  0  2  0  0  0  0  0  0  0  0  0
   -4.1271    1.6726   -0.9216 C   0  0  0  0  0  0  0  0  0  0  0  0
   -3.7287    1.8887   -2.0643 O   0  0  0  0  0  0  0  0  0  0  0  0
   -3.0179    3.0055    0.8897 C   0  0  0  0  0  0  0  0  0  0  0  0
   -1.6230    1.2829   -1.0841 H   0  0  0  0  0  0  0  0  0  0  0  0
   -3.6112    0.9345    1.0336 H   0  0  0  0  0  0  0  0  0  0  0  0
   -2.6070    3.7079    0.1553 H   0  0  0  0  0  0  0  0  0  0  0  0
   -3.9712    3.4142    1.2405 H   0  0  0  0  0  0  0  0  0  0  0  0
   -2.3278    2.9719    1.7396 H   0  0  0  0  0  0  0  0  0  0  0  0
   -5.4566    1.4911   -0.5672 N   0  0  0  0  0  0  0  0  0  0  0  0
   -6.5333    1.5390   -1.5286 C   0  0  0  0  0  0  0  0  0  0  0  0
   -5.6919    1.2777    0.3976 H   0  0  0  0  0  0  0  0  0  0  0  0
   -6.9341    2.5621   -1.5804 H   0  0  0  0  0  0  0  0  0  0  0  0
   -6.1546    1.2432   -2.5181 H   0  0  0  0  0  0  0  0  0  0  0  0
   -7.3314    0.8478   -1.2199 H   0  0  0  0  0  0  0  0  0  0  0  0
  1  3  1  0  0  0  0
  1  7  1  0  0  0  0
  1  2  2  0  0  0  0
 42 43  1  0  0  0  0
 43 51  1  0  0  0  0
 43 44  2  0  0  0  0
  8  9  1  0  0  0  0
  9 17  1  0  0  0  0
  9 10  2  0  0  0  0
 18 19  1  0  0  0  0
 19 41  1  0  0  0  0
 19 20  2  0  0  0  0
 25 26  1  0  0  0  0
 25 27  1  0  0  0  0
 24 25  2  0  0  0  0
 42 45  1  0  0  0  0
  8 11  1  0  0  0  0
 51 52  1  0  0  0  0
 21 22  1  0  0  0  0
 22 23  1  0  0  0  0
 18 21  1  0  0  0  0
 23 24  1  0  0  0  0
 41 42  1  0  0  0  0
  7  8  1  0  0  0  0
 17 18  1  0  0  0  0
  3  4  1  0  0  0  0
  3  5  1  0  0  0  0
  3  6  1  0  0  0  0
 45 48  1  0  0  0  0
 45 49  1  0  0  0  0
 45 50  1  0  0  0  0
 11 14  1  0  0  0  0
 11 15  1  0  0  0  0
 11 16  1  0  0  0  0
 52 54  1  0  0  0  0
 52 55  1  0  0  0  0
 52 56  1  0  0  0  0
 22 32  1  0  0  0  0
 22 33  1  0  0  0  0
 21 30  1  0  0  0  0
 21 31  1  0  0  0  0
 23 34  1  0  0  0  0
 23 35  1  0  0  0  0
 42 47  1  0  0  0  0
  8 13  1  0  0  0  0
 18 29  1  0  0  0  0
 26 37  1  0  0  0  0
 26 38  1  0  0  0  0
 27 39  1  0  0  0  0
 27 40  1  0  0  0  0
 51 53  1  0  0  0  0
  7 12  1  0  0  0  0
 41 46  1  0  0  0  0
 17 28  1  0  0  0  0
 24 36  1  0  0  0  0
M  CHG  1  24   1
M  END
$$$$

  -OEChem-05262214473D

 56 55  0     1  0  0  0  0  0999 V2000
    0.7735   -5.8042   -2.0022 C   0  0  0  0  0  0  0  0  0  0  0  0
   -0.2086   -6.3825   -1.5519 O   0  0  0  0  0  0  0  0  0  0  0  0
    1.4751   -6.3646   -3.1946 C   0  0  0  0  0  0  0  0  0  0  0  0
    2.2765   -7.0687   -2.9186 H   0  0  0  0  0  0  0  0  0  0  0  0
    0.7988   -6.9360   -3.8504 H   0  0  0  0  0  0  0  0  0  0  0  0
    1.9556   -5.6216   -3.8511 H   0  0  0  0  0  0  0  0  0  0  0  0
    1.3322   -4.6359   -1.5106 N   0  0  0  0  0  0  0  0  0  0  0  0
    0.8124   -3.9290   -0.3698 C   0  0  2  0  0  0  0  0  0  0  0  0
    1.0666   -2.4424   -0.5818 C   0  0  0  0  0  0  0  0  0  0  0  0
    2.0598   -2.0076   -1.1610 O   0  0  0  0  0  0  0  0  0  0  0  0
    1.4560   -4.4118    0.9207 C   0  0  0  0  0  0  0  0  0  0  0  0
    2.1528   -4.2578   -1.9805 H   0  0  0  0  0  0  0  0  0  0  0  0
   -0.2667   -4.1160   -0.3467 H   0  0  0  0  0  0  0  0  0  0  0  0
    2.5374   -4.2329    0.9160 H   0  0  0  0  0  0  0  0  0  0  0  0
    1.0390   -3.8932    1.7903 H   0  0  0  0  0  0  0  0  0  0  0  0
    1.2976   -5.4871    1.0566 H   0  0  0  0  0  0  0  0  0  0  0  0
    0.0755   -1.6529   -0.0105 N   0  0  0  0  0  0  0  0  0  0  0  0
    0.1113   -0.2132   -0.0391 C   0  0  2  0  0  0  0  0  0  0  0  0
   -1.1345    0.2906    0.6817 C   0  0  0  0  0  0  0  0  0  0  0  0
   -1.2726    0.2282    1.9016 O   0  0  0  0  0  0  0  0  0  0  0  0
    0.1600    0.3332   -1.4696 C   0  0  0  0  0  0  0  0  0  0  0  0
    1.4751   -0.0076   -2.1807 C   0  0  0  0  0  0  0  0  0  0  0  0
    1.5181    0.5387   -3.6040 C   0  0  0  0  0  0  0  0  0  0  0  0
    2.7628    0.1919   -4.2861 N   0  3  0  0  0  0  0  0  0  0  0  0
    3.0042    0.5303   -5.6189 C   0  0  0  0  0  0  0  0  0  0  0  0
    4.2128    0.1672   -6.2036 N   0  0  0  0  0  0  0  0  0  0  0  0
    2.0652    1.2226   -6.3765 N   0  0  0  0  0  0  0  0  0  0  0  0
   -0.7323   -2.1024    0.4149 H   0  0  0  0  0  0  0  0  0  0  0  0
    0.9994    0.0936    0.5251 H   0  0  0  0  0  0  0  0  0  0  0  0
    0.0306    1.4220   -1.4491 H   0  0  0  0  0  0  0  0  0  0  0  0
   -0.6819   -0.0676   -2.0494 H   0  0  0  0  0  0  0  0  0  0  0  0
    2.3183    0.3965   -1.6077 H   0  0  0  0  0  0  0  0  0  0  0  0
    1.5991   -1.0958   -2.2232 H   0  0  0  0  0  0  0  0  0  0  0  0
    0.6976    0.1102   -4.1877 H   0  0  0  0  0  0  0  0  0  0  0  0
    1.4208    1.6287   -3.6075 H   0  0  0  0  0  0  0  0  0  0  0  0
    3.4883   -0.3151   -3.7821 H   0  0  0  0  0  0  0  0  0  0  0  0
    4.4199    0.3987   -7.1723 H   0  0  0  0  0  0  0  0  0  0  0  0
    4.9211   -0.3396   -5.6784 H   0  0  0  0  0  0  0  0  0  0  0  0
    2.2360    1.4715   -7.3474 H   0  0  0  0  0  0  0  0  0  0  0  0
    1.1726    1.5008   -5.9756 H   0  0  0  0  0  0  0  0  0  0  0  0
   -2.0907    0.7715   -0.2019 N   0  0  0  0  0  0  0  0  0  0  0  0
   -3.3807    1.2618    0.2259 C   0  0  2  0  0  0  0  0  0  0  0  0
   -4.3910    0.9445   -0.8687 C   0  0  0  0  0  0  0  0  0  0  0  0
   -4.1082    0.9514   -2.0650 O   0  0  0  0  0  0  0  0  0  0  0  0
   -3.3386    2.7551    0.5104 C   0  0  0  0  0  0  0  0  0  0  0  0
   -1.8757    0.8148   -1.1937 H   0  0  0  0  0  0  0  0  0  0  0  0
   -3.6424    0.7110    1.1360 H   0  0  0  0  0  0  0  0  0  0  0  0
   -3.0779    3.3234   -0.3898 H   0  0  0  0  0  0  0  0  0  0  0  0
   -4.3095    3.1196    0.8618 H   0  0  0  0  0  0  0  0  0  0  0  0
   -2.5904    2.9848    1.2767 H   0  0  0  0  0  0  0  0  0  0  0  0
   -5.6559    0.6950   -0.3551 N   0  0  0  0  0  0  0  0  0  0  0  0
   -6.7963    0.4112   -1.1947 C   0  0  0  0  0  0  0  0  0  0  0  0
   -5.7906    0.6705    0.6514 H   0  0  0  0  0  0  0  0  0  0  0  0
   -7.3309    1.3466   -1.4164 H   0  0  0  0  0  0  0  0  0  0  0  0
   -6.4545   -0.0473   -2.1344 H   0  0  0  0  0  0  0  0  0  0  0  0
   -7.4721   -0.2824   -0.6729 H   0  0  0  0  0  0  0  0  0  0  0  0
  1  3  1  0  0  0  0
  1  7  1  0  0  0  0
  1  2  2  0  0  0  0
 42 43  1  0  0  0  0
 43 51  1  0  0  0  0
 43 44  2  0  0  0  0
  8  9  1  0  0  0  0
  9 17  1  0  0  0  0
  9 10  2  0  0  0  0
 18 19  1  0  0  0  0
 19 41  1  0  0  0  0
 19 20  2  0  0  0  0
 25 26  1  0  0  0  0
 25 27  1  0  0  0  0
 24 25  2  0  0  0  0
 42 45  1  0  0  0  0
  8 11  1  0  0  0  0
 51 52  1  0  0  0  0
 21 22  1  0  0  0  0
 22 23  1  0  0  0  0
 18 21  1  0  0  0  0
 23 24  1  0  0  0  0
 41 42  1  0  0  0  0
  7  8  1  0  0  0  0
 17 18  1  0  0  0  0
  3  4  1  0  0  0  0
  3  5  1  0  0  0  0
  3  6  1  0  0  0  0
 45 48  1  0  0  0  0
 45 49  1  0  0  0  0
 45 50  1  0  0  0  0
 11 14  1  0  0  0  0
 11 15  1  0  0  0  0
 11 16  1  0  0  0  0
 52 54  1  0  0  0  0
 52 55  1  0  0  0  0
 52 56  1  0  0  0  0
 22 32  1  0  0  0  0
 22 33  1  0  0  0  0
 21 30  1  0  0  0  0
 21 31  1  0  0  0  0
 23 34  1  0  0  0  0
 23 35  1  0  0  0  0
 42 47  1  0  0  0  0
  8 13  1  0  0  0  0
 18 29  1  0  0  0  0
 26 37  1  0  0  0  0
 26 38  1  0  0  0  0
 27 39  1  0  0  0  0
 27 40  1  0  0  0  0
 51 53  1  0  0  0  0
  7 12  1  0  0  0  0
 41 46  1  0  0  0  0
 17 28  1  0  0  0  0
 24 36  1  0  0  0  0
M  CHG  1  24   1
M  END
$$$$

  -OEChem-05262214473D

 56 55  0     1  0  0  0  0  0999 V2000
    0.7735   -5.8042   -2.0022 C   0  0  0  0  0  0  0  0  0  0  0  0
   -0.2086   -6.3825   -1.5519 O   0  0  0  0  0  0  0  0  0  0  0  0
    1.4751   -6.3646   -3.1946 C   0  0  0  0  0  0  0  0  0  0  0  0
    2.2765   -7.0687   -2.9186 H   0  0  0  0  0  0  0  0  0  0  0  0
    0.7988   -6.9360   -3.8504 H   0  0  0  0  0  0  0  0  0  0  0  0
    1.9556   -5.6216   -3.8511 H   0  0  0  0  0  0  0  0  0  0  0  0
    1.3322   -4.6359   -1.5106 N   0  0  0  0  0  0  0  0  0  0  0  0
    0.8124   -3.9290   -0.3698 C   0  0  2  0  0  0  0  0  0  0  0  0
    1.0666   -2.4424   -0.5818 C   0  0  0  0  0  0  0  0  0  0  0  0
    2.0598   -2.0076   -1.1610 O   0  0  0  0  0  0  0  0  0  0  0  0
    1.4560   -4.4118    0.9207 C   0  0  0  0  0  0  0  0  0  0  0  0
    2.1528   -4.2578   -1.9805 H   0  0  0  0  0  0  0  0  0  0  0  0
   -0.2667   -4.1160   -0.3467 H   0  0  0  0  0  0  0  0  0  0  0  0
    2.5374   -4.2329    0.9160 H   0  0  0  0  0  0  0  0  0  0  0  0
    1.0390   -3.8932    1.7903 H   0  0  0  0  0  0  0  0  0  0  0  0
    1.2976   -5.4871    1.0566 H   0  0  0  0  0  0  0  0  0  0  0  0
    0.0755   -1.6529   -0.0105 N   0  0  0  0  0  0  0  0  0  0  0  0
    0.1113   -0.2132   -0.0391 C   0  0  2  0  0  0  0  0  0  0  0  0
   -1.1345    0.2906    0.6817 C   0  0  0  0  0  0  0  0  0  0  0  0
   -1.1746    0.4789    1.8958 O   0  0  0  0  0  0  0  0  0  0  0  0
    0.1600    0.3332   -1.4696 C   0  0  0  0  0  0  0  0  0  0  0  0
    1.4751   -0.0076   -2.1807 C   0  0  0  0  0  0  0  0  0  0  0  0
    1.5181    0.5387   -3.6040 C   0  0  0  0  0  0  0  0  0  0  0  0
    2.7628    0.1919   -4.2861 N   0  3  0  0  0  0  0  0  0  0  0  0
    3.0042    0.5303   -5.6189 C   0  0  0  0  0  0  0  0  0  0  0  0
    4.2128    0.1672   -6.2036 N   0  0  0  0  0  0  0  0  0  0  0  0
    2.0652    1.2226   -6.3765 N   0  0  0  0  0  0  0  0  0  0  0  0
   -0.7323   -2.1024    0.4149 H   0  0  0  0  0  0  0  0  0  0  0  0
    0.9994    0.0936    0.5251 H   0  0  0  0  0  0  0  0  0  0  0  0
    0.0306    1.4220   -1.4491 H   0  0  0  0  0  0  0  0  0  0  0  0
   -0.6819   -0.0676   -2.0494 H   0  0  0  0  0  0  0  0  0  0  0  0
    2.3183    0.3965   -1.6077 H   0  0  0  0  0  0  0  0  0  0  0  0
    1.5991   -1.0958   -2.2232 H   0  0  0  0  0  0  0  0  0  0  0  0
    0.6976    0.1102   -4.1877 H   0  0  0  0  0  0  0  0  0  0  0  0
    1.4208    1.6287   -3.6075 H   0  0  0  0  0  0  0  0  0  0  0  0
    3.4883   -0.3151   -3.7821 H   0  0  0  0  0  0  0  0  0  0  0  0
    4.4199    0.3987   -7.1723 H   0  0  0  0  0  0  0  0  0  0  0  0
    4.9211   -0.3396   -5.6784 H   0  0  0  0  0  0  0  0  0  0  0  0
    2.2360    1.4715   -7.3474 H   0  0  0  0  0  0  0  0  0  0  0  0
    1.1726    1.5008   -5.9756 H   0  0  0  0  0  0  0  0  0  0  0  0
   -2.2070    0.4572   -0.1833 N   0  0  0  0  0  0  0  0  0  0  0  0
   -3.5160    0.8793    0.2594 C   0  0  2  0  0  0  0  0  0  0  0  0
   -4.5523    0.2201   -0.6412 C   0  0  0  0  0  0  0  0  0  0  0  0
   -4.3602   -0.0005   -1.8351 O   0  0  0  0  0  0  0  0  0  0  0  0
   -3.6501    2.3938    0.2245 C   0  0  0  0  0  0  0  0  0  0  0  0
   -2.0720    0.3085   -1.1790 H   0  0  0  0  0  0  0  0  0  0  0  0
   -3.6364    0.5130    1.2848 H   0  0  0  0  0  0  0  0  0  0  0  0
   -3.5324    2.7792   -0.7948 H   0  0  0  0  0  0  0  0  0  0  0  0
   -4.6326    2.7135    0.5873 H   0  0  0  0  0  0  0  0  0  0  0  0
   -2.8852    2.8673    0.8493 H   0  0  0  0  0  0  0  0  0  0  0  0
   -5.7329   -0.0536    0.0352 N   0  0  0  0  0  0  0  0  0  0  0  0
   -6.8837   -0.6398   -0.6112 C   0  0  0  0  0  0  0  0  0  0  0  0
   -5.7900    0.1256    1.0334 H   0  0  0  0  0  0  0  0  0  0  0  0
   -7.5514    0.1587   -0.9671 H   0  0  0  0  0  0  0  0  0  0  0  0
   -6.5536   -1.2493   -1.4653 H   0  0  0  0  0  0  0  0  0  0  0  0
   -7.4229   -1.2756    0.1064 H   0  0  0  0  0  0  0  0  0  0  0  0
  1  3  1  0  0  0  0
  1  7  1  0  0  0  0
  1  2  2  0  0  0  0
 42 43  1  0  0  0  0
 43 51  1  0  0  0  0
 43 44  2  0  0  0  0
  8  9  1  0  0  0  0
  9 17  1  0  0  0  0
  9 10  2  0  0  0  0
 18 19  1  0  0  0  0
 19 41  1  0  0  0  0
 19 20  2  0  0  0  0
 25 26  1  0  0  0  0
 25 27  1  0  0  0  0
 24 25  2  0  0  0  0
 42 45  1  0  0  0  0
  8 11  1  0  0  0  0
 51 52  1  0  0  0  0
 21 22  1  0  0  0  0
 22 23  1  0  0  0  0
 18 21  1  0  0  0  0
 23 24  1  0  0  0  0
 41 42  1  0  0  0  0
  7  8  1  0  0  0  0
 17 18  1  0  0  0  0
  3  4  1  0  0  0  0
  3  5  1  0  0  0  0
  3  6  1  0  0  0  0
 45 48  1  0  0  0  0
 45 49  1  0  0  0  0
 45 50  1  0  0  0  0
 11 14  1  0  0  0  0
 11 15  1  0  0  0  0
 11 16  1  0  0  0  0
 52 54  1  0  0  0  0
 52 55  1  0  0  0  0
 52 56  1  0  0  0  0
 22 32  1  0  0  0  0
 22 33  1  0  0  0  0
 21 30  1  0  0  0  0
 21 31  1  0  0  0  0
 23 34  1  0  0  0  0
 23 35  1  0  0  0  0
 42 47  1  0  0  0  0
  8 13  1  0  0  0  0
 18 29  1  0  0  0  0
 26 37  1  0  0  0  0
 26 38  1  0  0  0  0
 27 39  1  0  0  0  0
 27 40  1  0  0  0  0
 51 53  1  0  0  0  0
  7 12  1  0  0  0  0
 41 46  1  0  0  0  0
 17 28  1  0  0  0  0
 24 36  1  0  0  0  0
M  CHG  1  24   1
M  END
$$$$

  -OEChem-05262214473D

 56 55  0     1  0  0  0  0  0999 V2000
    0.7735   -5.8042   -2.0022 C   0  0  0  0  0  0  0  0  0  0  0  0
   -0.2086   -6.3825   -1.5519 O   0  0  0  0  0  0  0  0  0  0  0  0
    1.4751   -6.3646   -3.1946 C   0  0  0  0  0  0  0  0  0  0  0  0
    2.2765   -7.0687   -2.9186 H   0  0  0  0  0  0  0  0  0  0  0  0
    0.7988   -6.9360   -3.8504 H   0  0  0  0  0  0  0  0  0  0  0  0
    1.9556   -5.6216   -3.8511 H   0  0  0  0  0  0  0  0  0  0  0  0
    1.3322   -4.6359   -1.5106 N   0  0  0  0  0  0  0  0  0  0  0  0
    0.8124   -3.9290   -0.3698 C   0  0  2  0  0  0  0  0  0  0  0  0
    1.0666   -2.4424   -0.5818 C   0  0  0  0  0  0  0  0  0  0  0  0
    2.0598   -2.0076   -1.1610 O   0  0  0  0  0  0  0  0  0  0  0  0
    1.4560   -4.4118    0.9207 C   0  0  0  0  0  0  0  0  0  0  0  0
    2.1528   -4.2578   -1.9805 H   0  0  0  0  0  0  0  0  0  0  0  0
   -0.2667   -4.1160   -0.3467 H   0  0  0  0  0  0  0  0  0  0  0  0
    2.5374   -4.2329    0.9160 H   0  0  0  0  0  0  0  0  0  0  0  0
    1.0390   -3.8932    1.7903 H   0  0  0  0  0  0  0  0  0  0  0  0
    1.2976   -5.4871    1.0566 H   0  0  0  0  0  0  0  0  0  0  0  0
    0.0755   -1.6529   -0.0105 N   0  0  0  0  0  0  0  0  0  0  0  0
    0.1113   -0.2132   -0.0391 C   0  0  2  0  0  0  0  0  0  0  0  0
   -1.1345    0.2906    0.6817 C   0  0  0  0  0  0  0  0  0  0  0  0
   -1.1110    0.7318    1.8288 O   0  0  0  0  0  0  0  0  0  0  0  0
    0.1600    0.3332   -1.4696 C   0  0  0  0  0  0  0  0  0  0  0  0
    1.4751   -0.0076   -2.1807 C   0  0  0  0  0  0  0  0  0  0  0  0
    1.5181    0.5387   -3.6040 C   0  0  0  0  0  0  0  0  0  0  0  0
    2.7628    0.1919   -4.2861 N   0  3  0  0  0  0  0  0  0  0  0  0
    3.0042    0.5303   -5.6189 C   0  0  0  0  0  0  0  0  0  0  0  0
    4.2128    0.1672   -6.2036 N   0  0  0  0  0  0  0  0  0  0  0  0
    2.0652    1.2226   -6.3765 N   0  0  0  0  0  0  0  0  0  0  0  0
   -0.7323   -2.1024    0.4149 H   0  0  0  0  0  0  0  0  0  0  0  0
    0.9994    0.0936    0.5251 H   0  0  0  0  0  0  0  0  0  0  0  0
    0.0306    1.4220   -1.4491 H   0  0  0  0  0  0  0  0  0  0  0  0
   -0.6819   -0.0676   -2.0494 H   0  0  0  0  0  0  0  0  0  0  0  0
    2.3183    0.3965   -1.6077 H   0  0  0  0  0  0  0  0  0  0  0  0
    1.5991   -1.0958   -2.2232 H   0  0  0  0  0  0  0  0  0  0  0  0
    0.6976    0.1102   -4.1877 H   0  0  0  0  0  0  0  0  0  0  0  0
    1.4208    1.6287   -3.6075 H   0  0  0  0  0  0  0  0  0  0  0  0
    3.4883   -0.3151   -3.7821 H   0  0  0  0  0  0  0  0  0  0  0  0
    4.4199    0.3987   -7.1723 H   0  0  0  0  0  0  0  0  0  0  0  0
    4.9211   -0.3396   -5.6784 H   0  0  0  0  0  0  0  0  0  0  0  0
    2.2360    1.4715   -7.3474 H   0  0  0  0  0  0  0  0  0  0  0  0
    1.1726    1.5008   -5.9756 H   0  0  0  0  0  0  0  0  0  0  0  0
   -2.2794    0.1433   -0.0889 N   0  0  0  0  0  0  0  0  0  0  0  0
   -3.5970    0.5005    0.3842 C   0  0  2  0  0  0  0  0  0  0  0  0
   -4.6000   -0.4512   -0.2544 C   0  0  0  0  0  0  0  0  0  0  0  0
   -4.4674   -0.9021   -1.3902 O   0  0  0  0  0  0  0  0  0  0  0  0
   -3.9313    1.9462    0.0513 C   0  0  0  0  0  0  0  0  0  0  0  0
   -2.1983   -0.2014   -1.0409 H   0  0  0  0  0  0  0  0  0  0  0  0
   -3.5937    0.3539    1.4698 H   0  0  0  0  0  0  0  0  0  0  0  0
   -3.9394    2.1123   -1.0321 H   0  0  0  0  0  0  0  0  0  0  0  0
   -4.9185    2.2237    0.4356 H   0  0  0  0  0  0  0  0  0  0  0  0
   -3.1921    2.6274    0.4865 H   0  0  0  0  0  0  0  0  0  0  0  0
   -5.6823   -0.7035    0.5770 N   0  0  0  0  0  0  0  0  0  0  0  0
   -6.7898   -1.5423    0.1821 C   0  0  0  0  0  0  0  0  0  0  0  0
   -5.6901   -0.3199    1.5174 H   0  0  0  0  0  0  0  0  0  0  0  0
   -7.5806   -0.9207   -0.2631 H   0  0  0  0  0  0  0  0  0  0  0  0
   -6.4449   -2.2811   -0.5563 H   0  0  0  0  0  0  0  0  0  0  0  0
   -7.1872   -2.0643    1.0650 H   0  0  0  0  0  0  0  0  0  0  0  0
  1  3  1  0  0  0  0
  1  7  1  0  0  0  0
  1  2  2  0  0  0  0
 42 43  1  0  0  0  0
 43 51  1  0  0  0  0
 43 44  2  0  0  0  0
  8  9  1  0  0  0  0
  9 17  1  0  0  0  0
  9 10  2  0  0  0  0
 18 19  1  0  0  0  0
 19 41  1  0  0  0  0
 19 20  2  0  0  0  0
 25 26  1  0  0  0  0
 25 27  1  0  0  0  0
 24 25  2  0  0  0  0
 42 45  1  0  0  0  0
  8 11  1  0  0  0  0
 51 52  1  0  0  0  0
 21 22  1  0  0  0  0
 22 23  1  0  0  0  0
 18 21  1  0  0  0  0
 23 24  1  0  0  0  0
 41 42  1  0  0  0  0
  7  8  1  0  0  0  0
 17 18  1  0  0  0  0
  3  4  1  0  0  0  0
  3  5  1  0  0  0  0
  3  6  1  0  0  0  0
 45 48  1  0  0  0  0
 45 49  1  0  0  0  0
 45 50  1  0  0  0  0
 11 14  1  0  0  0  0
 11 15  1  0  0  0  0
 11 16  1  0  0  0  0
 52 54  1  0  0  0  0
 52 55  1  0  0  0  0
 52 56  1  0  0  0  0
 22 32  1  0  0  0  0
 22 33  1  0  0  0  0
 21 30  1  0  0  0  0
 21 31  1  0  0  0  0
 23 34  1  0  0  0  0
 23 35  1  0  0  0  0
 42 47  1  0  0  0  0
  8 13  1  0  0  0  0
 18 29  1  0  0  0  0
 26 37  1  0  0  0  0
 26 38  1  0  0  0  0
 27 39  1  0  0  0  0
 27 40  1  0  0  0  0
 51 53  1  0  0  0  0
  7 12  1  0  0  0  0
 41 46  1  0  0  0  0
 17 28  1  0  0  0  0
 24 36  1  0  0  0  0
M  CHG  1  24   1
M  END
$$$$

  -OEChem-05262214473D

 56 55  0     1  0  0  0  0  0999 V2000
    0.7735   -5.8042   -2.0022 C   0  0  0  0  0  0  0  0  0  0  0  0
   -0.2086   -6.3825   -1.5519 O   0  0  0  0  0  0  0  0  0  0  0  0
    1.4751   -6.3646   -3.1946 C   0  0  0  0  0  0  0  0  0  0  0  0
    2.2765   -7.0687   -2.9186 H   0  0  0  0  0  0  0  0  0  0  0  0
    0.7988   -6.9360   -3.8504 H   0  0  0  0  0  0  0  0  0  0  0  0
    1.9556   -5.6216   -3.8511 H   0  0  0  0  0  0  0  0  0  0  0  0
    1.3322   -4.6359   -1.5106 N   0  0  0  0  0  0  0  0  0  0  0  0
    0.8124   -3.9290   -0.3698 C   0  0  2  0  0  0  0  0  0  0  0  0
    1.0666   -2.4424   -0.5818 C   0  0  0  0  0  0  0  0  0  0  0  0
    2.0598   -2.0076   -1.1610 O   0  0  0  0  0  0  0  0  0  0  0  0
    1.4560   -4.4118    0.9207 C   0  0  0  0  0  0  0  0  0  0  0  0
    2.1528   -4.2578   -1.9805 H   0  0  0  0  0  0  0  0  0  0  0  0
   -0.2667   -4.1160   -0.3467 H   0  0  0  0  0  0  0  0  0  0  0  0
    2.5374   -4.2329    0.9160 H   0  0  0  0  0  0  0  0  0  0  0  0
    1.0390   -3.8932    1.7903 H   0  0  0  0  0  0  0  0  0  0  0  0
    1.2976   -5.4871    1.0566 H   0  0  0  0  0  0  0  0  0  0  0  0
    0.0755   -1.6529   -0.0105 N   0  0  0  0  0  0  0  0  0  0  0  0
    0.1113   -0.2132   -0.0391 C   0  0  2  0  0  0  0  0  0  0  0  0
   -1.1345    0.2906    0.6817 C   0  0  0  0  0  0  0  0  0  0  0  0
   -1.0863    0.9698    1.7052 O   0  0  0  0  0  0  0  0  0  0  0  0
    0.1600    0.3332   -1.4696 C   0  0  0  0  0  0  0  0  0  0  0  0
    1.4751   -0.0076   -2.1807 C   0  0  0  0  0  0  0  0  0  0  0  0
    1.5181    0.5387   -3.6040 C   0  0  0  0  0  0  0  0  0  0  0  0
    2.7628    0.1919   -4.2861 N   0  3  0  0  0  0  0  0  0  0  0  0
    3.0042    0.5303   -5.6189 C   0  0  0  0  0  0  0  0  0  0  0  0
    4.2128    0.1672   -6.2036 N   0  0  0  0  0  0  0  0  0  0  0  0
    2.0652    1.2226   -6.3765 N   0  0  0  0  0  0  0  0  0  0  0  0
   -0.7323   -2.1024    0.4149 H   0  0  0  0  0  0  0  0  0  0  0  0
    0.9994    0.0936    0.5251 H   0  0  0  0  0  0  0  0  0  0  0  0
    0.0306    1.4220   -1.4491 H   0  0  0  0  0  0  0  0  0  0  0  0
   -0.6819   -0.0676   -2.0494 H   0  0  0  0  0  0  0  0  0  0  0  0
    2.3183    0.3965   -1.6077 H   0  0  0  0  0  0  0  0  0  0  0  0
    1.5991   -1.0958   -2.2232 H   0  0  0  0  0  0  0  0  0  0  0  0
    0.6976    0.1102   -4.1877 H   0  0  0  0  0  0  0  0  0  0  0  0
    1.4208    1.6287   -3.6075 H   0  0  0  0  0  0  0  0  0  0  0  0
    3.4883   -0.3151   -3.7821 H   0  0  0  0  0  0  0  0  0  0  0  0
    4.4199    0.3987   -7.1723 H   0  0  0  0  0  0  0  0  0  0  0  0
    4.9211   -0.3396   -5.6784 H   0  0  0  0  0  0  0  0  0  0  0  0
    2.2360    1.4715   -7.3474 H   0  0  0  0  0  0  0  0  0  0  0  0
    1.1726    1.5008   -5.9756 H   0  0  0  0  0  0  0  0  0  0  0  0
   -2.3028   -0.1488    0.0748 N   0  0  0  0  0  0  0  0  0  0  0  0
   -3.6182    0.1510    0.5918 C   0  0  2  0  0  0  0  0  0  0  0  0
   -4.5309   -1.0236    0.2653 C   0  0  0  0  0  0  0  0  0  0  0  0
   -4.4227   -1.6921   -0.7607 O   0  0  0  0  0  0  0  0  0  0  0  0
   -4.1630    1.4429    0.0027 C   0  0  0  0  0  0  0  0  0  0  0  0
   -2.2462   -0.6803   -0.7889 H   0  0  0  0  0  0  0  0  0  0  0  0
   -3.5171    0.2446    1.6786 H   0  0  0  0  0  0  0  0  0  0  0  0
   -4.2712    1.3682   -1.0855 H   0  0  0  0  0  0  0  0  0  0  0  0
   -5.1476    1.6836    0.4170 H   0  0  0  0  0  0  0  0  0  0  0  0
   -3.4903    2.2813    0.2131 H   0  0  0  0  0  0  0  0  0  0  0  0
   -5.5075   -1.2106    1.2334 N   0  0  0  0  0  0  0  0  0  0  0  0
   -6.5207   -2.2348    1.1311 C   0  0  0  0  0  0  0  0  0  0  0  0
   -5.4977   -0.6356    2.0707 H   0  0  0  0  0  0  0  0  0  0  0  0
   -7.4166   -1.8180    0.6476 H   0  0  0  0  0  0  0  0  0  0  0  0
   -6.1361   -3.0722    0.5305 H   0  0  0  0  0  0  0  0  0  0  0  0
   -6.7812   -2.5945    2.1375 H   0  0  0  0  0  0  0  0  0  0  0  0
  1  3  1  0  0  0  0
  1  7  1  0  0  0  0
  1  2  2  0  0  0  0
 42 43  1  0  0  0  0
 43 51  1  0  0  0  0
 43 44  2  0  0  0  0
  8  9  1  0  0  0  0
  9 17  1  0  0  0  0
  9 10  2  0  0  0  0
 18 19  1  0  0  0  0
 19 41  1  0  0  0  0
 19 20  2  0  0  0  0
 25 26  1  0  0  0  0
 25 27  1  0  0  0  0
 24 25  2  0  0  0  0
 42 45  1  0  0  0  0
  8 11  1  0  0  0  0
 51 52  1  0  0  0  0
 21 22  1  0  0  0  0
 22 23  1  0  0  0  0
 18 21  1  0  0  0  0
 23 24  1  0  0  0  0
 41 42  1  0  0  0  0
  7  8  1  0  0  0  0
 17 18  1  0  0  0  0
  3  4  1  0  0  0  0
  3  5  1  0  0  0  0
  3  6  1  0  0  0  0
 45 48  1  0  0  0  0
 45 49  1  0  0  0  0
 45 50  1  0  0  0  0
 11 14  1  0  0  0  0
 11 15  1  0  0  0  0
 11 16  1  0  0  0  0
 52 54  1  0  0  0  0
 52 55  1  0  0  0  0
 52 56  1  0  0  0  0
 22 32  1  0  0  0  0
 22 33  1  0  0  0  0
 21 30  1  0  0  0  0
 21 31  1  0  0  0  0
 23 34  1  0  0  0  0
 23 35  1  0  0  0  0
 42 47  1  0  0  0  0
  8 13  1  0  0  0  0
 18 29  1  0  0  0  0
 26 37  1  0  0  0  0
 26 38  1  0  0  0  0
 27 39  1  0  0  0  0
 27 40  1  0  0  0  0
 51 53  1  0  0  0  0
  7 12  1  0  0  0  0
 41 46  1  0  0  0  0
 17 28  1  0  0  0  0
 24 36  1  0  0  0  0
M  CHG  1  24   1
M  END
$$$$

  -OEChem-05262214473D

 56 55  0     1  0  0  0  0  0999 V2000
    0.7735   -5.8042   -2.0022 C   0  0  0  0  0  0  0  0  0  0  0  0
   -0.2086   -6.3825   -1.5519 O   0  0  0  0  0  0  0  0  0  0  0  0
    1.4751   -6.3646   -3.1946 C   0  0  0  0  0  0  0  0  0  0  0  0
    2.2765   -7.0687   -2.9186 H   0  0  0  0  0  0  0  0  0  0  0  0
    0.7988   -6.9360   -3.8504 H   0  0  0  0  0  0  0  0  0  0  0  0
    1.9556   -5.6216   -3.8511 H   0  0  0  0  0  0  0  0  0  0  0  0
    1.3322   -4.6359   -1.5106 N   0  0  0  0  0  0  0  0  0  0  0  0
    0.8124   -3.9290   -0.3698 C   0  0  2  0  0  0  0  0  0  0  0  0
    1.0666   -2.4424   -0.5818 C   0  0  0  0  0  0  0  0  0  0  0  0
    2.0598   -2.0076   -1.1610 O   0  0  0  0  0  0  0  0  0  0  0  0
    1.4560   -4.4118    0.9207 C   0  0  0  0  0  0  0  0  0  0  0  0
    2.1528   -4.2578   -1.9805 H   0  0  0  0  0  0  0  0  0  0  0  0
   -0.2667   -4.1160   -0.3467 H   0  0  0  0  0  0  0  0  0  0  0  0
    2.5374   -4.2329    0.9160 H   0  0  0  0  0  0  0  0  0  0  0  0
    1.0390   -3.8932    1.7903 H   0  0  0  0  0  0  0  0  0  0  0  0
    1.2976   -5.4871    1.0566 H   0  0  0  0  0  0  0  0  0  0  0  0
    0.0755   -1.6529   -0.0105 N   0  0  0  0  0  0  0  0  0  0  0  0
    0.1113   -0.2132   -0.0391 C   0  0  2  0  0  0  0  0  0  0  0  0
   -1.1345    0.2906    0.6817 C   0  0  0  0  0  0  0  0  0  0  0  0
   -1.1021    1.1765    1.5334 O   0  0  0  0  0  0  0  0  0  0  0  0
    0.1600    0.3332   -1.4696 C   0  0  0  0  0  0  0  0  0  0  0  0
    1.4751   -0.0076   -2.1807 C   0  0  0  0  0  0  0  0  0  0  0  0
    1.5181    0.5387   -3.6040 C   0  0  0  0  0  0  0  0  0  0  0  0
    2.7628    0.1919   -4.2861 N   0  3  0  0  0  0  0  0  0  0  0  0
    3.0042    0.5303   -5.6189 C   0  0  0  0  0  0  0  0  0  0  0  0
    4.2128    0.1672   -6.2036 N   0  0  0  0  0  0  0  0  0  0  0  0
    2.0652    1.2226   -6.3765 N   0  0  0  0  0  0  0  0  0  0  0  0
   -0.7323   -2.1024    0.4149 H   0  0  0  0  0  0  0  0  0  0  0  0
    0.9994    0.0936    0.5251 H   0  0  0  0  0  0  0  0  0  0  0  0
    0.0306    1.4220   -1.4491 H   0  0  0  0  0  0  0  0  0  0  0  0
   -0.6819   -0.0676   -2.0494 H   0  0  0  0  0  0  0  0  0  0  0  0
    2.3183    0.3965   -1.6077 H   0  0  0  0  0  0  0  0  0  0  0  0
    1.5991   -1.0958   -2.2232 H   0  0  0  0  0  0  0  0  0  0  0  0
    0.6976    0.1102   -4.1877 H   0  0  0  0  0  0  0  0  0  0  0  0
    1.4208    1.6287   -3.6075 H   0  0  0  0  0  0  0  0  0  0  0  0
    3.4883   -0.3151   -3.7821 H   0  0  0  0  0  0  0  0  0  0  0  0
    4.4199    0.3987   -7.1723 H   0  0  0  0  0  0  0  0  0  0  0  0
    4.9211   -0.3396   -5.6784 H   0  0  0  0  0  0  0  0  0  0  0  0
    2.2360    1.4715   -7.3474 H   0  0  0  0  0  0  0  0  0  0  0  0
    1.1726    1.5008   -5.9756 H   0  0  0  0  0  0  0  0  0  0  0  0
   -2.2757   -0.3992    0.2967 N   0  0  0  0  0  0  0  0  0  0  0  0
   -3.5782   -0.1452    0.8681 C   0  0  2  0  0  0  0  0  0  0  0  0
   -4.3496   -1.4583    0.8823 C   0  0  0  0  0  0  0  0  0  0  0  0
   -4.2290   -2.3166    0.0107 O   0  0  0  0  0  0  0  0  0  0  0  0
   -4.3294    0.9181    0.0821 C   0  0  0  0  0  0  0  0  0  0  0  0
   -2.2123   -1.0953   -0.4402 H   0  0  0  0  0  0  0  0  0  0  0  0
   -3.4119    0.1925    1.8968 H   0  0  0  0  0  0  0  0  0  0  0  0
   -4.5053    0.5975   -0.9513 H   0  0  0  0  0  0  0  0  0  0  0  0
   -5.3045    1.1299    0.5329 H   0  0  0  0  0  0  0  0  0  0  0  0
   -3.7594    1.8528    0.0476 H   0  0  0  0  0  0  0  0  0  0  0  0
   -5.2206   -1.5402    1.9598 N   0  0  0  0  0  0  0  0  0  0  0  0
   -6.0950   -2.6701    2.1713 C   0  0  0  0  0  0  0  0  0  0  0  0
   -5.2259   -0.8000    2.6554 H   0  0  0  0  0  0  0  0  0  0  0  0
   -7.0705   -2.4722    1.7031 H   0  0  0  0  0  0  0  0  0  0  0  0
   -5.6480   -3.5688    1.7212 H   0  0  0  0  0  0  0  0  0  0  0  0
   -6.2323   -2.8302    3.2509 H   0  0  0  0  0  0  0  0  0  0  0  0
  1  3  1  0  0  0  0
  1  7  1  0  0  0  0
  1  2  2  0  0  0  0
 42 43  1  0  0  0  0
 43 51  1  0  0  0  0
 43 44  2  0  0  0  0
  8  9  1  0  0  0  0
  9 17  1  0  0  0  0
  9 10  2  0  0  0  0
 18 19  1  0  0  0  0
 19 41  1  0  0  0  0
 19 20  2  0  0  0  0
 25 26  1  0  0  0  0
 25 27  1  0  0  0  0
 24 25  2  0  0  0  0
 42 45  1  0  0  0  0
  8 11  1  0  0  0  0
 51 52  1  0  0  0  0
 21 22  1  0  0  0  0
 22 23  1  0  0  0  0
 18 21  1  0  0  0  0
 23 24  1  0  0  0  0
 41 42  1  0  0  0  0
  7  8  1  0  0  0  0
 17 18  1  0  0  0  0
  3  4  1  0  0  0  0
  3  5  1  0  0  0  0
  3  6  1  0  0  0  0
 45 48  1  0  0  0  0
 45 49  1  0  0  0  0
 45 50  1  0  0  0  0
 11 14  1  0  0  0  0
 11 15  1  0  0  0  0
 11 16  1  0  0  0  0
 52 54  1  0  0  0  0
 52 55  1  0  0  0  0
 52 56  1  0  0  0  0
 22 32  1  0  0  0  0
 22 33  1  0  0  0  0
 21 30  1  0  0  0  0
 21 31  1  0  0  0  0
 23 34  1  0  0  0  0
 23 35  1  0  0  0  0
 42 47  1  0  0  0  0
  8 13  1  0  0  0  0
 18 29  1  0  0  0  0
 26 37  1  0  0  0  0
 26 38  1  0  0  0  0
 27 39  1  0  0  0  0
 27 40  1  0  0  0  0
 51 53  1  0  0  0  0
  7 12  1  0  0  0  0
 41 46  1  0  0  0  0
 17 28  1  0  0  0  0
 24 36  1  0  0  0  0
M  CHG  1  24   1
M  END
$$$$

  -OEChem-05262214473D

 56 55  0     1  0  0  0  0  0999 V2000
    0.7735   -5.8042   -2.0022 C   0  0  0  0  0  0  0  0  0  0  0  0
   -0.2086   -6.3825   -1.5519 O   0  0  0  0  0  0  0  0  0  0  0  0
    1.4751   -6.3646   -3.1946 C   0  0  0  0  0  0  0  0  0  0  0  0
    2.2765   -7.0687   -2.9186 H   0  0  0  0  0  0  0  0  0  0  0  0
    0.7988   -6.9360   -3.8504 H   0  0  0  0  0  0  0  0  0  0  0  0
    1.9556   -5.6216   -3.8511 H   0  0  0  0  0  0  0  0  0  0  0  0
    1.3322   -4.6359   -1.5106 N   0  0  0  0  0  0  0  0  0  0  0  0
    0.8124   -3.9290   -0.3698 C   0  0  2  0  0  0  0  0  0  0  0  0
    1.0666   -2.4424   -0.5818 C   0  0  0  0  0  0  0  0  0  0  0  0
    2.0598   -2.0076   -1.1610 O   0  0  0  0  0  0  0  0  0  0  0  0
    1.4560   -4.4118    0.9207 C   0  0  0  0  0  0  0  0  0  0  0  0
    2.1528   -4.2578   -1.9805 H   0  0  0  0  0  0  0  0  0  0  0  0
   -0.2667   -4.1160   -0.3467 H   0  0  0  0  0  0  0  0  0  0  0  0
    2.5374   -4.2329    0.9160 H   0  0  0  0  0  0  0  0  0  0  0  0
    1.0390   -3.8932    1.7903 H   0  0  0  0  0  0  0  0  0  0  0  0
    1.2976   -5.4871    1.0566 H   0  0  0  0  0  0  0  0  0  0  0  0
    0.0755   -1.6529   -0.0105 N   0  0  0  0  0  0  0  0  0  0  0  0
    0.1113   -0.2132   -0.0391 C   0  0  2  0  0  0  0  0  0  0  0  0
   -1.1345    0.2906    0.6817 C   0  0  0  0  0  0  0  0  0  0  0  0
   -1.1574    1.3379    1.3251 O   0  0  0  0  0  0  0  0  0  0  0  0
    0.1600    0.3332   -1.4696 C   0  0  0  0  0  0  0  0  0  0  0  0
    1.4751   -0.0076   -2.1807 C   0  0  0  0  0  0  0  0  0  0  0  0
    1.5181    0.5387   -3.6040 C   0  0  0  0  0  0  0  0  0  0  0  0
    2.7628    0.1919   -4.2861 N   0  3  0  0  0  0  0  0  0  0  0  0
    3.0042    0.5303   -5.6189 C   0  0  0  0  0  0  0  0  0  0  0  0
    4.2128    0.1672   -6.2036 N   0  0  0  0  0  0  0  0  0  0  0  0
    2.0652    1.2226   -6.3765 N   0  0  0  0  0  0  0  0  0  0  0  0
   -0.7323   -2.1024    0.4149 H   0  0  0  0  0  0  0  0  0  0  0  0
    0.9994    0.0936    0.5251 H   0  0  0  0  0  0  0  0  0  0  0  0
    0.0306    1.4220   -1.4491 H   0  0  0  0  0  0  0  0  0  0  0  0
   -0.6819   -0.0676   -2.0494 H   0  0  0  0  0  0  0  0  0  0  0  0
    2.3183    0.3965   -1.6077 H   0  0  0  0  0  0  0  0  0  0  0  0
    1.5991   -1.0958   -2.2232 H   0  0  0  0  0  0  0  0  0  0  0  0
    0.6976    0.1102   -4.1877 H   0  0  0  0  0  0  0  0  0  0  0  0
    1.4208    1.6287   -3.6075 H   0  0  0  0  0  0  0  0  0  0  0  0
    3.4883   -0.3151   -3.7821 H   0  0  0  0  0  0  0  0  0  0  0  0
    4.4199    0.3987   -7.1723 H   0  0  0  0  0  0  0  0  0  0  0  0
    4.9211   -0.3396   -5.6784 H   0  0  0  0  0  0  0  0  0  0  0  0
    2.2360    1.4715   -7.3474 H   0  0  0  0  0  0  0  0  0  0  0  0
    1.1726    1.5008   -5.9756 H   0  0  0  0  0  0  0  0  0  0  0  0
   -2.1998   -0.5908    0.5617 N   0  0  0  0  0  0  0  0  0  0  0  0
   -3.4797   -0.3681    1.1941 C   0  0  2  0  0  0  0  0  0  0  0  0
   -4.0686   -1.7255    1.5547 C   0  0  0  0  0  0  0  0  0  0  0  0
   -3.8995   -2.7330    0.8712 O   0  0  0  0  0  0  0  0  0  0  0  0
   -4.4191    0.4076    0.2839 C   0  0  0  0  0  0  0  0  0  0  0  0
   -2.0990   -1.4184   -0.0185 H   0  0  0  0  0  0  0  0  0  0  0  0
   -3.2852    0.2012    2.1096 H   0  0  0  0  0  0  0  0  0  0  0  0
   -4.6256   -0.1471   -0.6387 H   0  0  0  0  0  0  0  0  0  0  0  0
   -5.3784    0.6003    0.7753 H   0  0  0  0  0  0  0  0  0  0  0  0
   -3.9810    1.3709    0.0014 H   0  0  0  0  0  0  0  0  0  0  0  0
   -4.8410   -1.6699    2.7065 N   0  0  0  0  0  0  0  0  0  0  0  0
   -5.5415   -2.8186    3.2316 C   0  0  0  0  0  0  0  0  0  0  0  0
   -4.8932   -0.8020    3.2317 H   0  0  0  0  0  0  0  0  0  0  0  0
   -6.5659   -2.8385    2.8312 H   0  0  0  0  0  0  0  0  0  0  0  0
   -5.0140   -3.7370    2.9346 H   0  0  0  0  0  0  0  0  0  0  0  0
   -5.5781   -2.7554    4.3292 H   0  0  0  0  0  0  0  0  0  0  0  0
  1  3  1  0  0  0  0
  1  7  1  0  0  0  0
  1  2  2  0  0  0  0
 42 43  1  0  0  0  0
 43 51  1  0  0  0  0
 43 44  2  0  0  0  0
  8  9  1  0  0  0  0
  9 17  1  0  0  0  0
  9 10  2  0  0  0  0
 18 19  1  0  0  0  0
 19 41  1  0  0  0  0
 19 20  2  0  0  0  0
 25 26  1  0  0  0  0
 25 27  1  0  0  0  0
 24 25  2  0  0  0  0
 42 45  1  0  0  0  0
  8 11  1  0  0  0  0
 51 52  1  0  0  0  0
 21 22  1  0  0  0  0
 22 23  1  0  0  0  0
 18 21  1  0  0  0  0
 23 24  1  0  0  0  0
 41 42  1  0  0  0  0
  7  8  1  0  0  0  0
 17 18  1  0  0  0  0
  3  4  1  0  0  0  0
  3  5  1  0  0  0  0
  3  6  1  0  0  0  0
 45 48  1  0  0  0  0
 45 49  1  0  0  0  0
 45 50  1  0  0  0  0
 11 14  1  0  0  0  0
 11 15  1  0  0  0  0
 11 16  1  0  0  0  0
 52 54  1  0  0  0  0
 52 55  1  0  0  0  0
 52 56  1  0  0  0  0
 22 32  1  0  0  0  0
 22 33  1  0  0  0  0
 21 30  1  0  0  0  0
 21 31  1  0  0  0  0
 23 34  1  0  0  0  0
 23 35  1  0  0  0  0
 42 47  1  0  0  0  0
  8 13  1  0  0  0  0
 18 29  1  0  0  0  0
 26 37  1  0  0  0  0
 26 38  1  0  0  0  0
 27 39  1  0  0  0  0
 27 40  1  0  0  0  0
 51 53  1  0  0  0  0
  7 12  1  0  0  0  0
 41 46  1  0  0  0  0
 17 28  1  0  0  0  0
 24 36  1  0  0  0  0
M  CHG  1  24   1
M  END
$$$$

  -OEChem-05262214473D

 56 55  0     1  0  0  0  0  0999 V2000
    0.7735   -5.8042   -2.0022 C   0  0  0  0  0  0  0  0  0  0  0  0
   -0.2086   -6.3825   -1.5519 O   0  0  0  0  0  0  0  0  0  0  0  0
    1.4751   -6.3646   -3.1946 C   0  0  0  0  0  0  0  0  0  0  0  0
    2.2765   -7.0687   -2.9186 H   0  0  0  0  0  0  0  0  0  0  0  0
    0.7988   -6.9360   -3.8504 H   0  0  0  0  0  0  0  0  0  0  0  0
    1.9556   -5.6216   -3.8511 H   0  0  0  0  0  0  0  0  0  0  0  0
    1.3322   -4.6359   -1.5106 N   0  0  0  0  0  0  0  0  0  0  0  0
    0.8124   -3.9290   -0.3698 C   0  0  2  0  0  0  0  0  0  0  0  0
    1.0666   -2.4424   -0.5818 C   0  0  0  0  0  0  0  0  0  0  0  0
    2.0598   -2.0076   -1.1610 O   0  0  0  0  0  0  0  0  0  0  0  0
    1.4560   -4.4118    0.9207 C   0  0  0  0  0  0  0  0  0  0  0  0
    2.1528   -4.2578   -1.9805 H   0  0  0  0  0  0  0  0  0  0  0  0
   -0.2667   -4.1160   -0.3467 H   0  0  0  0  0  0  0  0  0  0  0  0
    2.5374   -4.2329    0.9160 H   0  0  0  0  0  0  0  0  0  0  0  0
    1.0390   -3.8932    1.7903 H   0  0  0  0  0  0  0  0  0  0  0  0
    1.2976   -5.4871    1.0566 H   0  0  0  0  0  0  0  0  0  0  0  0
    0.0755   -1.6529   -0.0105 N   0  0  0  0  0  0  0  0  0  0  0  0
    0.1113   -0.2132   -0.0391 C   0  0  2  0  0  0  0  0  0  0  0  0
   -1.1345    0.2906    0.6817 C   0  0  0  0  0  0  0  0  0  0  0  0
   -1.2483    1.4430    1.0945 O   0  0  0  0  0  0  0  0  0  0  0  0
    0.1600    0.3332   -1.4696 C   0  0  0  0  0  0  0  0  0  0  0  0
    1.4751   -0.0076   -2.1807 C   0  0  0  0  0  0  0  0  0  0  0  0
    1.5181    0.5387   -3.6040 C   0  0  0  0  0  0  0  0  0  0  0  0
    2.7628    0.1919   -4.2861 N   0  3  0  0  0  0  0  0  0  0  0  0
    3.0042    0.5303   -5.6189 C   0  0  0  0  0  0  0  0  0  0  0  0
    4.2128    0.1672   -6.2036 N   0  0  0  0  0  0  0  0  0  0  0  0
    2.0652    1.2226   -6.3765 N   0  0  0  0  0  0  0  0  0  0  0  0
   -0.7323   -2.1024    0.4149 H   0  0  0  0  0  0  0  0  0  0  0  0
    0.9994    0.0936    0.5251 H   0  0  0  0  0  0  0  0  0  0  0  0
    0.0306    1.4220   -1.4491 H   0  0  0  0  0  0  0  0  0  0  0  0
   -0.6819   -0.0676   -2.0494 H   0  0  0  0  0  0  0  0  0  0  0  0
    2.3183    0.3965   -1.6077 H   0  0  0  0  0  0  0  0  0  0  0  0
    1.5991   -1.0958   -2.2232 H   0  0  0  0  0  0  0  0  0  0  0  0
    0.6976    0.1102   -4.1877 H   0  0  0  0  0  0  0  0  0  0  0  0
    1.4208    1.6287   -3.6075 H   0  0  0  0  0  0  0  0  0  0  0  0
    3.4883   -0.3151   -3.7821 H   0  0  0  0  0  0  0  0  0  0  0  0
    4.4199    0.3987   -7.1723 H   0  0  0  0  0  0  0  0  0  0  0  0
    4.9211   -0.3396   -5.6784 H   0  0  0  0  0  0  0  0  0  0  0  0
    2.2360    1.4715   -7.3474 H   0  0  0  0  0  0  0  0  0  0  0  0
    1.1726    1.5008   -5.9756 H   0  0  0  0  0  0  0  0  0  0  0  0
   -2.0805   -0.7106    0.8517 N   0  0  0  0  0  0  0  0  0  0  0  0
   -3.3294   -0.5023    1.5477 C   0  0  2  0  0  0  0  0  0  0  0  0
   -3.7070   -1.8070    2.2367 C   0  0  0  0  0  0  0  0  0  0  0  0
   -3.4568   -2.9130    1.7622 O   0  0  0  0  0  0  0  0  0  0  0  0
   -4.4260   -0.0538    0.5944 C   0  0  0  0  0  0  0  0  0  0  0  0
   -1.9139   -1.6274    0.4475 H   0  0  0  0  0  0  0  0  0  0  0  0
   -3.1458    0.2701    2.3025 H   0  0  0  0  0  0  0  0  0  0  0  0
   -4.6240   -0.8150   -0.1691 H   0  0  0  0  0  0  0  0  0  0  0  0
   -5.3643    0.1311    1.1278 H   0  0  0  0  0  0  0  0  0  0  0  0
   -4.1400    0.8687    0.0776 H   0  0  0  0  0  0  0  0  0  0  0  0
   -4.3946   -1.5908    3.4228 N   0  0  0  0  0  0  0  0  0  0  0  0
   -4.8981   -2.6701    4.2399 C   0  0  0  0  0  0  0  0  0  0  0  0
   -4.5224   -0.6414    3.7603 H   0  0  0  0  0  0  0  0  0  0  0  0
   -5.9372   -2.8921    3.9553 H   0  0  0  0  0  0  0  0  0  0  0  0
   -4.2772   -3.5653    4.0879 H   0  0  0  0  0  0  0  0  0  0  0  0
   -4.8632   -2.3750    5.2990 H   0  0  0  0  0  0  0  0  0  0  0  0
  1  3  1  0  0  0  0
  1  7  1  0  0  0  0
  1  2  2  0  0  0  0
 42 43  1  0  0  0  0
 43 51  1  0  0  0  0
 43 44  2  0  0  0  0
  8  9  1  0  0  0  0
  9 17  1  0  0  0  0
  9 10  2  0  0  0  0
 18 19  1  0  0  0  0
 19 41  1  0  0  0  0
 19 20  2  0  0  0  0
 25 26  1  0  0  0  0
 25 27  1  0  0  0  0
 24 25  2  0  0  0  0
 42 45  1  0  0  0  0
  8 11  1  0  0  0  0
 51 52  1  0  0  0  0
 21 22  1  0  0  0  0
 22 23  1  0  0  0  0
 18 21  1  0  0  0  0
 23 24  1  0  0  0  0
 41 42  1  0  0  0  0
  7  8  1  0  0  0  0
 17 18  1  0  0  0  0
  3  4  1  0  0  0  0
  3  5  1  0  0  0  0
  3  6  1  0  0  0  0
 45 48  1  0  0  0  0
 45 49  1  0  0  0  0
 45 50  1  0  0  0  0
 11 14  1  0  0  0  0
 11 15  1  0  0  0  0
 11 16  1  0  0  0  0
 52 54  1  0  0  0  0
 52 55  1  0  0  0  0
 52 56  1  0  0  0  0
 22 32  1  0  0  0  0
 22 33  1  0  0  0  0
 21 30  1  0  0  0  0
 21 31  1  0  0  0  0
 23 34  1  0  0  0  0
 23 35  1  0  0  0  0
 42 47  1  0  0  0  0
  8 13  1  0  0  0  0
 18 29  1  0  0  0  0
 26 37  1  0  0  0  0
 26 38  1  0  0  0  0
 27 39  1  0  0  0  0
 27 40  1  0  0  0  0
 51 53  1  0  0  0  0
  7 12  1  0  0  0  0
 41 46  1  0  0  0  0
 17 28  1  0  0  0  0
 24 36  1  0  0  0  0
M  CHG  1  24   1
M  END
$$$$

  -OEChem-05262214473D

 56 55  0     1  0  0  0  0  0999 V2000
    0.7735   -5.8042   -2.0022 C   0  0  0  0  0  0  0  0  0  0  0  0
   -0.2086   -6.3825   -1.5519 O   0  0  0  0  0  0  0  0  0  0  0  0
    1.4751   -6.3646   -3.1946 C   0  0  0  0  0  0  0  0  0  0  0  0
    2.2765   -7.0687   -2.9186 H   0  0  0  0  0  0  0  0  0  0  0  0
    0.7988   -6.9360   -3.8504 H   0  0  0  0  0  0  0  0  0  0  0  0
    1.9556   -5.6216   -3.8511 H   0  0  0  0  0  0  0  0  0  0  0  0
    1.3322   -4.6359   -1.5106 N   0  0  0  0  0  0  0  0  0  0  0  0
    0.8124   -3.9290   -0.3698 C   0  0  2  0  0  0  0  0  0  0  0  0
    1.0666   -2.4424   -0.5818 C   0  0  0  0  0  0  0  0  0  0  0  0
    2.0598   -2.0076   -1.1610 O   0  0  0  0  0  0  0  0  0  0  0  0
    1.4560   -4.4118    0.9207 C   0  0  0  0  0  0  0  0  0  0  0  0
    2.1528   -4.2578   -1.9805 H   0  0  0  0  0  0  0  0  0  0  0  0
   -0.2667   -4.1160   -0.3467 H   0  0  0  0  0  0  0  0  0  0  0  0
    2.5374   -4.2329    0.9160 H   0  0  0  0  0  0  0  0  0  0  0  0
    1.0390   -3.8932    1.7903 H   0  0  0  0  0  0  0  0  0  0  0  0
    1.2976   -5.4871    1.0566 H   0  0  0  0  0  0  0  0  0  0  0  0
    0.0755   -1.6529   -0.0105 N   0  0  0  0  0  0  0  0  0  0  0  0
    0.1113   -0.2132   -0.0391 C   0  0  2  0  0  0  0  0  0  0  0  0
   -1.1345    0.2906    0.6817 C   0  0  0  0  0  0  0  0  0  0  0  0
   -1.3687    1.4846    0.8573 O   0  0  0  0  0  0  0  0  0  0  0  0
    0.1600    0.3332   -1.4696 C   0  0  0  0  0  0  0  0  0  0  0  0
    1.4751   -0.0076   -2.1807 C   0  0  0  0  0  0  0  0  0  0  0  0
    1.5181    0.5387   -3.6040 C   0  0  0  0  0  0  0  0  0  0  0  0
    2.7628    0.1919   -4.2861 N   0  3  0  0  0  0  0  0  0  0  0  0
    3.0042    0.5303   -5.6189 C   0  0  0  0  0  0  0  0  0  0  0  0
    4.2128    0.1672   -6.2036 N   0  0  0  0  0  0  0  0  0  0  0  0
    2.0652    1.2226   -6.3765 N   0  0  0  0  0  0  0  0  0  0  0  0
   -0.7323   -2.1024    0.4149 H   0  0  0  0  0  0  0  0  0  0  0  0
    0.9994    0.0936    0.5251 H   0  0  0  0  0  0  0  0  0  0  0  0
    0.0306    1.4220   -1.4491 H   0  0  0  0  0  0  0  0  0  0  0  0
   -0.6819   -0.0676   -2.0494 H   0  0  0  0  0  0  0  0  0  0  0  0
    2.3183    0.3965   -1.6077 H   0  0  0  0  0  0  0  0  0  0  0  0
    1.5991   -1.0958   -2.2232 H   0  0  0  0  0  0  0  0  0  0  0  0
    0.6976    0.1102   -4.1877 H   0  0  0  0  0  0  0  0  0  0  0  0
    1.4208    1.6287   -3.6075 H   0  0  0  0  0  0  0  0  0  0  0  0
    3.4883   -0.3151   -3.7821 H   0  0  0  0  0  0  0  0  0  0  0  0
    4.4199    0.3987   -7.1723 H   0  0  0  0  0  0  0  0  0  0  0  0
    4.9211   -0.3396   -5.6784 H   0  0  0  0  0  0  0  0  0  0  0  0
    2.2360    1.4715   -7.3474 H   0  0  0  0  0  0  0  0  0  0  0  0
    1.1726    1.5008   -5.9756 H   0  0  0  0  0  0  0  0  0  0  0  0
   -1.9258   -0.7504    1.1469 N   0  0  0  0  0  0  0  0  0  0  0  0
   -3.1375   -0.5389    1.9048 C   0  0  2  0  0  0  0  0  0  0  0  0
   -3.2894   -1.6973    2.8818 C   0  0  0  0  0  0  0  0  0  0  0  0
   -2.9309   -2.8443    2.6231 O   0  0  0  0  0  0  0  0  0  0  0  0
   -4.3498   -0.4347    0.9925 C   0  0  0  0  0  0  0  0  0  0  0  0
   -1.6697   -1.7081    0.9260 H   0  0  0  0  0  0  0  0  0  0  0  0
   -3.0030    0.3945    2.4623 H   0  0  0  0  0  0  0  0  0  0  0  0
   -4.5006   -1.3607    0.4257 H   0  0  0  0  0  0  0  0  0  0  0  0
   -5.2631   -0.2459    1.5662 H   0  0  0  0  0  0  0  0  0  0  0  0
   -4.2257    0.3801    0.2711 H   0  0  0  0  0  0  0  0  0  0  0  0
   -3.9118   -1.3084    4.0597 N   0  0  0  0  0  0  0  0  0  0  0  0
   -4.2085   -2.2347    5.1273 C   0  0  0  0  0  0  0  0  0  0  0  0
   -4.1386   -0.3291    4.2053 H   0  0  0  0  0  0  0  0  0  0  0  0
   -5.2273   -2.6293    4.9986 H   0  0  0  0  0  0  0  0  0  0  0  0
   -3.4879   -3.0655    5.1027 H   0  0  0  0  0  0  0  0  0  0  0  0
   -4.1362   -1.7151    6.0942 H   0  0  0  0  0  0  0  0  0  0  0  0
  1  3  1  0  0  0  0
  1  7  1  0  0  0  0
  1  2  2  0  0  0  0
 42 43  1  0  0  0  0
 43 51  1  0  0  0  0
 43 44  2  0  0  0  0
  8  9  1  0  0  0  0
  9 17  1  0  0  0  0
  9 10  2  0  0  0  0
 18 19  1  0  0  0  0
 19 41  1  0  0  0  0
 19 20  2  0  0  0  0
 25 26  1  0  0  0  0
 25 27  1  0  0  0  0
 24 25  2  0  0  0  0
 42 45  1  0  0  0  0
  8 11  1  0  0  0  0
 51 52  1  0  0  0  0
 21 22  1  0  0  0  0
 22 23  1  0  0  0  0
 18 21  1  0  0  0  0
 23 24  1  0  0  0  0
 41 42  1  0  0  0  0
  7  8  1  0  0  0  0
 17 18  1  0  0  0  0
  3  4  1  0  0  0  0
  3  5  1  0  0  0  0
  3  6  1  0  0  0  0
 45 48  1  0  0  0  0
 45 49  1  0  0  0  0
 45 50  1  0  0  0  0
 11 14  1  0  0  0  0
 11 15  1  0  0  0  0
 11 16  1  0  0  0  0
 52 54  1  0  0  0  0
 52 55  1  0  0  0  0
 52 56  1  0  0  0  0
 22 32  1  0  0  0  0
 22 33  1  0  0  0  0
 21 30  1  0  0  0  0
 21 31  1  0  0  0  0
 23 34  1  0  0  0  0
 23 35  1  0  0  0  0
 42 47  1  0  0  0  0
  8 13  1  0  0  0  0
 18 29  1  0  0  0  0
 26 37  1  0  0  0  0
 26 38  1  0  0  0  0
 27 39  1  0  0  0  0
 27 40  1  0  0  0  0
 51 53  1  0  0  0  0
  7 12  1  0  0  0  0
 41 46  1  0  0  0  0
 17 28  1  0  0  0  0
 24 36  1  0  0  0  0
M  CHG  1  24   1
M  END
$$$$

  -OEChem-05262214473D

 56 55  0     1  0  0  0  0  0999 V2000
    0.7735   -5.8042   -2.0022 C   0  0  0  0  0  0  0  0  0  0  0  0
   -0.2086   -6.3825   -1.5519 O   0  0  0  0  0  0  0  0  0  0  0  0
    1.4751   -6.3646   -3.1946 C   0  0  0  0  0  0  0  0  0  0  0  0
    2.2765   -7.0687   -2.9186 H   0  0  0  0  0  0  0  0  0  0  0  0
    0.7988   -6.9360   -3.8504 H   0  0  0  0  0  0  0  0  0  0  0  0
    1.9556   -5.6216   -3.8511 H   0  0  0  0  0  0  0  0  0  0  0  0
    1.3322   -4.6359   -1.5106 N   0  0  0  0  0  0  0  0  0  0  0  0
    0.8124   -3.9290   -0.3698 C   0  0  2  0  0  0  0  0  0  0  0  0
    1.0666   -2.4424   -0.5818 C   0  0  0  0  0  0  0  0  0  0  0  0
    2.0598   -2.0076   -1.1610 O   0  0  0  0  0  0  0  0  0  0  0  0
    1.4560   -4.4118    0.9207 C   0  0  0  0  0  0  0  0  0  0  0  0
    2.1528   -4.2578   -1.9805 H   0  0  0  0  0  0  0  0  0  0  0  0
   -0.2667   -4.1160   -0.3467 H   0  0  0  0  0  0  0  0  0  0  0  0
    2.5374   -4.2329    0.9160 H   0  0  0  0  0  0  0  0  0  0  0  0
    1.0390   -3.8932    1.7903 H   0  0  0  0  0  0  0  0  0  0  0  0
    1.2976   -5.4871    1.0566 H   0  0  0  0  0  0  0  0  0  0  0  0
    0.0755   -1.6529   -0.0105 N   0  0  0  0  0  0  0  0  0  0  0  0
    0.1113   -0.2132   -0.0391 C   0  0  2  0  0  0  0  0  0  0  0  0
   -1.1345    0.2906    0.6817 C   0  0  0  0  0  0  0  0  0  0  0  0
   -1.5104    1.4599    0.6297 O   0  0  0  0  0  0  0  0  0  0  0  0
    0.1600    0.3332   -1.4696 C   0  0  0  0  0  0  0  0  0  0  0  0
    1.4751   -0.0076   -2.1807 C   0  0  0  0  0  0  0  0  0  0  0  0
    1.5181    0.5387   -3.6040 C   0  0  0  0  0  0  0  0  0  0  0  0
    2.7628    0.1919   -4.2861 N   0  3  0  0  0  0  0  0  0  0  0  0
    3.0042    0.5303   -5.6189 C   0  0  0  0  0  0  0  0  0  0  0  0
    4.2128    0.1672   -6.2036 N   0  0  0  0  0  0  0  0  0  0  0  0
    2.0652    1.2226   -6.3765 N   0  0  0  0  0  0  0  0  0  0  0  0
   -0.7323   -2.1024    0.4149 H   0  0  0  0  0  0  0  0  0  0  0  0
    0.9994    0.0936    0.5251 H   0  0  0  0  0  0  0  0  0  0  0  0
    0.0306    1.4220   -1.4491 H   0  0  0  0  0  0  0  0  0  0  0  0
   -0.6819   -0.0676   -2.0494 H   0  0  0  0  0  0  0  0  0  0  0  0
    2.3183    0.3965   -1.6077 H   0  0  0  0  0  0  0  0  0  0  0  0
    1.5991   -1.0958   -2.2232 H   0  0  0  0  0  0  0  0  0  0  0  0
    0.6976    0.1102   -4.1877 H   0  0  0  0  0  0  0  0  0  0  0  0
    1.4208    1.6287   -3.6075 H   0  0  0  0  0  0  0  0  0  0  0  0
    3.4883   -0.3151   -3.7821 H   0  0  0  0  0  0  0  0  0  0  0  0
    4.4199    0.3987   -7.1723 H   0  0  0  0  0  0  0  0  0  0  0  0
    4.9211   -0.3396   -5.6784 H   0  0  0  0  0  0  0  0  0  0  0  0
    2.2360    1.4715   -7.3474 H   0  0  0  0  0  0  0  0  0  0  0  0
    1.1726    1.5008   -5.9756 H   0  0  0  0  0  0  0  0  0  0  0  0
   -1.7462   -0.7075    1.4273 N   0  0  0  0  0  0  0  0  0  0  0  0
   -2.9172   -0.4752    2.2411 C   0  0  2  0  0  0  0  0  0  0  0  0
   -2.8443   -1.4039    3.4460 C   0  0  0  0  0  0  0  0  0  0  0  0
   -2.3577   -2.5316    3.3952 O   0  0  0  0  0  0  0  0  0  0  0  0
   -4.1954   -0.7091    1.4510 C   0  0  0  0  0  0  0  0  0  0  0  0
   -1.3831   -1.6551    1.3843 H   0  0  0  0  0  0  0  0  0  0  0  0
   -2.8667    0.5659    2.5781 H   0  0  0  0  0  0  0  0  0  0  0  0
   -4.2637   -1.7469    1.1050 H   0  0  0  0  0  0  0  0  0  0  0  0
   -5.0817   -0.5050    2.0608 H   0  0  0  0  0  0  0  0  0  0  0  0
   -4.2322   -0.0613    0.5685 H   0  0  0  0  0  0  0  0  0  0  0  0
   -3.4256   -0.8418    4.5740 N   0  0  0  0  0  0  0  0  0  0  0  0
   -3.5198   -1.5422    5.8336 C   0  0  0  0  0  0  0  0  0  0  0  0
   -3.7681    0.1136    4.5362 H   0  0  0  0  0  0  0  0  0  0  0  0
   -4.4844   -2.0680    5.8901 H   0  0  0  0  0  0  0  0  0  0  0  0
   -2.6999   -2.2716    5.9097 H   0  0  0  0  0  0  0  0  0  0  0  0
   -3.4467   -0.8206    6.6606 H   0  0  0  0  0  0  0  0  0  0  0  0
  1  3  1  0  0  0  0
  1  7  1  0  0  0  0
  1  2  2  0  0  0  0
 42 43  1  0  0  0  0
 43 51  1  0  0  0  0
 43 44  2  0  0  0  0
  8  9  1  0  0  0  0
  9 17  1  0  0  0  0
  9 10  2  0  0  0  0
 18 19  1  0  0  0  0
 19 41  1  0  0  0  0
 19 20  2  0  0  0  0
 25 26  1  0  0  0  0
 25 27  1  0  0  0  0
 24 25  2  0  0  0  0
 42 45  1  0  0  0  0
  8 11  1  0  0  0  0
 51 52  1  0  0  0  0
 21 22  1  0  0  0  0
 22 23  1  0  0  0  0
 18 21  1  0  0  0  0
 23 24  1  0  0  0  0
 41 42  1  0  0  0  0
  7  8  1  0  0  0  0
 17 18  1  0  0  0  0
  3  4  1  0  0  0  0
  3  5  1  0  0  0  0
  3  6  1  0  0  0  0
 45 48  1  0  0  0  0
 45 49  1  0  0  0  0
 45 50  1  0  0  0  0
 11 14  1  0  0  0  0
 11 15  1  0  0  0  0
 11 16  1  0  0  0  0
 52 54  1  0  0  0  0
 52 55  1  0  0  0  0
 52 56  1  0  0  0  0
 22 32  1  0  0  0  0
 22 33  1  0  0  0  0
 21 30  1  0  0  0  0
 21 31  1  0  0  0  0
 23 34  1  0  0  0  0
 23 35  1  0  0  0  0
 42 47  1  0  0  0  0
  8 13  1  0  0  0  0
 18 29  1  0  0  0  0
 26 37  1  0  0  0  0
 26 38  1  0  0  0  0
 27 39  1  0  0  0  0
 27 40  1  0  0  0  0
 51 53  1  0  0  0  0
  7 12  1  0  0  0  0
 41 46  1  0  0  0  0
 17 28  1  0  0  0  0
 24 36  1  0  0  0  0
M  CHG  1  24   1
M  END
$$$$

  -OEChem-05262214473D

 56 55  0     1  0  0  0  0  0999 V2000
    0.7735   -5.8042   -2.0022 C   0  0  0  0  0  0  0  0  0  0  0  0
   -0.2086   -6.3825   -1.5519 O   0  0  0  0  0  0  0  0  0  0  0  0
    1.4751   -6.3646   -3.1946 C   0  0  0  0  0  0  0  0  0  0  0  0
    2.2765   -7.0687   -2.9186 H   0  0  0  0  0  0  0  0  0  0  0  0
    0.7988   -6.9360   -3.8504 H   0  0  0  0  0  0  0  0  0  0  0  0
    1.9556   -5.6216   -3.8511 H   0  0  0  0  0  0  0  0  0  0  0  0
    1.3322   -4.6359   -1.5106 N   0  0  0  0  0  0  0  0  0  0  0  0
    0.8124   -3.9290   -0.3698 C   0  0  2  0  0  0  0  0  0  0  0  0
    1.0666   -2.4424   -0.5818 C   0  0  0  0  0  0  0  0  0  0  0  0
    2.0598   -2.0076   -1.1610 O   0  0  0  0  0  0  0  0  0  0  0  0
    1.4560   -4.4118    0.9207 C   0  0  0  0  0  0  0  0  0  0  0  0
    2.1528   -4.2578   -1.9805 H   0  0  0  0  0  0  0  0  0  0  0  0
   -0.2667   -4.1160   -0.3467 H   0  0  0  0  0  0  0  0  0  0  0  0
    2.5374   -4.2329    0.9160 H   0  0  0  0  0  0  0  0  0  0  0  0
    1.0390   -3.8932    1.7903 H   0  0  0  0  0  0  0  0  0  0  0  0
    1.2976   -5.4871    1.0566 H   0  0  0  0  0  0  0  0  0  0  0  0
    0.0755   -1.6529   -0.0105 N   0  0  0  0  0  0  0  0  0  0  0  0
    0.1113   -0.2132   -0.0391 C   0  0  2  0  0  0  0  0  0  0  0  0
   -1.1345    0.2906    0.6817 C   0  0  0  0  0  0  0  0  0  0  0  0
   -1.6637    1.3706    0.4271 O   0  0  0  0  0  0  0  0  0  0  0  0
    0.1600    0.3332   -1.4696 C   0  0  0  0  0  0  0  0  0  0  0  0
    1.4751   -0.0076   -2.1807 C   0  0  0  0  0  0  0  0  0  0  0  0
    1.5181    0.5387   -3.6040 C   0  0  0  0  0  0  0  0  0  0  0  0
    2.7628    0.1919   -4.2861 N   0  3  0  0  0  0  0  0  0  0  0  0
    3.0042    0.5303   -5.6189 C   0  0  0  0  0  0  0  0  0  0  0  0
    4.2128    0.1672   -6.2036 N   0  0  0  0  0  0  0  0  0  0  0  0
    2.0652    1.2226   -6.3765 N   0  0  0  0  0  0  0  0  0  0  0  0
   -0.7323   -2.1024    0.4149 H   0  0  0  0  0  0  0  0  0  0  0  0
    0.9994    0.0936    0.5251 H   0  0  0  0  0  0  0  0  0  0  0  0
    0.0306    1.4220   -1.4491 H   0  0  0  0  0  0  0  0  0  0  0  0
   -0.6819   -0.0676   -2.0494 H   0  0  0  0  0  0  0  0  0  0  0  0
    2.3183    0.3965   -1.6077 H   0  0  0  0  0  0  0  0  0  0  0  0
    1.5991   -1.0958   -2.2232 H   0  0  0  0  0  0  0  0  0  0  0  0
    0.6976    0.1102   -4.1877 H   0  0  0  0  0  0  0  0  0  0  0  0
    1.4208    1.6287   -3.6075 H   0  0  0  0  0  0  0  0  0  0  0  0
    3.4883   -0.3151   -3.7821 H   0  0  0  0  0  0  0  0  0  0  0  0
    4.4199    0.3987   -7.1723 H   0  0  0  0  0  0  0  0  0  0  0  0
    4.9211   -0.3396   -5.6784 H   0  0  0  0  0  0  0  0  0  0  0  0
    2.2360    1.4715   -7.3474 H   0  0  0  0  0  0  0  0  0  0  0  0
    1.1726    1.5008   -5.9756 H   0  0  0  0  0  0  0  0  0  0  0  0
   -1.5541   -0.5848    1.6736 N   0  0  0  0  0  0  0  0  0  0  0  0
   -2.6834   -0.3156    2.5336 C   0  0  2  0  0  0  0  0  0  0  0  0
   -2.4020   -0.9467    3.8908 C   0  0  0  0  0  0  0  0  0  0  0  0
   -1.7762   -1.9961    4.0258 O   0  0  0  0  0  0  0  0  0  0  0  0
   -3.9736   -0.8583    1.9388 C   0  0  0  0  0  0  0  0  0  0  0  0
   -1.0735   -1.4718    1.7913 H   0  0  0  0  0  0  0  0  0  0  0  0
   -2.7460    0.7727    2.6421 H   0  0  0  0  0  0  0  0  0  0  0  0
   -3.9296   -1.9473    1.8225 H   0  0  0  0  0  0  0  0  0  0  0  0
   -4.8325   -0.6285    2.5778 H   0  0  0  0  0  0  0  0  0  0  0  0
   -4.1589   -0.4257    0.9497 H   0  0  0  0  0  0  0  0  0  0  0  0
   -2.9690   -0.2230    4.9305 N   0  0  0  0  0  0  0  0  0  0  0  0
   -2.8789   -0.6397    6.3104 C   0  0  0  0  0  0  0  0  0  0  0  0
   -3.4361    0.6566    4.7306 H   0  0  0  0  0  0  0  0  0  0  0  0
   -3.7594   -1.2464    6.5690 H   0  0  0  0  0  0  0  0  0  0  0  0
   -1.9668   -1.2377    6.4540 H   0  0  0  0  0  0  0  0  0  0  0  0
   -2.8417    0.2475    6.9596 H   0  0  0  0  0  0  0  0  0  0  0  0
  1  3  1  0  0  0  0
  1  7  1  0  0  0  0
  1  2  2  0  0  0  0
 42 43  1  0  0  0  0
 43 51  1  0  0  0  0
 43 44  2  0  0  0  0
  8  9  1  0  0  0  0
  9 17  1  0  0  0  0
  9 10  2  0  0  0  0
 18 19  1  0  0  0  0
 19 41  1  0  0  0  0
 19 20  2  0  0  0  0
 25 26  1  0  0  0  0
 25 27  1  0  0  0  0
 24 25  2  0  0  0  0
 42 45  1  0  0  0  0
  8 11  1  0  0  0  0
 51 52  1  0  0  0  0
 21 22  1  0  0  0  0
 22 23  1  0  0  0  0
 18 21  1  0  0  0  0
 23 24  1  0  0  0  0
 41 42  1  0  0  0  0
  7  8  1  0  0  0  0
 17 18  1  0  0  0  0
  3  4  1  0  0  0  0
  3  5  1  0  0  0  0
  3  6  1  0  0  0  0
 45 48  1  0  0  0  0
 45 49  1  0  0  0  0
 45 50  1  0  0  0  0
 11 14  1  0  0  0  0
 11 15  1  0  0  0  0
 11 16  1  0  0  0  0
 52 54  1  0  0  0  0
 52 55  1  0  0  0  0
 52 56  1  0  0  0  0
 22 32  1  0  0  0  0
 22 33  1  0  0  0  0
 21 30  1  0  0  0  0
 21 31  1  0  0  0  0
 23 34  1  0  0  0  0
 23 35  1  0  0  0  0
 42 47  1  0  0  0  0
  8 13  1  0  0  0  0
 18 29  1  0  0  0  0
 26 37  1  0  0  0  0
 26 38  1  0  0  0  0
 27 39  1  0  0  0  0
 27 40  1  0  0  0  0
 51 53  1  0  0  0  0
  7 12  1  0  0  0  0
 41 46  1  0  0  0  0
 17 28  1  0  0  0  0
 24 36  1  0  0  0  0
M  CHG  1  24   1
M  END
$$$$

  -OEChem-05262214473D

 56 55  0     1  0  0  0  0  0999 V2000
    0.7735   -5.8042   -2.0022 C   0  0  0  0  0  0  0  0  0  0  0  0
   -0.2086   -6.3825   -1.5519 O   0  0  0  0  0  0  0  0  0  0  0  0
    1.4751   -6.3646   -3.1946 C   0  0  0  0  0  0  0  0  0  0  0  0
    2.2765   -7.0687   -2.9186 H   0  0  0  0  0  0  0  0  0  0  0  0
    0.7988   -6.9360   -3.8504 H   0  0  0  0  0  0  0  0  0  0  0  0
    1.9556   -5.6216   -3.8511 H   0  0  0  0  0  0  0  0  0  0  0  0
    1.3322   -4.6359   -1.5106 N   0  0  0  0  0  0  0  0  0  0  0  0
    0.8124   -3.9290   -0.3698 C   0  0  2  0  0  0  0  0  0  0  0  0
    1.0666   -2.4424   -0.5818 C   0  0  0  0  0  0  0  0  0  0  0  0
    2.0598   -2.0076   -1.1610 O   0  0  0  0  0  0  0  0  0  0  0  0
    1.4560   -4.4118    0.9207 C   0  0  0  0  0  0  0  0  0  0  0  0
    2.1528   -4.2578   -1.9805 H   0  0  0  0  0  0  0  0  0  0  0  0
   -0.2667   -4.1160   -0.3467 H   0  0  0  0  0  0  0  0  0  0  0  0
    2.5374   -4.2329    0.9160 H   0  0  0  0  0  0  0  0  0  0  0  0
    1.0390   -3.8932    1.7903 H   0  0  0  0  0  0  0  0  0  0  0  0
    1.2976   -5.4871    1.0566 H   0  0  0  0  0  0  0  0  0  0  0  0
    0.0755   -1.6529   -0.0105 N   0  0  0  0  0  0  0  0  0  0  0  0
    0.1113   -0.2132   -0.0391 C   0  0  2  0  0  0  0  0  0  0  0  0
   -1.1345    0.2906    0.6817 C   0  0  0  0  0  0  0  0  0  0  0  0
   -1.8182    1.2227    0.2635 O   0  0  0  0  0  0  0  0  0  0  0  0
    0.1600    0.3332   -1.4696 C   0  0  0  0  0  0  0  0  0  0  0  0
    1.4751   -0.0076   -2.1807 C   0  0  0  0  0  0  0  0  0  0  0  0
    1.5181    0.5387   -3.6040 C   0  0  0  0  0  0  0  0  0  0  0  0
    2.7628    0.1919   -4.2861 N   0  3  0  0  0  0  0  0  0  0  0  0
    3.0042    0.5303   -5.6189 C   0  0  0  0  0  0  0  0  0  0  0  0
    4.2128    0.1672   -6.2036 N   0  0  0  0  0  0  0  0  0  0  0  0
    2.0652    1.2226   -6.3765 N   0  0  0  0  0  0  0  0  0  0  0  0
   -0.7323   -2.1024    0.4149 H   0  0  0  0  0  0  0  0  0  0  0  0
    0.9994    0.0936    0.5251 H   0  0  0  0  0  0  0  0  0  0  0  0
    0.0306    1.4220   -1.4491 H   0  0  0  0  0  0  0  0  0  0  0  0
   -0.6819   -0.0676   -2.0494 H   0  0  0  0  0  0  0  0  0  0  0  0
    2.3183    0.3965   -1.6077 H   0  0  0  0  0  0  0  0  0  0  0  0
    1.5991   -1.0958   -2.2232 H   0  0  0  0  0  0  0  0  0  0  0  0
    0.6976    0.1102   -4.1877 H   0  0  0  0  0  0  0  0  0  0  0  0
    1.4208    1.6287   -3.6075 H   0  0  0  0  0  0  0  0  0  0  0  0
    3.4883   -0.3151   -3.7821 H   0  0  0  0  0  0  0  0  0  0  0  0
    4.4199    0.3987   -7.1723 H   0  0  0  0  0  0  0  0  0  0  0  0
    4.9211   -0.3396   -5.6784 H   0  0  0  0  0  0  0  0  0  0  0  0
    2.2360    1.4715   -7.3474 H   0  0  0  0  0  0  0  0  0  0  0  0
    1.1726    1.5008   -5.9756 H   0  0  0  0  0  0  0  0  0  0  0  0
   -1.3624   -0.3907    1.8692 N   0  0  0  0  0  0  0  0  0  0  0  0
   -2.4521   -0.0710    2.7624 C   0  0  2  0  0  0  0  0  0  0  0  0
   -1.9927   -0.3569    4.1860 C   0  0  0  0  0  0  0  0  0  0  0  0
   -1.2262   -1.2744    4.4720 O   0  0  0  0  0  0  0  0  0  0  0  0
   -3.6993   -0.8721    2.4225 C   0  0  0  0  0  0  0  0  0  0  0  0
   -0.7621   -1.1709    2.1192 H   0  0  0  0  0  0  0  0  0  0  0  0
   -2.6493    1.0007    2.6499 H   0  0  0  0  0  0  0  0  0  0  0  0
   -3.5210   -1.9484    2.5294 H   0  0  0  0  0  0  0  0  0  0  0  0
   -4.5325   -0.6080    3.0820 H   0  0  0  0  0  0  0  0  0  0  0  0
   -4.0111   -0.6880    1.3887 H   0  0  0  0  0  0  0  0  0  0  0  0
   -2.5732    0.5060    5.1050 N   0  0  0  0  0  0  0  0  0  0  0  0
   -2.3295    0.4112    6.5254 C   0  0  0  0  0  0  0  0  0  0  0  0
   -3.1652    1.2627    4.7751 H   0  0  0  0  0  0  0  0  0  0  0  0
   -3.1014   -0.2206    6.9890 H   0  0  0  0  0  0  0  0  0  0  0  0
   -1.3387   -0.0342    6.6984 H   0  0  0  0  0  0  0  0  0  0  0  0
   -2.3624    1.4165    6.9708 H   0  0  0  0  0  0  0  0  0  0  0  0
  1  3  1  0  0  0  0
  1  7  1  0  0  0  0
  1  2  2  0  0  0  0
 42 43  1  0  0  0  0
 43 51  1  0  0  0  0
 43 44  2  0  0  0  0
  8  9  1  0  0  0  0
  9 17  1  0  0  0  0
  9 10  2  0  0  0  0
 18 19  1  0  0  0  0
 19 41  1  0  0  0  0
 19 20  2  0  0  0  0
 25 26  1  0  0  0  0
 25 27  1  0  0  0  0
 24 25  2  0  0  0  0
 42 45  1  0  0  0  0
  8 11  1  0  0  0  0
 51 52  1  0  0  0  0
 21 22  1  0  0  0  0
 22 23  1  0  0  0  0
 18 21  1  0  0  0  0
 23 24  1  0  0  0  0
 41 42  1  0  0  0  0
  7  8  1  0  0  0  0
 17 18  1  0  0  0  0
  3  4  1  0  0  0  0
  3  5  1  0  0  0  0
  3  6  1  0  0  0  0
 45 48  1  0  0  0  0
 45 49  1  0  0  0  0
 45 50  1  0  0  0  0
 11 14  1  0  0  0  0
 11 15  1  0  0  0  0
 11 16  1  0  0  0  0
 52 54  1  0  0  0  0
 52 55  1  0  0  0  0
 52 56  1  0  0  0  0
 22 32  1  0  0  0  0
 22 33  1  0  0  0  0
 21 30  1  0  0  0  0
 21 31  1  0  0  0  0
 23 34  1  0  0  0  0
 23 35  1  0  0  0  0
 42 47  1  0  0  0  0
  8 13  1  0  0  0  0
 18 29  1  0  0  0  0
 26 37  1  0  0  0  0
 26 38  1  0  0  0  0
 27 39  1  0  0  0  0
 27 40  1  0  0  0  0
 51 53  1  0  0  0  0
  7 12  1  0  0  0  0
 41 46  1  0  0  0  0
 17 28  1  0  0  0  0
 24 36  1  0  0  0  0
M  CHG  1  24   1
M  END
$$$$

  -OEChem-05262214473D

 56 55  0     1  0  0  0  0  0999 V2000
    0.7735   -5.8042   -2.0022 C   0  0  0  0  0  0  0  0  0  0  0  0
   -0.2086   -6.3825   -1.5519 O   0  0  0  0  0  0  0  0  0  0  0  0
    1.4751   -6.3646   -3.1946 C   0  0  0  0  0  0  0  0  0  0  0  0
    2.2765   -7.0687   -2.9186 H   0  0  0  0  0  0  0  0  0  0  0  0
    0.7988   -6.9360   -3.8504 H   0  0  0  0  0  0  0  0  0  0  0  0
    1.9556   -5.6216   -3.8511 H   0  0  0  0  0  0  0  0  0  0  0  0
    1.3322   -4.6359   -1.5106 N   0  0  0  0  0  0  0  0  0  0  0  0
    0.8124   -3.9290   -0.3698 C   0  0  2  0  0  0  0  0  0  0  0  0
    1.0666   -2.4424   -0.5818 C   0  0  0  0  0  0  0  0  0  0  0  0
    2.0598   -2.0076   -1.1610 O   0  0  0  0  0  0  0  0  0  0  0  0
    1.4560   -4.4118    0.9207 C   0  0  0  0  0  0  0  0  0  0  0  0
    2.1528   -4.2578   -1.9805 H   0  0  0  0  0  0  0  0  0  0  0  0
   -0.2667   -4.1160   -0.3467 H   0  0  0  0  0  0  0  0  0  0  0  0
    2.5374   -4.2329    0.9160 H   0  0  0  0  0  0  0  0  0  0  0  0
    1.0390   -3.8932    1.7903 H   0  0  0  0  0  0  0  0  0  0  0  0
    1.2976   -5.4871    1.0566 H   0  0  0  0  0  0  0  0  0  0  0  0
    0.0755   -1.6529   -0.0105 N   0  0  0  0  0  0  0  0  0  0  0  0
    0.1113   -0.2132   -0.0391 C   0  0  2  0  0  0  0  0  0  0  0  0
   -1.1345    0.2906    0.6817 C   0  0  0  0  0  0  0  0  0  0  0  0
   -1.9633    1.0264    0.1499 O   0  0  0  0  0  0  0  0  0  0  0  0
    0.1600    0.3332   -1.4696 C   0  0  0  0  0  0  0  0  0  0  0  0
    1.4751   -0.0076   -2.1807 C   0  0  0  0  0  0  0  0  0  0  0  0
    1.5181    0.5387   -3.6040 C   0  0  0  0  0  0  0  0  0  0  0  0
    2.7628    0.1919   -4.2861 N   0  3  0  0  0  0  0  0  0  0  0  0
    3.0042    0.5303   -5.6189 C   0  0  0  0  0  0  0  0  0  0  0  0
    4.2128    0.1672   -6.2036 N   0  0  0  0  0  0  0  0  0  0  0  0
    2.0652    1.2226   -6.3765 N   0  0  0  0  0  0  0  0  0  0  0  0
   -0.7323   -2.1024    0.4149 H   0  0  0  0  0  0  0  0  0  0  0  0
    0.9994    0.0936    0.5251 H   0  0  0  0  0  0  0  0  0  0  0  0
    0.0306    1.4220   -1.4491 H   0  0  0  0  0  0  0  0  0  0  0  0
   -0.6819   -0.0676   -2.0494 H   0  0  0  0  0  0  0  0  0  0  0  0
    2.3183    0.3965   -1.6077 H   0  0  0  0  0  0  0  0  0  0  0  0
    1.5991   -1.0958   -2.2232 H   0  0  0  0  0  0  0  0  0  0  0  0
    0.6976    0.1102   -4.1877 H   0  0  0  0  0  0  0  0  0  0  0  0
    1.4208    1.6287   -3.6075 H   0  0  0  0  0  0  0  0  0  0  0  0
    3.4883   -0.3151   -3.7821 H   0  0  0  0  0  0  0  0  0  0  0  0
    4.4199    0.3987   -7.1723 H   0  0  0  0  0  0  0  0  0  0  0  0
    4.9211   -0.3396   -5.6784 H   0  0  0  0  0  0  0  0  0  0  0  0
    2.2360    1.4715   -7.3474 H   0  0  0  0  0  0  0  0  0  0  0  0
    1.1726    1.5008   -5.9756 H   0  0  0  0  0  0  0  0  0  0  0  0
   -1.1843   -0.1383    2.0007 N   0  0  0  0  0  0  0  0  0  0  0  0
   -2.2391    0.2419    2.9119 C   0  0  2  0  0  0  0  0  0  0  0  0
   -1.6442    0.3252    4.3114 C   0  0  0  0  0  0  0  0  0  0  0  0
   -0.7450   -0.4157    4.7033 O   0  0  0  0  0  0  0  0  0  0  0  0
   -3.3913   -0.7497    2.8692 C   0  0  0  0  0  0  0  0  0  0  0  0
   -0.4700   -0.7728    2.3457 H   0  0  0  0  0  0  0  0  0  0  0  0
   -2.5831    1.2344    2.6010 H   0  0  0  0  0  0  0  0  0  0  0  0
   -3.0658   -1.7499    3.1775 H   0  0  0  0  0  0  0  0  0  0  0  0
   -4.2021   -0.4449    3.5390 H   0  0  0  0  0  0  0  0  0  0  0  0
   -3.7986   -0.8305    1.8556 H   0  0  0  0  0  0  0  0  0  0  0  0
   -2.2652    1.2955    5.0855 N   0  0  0  0  0  0  0  0  0  0  0  0
   -1.9090    1.5391    6.4638 C   0  0  0  0  0  0  0  0  0  0  0  0
   -2.9738    1.8907    4.6668 H   0  0  0  0  0  0  0  0  0  0  0  0
   -2.5555    0.9396    7.1216 H   0  0  0  0  0  0  0  0  0  0  0  0
   -0.8583    1.2567    6.6263 H   0  0  0  0  0  0  0  0  0  0  0  0
   -2.0415    2.6066    6.6935 H   0  0  0  0  0  0  0  0  0  0  0  0
  1  3  1  0  0  0  0
  1  7  1  0  0  0  0
  1  2  2  0  0  0  0
 42 43  1  0  0  0  0
 43 51  1  0  0  0  0
 43 44  2  0  0  0  0
  8  9  1  0  0  0  0
  9 17  1  0  0  0  0
  9 10  2  0  0  0  0
 18 19  1  0  0  0  0
 19 41  1  0  0  0  0
 19 20  2  0  0  0  0
 25 26  1  0  0  0  0
 25 27  1  0  0  0  0
 24 25  2  0  0  0  0
 42 45  1  0  0  0  0
  8 11  1  0  0  0  0
 51 52  1  0  0  0  0
 21 22  1  0  0  0  0
 22 23  1  0  0  0  0
 18 21  1  0  0  0  0
 23 24  1  0  0  0  0
 41 42  1  0  0  0  0
  7  8  1  0  0  0  0
 17 18  1  0  0  0  0
  3  4  1  0  0  0  0
  3  5  1  0  0  0  0
  3  6  1  0  0  0  0
 45 48  1  0  0  0  0
 45 49  1  0  0  0  0
 45 50  1  0  0  0  0
 11 14  1  0  0  0  0
 11 15  1  0  0  0  0
 11 16  1  0  0  0  0
 52 54  1  0  0  0  0
 52 55  1  0  0  0  0
 52 56  1  0  0  0  0
 22 32  1  0  0  0  0
 22 33  1  0  0  0  0
 21 30  1  0  0  0  0
 21 31  1  0  0  0  0
 23 34  1  0  0  0  0
 23 35  1  0  0  0  0
 42 47  1  0  0  0  0
  8 13  1  0  0  0  0
 18 29  1  0  0  0  0
 26 37  1  0  0  0  0
 26 38  1  0  0  0  0
 27 39  1  0  0  0  0
 27 40  1  0  0  0  0
 51 53  1  0  0  0  0
  7 12  1  0  0  0  0
 41 46  1  0  0  0  0
 17 28  1  0  0  0  0
 24 36  1  0  0  0  0
M  CHG  1  24   1
M  END
$$$$

  -OEChem-05262214473D

 56 55  0     1  0  0  0  0  0999 V2000
    0.7735   -5.8042   -2.0022 C   0  0  0  0  0  0  0  0  0  0  0  0
   -0.2086   -6.3825   -1.5519 O   0  0  0  0  0  0  0  0  0  0  0  0
    1.4751   -6.3646   -3.1946 C   0  0  0  0  0  0  0  0  0  0  0  0
    2.2765   -7.0687   -2.9186 H   0  0  0  0  0  0  0  0  0  0  0  0
    0.7988   -6.9360   -3.8504 H   0  0  0  0  0  0  0  0  0  0  0  0
    1.9556   -5.6216   -3.8511 H   0  0  0  0  0  0  0  0  0  0  0  0
    1.3322   -4.6359   -1.5106 N   0  0  0  0  0  0  0  0  0  0  0  0
    0.8124   -3.9290   -0.3698 C   0  0  2  0  0  0  0  0  0  0  0  0
    1.0666   -2.4424   -0.5818 C   0  0  0  0  0  0  0  0  0  0  0  0
    2.0598   -2.0076   -1.1610 O   0  0  0  0  0  0  0  0  0  0  0  0
    1.4560   -4.4118    0.9207 C   0  0  0  0  0  0  0  0  0  0  0  0
    2.1528   -4.2578   -1.9805 H   0  0  0  0  0  0  0  0  0  0  0  0
   -0.2667   -4.1160   -0.3467 H   0  0  0  0  0  0  0  0  0  0  0  0
    2.5374   -4.2329    0.9160 H   0  0  0  0  0  0  0  0  0  0  0  0
    1.0390   -3.8932    1.7903 H   0  0  0  0  0  0  0  0  0  0  0  0
    1.2976   -5.4871    1.0566 H   0  0  0  0  0  0  0  0  0  0  0  0
    0.0755   -1.6529   -0.0105 N   0  0  0  0  0  0  0  0  0  0  0  0
    0.1113   -0.2132   -0.0391 C   0  0  2  0  0  0  0  0  0  0  0  0
   -1.1345    0.2906    0.6817 C   0  0  0  0  0  0  0  0  0  0  0  0
   -2.0892    0.7951    0.0941 O   0  0  0  0  0  0  0  0  0  0  0  0
    0.1600    0.3332   -1.4696 C   0  0  0  0  0  0  0  0  0  0  0  0
    1.4751   -0.0076   -2.1807 C   0  0  0  0  0  0  0  0  0  0  0  0
    1.5181    0.5387   -3.6040 C   0  0  0  0  0  0  0  0  0  0  0  0
    2.7628    0.1919   -4.2861 N   0  3  0  0  0  0  0  0  0  0  0  0
    3.0042    0.5303   -5.6189 C   0  0  0  0  0  0  0  0  0  0  0  0
    4.2128    0.1672   -6.2036 N   0  0  0  0  0  0  0  0  0  0  0  0
    2.0652    1.2226   -6.3765 N   0  0  0  0  0  0  0  0  0  0  0  0
   -0.7323   -2.1024    0.4149 H   0  0  0  0  0  0  0  0  0  0  0  0
    0.9994    0.0936    0.5251 H   0  0  0  0  0  0  0  0  0  0  0  0
    0.0306    1.4220   -1.4491 H   0  0  0  0  0  0  0  0  0  0  0  0
   -0.6819   -0.0676   -2.0494 H   0  0  0  0  0  0  0  0  0  0  0  0
    2.3183    0.3965   -1.6077 H   0  0  0  0  0  0  0  0  0  0  0  0
    1.5991   -1.0958   -2.2232 H   0  0  0  0  0  0  0  0  0  0  0  0
    0.6976    0.1102   -4.1877 H   0  0  0  0  0  0  0  0  0  0  0  0
    1.4208    1.6287   -3.6075 H   0  0  0  0  0  0  0  0  0  0  0  0
    3.4883   -0.3151   -3.7821 H   0  0  0  0  0  0  0  0  0  0  0  0
    4.4199    0.3987   -7.1723 H   0  0  0  0  0  0  0  0  0  0  0  0
    4.9211   -0.3396   -5.6784 H   0  0  0  0  0  0  0  0  0  0  0  0
    2.2360    1.4715   -7.3474 H   0  0  0  0  0  0  0  0  0  0  0  0
    1.1726    1.5008   -5.9756 H   0  0  0  0  0  0  0  0  0  0  0  0
   -1.0318    0.1550    2.0591 N   0  0  0  0  0  0  0  0  0  0  0  0
   -2.0588    0.6018    2.9719 C   0  0  2  0  0  0  0  0  0  0  0  0
   -1.3804    1.0533    4.2586 C   0  0  0  0  0  0  0  0  0  0  0  0
   -0.3655    0.5216    4.7041 O   0  0  0  0  0  0  0  0  0  0  0  0
   -3.0706   -0.4993    3.2484 C   0  0  0  0  0  0  0  0  0  0  0  0
   -0.2173   -0.3047    2.4553 H   0  0  0  0  0  0  0  0  0  0  0  0
   -2.5519    1.4578    2.4986 H   0  0  0  0  0  0  0  0  0  0  0  0
   -2.5949   -1.3655    3.7227 H   0  0  0  0  0  0  0  0  0  0  0  0
   -3.8638   -0.1503    3.9177 H   0  0  0  0  0  0  0  0  0  0  0  0
   -3.5360   -0.8434    2.3185 H   0  0  0  0  0  0  0  0  0  0  0  0
   -2.0659    2.0917    4.8734 N   0  0  0  0  0  0  0  0  0  0  0  0
   -1.6460    2.6669    6.1299 C   0  0  0  0  0  0  0  0  0  0  0  0
   -2.8751    2.4979    4.4130 H   0  0  0  0  0  0  0  0  0  0  0  0
   -2.1588    2.1551    6.9576 H   0  0  0  0  0  0  0  0  0  0  0  0
   -0.5584    2.5472    6.2426 H   0  0  0  0  0  0  0  0  0  0  0  0
   -1.9008    3.7368    6.1466 H   0  0  0  0  0  0  0  0  0  0  0  0
  1  3  1  0  0  0  0
  1  7  1  0  0  0  0
  1  2  2  0  0  0  0
 42 43  1  0  0  0  0
 43 51  1  0  0  0  0
 43 44  2  0  0  0  0
  8  9  1  0  0  0  0
  9 17  1  0  0  0  0
  9 10  2  0  0  0  0
 18 19  1  0  0  0  0
 19 41  1  0  0  0  0
 19 20  2  0  0  0  0
 25 26  1  0  0  0  0
 25 27  1  0  0  0  0
 24 25  2  0  0  0  0
 42 45  1  0  0  0  0
  8 11  1  0  0  0  0
 51 52  1  0  0  0  0
 21 22  1  0  0  0  0
 22 23  1  0  0  0  0
 18 21  1  0  0  0  0
 23 24  1  0  0  0  0
 41 42  1  0  0  0  0
  7  8  1  0  0  0  0
 17 18  1  0  0  0  0
  3  4  1  0  0  0  0
  3  5  1  0  0  0  0
  3  6  1  0  0  0  0
 45 48  1  0  0  0  0
 45 49  1  0  0  0  0
 45 50  1  0  0  0  0
 11 14  1  0  0  0  0
 11 15  1  0  0  0  0
 11 16  1  0  0  0  0
 52 54  1  0  0  0  0
 52 55  1  0  0  0  0
 52 56  1  0  0  0  0
 22 32  1  0  0  0  0
 22 33  1  0  0  0  0
 21 30  1  0  0  0  0
 21 31  1  0  0  0  0
 23 34  1  0  0  0  0
 23 35  1  0  0  0  0
 42 47  1  0  0  0  0
  8 13  1  0  0  0  0
 18 29  1  0  0  0  0
 26 37  1  0  0  0  0
 26 38  1  0  0  0  0
 27 39  1  0  0  0  0
 27 40  1  0  0  0  0
 51 53  1  0  0  0  0
  7 12  1  0  0  0  0
 41 46  1  0  0  0  0
 17 28  1  0  0  0  0
 24 36  1  0  0  0  0
M  CHG  1  24   1
M  END
$$$$

  -OEChem-05262214473D

 56 55  0     1  0  0  0  0  0999 V2000
    0.7735   -5.8042   -2.0022 C   0  0  0  0  0  0  0  0  0  0  0  0
   -0.2086   -6.3825   -1.5519 O   0  0  0  0  0  0  0  0  0  0  0  0
    1.4751   -6.3646   -3.1946 C   0  0  0  0  0  0  0  0  0  0  0  0
    2.2765   -7.0687   -2.9186 H   0  0  0  0  0  0  0  0  0  0  0  0
    0.7988   -6.9360   -3.8504 H   0  0  0  0  0  0  0  0  0  0  0  0
    1.9556   -5.6216   -3.8511 H   0  0  0  0  0  0  0  0  0  0  0  0
    1.3322   -4.6359   -1.5106 N   0  0  0  0  0  0  0  0  0  0  0  0
    0.8124   -3.9290   -0.3698 C   0  0  2  0  0  0  0  0  0  0  0  0
    1.0666   -2.4424   -0.5818 C   0  0  0  0  0  0  0  0  0  0  0  0
    2.0598   -2.0076   -1.1610 O   0  0  0  0  0  0  0  0  0  0  0  0
    1.4560   -4.4118    0.9207 C   0  0  0  0  0  0  0  0  0  0  0  0
    2.1528   -4.2578   -1.9805 H   0  0  0  0  0  0  0  0  0  0  0  0
   -0.2667   -4.1160   -0.3467 H   0  0  0  0  0  0  0  0  0  0  0  0
    2.5374   -4.2329    0.9160 H   0  0  0  0  0  0  0  0  0  0  0  0
    1.0390   -3.8932    1.7903 H   0  0  0  0  0  0  0  0  0  0  0  0
    1.2976   -5.4871    1.0566 H   0  0  0  0  0  0  0  0  0  0  0  0
    0.0755   -1.6529   -0.0105 N   0  0  0  0  0  0  0  0  0  0  0  0
    0.1113   -0.2132   -0.0391 C   0  0  2  0  0  0  0  0  0  0  0  0
   -1.1345    0.2906    0.6817 C   0  0  0  0  0  0  0  0  0  0  0  0
   -2.1872    0.5444    0.0999 O   0  0  0  0  0  0  0  0  0  0  0  0
    0.1600    0.3332   -1.4696 C   0  0  0  0  0  0  0  0  0  0  0  0
    1.4751   -0.0076   -2.1807 C   0  0  0  0  0  0  0  0  0  0  0  0
    1.5181    0.5387   -3.6040 C   0  0  0  0  0  0  0  0  0  0  0  0
    2.7628    0.1919   -4.2861 N   0  3  0  0  0  0  0  0  0  0  0  0
    3.0042    0.5303   -5.6189 C   0  0  0  0  0  0  0  0  0  0  0  0
    4.2128    0.1672   -6.2036 N   0  0  0  0  0  0  0  0  0  0  0  0
    2.0652    1.2226   -6.3765 N   0  0  0  0  0  0  0  0  0  0  0  0
   -0.7323   -2.1024    0.4149 H   0  0  0  0  0  0  0  0  0  0  0  0
    0.9994    0.0936    0.5251 H   0  0  0  0  0  0  0  0  0  0  0  0
    0.0306    1.4220   -1.4491 H   0  0  0  0  0  0  0  0  0  0  0  0
   -0.6819   -0.0676   -2.0494 H   0  0  0  0  0  0  0  0  0  0  0  0
    2.3183    0.3965   -1.6077 H   0  0  0  0  0  0  0  0  0  0  0  0
    1.5991   -1.0958   -2.2232 H   0  0  0  0  0  0  0  0  0  0  0  0
    0.6976    0.1102   -4.1877 H   0  0  0  0  0  0  0  0  0  0  0  0
    1.4208    1.6287   -3.6075 H   0  0  0  0  0  0  0  0  0  0  0  0
    3.4883   -0.3151   -3.7821 H   0  0  0  0  0  0  0  0  0  0  0  0
    4.4199    0.3987   -7.1723 H   0  0  0  0  0  0  0  0  0  0  0  0
    4.9211   -0.3396   -5.6784 H   0  0  0  0  0  0  0  0  0  0  0  0
    2.2360    1.4715   -7.3474 H   0  0  0  0  0  0  0  0  0  0  0  0
    1.1726    1.5008   -5.9756 H   0  0  0  0  0  0  0  0  0  0  0  0
   -0.9155    0.4693    2.0405 N   0  0  0  0  0  0  0  0  0  0  0  0
   -1.9235    0.9842    2.9384 C   0  0  2  0  0  0  0  0  0  0  0  0
   -1.2191    1.7777    4.0310 C   0  0  0  0  0  0  0  0  0  0  0  0
   -0.1136    1.4735    4.4742 O   0  0  0  0  0  0  0  0  0  0  0  0
   -2.7590   -0.1380    3.5344 C   0  0  0  0  0  0  0  0  0  0  0  0
   -0.0210    0.2016    2.4405 H   0  0  0  0  0  0  0  0  0  0  0  0
   -2.5579    1.6559    2.3498 H   0  0  0  0  0  0  0  0  0  0  0  0
   -2.1405   -0.8213    4.1276 H   0  0  0  0  0  0  0  0  0  0  0  0
   -3.5408    0.2558    4.1923 H   0  0  0  0  0  0  0  0  0  0  0  0
   -3.2411   -0.7259    2.7459 H   0  0  0  0  0  0  0  0  0  0  0  0
   -1.9889    2.8402    4.4831 N   0  0  0  0  0  0  0  0  0  0  0  0
   -1.5585    3.7179    5.5464 C   0  0  0  0  0  0  0  0  0  0  0  0
   -2.8757    3.0428    4.0311 H   0  0  0  0  0  0  0  0  0  0  0  0
   -1.9383    3.3430    6.5083 H   0  0  0  0  0  0  0  0  0  0  0  0
   -0.4593    3.7493    5.5735 H   0  0  0  0  0  0  0  0  0  0  0  0
   -1.9500    4.7301    5.3672 H   0  0  0  0  0  0  0  0  0  0  0  0
  1  3  1  0  0  0  0
  1  7  1  0  0  0  0
  1  2  2  0  0  0  0
 42 43  1  0  0  0  0
 43 51  1  0  0  0  0
 43 44  2  0  0  0  0
  8  9  1  0  0  0  0
  9 17  1  0  0  0  0
  9 10  2  0  0  0  0
 18 19  1  0  0  0  0
 19 41  1  0  0  0  0
 19 20  2  0  0  0  0
 25 26  1  0  0  0  0
 25 27  1  0  0  0  0
 24 25  2  0  0  0  0
 42 45  1  0  0  0  0
  8 11  1  0  0  0  0
 51 52  1  0  0  0  0
 21 22  1  0  0  0  0
 22 23  1  0  0  0  0
 18 21  1  0  0  0  0
 23 24  1  0  0  0  0
 41 42  1  0  0  0  0
  7  8  1  0  0  0  0
 17 18  1  0  0  0  0
  3  4  1  0  0  0  0
  3  5  1  0  0  0  0
  3  6  1  0  0  0  0
 45 48  1  0  0  0  0
 45 49  1  0  0  0  0
 45 50  1  0  0  0  0
 11 14  1  0  0  0  0
 11 15  1  0  0  0  0
 11 16  1  0  0  0  0
 52 54  1  0  0  0  0
 52 55  1  0  0  0  0
 52 56  1  0  0  0  0
 22 32  1  0  0  0  0
 22 33  1  0  0  0  0
 21 30  1  0  0  0  0
 21 31  1  0  0  0  0
 23 34  1  0  0  0  0
 23 35  1  0  0  0  0
 42 47  1  0  0  0  0
  8 13  1  0  0  0  0
 18 29  1  0  0  0  0
 26 37  1  0  0  0  0
 26 38  1  0  0  0  0
 27 39  1  0  0  0  0
 27 40  1  0  0  0  0
 51 53  1  0  0  0  0
  7 12  1  0  0  0  0
 41 46  1  0  0  0  0
 17 28  1  0  0  0  0
 24 36  1  0  0  0  0
M  CHG  1  24   1
M  END
$$$$

  -OEChem-05262214473D

 56 55  0     1  0  0  0  0  0999 V2000
    0.7735   -5.8042   -2.0022 C   0  0  0  0  0  0  0  0  0  0  0  0
   -0.2086   -6.3825   -1.5519 O   0  0  0  0  0  0  0  0  0  0  0  0
    1.4751   -6.3646   -3.1946 C   0  0  0  0  0  0  0  0  0  0  0  0
    2.2765   -7.0687   -2.9186 H   0  0  0  0  0  0  0  0  0  0  0  0
    0.7988   -6.9360   -3.8504 H   0  0  0  0  0  0  0  0  0  0  0  0
    1.9556   -5.6216   -3.8511 H   0  0  0  0  0  0  0  0  0  0  0  0
    1.3322   -4.6359   -1.5106 N   0  0  0  0  0  0  0  0  0  0  0  0
    0.8124   -3.9290   -0.3698 C   0  0  2  0  0  0  0  0  0  0  0  0
    1.0666   -2.4424   -0.5818 C   0  0  0  0  0  0  0  0  0  0  0  0
    2.0598   -2.0076   -1.1610 O   0  0  0  0  0  0  0  0  0  0  0  0
    1.4560   -4.4118    0.9207 C   0  0  0  0  0  0  0  0  0  0  0  0
    2.1528   -4.2578   -1.9805 H   0  0  0  0  0  0  0  0  0  0  0  0
   -0.2667   -4.1160   -0.3467 H   0  0  0  0  0  0  0  0  0  0  0  0
    2.5374   -4.2329    0.9160 H   0  0  0  0  0  0  0  0  0  0  0  0
    1.0390   -3.8932    1.7903 H   0  0  0  0  0  0  0  0  0  0  0  0
    1.2976   -5.4871    1.0566 H   0  0  0  0  0  0  0  0  0  0  0  0
    0.0755   -1.6529   -0.0105 N   0  0  0  0  0  0  0  0  0  0  0  0
    0.1113   -0.2132   -0.0391 C   0  0  2  0  0  0  0  0  0  0  0  0
   -1.1345    0.2906    0.6817 C   0  0  0  0  0  0  0  0  0  0  0  0
   -2.2508    0.2914    0.1668 O   0  0  0  0  0  0  0  0  0  0  0  0
    0.1600    0.3332   -1.4696 C   0  0  0  0  0  0  0  0  0  0  0  0
    1.4751   -0.0076   -2.1807 C   0  0  0  0  0  0  0  0  0  0  0  0
    1.5181    0.5387   -3.6040 C   0  0  0  0  0  0  0  0  0  0  0  0
    2.7628    0.1919   -4.2861 N   0  3  0  0  0  0  0  0  0  0  0  0
    3.0042    0.5303   -5.6189 C   0  0  0  0  0  0  0  0  0  0  0  0
    4.2128    0.1672   -6.2036 N   0  0  0  0  0  0  0  0  0  0  0  0
    2.0652    1.2226   -6.3765 N   0  0  0  0  0  0  0  0  0  0  0  0
   -0.7323   -2.1024    0.4149 H   0  0  0  0  0  0  0  0  0  0  0  0
    0.9994    0.0936    0.5251 H   0  0  0  0  0  0  0  0  0  0  0  0
    0.0306    1.4220   -1.4491 H   0  0  0  0  0  0  0  0  0  0  0  0
   -0.6819   -0.0676   -2.0494 H   0  0  0  0  0  0  0  0  0  0  0  0
    2.3183    0.3965   -1.6077 H   0  0  0  0  0  0  0  0  0  0  0  0
    1.5991   -1.0958   -2.2232 H   0  0  0  0  0  0  0  0  0  0  0  0
    0.6976    0.1102   -4.1877 H   0  0  0  0  0  0  0  0  0  0  0  0
    1.4208    1.6287   -3.6075 H   0  0  0  0  0  0  0  0  0  0  0  0
    3.4883   -0.3151   -3.7821 H   0  0  0  0  0  0  0  0  0  0  0  0
    4.4199    0.3987   -7.1723 H   0  0  0  0  0  0  0  0  0  0  0  0
    4.9211   -0.3396   -5.6784 H   0  0  0  0  0  0  0  0  0  0  0  0
    2.2360    1.4715   -7.3474 H   0  0  0  0  0  0  0  0  0  0  0  0
    1.1726    1.5008   -5.9756 H   0  0  0  0  0  0  0  0  0  0  0  0
   -0.8431    0.7832    1.9461 N   0  0  0  0  0  0  0  0  0  0  0  0
   -1.8425    1.3631    2.8136 C   0  0  2  0  0  0  0  0  0  0  0  0
   -1.1714    2.4490    3.6442 C   0  0  0  0  0  0  0  0  0  0  0  0
   -0.0063    2.3751    4.0293 O   0  0  0  0  0  0  0  0  0  0  0  0
   -2.4778    0.3096    3.7075 C   0  0  0  0  0  0  0  0  0  0  0  0
    0.1053    0.7115    2.3025 H   0  0  0  0  0  0  0  0  0  0  0  0
   -2.6007    1.8150    2.1647 H   0  0  0  0  0  0  0  0  0  0  0  0
   -1.7335   -0.1544    4.3649 H   0  0  0  0  0  0  0  0  0  0  0  0
   -3.2549    0.7456    4.3440 H   0  0  0  0  0  0  0  0  0  0  0  0
   -2.9342   -0.4860    3.1087 H   0  0  0  0  0  0  0  0  0  0  0  0
   -2.0395    3.4902    3.9413 N   0  0  0  0  0  0  0  0  0  0  0  0
   -1.6525    4.6203    4.7531 C   0  0  0  0  0  0  0  0  0  0  0  0
   -2.9756    3.4883    3.5470 H   0  0  0  0  0  0  0  0  0  0  0  0
   -1.9090    4.4224    5.8043 H   0  0  0  0  0  0  0  0  0  0  0  0
   -0.5679    4.7810    4.6645 H   0  0  0  0  0  0  0  0  0  0  0  0
   -2.1857    5.5187    4.4087 H   0  0  0  0  0  0  0  0  0  0  0  0
  1  3  1  0  0  0  0
  1  7  1  0  0  0  0
  1  2  2  0  0  0  0
 42 43  1  0  0  0  0
 43 51  1  0  0  0  0
 43 44  2  0  0  0  0
  8  9  1  0  0  0  0
  9 17  1  0  0  0  0
  9 10  2  0  0  0  0
 18 19  1  0  0  0  0
 19 41  1  0  0  0  0
 19 20  2  0  0  0  0
 25 26  1  0  0  0  0
 25 27  1  0  0  0  0
 24 25  2  0  0  0  0
 42 45  1  0  0  0  0
  8 11  1  0  0  0  0
 51 52  1  0  0  0  0
 21 22  1  0  0  0  0
 22 23  1  0  0  0  0
 18 21  1  0  0  0  0
 23 24  1  0  0  0  0
 41 42  1  0  0  0  0
  7  8  1  0  0  0  0
 17 18  1  0  0  0  0
  3  4  1  0  0  0  0
  3  5  1  0  0  0  0
  3  6  1  0  0  0  0
 45 48  1  0  0  0  0
 45 49  1  0  0  0  0
 45 50  1  0  0  0  0
 11 14  1  0  0  0  0
 11 15  1  0  0  0  0
 11 16  1  0  0  0  0
 52 54  1  0  0  0  0
 52 55  1  0  0  0  0
 52 56  1  0  0  0  0
 22 32  1  0  0  0  0
 22 33  1  0  0  0  0
 21 30  1  0  0  0  0
 21 31  1  0  0  0  0
 23 34  1  0  0  0  0
 23 35  1  0  0  0  0
 42 47  1  0  0  0  0
  8 13  1  0  0  0  0
 18 29  1  0  0  0  0
 26 37  1  0  0  0  0
 26 38  1  0  0  0  0
 27 39  1  0  0  0  0
 27 40  1  0  0  0  0
 51 53  1  0  0  0  0
  7 12  1  0  0  0  0
 41 46  1  0  0  0  0
 17 28  1  0  0  0  0
 24 36  1  0  0  0  0
M  CHG  1  24   1
M  END
$$$$

  -OEChem-05262214473D

 56 55  0     1  0  0  0  0  0999 V2000
    0.7735   -5.8042   -2.0022 C   0  0  0  0  0  0  0  0  0  0  0  0
   -0.2086   -6.3825   -1.5519 O   0  0  0  0  0  0  0  0  0  0  0  0
    1.4751   -6.3646   -3.1946 C   0  0  0  0  0  0  0  0  0  0  0  0
    2.2765   -7.0687   -2.9186 H   0  0  0  0  0  0  0  0  0  0  0  0
    0.7988   -6.9360   -3.8504 H   0  0  0  0  0  0  0  0  0  0  0  0
    1.9556   -5.6216   -3.8511 H   0  0  0  0  0  0  0  0  0  0  0  0
    1.3322   -4.6359   -1.5106 N   0  0  0  0  0  0  0  0  0  0  0  0
    0.8124   -3.9290   -0.3698 C   0  0  2  0  0  0  0  0  0  0  0  0
    1.0666   -2.4424   -0.5818 C   0  0  0  0  0  0  0  0  0  0  0  0
    2.0598   -2.0076   -1.1610 O   0  0  0  0  0  0  0  0  0  0  0  0
    1.4560   -4.4118    0.9207 C   0  0  0  0  0  0  0  0  0  0  0  0
    2.1528   -4.2578   -1.9805 H   0  0  0  0  0  0  0  0  0  0  0  0
   -0.2667   -4.1160   -0.3467 H   0  0  0  0  0  0  0  0  0  0  0  0
    2.5374   -4.2329    0.9160 H   0  0  0  0  0  0  0  0  0  0  0  0
    1.0390   -3.8932    1.7903 H   0  0  0  0  0  0  0  0  0  0  0  0
    1.2976   -5.4871    1.0566 H   0  0  0  0  0  0  0  0  0  0  0  0
    0.0755   -1.6529   -0.0105 N   0  0  0  0  0  0  0  0  0  0  0  0
    0.1113   -0.2132   -0.0391 C   0  0  2  0  0  0  0  0  0  0  0  0
   -1.1345    0.2906    0.6817 C   0  0  0  0  0  0  0  0  0  0  0  0
   -2.2755    0.0535    0.2905 O   0  0  0  0  0  0  0  0  0  0  0  0
    0.1600    0.3332   -1.4696 C   0  0  0  0  0  0  0  0  0  0  0  0
    1.4751   -0.0076   -2.1807 C   0  0  0  0  0  0  0  0  0  0  0  0
    1.5181    0.5387   -3.6040 C   0  0  0  0  0  0  0  0  0  0  0  0
    2.7628    0.1919   -4.2861 N   0  3  0  0  0  0  0  0  0  0  0  0
    3.0042    0.5303   -5.6189 C   0  0  0  0  0  0  0  0  0  0  0  0
    4.2128    0.1672   -6.2036 N   0  0  0  0  0  0  0  0  0  0  0  0
    2.0652    1.2226   -6.3765 N   0  0  0  0  0  0  0  0  0  0  0  0
   -0.7323   -2.1024    0.4149 H   0  0  0  0  0  0  0  0  0  0  0  0
    0.9994    0.0936    0.5251 H   0  0  0  0  0  0  0  0  0  0  0  0
    0.0306    1.4220   -1.4491 H   0  0  0  0  0  0  0  0  0  0  0  0
   -0.6819   -0.0676   -2.0494 H   0  0  0  0  0  0  0  0  0  0  0  0
    2.3183    0.3965   -1.6077 H   0  0  0  0  0  0  0  0  0  0  0  0
    1.5991   -1.0958   -2.2232 H   0  0  0  0  0  0  0  0  0  0  0  0
    0.6976    0.1102   -4.1877 H   0  0  0  0  0  0  0  0  0  0  0  0
    1.4208    1.6287   -3.6075 H   0  0  0  0  0  0  0  0  0  0  0  0
    3.4883   -0.3151   -3.7821 H   0  0  0  0  0  0  0  0  0  0  0  0
    4.4199    0.3987   -7.1723 H   0  0  0  0  0  0  0  0  0  0  0  0
    4.9211   -0.3396   -5.6784 H   0  0  0  0  0  0  0  0  0  0  0  0
    2.2360    1.4715   -7.3474 H   0  0  0  0  0  0  0  0  0  0  0  0
    1.1726    1.5008   -5.9756 H   0  0  0  0  0  0  0  0  0  0  0  0
   -0.8197    1.0753    1.7824 N   0  0  0  0  0  0  0  0  0  0  0  0
   -1.8213    1.7125    2.6060 C   0  0  2  0  0  0  0  0  0  0  0  0
   -1.2405    3.0214    3.1246 C   0  0  0  0  0  0  0  0  0  0  0  0
   -0.0511    3.1651    3.3997 O   0  0  0  0  0  0  0  0  0  0  0  0
   -2.2462    0.8129    3.7561 C   0  0  0  0  0  0  0  0  0  0  0  0
    0.1532    1.1904    2.0505 H   0  0  0  0  0  0  0  0  0  0  0  0
   -2.6773    1.9243    1.9560 H   0  0  0  0  0  0  0  0  0  0  0  0
   -1.4016    0.5898    4.4183 H   0  0  0  0  0  0  0  0  0  0  0  0
   -3.0257    1.2857    4.3626 H   0  0  0  0  0  0  0  0  0  0  0  0
   -2.6360   -0.1399    3.3821 H   0  0  0  0  0  0  0  0  0  0  0  0
   -2.2142    3.9972    3.2849 N   0  0  0  0  0  0  0  0  0  0  0  0
   -1.9216    5.3128    3.8041 C   0  0  0  0  0  0  0  0  0  0  0  0
   -3.1680    3.8040    2.9938 H   0  0  0  0  0  0  0  0  0  0  0  0
   -2.0731    5.3197    4.8936 H   0  0  0  0  0  0  0  0  0  0  0  0
   -0.8768    5.5722    3.5776 H   0  0  0  0  0  0  0  0  0  0  0  0
   -2.5918    6.0490    3.3362 H   0  0  0  0  0  0  0  0  0  0  0  0
  1  3  1  0  0  0  0
  1  7  1  0  0  0  0
  1  2  2  0  0  0  0
 42 43  1  0  0  0  0
 43 51  1  0  0  0  0
 43 44  2  0  0  0  0
  8  9  1  0  0  0  0
  9 17  1  0  0  0  0
  9 10  2  0  0  0  0
 18 19  1  0  0  0  0
 19 41  1  0  0  0  0
 19 20  2  0  0  0  0
 25 26  1  0  0  0  0
 25 27  1  0  0  0  0
 24 25  2  0  0  0  0
 42 45  1  0  0  0  0
  8 11  1  0  0  0  0
 51 52  1  0  0  0  0
 21 22  1  0  0  0  0
 22 23  1  0  0  0  0
 18 21  1  0  0  0  0
 23 24  1  0  0  0  0
 41 42  1  0  0  0  0
  7  8  1  0  0  0  0
 17 18  1  0  0  0  0
  3  4  1  0  0  0  0
  3  5  1  0  0  0  0
  3  6  1  0  0  0  0
 45 48  1  0  0  0  0
 45 49  1  0  0  0  0
 45 50  1  0  0  0  0
 11 14  1  0  0  0  0
 11 15  1  0  0  0  0
 11 16  1  0  0  0  0
 52 54  1  0  0  0  0
 52 55  1  0  0  0  0
 52 56  1  0  0  0  0
 22 32  1  0  0  0  0
 22 33  1  0  0  0  0
 21 30  1  0  0  0  0
 21 31  1  0  0  0  0
 23 34  1  0  0  0  0
 23 35  1  0  0  0  0
 42 47  1  0  0  0  0
  8 13  1  0  0  0  0
 18 29  1  0  0  0  0
 26 37  1  0  0  0  0
 26 38  1  0  0  0  0
 27 39  1  0  0  0  0
 27 40  1  0  0  0  0
 51 53  1  0  0  0  0
  7 12  1  0  0  0  0
 41 46  1  0  0  0  0
 17 28  1  0  0  0  0
 24 36  1  0  0  0  0
M  CHG  1  24   1
M  END
$$$$

  -OEChem-05262214473D

 56 55  0     1  0  0  0  0  0999 V2000
    0.7735   -5.8042   -2.0022 C   0  0  0  0  0  0  0  0  0  0  0  0
   -0.2086   -6.3825   -1.5519 O   0  0  0  0  0  0  0  0  0  0  0  0
    1.4751   -6.3646   -3.1946 C   0  0  0  0  0  0  0  0  0  0  0  0
    2.2765   -7.0687   -2.9186 H   0  0  0  0  0  0  0  0  0  0  0  0
    0.7988   -6.9360   -3.8504 H   0  0  0  0  0  0  0  0  0  0  0  0
    1.9556   -5.6216   -3.8511 H   0  0  0  0  0  0  0  0  0  0  0  0
    1.3322   -4.6359   -1.5106 N   0  0  0  0  0  0  0  0  0  0  0  0
    0.8124   -3.9290   -0.3698 C   0  0  2  0  0  0  0  0  0  0  0  0
    1.0666   -2.4424   -0.5818 C   0  0  0  0  0  0  0  0  0  0  0  0
    2.0598   -2.0076   -1.1610 O   0  0  0  0  0  0  0  0  0  0  0  0
    1.4560   -4.4118    0.9207 C   0  0  0  0  0  0  0  0  0  0  0  0
    2.1528   -4.2578   -1.9805 H   0  0  0  0  0  0  0  0  0  0  0  0
   -0.2667   -4.1160   -0.3467 H   0  0  0  0  0  0  0  0  0  0  0  0
    2.5374   -4.2329    0.9160 H   0  0  0  0  0  0  0  0  0  0  0  0
    1.0390   -3.8932    1.7903 H   0  0  0  0  0  0  0  0  0  0  0  0
    1.2976   -5.4871    1.0566 H   0  0  0  0  0  0  0  0  0  0  0  0
    0.0755   -1.6529   -0.0105 N   0  0  0  0  0  0  0  0  0  0  0  0
    0.1113   -0.2132   -0.0391 C   0  0  2  0  0  0  0  0  0  0  0  0
   -1.1345    0.2906    0.6817 C   0  0  0  0  0  0  0  0  0  0  0  0
   -2.2597   -0.1532    0.4623 O   0  0  0  0  0  0  0  0  0  0  0  0
    0.1600    0.3332   -1.4696 C   0  0  0  0  0  0  0  0  0  0  0  0
    1.4751   -0.0076   -2.1807 C   0  0  0  0  0  0  0  0  0  0  0  0
    1.5181    0.5387   -3.6040 C   0  0  0  0  0  0  0  0  0  0  0  0
    2.7628    0.1919   -4.2861 N   0  3  0  0  0  0  0  0  0  0  0  0
    3.0042    0.5303   -5.6189 C   0  0  0  0  0  0  0  0  0  0  0  0
    4.2128    0.1672   -6.2036 N   0  0  0  0  0  0  0  0  0  0  0  0
    2.0652    1.2226   -6.3765 N   0  0  0  0  0  0  0  0  0  0  0  0
   -0.7323   -2.1024    0.4149 H   0  0  0  0  0  0  0  0  0  0  0  0
    0.9994    0.0936    0.5251 H   0  0  0  0  0  0  0  0  0  0  0  0
    0.0306    1.4220   -1.4491 H   0  0  0  0  0  0  0  0  0  0  0  0
   -0.6819   -0.0676   -2.0494 H   0  0  0  0  0  0  0  0  0  0  0  0
    2.3183    0.3965   -1.6077 H   0  0  0  0  0  0  0  0  0  0  0  0
    1.5991   -1.0958   -2.2232 H   0  0  0  0  0  0  0  0  0  0  0  0
    0.6976    0.1102   -4.1877 H   0  0  0  0  0  0  0  0  0  0  0  0
    1.4208    1.6287   -3.6075 H   0  0  0  0  0  0  0  0  0  0  0  0
    3.4883   -0.3151   -3.7821 H   0  0  0  0  0  0  0  0  0  0  0  0
    4.4199    0.3987   -7.1723 H   0  0  0  0  0  0  0  0  0  0  0  0
    4.9211   -0.3396   -5.6784 H   0  0  0  0  0  0  0  0  0  0  0  0
    2.2360    1.4715   -7.3474 H   0  0  0  0  0  0  0  0  0  0  0  0
    1.1726    1.5008   -5.9756 H   0  0  0  0  0  0  0  0  0  0  0  0
   -0.8469    1.3257    1.5605 N   0  0  0  0  0  0  0  0  0  0  0  0
   -1.8613    2.0088    2.3297 C   0  0  2  0  0  0  0  0  0  0  0  0
   -1.4217    3.4561    2.5075 C   0  0  0  0  0  0  0  0  0  0  0  0
   -0.2448    3.7896    2.6284 O   0  0  0  0  0  0  0  0  0  0  0  0
   -2.0798    1.3377    3.6768 C   0  0  0  0  0  0  0  0  0  0  0  0
    0.1193    1.6054    1.7017 H   0  0  0  0  0  0  0  0  0  0  0  0
   -2.7824    1.9764    1.7377 H   0  0  0  0  0  0  0  0  0  0  0  0
   -1.1676    1.3604    4.2841 H   0  0  0  0  0  0  0  0  0  0  0  0
   -2.8688    1.8394    4.2467 H   0  0  0  0  0  0  0  0  0  0  0  0
   -2.3670    0.2886    3.5476 H   0  0  0  0  0  0  0  0  0  0  0  0
   -2.5012    4.3269    2.5586 N   0  0  0  0  0  0  0  0  0  0  0  0
   -2.3473    5.7482    2.7639 C   0  0  0  0  0  0  0  0  0  0  0  0
   -3.4398    3.9685    2.4091 H   0  0  0  0  0  0  0  0  0  0  0  0
   -2.4192    5.9738    3.8381 H   0  0  0  0  0  0  0  0  0  0  0  0
   -1.3649    6.0687    2.3870 H   0  0  0  0  0  0  0  0  0  0  0  0
   -3.1406    6.2847    2.2228 H   0  0  0  0  0  0  0  0  0  0  0  0
  1  3  1  0  0  0  0
  1  7  1  0  0  0  0
  1  2  2  0  0  0  0
 42 43  1  0  0  0  0
 43 51  1  0  0  0  0
 43 44  2  0  0  0  0
  8  9  1  0  0  0  0
  9 17  1  0  0  0  0
  9 10  2  0  0  0  0
 18 19  1  0  0  0  0
 19 41  1  0  0  0  0
 19 20  2  0  0  0  0
 25 26  1  0  0  0  0
 25 27  1  0  0  0  0
 24 25  2  0  0  0  0
 42 45  1  0  0  0  0
  8 11  1  0  0  0  0
 51 52  1  0  0  0  0
 21 22  1  0  0  0  0
 22 23  1  0  0  0  0
 18 21  1  0  0  0  0
 23 24  1  0  0  0  0
 41 42  1  0  0  0  0
  7  8  1  0  0  0  0
 17 18  1  0  0  0  0
  3  4  1  0  0  0  0
  3  5  1  0  0  0  0
  3  6  1  0  0  0  0
 45 48  1  0  0  0  0
 45 49  1  0  0  0  0
 45 50  1  0  0  0  0
 11 14  1  0  0  0  0
 11 15  1  0  0  0  0
 11 16  1  0  0  0  0
 52 54  1  0  0  0  0
 52 55  1  0  0  0  0
 52 56  1  0  0  0  0
 22 32  1  0  0  0  0
 22 33  1  0  0  0  0
 21 30  1  0  0  0  0
 21 31  1  0  0  0  0
 23 34  1  0  0  0  0
 23 35  1  0  0  0  0
 42 47  1  0  0  0  0
  8 13  1  0  0  0  0
 18 29  1  0  0  0  0
 26 37  1  0  0  0  0
 26 38  1  0  0  0  0
 27 39  1  0  0  0  0
 27 40  1  0  0  0  0
 51 53  1  0  0  0  0
  7 12  1  0  0  0  0
 41 46  1  0  0  0  0
 17 28  1  0  0  0  0
 24 36  1  0  0  0  0
M  CHG  1  24   1
M  END
$$$$

  -OEChem-05262214473D

 56 55  0     1  0  0  0  0  0999 V2000
    0.7735   -5.8042   -2.0022 C   0  0  0  0  0  0  0  0  0  0  0  0
   -0.2086   -6.3825   -1.5519 O   0  0  0  0  0  0  0  0  0  0  0  0
    1.4751   -6.3646   -3.1946 C   0  0  0  0  0  0  0  0  0  0  0  0
    2.2765   -7.0687   -2.9186 H   0  0  0  0  0  0  0  0  0  0  0  0
    0.7988   -6.9360   -3.8504 H   0  0  0  0  0  0  0  0  0  0  0  0
    1.9556   -5.6216   -3.8511 H   0  0  0  0  0  0  0  0  0  0  0  0
    1.3322   -4.6359   -1.5106 N   0  0  0  0  0  0  0  0  0  0  0  0
    0.8124   -3.9290   -0.3698 C   0  0  2  0  0  0  0  0  0  0  0  0
    1.0666   -2.4424   -0.5818 C   0  0  0  0  0  0  0  0  0  0  0  0
    2.0598   -2.0076   -1.1610 O   0  0  0  0  0  0  0  0  0  0  0  0
    1.4560   -4.4118    0.9207 C   0  0  0  0  0  0  0  0  0  0  0  0
    2.1528   -4.2578   -1.9805 H   0  0  0  0  0  0  0  0  0  0  0  0
   -0.2667   -4.1160   -0.3467 H   0  0  0  0  0  0  0  0  0  0  0  0
    2.5374   -4.2329    0.9160 H   0  0  0  0  0  0  0  0  0  0  0  0
    1.0390   -3.8932    1.7903 H   0  0  0  0  0  0  0  0  0  0  0  0
    1.2976   -5.4871    1.0566 H   0  0  0  0  0  0  0  0  0  0  0  0
    0.0755   -1.6529   -0.0105 N   0  0  0  0  0  0  0  0  0  0  0  0
    0.1113   -0.2132   -0.0391 C   0  0  2  0  0  0  0  0  0  0  0  0
   -1.1345    0.2906    0.6817 C   0  0  0  0  0  0  0  0  0  0  0  0
   -2.2044   -0.3146    0.6706 O   0  0  0  0  0  0  0  0  0  0  0  0
    0.1600    0.3332   -1.4696 C   0  0  0  0  0  0  0  0  0  0  0  0
    1.4751   -0.0076   -2.1807 C   0  0  0  0  0  0  0  0  0  0  0  0
    1.5181    0.5387   -3.6040 C   0  0  0  0  0  0  0  0  0  0  0  0
    2.7628    0.1919   -4.2861 N   0  3  0  0  0  0  0  0  0  0  0  0
    3.0042    0.5303   -5.6189 C   0  0  0  0  0  0  0  0  0  0  0  0
    4.2128    0.1672   -6.2036 N   0  0  0  0  0  0  0  0  0  0  0  0
    2.0652    1.2226   -6.3765 N   0  0  0  0  0  0  0  0  0  0  0  0
   -0.7323   -2.1024    0.4149 H   0  0  0  0  0  0  0  0  0  0  0  0
    0.9994    0.0936    0.5251 H   0  0  0  0  0  0  0  0  0  0  0  0
    0.0306    1.4220   -1.4491 H   0  0  0  0  0  0  0  0  0  0  0  0
   -0.6819   -0.0676   -2.0494 H   0  0  0  0  0  0  0  0  0  0  0  0
    2.3183    0.3965   -1.6077 H   0  0  0  0  0  0  0  0  0  0  0  0
    1.5991   -1.0958   -2.2232 H   0  0  0  0  0  0  0  0  0  0  0  0
    0.6976    0.1102   -4.1877 H   0  0  0  0  0  0  0  0  0  0  0  0
    1.4208    1.6287   -3.6075 H   0  0  0  0  0  0  0  0  0  0  0  0
    3.4883   -0.3151   -3.7821 H   0  0  0  0  0  0  0  0  0  0  0  0
    4.4199    0.3987   -7.1723 H   0  0  0  0  0  0  0  0  0  0  0  0
    4.9211   -0.3396   -5.6784 H   0  0  0  0  0  0  0  0  0  0  0  0
    2.2360    1.4715   -7.3474 H   0  0  0  0  0  0  0  0  0  0  0  0
    1.1726    1.5008   -5.9756 H   0  0  0  0  0  0  0  0  0  0  0  0
   -0.9227    1.5173    1.2955 N   0  0  0  0  0  0  0  0  0  0  0  0
   -1.9598    2.2316    2.0037 C   0  0  2  0  0  0  0  0  0  0  0  0
   -1.7027    3.7233    1.8351 C   0  0  0  0  0  0  0  0  0  0  0  0
   -0.5742    4.2060    1.7679 O   0  0  0  0  0  0  0  0  0  0  0  0
   -1.9901    1.8482    3.4750 C   0  0  0  0  0  0  0  0  0  0  0  0
    0.0060    1.9285    1.2800 H   0  0  0  0  0  0  0  0  0  0  0  0
   -2.9091    1.9677    1.5250 H   0  0  0  0  0  0  0  0  0  0  0  0
   -1.0472    2.1051    3.9715 H   0  0  0  0  0  0  0  0  0  0  0  0
   -2.7949    2.3689    4.0043 H   0  0  0  0  0  0  0  0  0  0  0  0
   -2.1454    0.7704    3.5938 H   0  0  0  0  0  0  0  0  0  0  0  0
   -2.8808    4.4565    1.8118 N   0  0  0  0  0  0  0  0  0  0  0  0
   -2.9008    5.8966    1.7036 C   0  0  0  0  0  0  0  0  0  0  0  0
   -3.7724    3.9704    1.8328 H   0  0  0  0  0  0  0  0  0  0  0  0
   -2.9238    6.3402    2.7100 H   0  0  0  0  0  0  0  0  0  0  0  0
   -1.9989    6.2369    1.1736 H   0  0  0  0  0  0  0  0  0  0  0  0
   -3.7948    6.2098    1.1445 H   0  0  0  0  0  0  0  0  0  0  0  0
  1  3  1  0  0  0  0
  1  7  1  0  0  0  0
  1  2  2  0  0  0  0
 42 43  1  0  0  0  0
 43 51  1  0  0  0  0
 43 44  2  0  0  0  0
  8  9  1  0  0  0  0
  9 17  1  0  0  0  0
  9 10  2  0  0  0  0
 18 19  1  0  0  0  0
 19 41  1  0  0  0  0
 19 20  2  0  0  0  0
 25 26  1  0  0  0  0
 25 27  1  0  0  0  0
 24 25  2  0  0  0  0
 42 45  1  0  0  0  0
  8 11  1  0  0  0  0
 51 52  1  0  0  0  0
 21 22  1  0  0  0  0
 22 23  1  0  0  0  0
 18 21  1  0  0  0  0
 23 24  1  0  0  0  0
 41 42  1  0  0  0  0
  7  8  1  0  0  0  0
 17 18  1  0  0  0  0
  3  4  1  0  0  0  0
  3  5  1  0  0  0  0
  3  6  1  0  0  0  0
 45 48  1  0  0  0  0
 45 49  1  0  0  0  0
 45 50  1  0  0  0  0
 11 14  1  0  0  0  0
 11 15  1  0  0  0  0
 11 16  1  0  0  0  0
 52 54  1  0  0  0  0
 52 55  1  0  0  0  0
 52 56  1  0  0  0  0
 22 32  1  0  0  0  0
 22 33  1  0  0  0  0
 21 30  1  0  0  0  0
 21 31  1  0  0  0  0
 23 34  1  0  0  0  0
 23 35  1  0  0  0  0
 42 47  1  0  0  0  0
  8 13  1  0  0  0  0
 18 29  1  0  0  0  0
 26 37  1  0  0  0  0
 26 38  1  0  0  0  0
 27 39  1  0  0  0  0
 27 40  1  0  0  0  0
 51 53  1  0  0  0  0
  7 12  1  0  0  0  0
 41 46  1  0  0  0  0
 17 28  1  0  0  0  0
 24 36  1  0  0  0  0
M  CHG  1  24   1
M  END
$$$$

  -OEChem-05262214473D

 56 55  0     1  0  0  0  0  0999 V2000
    0.7735   -5.8042   -2.0022 C   0  0  0  0  0  0  0  0  0  0  0  0
   -0.2086   -6.3825   -1.5519 O   0  0  0  0  0  0  0  0  0  0  0  0
    1.4751   -6.3646   -3.1946 C   0  0  0  0  0  0  0  0  0  0  0  0
    2.2765   -7.0687   -2.9186 H   0  0  0  0  0  0  0  0  0  0  0  0
    0.7988   -6.9360   -3.8504 H   0  0  0  0  0  0  0  0  0  0  0  0
    1.9556   -5.6216   -3.8511 H   0  0  0  0  0  0  0  0  0  0  0  0
    1.3322   -4.6359   -1.5106 N   0  0  0  0  0  0  0  0  0  0  0  0
    0.8124   -3.9290   -0.3698 C   0  0  2  0  0  0  0  0  0  0  0  0
    1.0666   -2.4424   -0.5818 C   0  0  0  0  0  0  0  0  0  0  0  0
    2.0598   -2.0076   -1.1610 O   0  0  0  0  0  0  0  0  0  0  0  0
    1.4560   -4.4118    0.9207 C   0  0  0  0  0  0  0  0  0  0  0  0
    2.1528   -4.2578   -1.9805 H   0  0  0  0  0  0  0  0  0  0  0  0
   -0.2667   -4.1160   -0.3467 H   0  0  0  0  0  0  0  0  0  0  0  0
    2.5374   -4.2329    0.9160 H   0  0  0  0  0  0  0  0  0  0  0  0
    1.0390   -3.8932    1.7903 H   0  0  0  0  0  0  0  0  0  0  0  0
    1.2976   -5.4871    1.0566 H   0  0  0  0  0  0  0  0  0  0  0  0
    0.0755   -1.6529   -0.0105 N   0  0  0  0  0  0  0  0  0  0  0  0
    0.1113   -0.2132   -0.0391 C   0  0  2  0  0  0  0  0  0  0  0  0
   -1.1345    0.2906    0.6817 C   0  0  0  0  0  0  0  0  0  0  0  0
   -2.1135   -0.4197    0.9012 O   0  0  0  0  0  0  0  0  0  0  0  0
    0.1600    0.3332   -1.4696 C   0  0  0  0  0  0  0  0  0  0  0  0
    1.4751   -0.0076   -2.1807 C   0  0  0  0  0  0  0  0  0  0  0  0
    1.5181    0.5387   -3.6040 C   0  0  0  0  0  0  0  0  0  0  0  0
    2.7628    0.1919   -4.2861 N   0  3  0  0  0  0  0  0  0  0  0  0
    3.0042    0.5303   -5.6189 C   0  0  0  0  0  0  0  0  0  0  0  0
    4.2128    0.1672   -6.2036 N   0  0  0  0  0  0  0  0  0  0  0  0
    2.0652    1.2226   -6.3765 N   0  0  0  0  0  0  0  0  0  0  0  0
   -0.7323   -2.1024    0.4149 H   0  0  0  0  0  0  0  0  0  0  0  0
    0.9994    0.0936    0.5251 H   0  0  0  0  0  0  0  0  0  0  0  0
    0.0306    1.4220   -1.4491 H   0  0  0  0  0  0  0  0  0  0  0  0
   -0.6819   -0.0676   -2.0494 H   0  0  0  0  0  0  0  0  0  0  0  0
    2.3183    0.3965   -1.6077 H   0  0  0  0  0  0  0  0  0  0  0  0
    1.5991   -1.0958   -2.2232 H   0  0  0  0  0  0  0  0  0  0  0  0
    0.6976    0.1102   -4.1877 H   0  0  0  0  0  0  0  0  0  0  0  0
    1.4208    1.6287   -3.6075 H   0  0  0  0  0  0  0  0  0  0  0  0
    3.4883   -0.3151   -3.7821 H   0  0  0  0  0  0  0  0  0  0  0  0
    4.4199    0.3987   -7.1723 H   0  0  0  0  0  0  0  0  0  0  0  0
    4.9211   -0.3396   -5.6784 H   0  0  0  0  0  0  0  0  0  0  0  0
    2.2360    1.4715   -7.3474 H   0  0  0  0  0  0  0  0  0  0  0  0
    1.1726    1.5008   -5.9756 H   0  0  0  0  0  0  0  0  0  0  0  0
   -1.0420    1.6371    1.0055 N   0  0  0  0  0  0  0  0  0  0  0  0
   -2.1101    2.3659    1.6501 C   0  0  2  0  0  0  0  0  0  0  0  0
   -2.0643    3.8048    1.1531 C   0  0  0  0  0  0  0  0  0  0  0  0
   -1.0170    4.3860    0.8768 O   0  0  0  0  0  0  0  0  0  0  0  0
   -1.9831    2.3096    3.1645 C   0  0  0  0  0  0  0  0  0  0  0  0
   -0.1791    2.1375    0.8141 H   0  0  0  0  0  0  0  0  0  0  0  0
   -3.0485    1.8988    1.3321 H   0  0  0  0  0  0  0  0  0  0  0  0
   -1.0488    2.7730    3.5019 H   0  0  0  0  0  0  0  0  0  0  0  0
   -2.8090    2.8382    3.6518 H   0  0  0  0  0  0  0  0  0  0  0  0
   -1.9863    1.2727    3.5176 H   0  0  0  0  0  0  0  0  0  0  0  0
   -3.3272    4.3775    1.0955 N   0  0  0  0  0  0  0  0  0  0  0  0
   -3.5442    5.7482    0.6953 C   0  0  0  0  0  0  0  0  0  0  0  0
   -4.1433    3.8098    1.3041 H   0  0  0  0  0  0  0  0  0  0  0  0
   -3.5524    6.3938    1.5859 H   0  0  0  0  0  0  0  0  0  0  0  0
   -2.7357    6.0652    0.0202 H   0  0  0  0  0  0  0  0  0  0  0  0
   -4.5097    5.8295    0.1747 H   0  0  0  0  0  0  0  0  0  0  0  0
  1  3  1  0  0  0  0
  1  7  1  0  0  0  0
  1  2  2  0  0  0  0
 42 43  1  0  0  0  0
 43 51  1  0  0  0  0
 43 44  2  0  0  0  0
  8  9  1  0  0  0  0
  9 17  1  0  0  0  0
  9 10  2  0  0  0  0
 18 19  1  0  0  0  0
 19 41  1  0  0  0  0
 19 20  2  0  0  0  0
 25 26  1  0  0  0  0
 25 27  1  0  0  0  0
 24 25  2  0  0  0  0
 42 45  1  0  0  0  0
  8 11  1  0  0  0  0
 51 52  1  0  0  0  0
 21 22  1  0  0  0  0
 22 23  1  0  0  0  0
 18 21  1  0  0  0  0
 23 24  1  0  0  0  0
 41 42  1  0  0  0  0
  7  8  1  0  0  0  0
 17 18  1  0  0  0  0
  3  4  1  0  0  0  0
  3  5  1  0  0  0  0
  3  6  1  0  0  0  0
 45 48  1  0  0  0  0
 45 49  1  0  0  0  0
 45 50  1  0  0  0  0
 11 14  1  0  0  0  0
 11 15  1  0  0  0  0
 11 16  1  0  0  0  0
 52 54  1  0  0  0  0
 52 55  1  0  0  0  0
 52 56  1  0  0  0  0
 22 32  1  0  0  0  0
 22 33  1  0  0  0  0
 21 30  1  0  0  0  0
 21 31  1  0  0  0  0
 23 34  1  0  0  0  0
 23 35  1  0  0  0  0
 42 47  1  0  0  0  0
  8 13  1  0  0  0  0
 18 29  1  0  0  0  0
 26 37  1  0  0  0  0
 26 38  1  0  0  0  0
 27 39  1  0  0  0  0
 27 40  1  0  0  0  0
 51 53  1  0  0  0  0
  7 12  1  0  0  0  0
 41 46  1  0  0  0  0
 17 28  1  0  0  0  0
 24 36  1  0  0  0  0
M  CHG  1  24   1
M  END
$$$$

  -OEChem-05262214473D

 56 55  0     1  0  0  0  0  0999 V2000
    0.7735   -5.8042   -2.0022 C   0  0  0  0  0  0  0  0  0  0  0  0
   -0.2086   -6.3825   -1.5519 O   0  0  0  0  0  0  0  0  0  0  0  0
    1.4751   -6.3646   -3.1946 C   0  0  0  0  0  0  0  0  0  0  0  0
    2.2765   -7.0687   -2.9186 H   0  0  0  0  0  0  0  0  0  0  0  0
    0.7988   -6.9360   -3.8504 H   0  0  0  0  0  0  0  0  0  0  0  0
    1.9556   -5.6216   -3.8511 H   0  0  0  0  0  0  0  0  0  0  0  0
    1.3322   -4.6359   -1.5106 N   0  0  0  0  0  0  0  0  0  0  0  0
    0.8124   -3.9290   -0.3698 C   0  0  2  0  0  0  0  0  0  0  0  0
    1.0666   -2.4424   -0.5818 C   0  0  0  0  0  0  0  0  0  0  0  0
    2.0598   -2.0076   -1.1610 O   0  0  0  0  0  0  0  0  0  0  0  0
    1.4560   -4.4118    0.9207 C   0  0  0  0  0  0  0  0  0  0  0  0
    2.1528   -4.2578   -1.9805 H   0  0  0  0  0  0  0  0  0  0  0  0
   -0.2667   -4.1160   -0.3467 H   0  0  0  0  0  0  0  0  0  0  0  0
    2.5374   -4.2329    0.9160 H   0  0  0  0  0  0  0  0  0  0  0  0
    1.0390   -3.8932    1.7903 H   0  0  0  0  0  0  0  0  0  0  0  0
    1.2976   -5.4871    1.0566 H   0  0  0  0  0  0  0  0  0  0  0  0
    0.0755   -1.6529   -0.0105 N   0  0  0  0  0  0  0  0  0  0  0  0
    0.1113   -0.2132   -0.0391 C   0  0  2  0  0  0  0  0  0  0  0  0
   -0.9026    0.2908    0.9823 C   0  0  0  0  0  0  0  0  0  0  0  0
   -1.6183   -0.4606    1.6413 O   0  0  0  0  0  0  0  0  0  0  0  0
   -0.2084    0.3432   -1.4303 C   0  0  0  0  0  0  0  0  0  0  0  0
    0.8759    0.0018   -2.4594 C   0  0  0  0  0  0  0  0  0  0  0  0
    0.5525    0.5581   -3.8422 C   0  0  0  0  0  0  0  0  0  0  0  0
    1.5764    0.2107   -4.8250 N   0  3  0  0  0  0  0  0  0  0  0  0
    1.4668    0.5576   -6.1729 C   0  0  0  0  0  0  0  0  0  0  0  0
    2.4808    0.1935   -7.0525 N   0  0  0  0  0  0  0  0  0  0  0  0
    0.3680    1.2593   -6.6579 N   0  0  0  0  0  0  0  0  0  0  0  0
   -0.7323   -2.1024    0.4149 H   0  0  0  0  0  0  0  0  0  0  0  0
    1.1170    0.0858    0.2779 H   0  0  0  0  0  0  0  0  0  0  0  0
   -0.3215    1.4324   -1.3707 H   0  0  0  0  0  0  0  0  0  0  0  0
   -1.1740   -0.0499   -1.7748 H   0  0  0  0  0  0  0  0  0  0  0  0
    1.8410    0.3981   -2.1217 H   0  0  0  0  0  0  0  0  0  0  0  0
    0.9782   -1.0866   -2.5388 H   0  0  0  0  0  0  0  0  0  0  0  0
   -0.3936    0.1372   -4.1962 H   0  0  0  0  0  0  0  0  0  0  0  0
    0.4642    1.6484   -3.8141 H   0  0  0  0  0  0  0  0  0  0  0  0
    2.4045   -0.3030   -4.5289 H   0  0  0  0  0  0  0  0  0  0  0  0
    2.4318    0.4309   -8.0404 H   0  0  0  0  0  0  0  0  0  0  0  0
    3.2979   -0.3201   -6.7314 H   0  0  0  0  0  0  0  0  0  0  0  0
    0.2833    1.5143   -7.6384 H   0  0  0  0  0  0  0  0  0  0  0  0
   -0.3888    1.5385   -6.0380 H   0  0  0  0  0  0  0  0  0  0  0  0
   -0.9470    1.6771    1.0341 N   0  0  0  0  0  0  0  0  0  0  0  0
   -1.8595    2.4032    1.8870 C   0  0  2  0  0  0  0  0  0  0  0  0
   -2.2286    3.7022    1.1828 C   0  0  0  0  0  0  0  0  0  0  0  0
   -1.4452    4.3239    0.4681 O   0  0  0  0  0  0  0  0  0  0  0  0
   -1.2424    2.6797    3.2492 C   0  0  0  0  0  0  0  0  0  0  0  0
   -0.2936    2.2178    0.4752 H   0  0  0  0  0  0  0  0  0  0  0  0
   -2.7536    1.7799    1.9969 H   0  0  0  0  0  0  0  0  0  0  0  0
   -0.3452    3.3030    3.1592 H   0  0  0  0  0  0  0  0  0  0  0  0
   -1.9455    3.2049    3.9040 H   0  0  0  0  0  0  0  0  0  0  0  0
   -0.9503    1.7459    3.7415 H   0  0  0  0  0  0  0  0  0  0  0  0
   -3.5219    4.1082    1.4809 N   0  0  0  0  0  0  0  0  0  0  0  0
   -4.0922    5.3324    0.9690 C   0  0  0  0  0  0  0  0  0  0  0  0
   -4.1145    3.5109    2.0500 H   0  0  0  0  0  0  0  0  0  0  0  0
   -3.9249    6.1454    1.6909 H   0  0  0  0  0  0  0  0  0  0  0  0
   -3.6136    5.5877    0.0121 H   0  0  0  0  0  0  0  0  0  0  0  0
   -5.1727    5.1965    0.8139 H   0  0  0  0  0  0  0  0  0  0  0  0
  1  3  1  0  0  0  0
  1  7  1  0  0  0  0
  1  2  2  0  0  0  0
 42 43  1  0  0  0  0
 43 51  1  0  0  0  0
 43 44  2  0  0  0  0
  8  9  1  0  0  0  0
  9 17  1  0  0  0  0
  9 10  2  0  0  0  0
 18 19  1  0  0  0  0
 19 41  1  0  0  0  0
 19 20  2  0  0  0  0
 25 26  1  0  0  0  0
 25 27  1  0  0  0  0
 24 25  2  0  0  0  0
 42 45  1  0  0  0  0
  8 11  1  0  0  0  0
 51 52  1  0  0  0  0
 21 22  1  0  0  0  0
 22 23  1  0  0  0  0
 18 21  1  0  0  0  0
 23 24  1  0  0  0  0
 41 42  1  0  0  0  0
  7  8  1  0  0  0  0
 17 18  1  0  0  0  0
  3  4  1  0  0  0  0
  3  5  1  0  0  0  0
  3  6  1  0  0  0  0
 45 48  1  0  0  0  0
 45 49  1  0  0  0  0
 45 50  1  0  0  0  0
 11 14  1  0  0  0  0
 11 15  1  0  0  0  0
 11 16  1  0  0  0  0
 52 54  1  0  0  0  0
 52 55  1  0  0  0  0
 52 56  1  0  0  0  0
 22 32  1  0  0  0  0
 22 33  1  0  0  0  0
 21 30  1  0  0  0  0
 21 31  1  0  0  0  0
 23 34  1  0  0  0  0
 23 35  1  0  0  0  0
 42 47  1  0  0  0  0
  8 13  1  0  0  0  0
 18 29  1  0  0  0  0
 26 37  1  0  0  0  0
 26 38  1  0  0  0  0
 27 39  1  0  0  0  0
 27 40  1  0  0  0  0
 51 53  1  0  0  0  0
  7 12  1  0  0  0  0
 41 46  1  0  0  0  0
 17 28  1  0  0  0  0
 24 36  1  0  0  0  0
M  CHG  1  24   1
M  END
$$$$

  -OEChem-05262214473D

 56 55  0     1  0  0  0  0  0999 V2000
    0.7735   -5.8042   -2.0022 C   0  0  0  0  0  0  0  0  0  0  0  0
   -0.2086   -6.3825   -1.5519 O   0  0  0  0  0  0  0  0  0  0  0  0
    1.4751   -6.3646   -3.1946 C   0  0  0  0  0  0  0  0  0  0  0  0
    2.2765   -7.0687   -2.9186 H   0  0  0  0  0  0  0  0  0  0  0  0
    0.7988   -6.9360   -3.8504 H   0  0  0  0  0  0  0  0  0  0  0  0
    1.9556   -5.6216   -3.8511 H   0  0  0  0  0  0  0  0  0  0  0  0
    1.3322   -4.6359   -1.5106 N   0  0  0  0  0  0  0  0  0  0  0  0
    0.8124   -3.9290   -0.3698 C   0  0  2  0  0  0  0  0  0  0  0  0
    1.0666   -2.4424   -0.5818 C   0  0  0  0  0  0  0  0  0  0  0  0
    2.0598   -2.0076   -1.1610 O   0  0  0  0  0  0  0  0  0  0  0  0
    1.4560   -4.4118    0.9207 C   0  0  0  0  0  0  0  0  0  0  0  0
    2.1528   -4.2578   -1.9805 H   0  0  0  0  0  0  0  0  0  0  0  0
   -0.2667   -4.1160   -0.3467 H   0  0  0  0  0  0  0  0  0  0  0  0
    2.5374   -4.2329    0.9160 H   0  0  0  0  0  0  0  0  0  0  0  0
    1.0390   -3.8932    1.7903 H   0  0  0  0  0  0  0  0  0  0  0  0
    1.2976   -5.4871    1.0566 H   0  0  0  0  0  0  0  0  0  0  0  0
    0.0755   -1.6529   -0.0105 N   0  0  0  0  0  0  0  0  0  0  0  0
    0.1113   -0.2132   -0.0391 C   0  0  2  0  0  0  0  0  0  0  0  0
   -0.9026    0.2908    0.9823 C   0  0  0  0  0  0  0  0  0  0  0  0
   -1.4224   -0.4382    1.8247 O   0  0  0  0  0  0  0  0  0  0  0  0
   -0.2084    0.3432   -1.4303 C   0  0  0  0  0  0  0  0  0  0  0  0
    0.8759    0.0018   -2.4594 C   0  0  0  0  0  0  0  0  0  0  0  0
    0.5525    0.5581   -3.8422 C   0  0  0  0  0  0  0  0  0  0  0  0
    1.5764    0.2107   -4.8250 N   0  3  0  0  0  0  0  0  0  0  0  0
    1.4668    0.5576   -6.1729 C   0  0  0  0  0  0  0  0  0  0  0  0
    2.4808    0.1935   -7.0525 N   0  0  0  0  0  0  0  0  0  0  0  0
    0.3680    1.2593   -6.6579 N   0  0  0  0  0  0  0  0  0  0  0  0
   -0.7323   -2.1024    0.4149 H   0  0  0  0  0  0  0  0  0  0  0  0
    1.1170    0.0858    0.2779 H   0  0  0  0  0  0  0  0  0  0  0  0
   -0.3215    1.4324   -1.3707 H   0  0  0  0  0  0  0  0  0  0  0  0
   -1.1740   -0.0499   -1.7748 H   0  0  0  0  0  0  0  0  0  0  0  0
    1.8410    0.3981   -2.1217 H   0  0  0  0  0  0  0  0  0  0  0  0
    0.9782   -1.0866   -2.5388 H   0  0  0  0  0  0  0  0  0  0  0  0
   -0.3936    0.1372   -4.1962 H   0  0  0  0  0  0  0  0  0  0  0  0
    0.4642    1.6484   -3.8141 H   0  0  0  0  0  0  0  0  0  0  0  0
    2.4045   -0.3030   -4.5289 H   0  0  0  0  0  0  0  0  0  0  0  0
    2.4318    0.4309   -8.0404 H   0  0  0  0  0  0  0  0  0  0  0  0
    3.2979   -0.3201   -6.7314 H   0  0  0  0  0  0  0  0  0  0  0  0
    0.2833    1.5143   -7.6384 H   0  0  0  0  0  0  0  0  0  0  0  0
   -0.3888    1.5385   -6.0380 H   0  0  0  0  0  0  0  0  0  0  0  0
   -1.1932    1.6369    0.8095 N   0  0  0  0  0  0  0  0  0  0  0  0
   -2.1597    2.3429    1.6188 C   0  0  2  0  0  0  0  0  0  0  0  0
   -2.8063    3.4147    0.7513 C   0  0  0  0  0  0  0  0  0  0  0  0
   -2.2004    4.0191   -0.1312 O   0  0  0  0  0  0  0  0  0  0  0  0
   -1.5084    2.9580    2.8477 C   0  0  0  0  0  0  0  0  0  0  0  0
   -0.6893    2.1692    0.1063 H   0  0  0  0  0  0  0  0  0  0  0  0
   -2.9163    1.6099    1.9193 H   0  0  0  0  0  0  0  0  0  0  0  0
   -0.7474    3.6951    2.5666 H   0  0  0  0  0  0  0  0  0  0  0  0
   -2.2470    3.4683    3.4747 H   0  0  0  0  0  0  0  0  0  0  0  0
   -1.0183    2.1894    3.4550 H   0  0  0  0  0  0  0  0  0  0  0  0
   -4.1274    3.6474    1.1073 N   0  0  0  0  0  0  0  0  0  0  0  0
   -4.9443    4.6479    0.4610 C   0  0  0  0  0  0  0  0  0  0  0  0
   -4.5606    3.0721    1.8236 H   0  0  0  0  0  0  0  0  0  0  0  0
   -4.8764    5.5936    1.0187 H   0  0  0  0  0  0  0  0  0  0  0  0
   -4.5883    4.8029   -0.5682 H   0  0  0  0  0  0  0  0  0  0  0  0
   -5.9906    4.3091    0.4400 H   0  0  0  0  0  0  0  0  0  0  0  0
  1  3  1  0  0  0  0
  1  7  1  0  0  0  0
  1  2  2  0  0  0  0
 42 43  1  0  0  0  0
 43 51  1  0  0  0  0
 43 44  2  0  0  0  0
  8  9  1  0  0  0  0
  9 17  1  0  0  0  0
  9 10  2  0  0  0  0
 18 19  1  0  0  0  0
 19 41  1  0  0  0  0
 19 20  2  0  0  0  0
 25 26  1  0  0  0  0
 25 27  1  0  0  0  0
 24 25  2  0  0  0  0
 42 45  1  0  0  0  0
  8 11  1  0  0  0  0
 51 52  1  0  0  0  0
 21 22  1  0  0  0  0
 22 23  1  0  0  0  0
 18 21  1  0  0  0  0
 23 24  1  0  0  0  0
 41 42  1  0  0  0  0
  7  8  1  0  0  0  0
 17 18  1  0  0  0  0
  3  4  1  0  0  0  0
  3  5  1  0  0  0  0
  3  6  1  0  0  0  0
 45 48  1  0  0  0  0
 45 49  1  0  0  0  0
 45 50  1  0  0  0  0
 11 14  1  0  0  0  0
 11 15  1  0  0  0  0
 11 16  1  0  0  0  0
 52 54  1  0  0  0  0
 52 55  1  0  0  0  0
 52 56  1  0  0  0  0
 22 32  1  0  0  0  0
 22 33  1  0  0  0  0
 21 30  1  0  0  0  0
 21 31  1  0  0  0  0
 23 34  1  0  0  0  0
 23 35  1  0  0  0  0
 42 47  1  0  0  0  0
  8 13  1  0  0  0  0
 18 29  1  0  0  0  0
 26 37  1  0  0  0  0
 26 38  1  0  0  0  0
 27 39  1  0  0  0  0
 27 40  1  0  0  0  0
 51 53  1  0  0  0  0
  7 12  1  0  0  0  0
 41 46  1  0  0  0  0
 17 28  1  0  0  0  0
 24 36  1  0  0  0  0
M  CHG  1  24   1
M  END
$$$$

  -OEChem-05262214473D

 56 55  0     1  0  0  0  0  0999 V2000
    0.7735   -5.8042   -2.0022 C   0  0  0  0  0  0  0  0  0  0  0  0
   -0.2086   -6.3825   -1.5519 O   0  0  0  0  0  0  0  0  0  0  0  0
    1.4751   -6.3646   -3.1946 C   0  0  0  0  0  0  0  0  0  0  0  0
    2.2765   -7.0687   -2.9186 H   0  0  0  0  0  0  0  0  0  0  0  0
    0.7988   -6.9360   -3.8504 H   0  0  0  0  0  0  0  0  0  0  0  0
    1.9556   -5.6216   -3.8511 H   0  0  0  0  0  0  0  0  0  0  0  0
    1.3322   -4.6359   -1.5106 N   0  0  0  0  0  0  0  0  0  0  0  0
    0.8124   -3.9290   -0.3698 C   0  0  2  0  0  0  0  0  0  0  0  0
    1.0666   -2.4424   -0.5818 C   0  0  0  0  0  0  0  0  0  0  0  0
    2.0598   -2.0076   -1.1610 O   0  0  0  0  0  0  0  0  0  0  0  0
    1.4560   -4.4118    0.9207 C   0  0  0  0  0  0  0  0  0  0  0  0
    2.1528   -4.2578   -1.9805 H   0  0  0  0  0  0  0  0  0  0  0  0
   -0.2667   -4.1160   -0.3467 H   0  0  0  0  0  0  0  0  0  0  0  0
    2.5374   -4.2329    0.9160 H   0  0  0  0  0  0  0  0  0  0  0  0
    1.0390   -3.8932    1.7903 H   0  0  0  0  0  0  0  0  0  0  0  0
    1.2976   -5.4871    1.0566 H   0  0  0  0  0  0  0  0  0  0  0  0
    0.0755   -1.6529   -0.0105 N   0  0  0  0  0  0  0  0  0  0  0  0
    0.1113   -0.2132   -0.0391 C   0  0  2  0  0  0  0  0  0  0  0  0
   -0.9026    0.2908    0.9823 C   0  0  0  0  0  0  0  0  0  0  0  0
   -1.2214   -0.3510    1.9812 O   0  0  0  0  0  0  0  0  0  0  0  0
   -0.2084    0.3432   -1.4303 C   0  0  0  0  0  0  0  0  0  0  0  0
    0.8759    0.0018   -2.4594 C   0  0  0  0  0  0  0  0  0  0  0  0
    0.5525    0.5581   -3.8422 C   0  0  0  0  0  0  0  0  0  0  0  0
    1.5764    0.2107   -4.8250 N   0  3  0  0  0  0  0  0  0  0  0  0
    1.4668    0.5576   -6.1729 C   0  0  0  0  0  0  0  0  0  0  0  0
    2.4808    0.1935   -7.0525 N   0  0  0  0  0  0  0  0  0  0  0  0
    0.3680    1.2593   -6.6579 N   0  0  0  0  0  0  0  0  0  0  0  0
   -0.7323   -2.1024    0.4149 H   0  0  0  0  0  0  0  0  0  0  0  0
    1.1170    0.0858    0.2779 H   0  0  0  0  0  0  0  0  0  0  0  0
   -0.3215    1.4324   -1.3707 H   0  0  0  0  0  0  0  0  0  0  0  0
   -1.1740   -0.0499   -1.7748 H   0  0  0  0  0  0  0  0  0  0  0  0
    1.8410    0.3981   -2.1217 H   0  0  0  0  0  0  0  0  0  0  0  0
    0.9782   -1.0866   -2.5388 H   0  0  0  0  0  0  0  0  0  0  0  0
   -0.3936    0.1372   -4.1962 H   0  0  0  0  0  0  0  0  0  0  0  0
    0.4642    1.6484   -3.8141 H   0  0  0  0  0  0  0  0  0  0  0  0
    2.4045   -0.3030   -4.5289 H   0  0  0  0  0  0  0  0  0  0  0  0
    2.4318    0.4309   -8.0404 H   0  0  0  0  0  0  0  0  0  0  0  0
    3.2979   -0.3201   -6.7314 H   0  0  0  0  0  0  0  0  0  0  0  0
    0.2833    1.5143   -7.6384 H   0  0  0  0  0  0  0  0  0  0  0  0
   -0.3888    1.5385   -6.0380 H   0  0  0  0  0  0  0  0  0  0  0  0
   -1.4433    1.5168    0.6205 N   0  0  0  0  0  0  0  0  0  0  0  0
   -2.4621    2.1864    1.3959 C   0  0  2  0  0  0  0  0  0  0  0  0
   -3.3513    2.9626    0.4334 C   0  0  0  0  0  0  0  0  0  0  0  0
   -2.9284    3.4906   -0.5929 O   0  0  0  0  0  0  0  0  0  0  0  0
   -1.8480    3.1117    2.4349 C   0  0  0  0  0  0  0  0  0  0  0  0
   -1.0947    1.9902   -0.2078 H   0  0  0  0  0  0  0  0  0  0  0  0
   -3.0506    1.4041    1.8875 H   0  0  0  0  0  0  0  0  0  0  0  0
   -1.2545    3.9021    1.9611 H   0  0  0  0  0  0  0  0  0  0  0  0
   -2.6207    3.5966    3.0405 H   0  0  0  0  0  0  0  0  0  0  0  0
   -1.1855    2.5568    3.1079 H   0  0  0  0  0  0  0  0  0  0  0  0
   -4.6643    3.0331    0.8775 N   0  0  0  0  0  0  0  0  0  0  0  0
   -5.6921    3.7516    0.1610 C   0  0  0  0  0  0  0  0  0  0  0  0
   -4.9349    2.5321    1.7186 H   0  0  0  0  0  0  0  0  0  0  0  0
   -5.7574    4.7800    0.5458 H   0  0  0  0  0  0  0  0  0  0  0  0
   -5.4434    3.7761   -0.9102 H   0  0  0  0  0  0  0  0  0  0  0  0
   -6.6588    3.2457    0.3015 H   0  0  0  0  0  0  0  0  0  0  0  0
  1  3  1  0  0  0  0
  1  7  1  0  0  0  0
  1  2  2  0  0  0  0
 42 43  1  0  0  0  0
 43 51  1  0  0  0  0
 43 44  2  0  0  0  0
  8  9  1  0  0  0  0
  9 17  1  0  0  0  0
  9 10  2  0  0  0  0
 18 19  1  0  0  0  0
 19 41  1  0  0  0  0
 19 20  2  0  0  0  0
 25 26  1  0  0  0  0
 25 27  1  0  0  0  0
 24 25  2  0  0  0  0
 42 45  1  0  0  0  0
  8 11  1  0  0  0  0
 51 52  1  0  0  0  0
 21 22  1  0  0  0  0
 22 23  1  0  0  0  0
 18 21  1  0  0  0  0
 23 24  1  0  0  0  0
 41 42  1  0  0  0  0
  7  8  1  0  0  0  0
 17 18  1  0  0  0  0
  3  4  1  0  0  0  0
  3  5  1  0  0  0  0
  3  6  1  0  0  0  0
 45 48  1  0  0  0  0
 45 49  1  0  0  0  0
 45 50  1  0  0  0  0
 11 14  1  0  0  0  0
 11 15  1  0  0  0  0
 11 16  1  0  0  0  0
 52 54  1  0  0  0  0
 52 55  1  0  0  0  0
 52 56  1  0  0  0  0
 22 32  1  0  0  0  0
 22 33  1  0  0  0  0
 21 30  1  0  0  0  0
 21 31  1  0  0  0  0
 23 34  1  0  0  0  0
 23 35  1  0  0  0  0
 42 47  1  0  0  0  0
  8 13  1  0  0  0  0
 18 29  1  0  0  0  0
 26 37  1  0  0  0  0
 26 38  1  0  0  0  0
 27 39  1  0  0  0  0
 27 40  1  0  0  0  0
 51 53  1  0  0  0  0
  7 12  1  0  0  0  0
 41 46  1  0  0  0  0
 17 28  1  0  0  0  0
 24 36  1  0  0  0  0
M  CHG  1  24   1
M  END
$$$$

  -OEChem-05262214473D

 56 55  0     1  0  0  0  0  0999 V2000
    0.7735   -5.8042   -2.0022 C   0  0  0  0  0  0  0  0  0  0  0  0
   -0.2086   -6.3825   -1.5519 O   0  0  0  0  0  0  0  0  0  0  0  0
    1.4751   -6.3646   -3.1946 C   0  0  0  0  0  0  0  0  0  0  0  0
    2.2765   -7.0687   -2.9186 H   0  0  0  0  0  0  0  0  0  0  0  0
    0.7988   -6.9360   -3.8504 H   0  0  0  0  0  0  0  0  0  0  0  0
    1.9556   -5.6216   -3.8511 H   0  0  0  0  0  0  0  0  0  0  0  0
    1.3322   -4.6359   -1.5106 N   0  0  0  0  0  0  0  0  0  0  0  0
    0.8124   -3.9290   -0.3698 C   0  0  2  0  0  0  0  0  0  0  0  0
    1.0666   -2.4424   -0.5818 C   0  0  0  0  0  0  0  0  0  0  0  0
    2.0598   -2.0076   -1.1610 O   0  0  0  0  0  0  0  0  0  0  0  0
    1.4560   -4.4118    0.9207 C   0  0  0  0  0  0  0  0  0  0  0  0
    2.1528   -4.2578   -1.9805 H   0  0  0  0  0  0  0  0  0  0  0  0
   -0.2667   -4.1160   -0.3467 H   0  0  0  0  0  0  0  0  0  0  0  0
    2.5374   -4.2329    0.9160 H   0  0  0  0  0  0  0  0  0  0  0  0
    1.0390   -3.8932    1.7903 H   0  0  0  0  0  0  0  0  0  0  0  0
    1.2976   -5.4871    1.0566 H   0  0  0  0  0  0  0  0  0  0  0  0
    0.0755   -1.6529   -0.0105 N   0  0  0  0  0  0  0  0  0  0  0  0
    0.1113   -0.2132   -0.0391 C   0  0  2  0  0  0  0  0  0  0  0  0
   -0.9026    0.2908    0.9823 C   0  0  0  0  0  0  0  0  0  0  0  0
   -1.0290   -0.2050    2.1001 O   0  0  0  0  0  0  0  0  0  0  0  0
   -0.2084    0.3432   -1.4303 C   0  0  0  0  0  0  0  0  0  0  0  0
    0.8759    0.0018   -2.4594 C   0  0  0  0  0  0  0  0  0  0  0  0
    0.5525    0.5581   -3.8422 C   0  0  0  0  0  0  0  0  0  0  0  0
    1.5764    0.2107   -4.8250 N   0  3  0  0  0  0  0  0  0  0  0  0
    1.4668    0.5576   -6.1729 C   0  0  0  0  0  0  0  0  0  0  0  0
    2.4808    0.1935   -7.0525 N   0  0  0  0  0  0  0  0  0  0  0  0
    0.3680    1.2593   -6.6579 N   0  0  0  0  0  0  0  0  0  0  0  0
   -0.7323   -2.1024    0.4149 H   0  0  0  0  0  0  0  0  0  0  0  0
    1.1170    0.0858    0.2779 H   0  0  0  0  0  0  0  0  0  0  0  0
   -0.3215    1.4324   -1.3707 H   0  0  0  0  0  0  0  0  0  0  0  0
   -1.1740   -0.0499   -1.7748 H   0  0  0  0  0  0  0  0  0  0  0  0
    1.8410    0.3981   -2.1217 H   0  0  0  0  0  0  0  0  0  0  0  0
    0.9782   -1.0866   -2.5388 H   0  0  0  0  0  0  0  0  0  0  0  0
   -0.3936    0.1372   -4.1962 H   0  0  0  0  0  0  0  0  0  0  0  0
    0.4642    1.6484   -3.8141 H   0  0  0  0  0  0  0  0  0  0  0  0
    2.4045   -0.3030   -4.5289 H   0  0  0  0  0  0  0  0  0  0  0  0
    2.4318    0.4309   -8.0404 H   0  0  0  0  0  0  0  0  0  0  0  0
    3.2979   -0.3201   -6.7314 H   0  0  0  0  0  0  0  0  0  0  0  0
    0.2833    1.5143   -7.6384 H   0  0  0  0  0  0  0  0  0  0  0  0
   -0.3888    1.5385   -6.0380 H   0  0  0  0  0  0  0  0  0  0  0  0
   -1.6802    1.3249    0.4801 N   0  0  0  0  0  0  0  0  0  0  0  0
   -2.7462    1.9445    1.2333 C   0  0  2  0  0  0  0  0  0  0  0  0
   -3.8266    2.3768    0.2508 C   0  0  0  0  0  0  0  0  0  0  0  0
   -3.5794    2.7745   -0.8858 O   0  0  0  0  0  0  0  0  0  0  0  0
   -2.2380    3.1301    2.0387 C   0  0  0  0  0  0  0  0  0  0  0  0
   -1.4822    1.6930   -0.4457 H   0  0  0  0  0  0  0  0  0  0  0  0
   -3.1474    1.1766    1.9037 H   0  0  0  0  0  0  0  0  0  0  0  0
   -1.8321    3.9099    1.3839 H   0  0  0  0  0  0  0  0  0  0  0  0
   -3.0411    3.5809    2.6310 H   0  0  0  0  0  0  0  0  0  0  0  0
   -1.4403    2.8229    2.7236 H   0  0  0  0  0  0  0  0  0  0  0  0
   -5.0961    2.3070    0.8072 N   0  0  0  0  0  0  0  0  0  0  0  0
   -6.2848    2.7045    0.0895 C   0  0  0  0  0  0  0  0  0  0  0  0
   -5.2117    1.9274    1.7422 H   0  0  0  0  0  0  0  0  0  0  0  0
   -6.5077    3.7601    0.3043 H   0  0  0  0  0  0  0  0  0  0  0  0
   -6.1206    2.5771   -0.9907 H   0  0  0  0  0  0  0  0  0  0  0  0
   -7.1316    2.0789    0.4079 H   0  0  0  0  0  0  0  0  0  0  0  0
  1  3  1  0  0  0  0
  1  7  1  0  0  0  0
  1  2  2  0  0  0  0
 42 43  1  0  0  0  0
 43 51  1  0  0  0  0
 43 44  2  0  0  0  0
  8  9  1  0  0  0  0
  9 17  1  0  0  0  0
  9 10  2  0  0  0  0
 18 19  1  0  0  0  0
 19 41  1  0  0  0  0
 19 20  2  0  0  0  0
 25 26  1  0  0  0  0
 25 27  1  0  0  0  0
 24 25  2  0  0  0  0
 42 45  1  0  0  0  0
  8 11  1  0  0  0  0
 51 52  1  0  0  0  0
 21 22  1  0  0  0  0
 22 23  1  0  0  0  0
 18 21  1  0  0  0  0
 23 24  1  0  0  0  0
 41 42  1  0  0  0  0
  7  8  1  0  0  0  0
 17 18  1  0  0  0  0
  3  4  1  0  0  0  0
  3  5  1  0  0  0  0
  3  6  1  0  0  0  0
 45 48  1  0  0  0  0
 45 49  1  0  0  0  0
 45 50  1  0  0  0  0
 11 14  1  0  0  0  0
 11 15  1  0  0  0  0
 11 16  1  0  0  0  0
 52 54  1  0  0  0  0
 52 55  1  0  0  0  0
 52 56  1  0  0  0  0
 22 32  1  0  0  0  0
 22 33  1  0  0  0  0
 21 30  1  0  0  0  0
 21 31  1  0  0  0  0
 23 34  1  0  0  0  0
 23 35  1  0  0  0  0
 42 47  1  0  0  0  0
  8 13  1  0  0  0  0
 18 29  1  0  0  0  0
 26 37  1  0  0  0  0
 26 38  1  0  0  0  0
 27 39  1  0  0  0  0
 27 40  1  0  0  0  0
 51 53  1  0  0  0  0
  7 12  1  0  0  0  0
 41 46  1  0  0  0  0
 17 28  1  0  0  0  0
 24 36  1  0  0  0  0
M  CHG  1  24   1
M  END
$$$$

  -OEChem-05262214473D

 56 55  0     1  0  0  0  0  0999 V2000
    0.7735   -5.8042   -2.0022 C   0  0  0  0  0  0  0  0  0  0  0  0
   -0.2086   -6.3825   -1.5519 O   0  0  0  0  0  0  0  0  0  0  0  0
    1.4751   -6.3646   -3.1946 C   0  0  0  0  0  0  0  0  0  0  0  0
    2.2765   -7.0687   -2.9186 H   0  0  0  0  0  0  0  0  0  0  0  0
    0.7988   -6.9360   -3.8504 H   0  0  0  0  0  0  0  0  0  0  0  0
    1.9556   -5.6216   -3.8511 H   0  0  0  0  0  0  0  0  0  0  0  0
    1.3322   -4.6359   -1.5106 N   0  0  0  0  0  0  0  0  0  0  0  0
    0.8124   -3.9290   -0.3698 C   0  0  2  0  0  0  0  0  0  0  0  0
    1.0666   -2.4424   -0.5818 C   0  0  0  0  0  0  0  0  0  0  0  0
    2.0598   -2.0076   -1.1610 O   0  0  0  0  0  0  0  0  0  0  0  0
    1.4560   -4.4118    0.9207 C   0  0  0  0  0  0  0  0  0  0  0  0
    2.1528   -4.2578   -1.9805 H   0  0  0  0  0  0  0  0  0  0  0  0
   -0.2667   -4.1160   -0.3467 H   0  0  0  0  0  0  0  0  0  0  0  0
    2.5374   -4.2329    0.9160 H   0  0  0  0  0  0  0  0  0  0  0  0
    1.0390   -3.8932    1.7903 H   0  0  0  0  0  0  0  0  0  0  0  0
    1.2976   -5.4871    1.0566 H   0  0  0  0  0  0  0  0  0  0  0  0
    0.0755   -1.6529   -0.0105 N   0  0  0  0  0  0  0  0  0  0  0  0
    0.1113   -0.2132   -0.0391 C   0  0  2  0  0  0  0  0  0  0  0  0
   -0.9026    0.2908    0.9823 C   0  0  0  0  0  0  0  0  0  0  0  0
   -0.8583   -0.0101    2.1734 O   0  0  0  0  0  0  0  0  0  0  0  0
   -0.2084    0.3432   -1.4303 C   0  0  0  0  0  0  0  0  0  0  0  0
    0.8759    0.0018   -2.4594 C   0  0  0  0  0  0  0  0  0  0  0  0
    0.5525    0.5581   -3.8422 C   0  0  0  0  0  0  0  0  0  0  0  0
    1.5764    0.2107   -4.8250 N   0  3  0  0  0  0  0  0  0  0  0  0
    1.4668    0.5576   -6.1729 C   0  0  0  0  0  0  0  0  0  0  0  0
    2.4808    0.1935   -7.0525 N   0  0  0  0  0  0  0  0  0  0  0  0
    0.3680    1.2593   -6.6579 N   0  0  0  0  0  0  0  0  0  0  0  0
   -0.7323   -2.1024    0.4149 H   0  0  0  0  0  0  0  0  0  0  0  0
    1.1170    0.0858    0.2779 H   0  0  0  0  0  0  0  0  0  0  0  0
   -0.3215    1.4324   -1.3707 H   0  0  0  0  0  0  0  0  0  0  0  0
   -1.1740   -0.0499   -1.7748 H   0  0  0  0  0  0  0  0  0  0  0  0
    1.8410    0.3981   -2.1217 H   0  0  0  0  0  0  0  0  0  0  0  0
    0.9782   -1.0866   -2.5388 H   0  0  0  0  0  0  0  0  0  0  0  0
   -0.3936    0.1372   -4.1962 H   0  0  0  0  0  0  0  0  0  0  0  0
    0.4642    1.6484   -3.8141 H   0  0  0  0  0  0  0  0  0  0  0  0
    2.4045   -0.3030   -4.5289 H   0  0  0  0  0  0  0  0  0  0  0  0
    2.4318    0.4309   -8.0404 H   0  0  0  0  0  0  0  0  0  0  0  0
    3.2979   -0.3201   -6.7314 H   0  0  0  0  0  0  0  0  0  0  0  0
    0.2833    1.5143   -7.6384 H   0  0  0  0  0  0  0  0  0  0  0  0
   -0.3888    1.5385   -6.0380 H   0  0  0  0  0  0  0  0  0  0  0  0
   -1.8878    1.0743    0.3977 N   0  0  0  0  0  0  0  0  0  0  0  0
   -2.9925    1.6335    1.1422 C   0  0  2  0  0  0  0  0  0  0  0  0
   -4.1997    1.6970    0.2158 C   0  0  0  0  0  0  0  0  0  0  0  0
   -4.1092    1.9195   -0.9897 O   0  0  0  0  0  0  0  0  0  0  0  0
   -2.6517    3.0122    1.6862 C   0  0  0  0  0  0  0  0  0  0  0  0
   -1.8253    1.2978   -0.5912 H   0  0  0  0  0  0  0  0  0  0  0  0
   -3.2001    0.9429    1.9667 H   0  0  0  0  0  0  0  0  0  0  0  0
   -2.4407    3.7180    0.8745 H   0  0  0  0  0  0  0  0  0  0  0  0
   -3.4794    3.4225    2.2741 H   0  0  0  0  0  0  0  0  0  0  0  0
   -1.7655    2.9696    2.3284 H   0  0  0  0  0  0  0  0  0  0  0  0
   -5.3934    1.5188    0.9011 N   0  0  0  0  0  0  0  0  0  0  0  0
   -6.6818    1.5781    0.2512 C   0  0  0  0  0  0  0  0  0  0  0  0
   -5.3723    1.2995    1.8927 H   0  0  0  0  0  0  0  0  0  0  0  0
   -7.0763    2.6032    0.3108 H   0  0  0  0  0  0  0  0  0  0  0  0
   -6.5737    1.2878   -0.8042 H   0  0  0  0  0  0  0  0  0  0  0  0
   -7.3770    0.8882    0.7520 H   0  0  0  0  0  0  0  0  0  0  0  0
  1  3  1  0  0  0  0
  1  7  1  0  0  0  0
  1  2  2  0  0  0  0
 42 43  1  0  0  0  0
 43 51  1  0  0  0  0
 43 44  2  0  0  0  0
  8  9  1  0  0  0  0
  9 17  1  0  0  0  0
  9 10  2  0  0  0  0
 18 19  1  0  0  0  0
 19 41  1  0  0  0  0
 19 20  2  0  0  0  0
 25 26  1  0  0  0  0
 25 27  1  0  0  0  0
 24 25  2  0  0  0  0
 42 45  1  0  0  0  0
  8 11  1  0  0  0  0
 51 52  1  0  0  0  0
 21 22  1  0  0  0  0
 22 23  1  0  0  0  0
 18 21  1  0  0  0  0
 23 24  1  0  0  0  0
 41 42  1  0  0  0  0
  7  8  1  0  0  0  0
 17 18  1  0  0  0  0
  3  4  1  0  0  0  0
  3  5  1  0  0  0  0
  3  6  1  0  0  0  0
 45 48  1  0  0  0  0
 45 49  1  0  0  0  0
 45 50  1  0  0  0  0
 11 14  1  0  0  0  0
 11 15  1  0  0  0  0
 11 16  1  0  0  0  0
 52 54  1  0  0  0  0
 52 55  1  0  0  0  0
 52 56  1  0  0  0  0
 22 32  1  0  0  0  0
 22 33  1  0  0  0  0
 21 30  1  0  0  0  0
 21 31  1  0  0  0  0
 23 34  1  0  0  0  0
 23 35  1  0  0  0  0
 42 47  1  0  0  0  0
  8 13  1  0  0  0  0
 18 29  1  0  0  0  0
 26 37  1  0  0  0  0
 26 38  1  0  0  0  0
 27 39  1  0  0  0  0
 27 40  1  0  0  0  0
 51 53  1  0  0  0  0
  7 12  1  0  0  0  0
 41 46  1  0  0  0  0
 17 28  1  0  0  0  0
 24 36  1  0  0  0  0
M  CHG  1  24   1
M  END
$$$$

  -OEChem-05262214473D

 56 55  0     1  0  0  0  0  0999 V2000
    0.7735   -5.8042   -2.0022 C   0  0  0  0  0  0  0  0  0  0  0  0
   -0.2086   -6.3825   -1.5519 O   0  0  0  0  0  0  0  0  0  0  0  0
    1.4751   -6.3646   -3.1946 C   0  0  0  0  0  0  0  0  0  0  0  0
    2.2765   -7.0687   -2.9186 H   0  0  0  0  0  0  0  0  0  0  0  0
    0.7988   -6.9360   -3.8504 H   0  0  0  0  0  0  0  0  0  0  0  0
    1.9556   -5.6216   -3.8511 H   0  0  0  0  0  0  0  0  0  0  0  0
    1.3322   -4.6359   -1.5106 N   0  0  0  0  0  0  0  0  0  0  0  0
    0.8124   -3.9290   -0.3698 C   0  0  2  0  0  0  0  0  0  0  0  0
    1.0666   -2.4424   -0.5818 C   0  0  0  0  0  0  0  0  0  0  0  0
    2.0598   -2.0076   -1.1610 O   0  0  0  0  0  0  0  0  0  0  0  0
    1.4560   -4.4118    0.9207 C   0  0  0  0  0  0  0  0  0  0  0  0
    2.1528   -4.2578   -1.9805 H   0  0  0  0  0  0  0  0  0  0  0  0
   -0.2667   -4.1160   -0.3467 H   0  0  0  0  0  0  0  0  0  0  0  0
    2.5374   -4.2329    0.9160 H   0  0  0  0  0  0  0  0  0  0  0  0
    1.0390   -3.8932    1.7903 H   0  0  0  0  0  0  0  0  0  0  0  0
    1.2976   -5.4871    1.0566 H   0  0  0  0  0  0  0  0  0  0  0  0
    0.0755   -1.6529   -0.0105 N   0  0  0  0  0  0  0  0  0  0  0  0
    0.1113   -0.2132   -0.0391 C   0  0  2  0  0  0  0  0  0  0  0  0
   -0.9026    0.2908    0.9823 C   0  0  0  0  0  0  0  0  0  0  0  0
   -0.7208    0.2203    2.1961 O   0  0  0  0  0  0  0  0  0  0  0  0
   -0.2084    0.3432   -1.4303 C   0  0  0  0  0  0  0  0  0  0  0  0
    0.8759    0.0018   -2.4594 C   0  0  0  0  0  0  0  0  0  0  0  0
    0.5525    0.5581   -3.8422 C   0  0  0  0  0  0  0  0  0  0  0  0
    1.5764    0.2107   -4.8250 N   0  3  0  0  0  0  0  0  0  0  0  0
    1.4668    0.5576   -6.1729 C   0  0  0  0  0  0  0  0  0  0  0  0
    2.4808    0.1935   -7.0525 N   0  0  0  0  0  0  0  0  0  0  0  0
    0.3680    1.2593   -6.6579 N   0  0  0  0  0  0  0  0  0  0  0  0
   -0.7323   -2.1024    0.4149 H   0  0  0  0  0  0  0  0  0  0  0  0
    1.1170    0.0858    0.2779 H   0  0  0  0  0  0  0  0  0  0  0  0
   -0.3215    1.4324   -1.3707 H   0  0  0  0  0  0  0  0  0  0  0  0
   -1.1740   -0.0499   -1.7748 H   0  0  0  0  0  0  0  0  0  0  0  0
    1.8410    0.3981   -2.1217 H   0  0  0  0  0  0  0  0  0  0  0  0
    0.9782   -1.0866   -2.5388 H   0  0  0  0  0  0  0  0  0  0  0  0
   -0.3936    0.1372   -4.1962 H   0  0  0  0  0  0  0  0  0  0  0  0
    0.4642    1.6484   -3.8141 H   0  0  0  0  0  0  0  0  0  0  0  0
    2.4045   -0.3030   -4.5289 H   0  0  0  0  0  0  0  0  0  0  0  0
    2.4318    0.4309   -8.0404 H   0  0  0  0  0  0  0  0  0  0  0  0
    3.2979   -0.3201   -6.7314 H   0  0  0  0  0  0  0  0  0  0  0  0
    0.2833    1.5143   -7.6384 H   0  0  0  0  0  0  0  0  0  0  0  0
   -0.3888    1.5385   -6.0380 H   0  0  0  0  0  0  0  0  0  0  0  0
   -2.0519    0.7821    0.3790 N   0  0  0  0  0  0  0  0  0  0  0  0
   -3.1844    1.2748    1.1288 C   0  0  2  0  0  0  0  0  0  0  0  0
   -4.4453    0.9697    0.3310 C   0  0  0  0  0  0  0  0  0  0  0  0
   -4.4816    0.9840   -0.8977 O   0  0  0  0  0  0  0  0  0  0  0  0
   -3.0611    2.7659    1.4014 C   0  0  0  0  0  0  0  0  0  0  0  0
   -2.1006    0.8315   -0.6344 H   0  0  0  0  0  0  0  0  0  0  0  0
   -3.2051    0.7188    2.0724 H   0  0  0  0  0  0  0  0  0  0  0  0
   -3.0388    3.3395    0.4676 H   0  0  0  0  0  0  0  0  0  0  0  0
   -3.9059    3.1320    1.9941 H   0  0  0  0  0  0  0  0  0  0  0  0
   -2.1388    2.9869    1.9493 H   0  0  0  0  0  0  0  0  0  0  0  0
   -5.5358    0.7220    1.1529 N   0  0  0  0  0  0  0  0  0  0  0  0
   -6.8562    0.4491    0.6353 C   0  0  0  0  0  0  0  0  0  0  0  0
   -5.4057    0.6909    2.1598 H   0  0  0  0  0  0  0  0  0  0  0  0
   -7.4244    1.3884    0.5648 H   0  0  0  0  0  0  0  0  0  0  0  0
   -6.7719   -0.0041   -0.3635 H   0  0  0  0  0  0  0  0  0  0  0  0
   -7.3782   -0.2453    1.3101 H   0  0  0  0  0  0  0  0  0  0  0  0
  1  3  1  0  0  0  0
  1  7  1  0  0  0  0
  1  2  2  0  0  0  0
 42 43  1  0  0  0  0
 43 51  1  0  0  0  0
 43 44  2  0  0  0  0
  8  9  1  0  0  0  0
  9 17  1  0  0  0  0
  9 10  2  0  0  0  0
 18 19  1  0  0  0  0
 19 41  1  0  0  0  0
 19 20  2  0  0  0  0
 25 26  1  0  0  0  0
 25 27  1  0  0  0  0
 24 25  2  0  0  0  0
 42 45  1  0  0  0  0
  8 11  1  0  0  0  0
 51 52  1  0  0  0  0
 21 22  1  0  0  0  0
 22 23  1  0  0  0  0
 18 21  1  0  0  0  0
 23 24  1  0  0  0  0
 41 42  1  0  0  0  0
  7  8  1  0  0  0  0
 17 18  1  0  0  0  0
  3  4  1  0  0  0  0
  3  5  1  0  0  0  0
  3  6  1  0  0  0  0
 45 48  1  0  0  0  0
 45 49  1  0  0  0  0
 45 50  1  0  0  0  0
 11 14  1  0  0  0  0
 11 15  1  0  0  0  0
 11 16  1  0  0  0  0
 52 54  1  0  0  0  0
 52 55  1  0  0  0  0
 52 56  1  0  0  0  0
 22 32  1  0  0  0  0
 22 33  1  0  0  0  0
 21 30  1  0  0  0  0
 21 31  1  0  0  0  0
 23 34  1  0  0  0  0
 23 35  1  0  0  0  0
 42 47  1  0  0  0  0
  8 13  1  0  0  0  0
 18 29  1  0  0  0  0
 26 37  1  0  0  0  0
 26 38  1  0  0  0  0
 27 39  1  0  0  0  0
 27 40  1  0  0  0  0
 51 53  1  0  0  0  0
  7 12  1  0  0  0  0
 41 46  1  0  0  0  0
 17 28  1  0  0  0  0
 24 36  1  0  0  0  0
M  CHG  1  24   1
M  END
$$$$

  -OEChem-05262214473D

 56 55  0     1  0  0  0  0  0999 V2000
    0.7735   -5.8042   -2.0022 C   0  0  0  0  0  0  0  0  0  0  0  0
   -0.2086   -6.3825   -1.5519 O   0  0  0  0  0  0  0  0  0  0  0  0
    1.4751   -6.3646   -3.1946 C   0  0  0  0  0  0  0  0  0  0  0  0
    2.2765   -7.0687   -2.9186 H   0  0  0  0  0  0  0  0  0  0  0  0
    0.7988   -6.9360   -3.8504 H   0  0  0  0  0  0  0  0  0  0  0  0
    1.9556   -5.6216   -3.8511 H   0  0  0  0  0  0  0  0  0  0  0  0
    1.3322   -4.6359   -1.5106 N   0  0  0  0  0  0  0  0  0  0  0  0
    0.8124   -3.9290   -0.3698 C   0  0  2  0  0  0  0  0  0  0  0  0
    1.0666   -2.4424   -0.5818 C   0  0  0  0  0  0  0  0  0  0  0  0
    2.0598   -2.0076   -1.1610 O   0  0  0  0  0  0  0  0  0  0  0  0
    1.4560   -4.4118    0.9207 C   0  0  0  0  0  0  0  0  0  0  0  0
    2.1528   -4.2578   -1.9805 H   0  0  0  0  0  0  0  0  0  0  0  0
   -0.2667   -4.1160   -0.3467 H   0  0  0  0  0  0  0  0  0  0  0  0
    2.5374   -4.2329    0.9160 H   0  0  0  0  0  0  0  0  0  0  0  0
    1.0390   -3.8932    1.7903 H   0  0  0  0  0  0  0  0  0  0  0  0
    1.2976   -5.4871    1.0566 H   0  0  0  0  0  0  0  0  0  0  0  0
    0.0755   -1.6529   -0.0105 N   0  0  0  0  0  0  0  0  0  0  0  0
    0.1113   -0.2132   -0.0391 C   0  0  2  0  0  0  0  0  0  0  0  0
   -0.9026    0.2908    0.9823 C   0  0  0  0  0  0  0  0  0  0  0  0
   -0.6261    0.4706    2.1666 O   0  0  0  0  0  0  0  0  0  0  0  0
   -0.2084    0.3432   -1.4303 C   0  0  0  0  0  0  0  0  0  0  0  0
    0.8759    0.0018   -2.4594 C   0  0  0  0  0  0  0  0  0  0  0  0
    0.5525    0.5581   -3.8422 C   0  0  0  0  0  0  0  0  0  0  0  0
    1.5764    0.2107   -4.8250 N   0  3  0  0  0  0  0  0  0  0  0  0
    1.4668    0.5576   -6.1729 C   0  0  0  0  0  0  0  0  0  0  0  0
    2.4808    0.1935   -7.0525 N   0  0  0  0  0  0  0  0  0  0  0  0
    0.3680    1.2593   -6.6579 N   0  0  0  0  0  0  0  0  0  0  0  0
   -0.7323   -2.1024    0.4149 H   0  0  0  0  0  0  0  0  0  0  0  0
    1.1170    0.0858    0.2779 H   0  0  0  0  0  0  0  0  0  0  0  0
   -0.3215    1.4324   -1.3707 H   0  0  0  0  0  0  0  0  0  0  0  0
   -1.1740   -0.0499   -1.7748 H   0  0  0  0  0  0  0  0  0  0  0  0
    1.8410    0.3981   -2.1217 H   0  0  0  0  0  0  0  0  0  0  0  0
    0.9782   -1.0866   -2.5388 H   0  0  0  0  0  0  0  0  0  0  0  0
   -0.3936    0.1372   -4.1962 H   0  0  0  0  0  0  0  0  0  0  0  0
    0.4642    1.6484   -3.8141 H   0  0  0  0  0  0  0  0  0  0  0  0
    2.4045   -0.3030   -4.5289 H   0  0  0  0  0  0  0  0  0  0  0  0
    2.4318    0.4309   -8.0404 H   0  0  0  0  0  0  0  0  0  0  0  0
    3.2979   -0.3201   -6.7314 H   0  0  0  0  0  0  0  0  0  0  0  0
    0.2833    1.5143   -7.6384 H   0  0  0  0  0  0  0  0  0  0  0  0
   -0.3888    1.5385   -6.0380 H   0  0  0  0  0  0  0  0  0  0  0  0
   -2.1614    0.4682    0.4253 N   0  0  0  0  0  0  0  0  0  0  0  0
   -3.3087    0.8928    1.1939 C   0  0  2  0  0  0  0  0  0  0  0  0
   -4.5466    0.2445    0.5883 C   0  0  0  0  0  0  0  0  0  0  0  0
   -4.6712    0.0316   -0.6159 O   0  0  0  0  0  0  0  0  0  0  0  0
   -3.4382    2.4080    1.2037 C   0  0  0  0  0  0  0  0  0  0  0  0
   -2.2894    0.3260   -0.5723 H   0  0  0  0  0  0  0  0  0  0  0  0
   -3.1620    0.5197    2.2134 H   0  0  0  0  0  0  0  0  0  0  0  0
   -3.5858    2.8002    0.1908 H   0  0  0  0  0  0  0  0  0  0  0  0
   -4.2914    2.7293    1.8101 H   0  0  0  0  0  0  0  0  0  0  0  0
   -2.5349    2.8738    1.6121 H   0  0  0  0  0  0  0  0  0  0  0  0
   -5.5137   -0.0290    1.5455 N   0  0  0  0  0  0  0  0  0  0  0  0
   -6.7961   -0.6056    1.2155 C   0  0  0  0  0  0  0  0  0  0  0  0
   -5.3096    0.1433    2.5255 H   0  0  0  0  0  0  0  0  0  0  0  0
   -7.5282    0.1983    1.0490 H   0  0  0  0  0  0  0  0  0  0  0  0
   -6.7017   -1.2105    0.3016 H   0  0  0  0  0  0  0  0  0  0  0  0
   -7.1351   -1.2443    2.0445 H   0  0  0  0  0  0  0  0  0  0  0  0
  1  3  1  0  0  0  0
  1  7  1  0  0  0  0
  1  2  2  0  0  0  0
 42 43  1  0  0  0  0
 43 51  1  0  0  0  0
 43 44  2  0  0  0  0
  8  9  1  0  0  0  0
  9 17  1  0  0  0  0
  9 10  2  0  0  0  0
 18 19  1  0  0  0  0
 19 41  1  0  0  0  0
 19 20  2  0  0  0  0
 25 26  1  0  0  0  0
 25 27  1  0  0  0  0
 24 25  2  0  0  0  0
 42 45  1  0  0  0  0
  8 11  1  0  0  0  0
 51 52  1  0  0  0  0
 21 22  1  0  0  0  0
 22 23  1  0  0  0  0
 18 21  1  0  0  0  0
 23 24  1  0  0  0  0
 41 42  1  0  0  0  0
  7  8  1  0  0  0  0
 17 18  1  0  0  0  0
  3  4  1  0  0  0  0
  3  5  1  0  0  0  0
  3  6  1  0  0  0  0
 45 48  1  0  0  0  0
 45 49  1  0  0  0  0
 45 50  1  0  0  0  0
 11 14  1  0  0  0  0
 11 15  1  0  0  0  0
 11 16  1  0  0  0  0
 52 54  1  0  0  0  0
 52 55  1  0  0  0  0
 52 56  1  0  0  0  0
 22 32  1  0  0  0  0
 22 33  1  0  0  0  0
 21 30  1  0  0  0  0
 21 31  1  0  0  0  0
 23 34  1  0  0  0  0
 23 35  1  0  0  0  0
 42 47  1  0  0  0  0
  8 13  1  0  0  0  0
 18 29  1  0  0  0  0
 26 37  1  0  0  0  0
 26 38  1  0  0  0  0
 27 39  1  0  0  0  0
 27 40  1  0  0  0  0
 51 53  1  0  0  0  0
  7 12  1  0  0  0  0
 41 46  1  0  0  0  0
 17 28  1  0  0  0  0
 24 36  1  0  0  0  0
M  CHG  1  24   1
M  END
$$$$

  -OEChem-05262214473D

 56 55  0     1  0  0  0  0  0999 V2000
    0.7735   -5.8042   -2.0022 C   0  0  0  0  0  0  0  0  0  0  0  0
   -0.2086   -6.3825   -1.5519 O   0  0  0  0  0  0  0  0  0  0  0  0
    1.4751   -6.3646   -3.1946 C   0  0  0  0  0  0  0  0  0  0  0  0
    2.2765   -7.0687   -2.9186 H   0  0  0  0  0  0  0  0  0  0  0  0
    0.7988   -6.9360   -3.8504 H   0  0  0  0  0  0  0  0  0  0  0  0
    1.9556   -5.6216   -3.8511 H   0  0  0  0  0  0  0  0  0  0  0  0
    1.3322   -4.6359   -1.5106 N   0  0  0  0  0  0  0  0  0  0  0  0
    0.8124   -3.9290   -0.3698 C   0  0  2  0  0  0  0  0  0  0  0  0
    1.0666   -2.4424   -0.5818 C   0  0  0  0  0  0  0  0  0  0  0  0
    2.0598   -2.0076   -1.1610 O   0  0  0  0  0  0  0  0  0  0  0  0
    1.4560   -4.4118    0.9207 C   0  0  0  0  0  0  0  0  0  0  0  0
    2.1528   -4.2578   -1.9805 H   0  0  0  0  0  0  0  0  0  0  0  0
   -0.2667   -4.1160   -0.3467 H   0  0  0  0  0  0  0  0  0  0  0  0
    2.5374   -4.2329    0.9160 H   0  0  0  0  0  0  0  0  0  0  0  0
    1.0390   -3.8932    1.7903 H   0  0  0  0  0  0  0  0  0  0  0  0
    1.2976   -5.4871    1.0566 H   0  0  0  0  0  0  0  0  0  0  0  0
    0.0755   -1.6529   -0.0105 N   0  0  0  0  0  0  0  0  0  0  0  0
    0.1113   -0.2132   -0.0391 C   0  0  2  0  0  0  0  0  0  0  0  0
   -0.9026    0.2908    0.9823 C   0  0  0  0  0  0  0  0  0  0  0  0
   -0.5806    0.7238    2.0869 O   0  0  0  0  0  0  0  0  0  0  0  0
   -0.2084    0.3432   -1.4303 C   0  0  0  0  0  0  0  0  0  0  0  0
    0.8759    0.0018   -2.4594 C   0  0  0  0  0  0  0  0  0  0  0  0
    0.5525    0.5581   -3.8422 C   0  0  0  0  0  0  0  0  0  0  0  0
    1.5764    0.2107   -4.8250 N   0  3  0  0  0  0  0  0  0  0  0  0
    1.4668    0.5576   -6.1729 C   0  0  0  0  0  0  0  0  0  0  0  0
    2.4808    0.1935   -7.0525 N   0  0  0  0  0  0  0  0  0  0  0  0
    0.3680    1.2593   -6.6579 N   0  0  0  0  0  0  0  0  0  0  0  0
   -0.7323   -2.1024    0.4149 H   0  0  0  0  0  0  0  0  0  0  0  0
    1.1170    0.0858    0.2779 H   0  0  0  0  0  0  0  0  0  0  0  0
   -0.3215    1.4324   -1.3707 H   0  0  0  0  0  0  0  0  0  0  0  0
   -1.1740   -0.0499   -1.7748 H   0  0  0  0  0  0  0  0  0  0  0  0
    1.8410    0.3981   -2.1217 H   0  0  0  0  0  0  0  0  0  0  0  0
    0.9782   -1.0866   -2.5388 H   0  0  0  0  0  0  0  0  0  0  0  0
   -0.3936    0.1372   -4.1962 H   0  0  0  0  0  0  0  0  0  0  0  0
    0.4642    1.6484   -3.8141 H   0  0  0  0  0  0  0  0  0  0  0  0
    2.4045   -0.3030   -4.5289 H   0  0  0  0  0  0  0  0  0  0  0  0
    2.4318    0.4309   -8.0404 H   0  0  0  0  0  0  0  0  0  0  0  0
    3.2979   -0.3201   -6.7314 H   0  0  0  0  0  0  0  0  0  0  0  0
    0.2833    1.5143   -7.6384 H   0  0  0  0  0  0  0  0  0  0  0  0
   -0.3888    1.5385   -6.0380 H   0  0  0  0  0  0  0  0  0  0  0  0
   -2.2087    0.1539    0.5333 N   0  0  0  0  0  0  0  0  0  0  0  0
   -3.3569    0.5134    1.3333 C   0  0  2  0  0  0  0  0  0  0  0  0
   -4.4966   -0.4294    0.9704 C   0  0  0  0  0  0  0  0  0  0  0  0
   -4.6651   -0.8728   -0.1636 O   0  0  0  0  0  0  0  0  0  0  0  0
   -3.7573    1.9629    1.1066 C   0  0  0  0  0  0  0  0  0  0  0  0
   -2.3788   -0.1844   -0.4092 H   0  0  0  0  0  0  0  0  0  0  0  0
   -3.0738    0.3591    2.3802 H   0  0  0  0  0  0  0  0  0  0  0  0
   -4.0443    2.1367    0.0631 H   0  0  0  0  0  0  0  0  0  0  0  0
   -4.6098    2.2419    1.7347 H   0  0  0  0  0  0  0  0  0  0  0  0
   -2.9266    2.6377    1.3396 H   0  0  0  0  0  0  0  0  0  0  0  0
   -5.3285   -0.6830    2.0520 N   0  0  0  0  0  0  0  0  0  0  0  0
   -6.5055   -1.5141    1.9522 C   0  0  0  0  0  0  0  0  0  0  0  0
   -5.0905   -0.3060    2.9647 H   0  0  0  0  0  0  0  0  0  0  0  0
   -7.3808   -0.8860    1.7304 H   0  0  0  0  0  0  0  0  0  0  0  0
   -6.3679   -2.2492    1.1455 H   0  0  0  0  0  0  0  0  0  0  0  0
   -6.6642   -2.0407    2.9049 H   0  0  0  0  0  0  0  0  0  0  0  0
  1  3  1  0  0  0  0
  1  7  1  0  0  0  0
  1  2  2  0  0  0  0
 42 43  1  0  0  0  0
 43 51  1  0  0  0  0
 43 44  2  0  0  0  0
  8  9  1  0  0  0  0
  9 17  1  0  0  0  0
  9 10  2  0  0  0  0
 18 19  1  0  0  0  0
 19 41  1  0  0  0  0
 19 20  2  0  0  0  0
 25 26  1  0  0  0  0
 25 27  1  0  0  0  0
 24 25  2  0  0  0  0
 42 45  1  0  0  0  0
  8 11  1  0  0  0  0
 51 52  1  0  0  0  0
 21 22  1  0  0  0  0
 22 23  1  0  0  0  0
 18 21  1  0  0  0  0
 23 24  1  0  0  0  0
 41 42  1  0  0  0  0
  7  8  1  0  0  0  0
 17 18  1  0  0  0  0
  3  4  1  0  0  0  0
  3  5  1  0  0  0  0
  3  6  1  0  0  0  0
 45 48  1  0  0  0  0
 45 49  1  0  0  0  0
 45 50  1  0  0  0  0
 11 14  1  0  0  0  0
 11 15  1  0  0  0  0
 11 16  1  0  0  0  0
 52 54  1  0  0  0  0
 52 55  1  0  0  0  0
 52 56  1  0  0  0  0
 22 32  1  0  0  0  0
 22 33  1  0  0  0  0
 21 30  1  0  0  0  0
 21 31  1  0  0  0  0
 23 34  1  0  0  0  0
 23 35  1  0  0  0  0
 42 47  1  0  0  0  0
  8 13  1  0  0  0  0
 18 29  1  0  0  0  0
 26 37  1  0  0  0  0
 26 38  1  0  0  0  0
 27 39  1  0  0  0  0
 27 40  1  0  0  0  0
 51 53  1  0  0  0  0
  7 12  1  0  0  0  0
 41 46  1  0  0  0  0
 17 28  1  0  0  0  0
 24 36  1  0  0  0  0
M  CHG  1  24   1
M  END
$$$$

  -OEChem-05262214473D

 56 55  0     1  0  0  0  0  0999 V2000
    0.7735   -5.8042   -2.0022 C   0  0  0  0  0  0  0  0  0  0  0  0
   -0.2086   -6.3825   -1.5519 O   0  0  0  0  0  0  0  0  0  0  0  0
    1.4751   -6.3646   -3.1946 C   0  0  0  0  0  0  0  0  0  0  0  0
    2.2765   -7.0687   -2.9186 H   0  0  0  0  0  0  0  0  0  0  0  0
    0.7988   -6.9360   -3.8504 H   0  0  0  0  0  0  0  0  0  0  0  0
    1.9556   -5.6216   -3.8511 H   0  0  0  0  0  0  0  0  0  0  0  0
    1.3322   -4.6359   -1.5106 N   0  0  0  0  0  0  0  0  0  0  0  0
    0.8124   -3.9290   -0.3698 C   0  0  2  0  0  0  0  0  0  0  0  0
    1.0666   -2.4424   -0.5818 C   0  0  0  0  0  0  0  0  0  0  0  0
    2.0598   -2.0076   -1.1610 O   0  0  0  0  0  0  0  0  0  0  0  0
    1.4560   -4.4118    0.9207 C   0  0  0  0  0  0  0  0  0  0  0  0
    2.1528   -4.2578   -1.9805 H   0  0  0  0  0  0  0  0  0  0  0  0
   -0.2667   -4.1160   -0.3467 H   0  0  0  0  0  0  0  0  0  0  0  0
    2.5374   -4.2329    0.9160 H   0  0  0  0  0  0  0  0  0  0  0  0
    1.0390   -3.8932    1.7903 H   0  0  0  0  0  0  0  0  0  0  0  0
    1.2976   -5.4871    1.0566 H   0  0  0  0  0  0  0  0  0  0  0  0
    0.0755   -1.6529   -0.0105 N   0  0  0  0  0  0  0  0  0  0  0  0
    0.1113   -0.2132   -0.0391 C   0  0  2  0  0  0  0  0  0  0  0  0
   -0.9026    0.2908    0.9823 C   0  0  0  0  0  0  0  0  0  0  0  0
   -0.5872    0.9625    1.9625 O   0  0  0  0  0  0  0  0  0  0  0  0
   -0.2084    0.3432   -1.4303 C   0  0  0  0  0  0  0  0  0  0  0  0
    0.8759    0.0018   -2.4594 C   0  0  0  0  0  0  0  0  0  0  0  0
    0.5525    0.5581   -3.8422 C   0  0  0  0  0  0  0  0  0  0  0  0
    1.5764    0.2107   -4.8250 N   0  3  0  0  0  0  0  0  0  0  0  0
    1.4668    0.5576   -6.1729 C   0  0  0  0  0  0  0  0  0  0  0  0
    2.4808    0.1935   -7.0525 N   0  0  0  0  0  0  0  0  0  0  0  0
    0.3680    1.2593   -6.6579 N   0  0  0  0  0  0  0  0  0  0  0  0
   -0.7323   -2.1024    0.4149 H   0  0  0  0  0  0  0  0  0  0  0  0
    1.1170    0.0858    0.2779 H   0  0  0  0  0  0  0  0  0  0  0  0
   -0.3215    1.4324   -1.3707 H   0  0  0  0  0  0  0  0  0  0  0  0
   -1.1740   -0.0499   -1.7748 H   0  0  0  0  0  0  0  0  0  0  0  0
    1.8410    0.3981   -2.1217 H   0  0  0  0  0  0  0  0  0  0  0  0
    0.9782   -1.0866   -2.5388 H   0  0  0  0  0  0  0  0  0  0  0  0
   -0.3936    0.1372   -4.1962 H   0  0  0  0  0  0  0  0  0  0  0  0
    0.4642    1.6484   -3.8141 H   0  0  0  0  0  0  0  0  0  0  0  0
    2.4045   -0.3030   -4.5289 H   0  0  0  0  0  0  0  0  0  0  0  0
    2.4318    0.4309   -8.0404 H   0  0  0  0  0  0  0  0  0  0  0  0
    3.2979   -0.3201   -6.7314 H   0  0  0  0  0  0  0  0  0  0  0  0
    0.2833    1.5143   -7.6384 H   0  0  0  0  0  0  0  0  0  0  0  0
   -0.3888    1.5385   -6.0380 H   0  0  0  0  0  0  0  0  0  0  0  0
   -2.1907   -0.1392    0.6959 N   0  0  0  0  0  0  0  0  0  0  0  0
   -3.3258    0.1626    1.5373 C   0  0  2  0  0  0  0  0  0  0  0  0
   -4.2989   -1.0058    1.4512 C   0  0  0  0  0  0  0  0  0  0  0  0
   -4.4638   -1.6674    0.4284 O   0  0  0  0  0  0  0  0  0  0  0  0
   -3.9967    1.4609    1.1167 C   0  0  0  0  0  0  0  0  0  0  0  0
   -2.3627   -0.6648   -0.1562 H   0  0  0  0  0  0  0  0  0  0  0  0
   -2.9464    0.2480    2.5614 H   0  0  0  0  0  0  0  0  0  0  0  0
   -4.3831    1.3944    0.0931 H   0  0  0  0  0  0  0  0  0  0  0  0
   -4.8392    1.7029    1.7729 H   0  0  0  0  0  0  0  0  0  0  0  0
   -3.2875    2.2949    1.1507 H   0  0  0  0  0  0  0  0  0  0  0  0
   -4.9930   -1.1955    2.6379 N   0  0  0  0  0  0  0  0  0  0  0  0
   -6.0043   -2.2145    2.7954 C   0  0  0  0  0  0  0  0  0  0  0  0
   -4.7634   -0.6265    3.4475 H   0  0  0  0  0  0  0  0  0  0  0  0
   -6.9922   -1.7905    2.5625 H   0  0  0  0  0  0  0  0  0  0  0  0
   -5.7931   -3.0493    2.1109 H   0  0  0  0  0  0  0  0  0  0  0  0
   -5.9977   -2.5803    3.8327 H   0  0  0  0  0  0  0  0  0  0  0  0
  1  3  1  0  0  0  0
  1  7  1  0  0  0  0
  1  2  2  0  0  0  0
 42 43  1  0  0  0  0
 43 51  1  0  0  0  0
 43 44  2  0  0  0  0
  8  9  1  0  0  0  0
  9 17  1  0  0  0  0
  9 10  2  0  0  0  0
 18 19  1  0  0  0  0
 19 41  1  0  0  0  0
 19 20  2  0  0  0  0
 25 26  1  0  0  0  0
 25 27  1  0  0  0  0
 24 25  2  0  0  0  0
 42 45  1  0  0  0  0
  8 11  1  0  0  0  0
 51 52  1  0  0  0  0
 21 22  1  0  0  0  0
 22 23  1  0  0  0  0
 18 21  1  0  0  0  0
 23 24  1  0  0  0  0
 41 42  1  0  0  0  0
  7  8  1  0  0  0  0
 17 18  1  0  0  0  0
  3  4  1  0  0  0  0
  3  5  1  0  0  0  0
  3  6  1  0  0  0  0
 45 48  1  0  0  0  0
 45 49  1  0  0  0  0
 45 50  1  0  0  0  0
 11 14  1  0  0  0  0
 11 15  1  0  0  0  0
 11 16  1  0  0  0  0
 52 54  1  0  0  0  0
 52 55  1  0  0  0  0
 52 56  1  0  0  0  0
 22 32  1  0  0  0  0
 22 33  1  0  0  0  0
 21 30  1  0  0  0  0
 21 31  1  0  0  0  0
 23 34  1  0  0  0  0
 23 35  1  0  0  0  0
 42 47  1  0  0  0  0
  8 13  1  0  0  0  0
 18 29  1  0  0  0  0
 26 37  1  0  0  0  0
 26 38  1  0  0  0  0
 27 39  1  0  0  0  0
 27 40  1  0  0  0  0
 51 53  1  0  0  0  0
  7 12  1  0  0  0  0
 41 46  1  0  0  0  0
 17 28  1  0  0  0  0
 24 36  1  0  0  0  0
M  CHG  1  24   1
M  END
$$$$

  -OEChem-05262214473D

 56 55  0     1  0  0  0  0  0999 V2000
    0.7735   -5.8042   -2.0022 C   0  0  0  0  0  0  0  0  0  0  0  0
   -0.2086   -6.3825   -1.5519 O   0  0  0  0  0  0  0  0  0  0  0  0
    1.4751   -6.3646   -3.1946 C   0  0  0  0  0  0  0  0  0  0  0  0
    2.2765   -7.0687   -2.9186 H   0  0  0  0  0  0  0  0  0  0  0  0
    0.7988   -6.9360   -3.8504 H   0  0  0  0  0  0  0  0  0  0  0  0
    1.9556   -5.6216   -3.8511 H   0  0  0  0  0  0  0  0  0  0  0  0
    1.3322   -4.6359   -1.5106 N   0  0  0  0  0  0  0  0  0  0  0  0
    0.8124   -3.9290   -0.3698 C   0  0  2  0  0  0  0  0  0  0  0  0
    1.0666   -2.4424   -0.5818 C   0  0  0  0  0  0  0  0  0  0  0  0
    2.0598   -2.0076   -1.1610 O   0  0  0  0  0  0  0  0  0  0  0  0
    1.4560   -4.4118    0.9207 C   0  0  0  0  0  0  0  0  0  0  0  0
    2.1528   -4.2578   -1.9805 H   0  0  0  0  0  0  0  0  0  0  0  0
   -0.2667   -4.1160   -0.3467 H   0  0  0  0  0  0  0  0  0  0  0  0
    2.5374   -4.2329    0.9160 H   0  0  0  0  0  0  0  0  0  0  0  0
    1.0390   -3.8932    1.7903 H   0  0  0  0  0  0  0  0  0  0  0  0
    1.2976   -5.4871    1.0566 H   0  0  0  0  0  0  0  0  0  0  0  0
    0.0755   -1.6529   -0.0105 N   0  0  0  0  0  0  0  0  0  0  0  0
    0.1113   -0.2132   -0.0391 C   0  0  2  0  0  0  0  0  0  0  0  0
   -0.9026    0.2908    0.9823 C   0  0  0  0  0  0  0  0  0  0  0  0
   -0.6457    1.1704    1.8018 O   0  0  0  0  0  0  0  0  0  0  0  0
   -0.2084    0.3432   -1.4303 C   0  0  0  0  0  0  0  0  0  0  0  0
    0.8759    0.0018   -2.4594 C   0  0  0  0  0  0  0  0  0  0  0  0
    0.5525    0.5581   -3.8422 C   0  0  0  0  0  0  0  0  0  0  0  0
    1.5764    0.2107   -4.8250 N   0  3  0  0  0  0  0  0  0  0  0  0
    1.4668    0.5576   -6.1729 C   0  0  0  0  0  0  0  0  0  0  0  0
    2.4808    0.1935   -7.0525 N   0  0  0  0  0  0  0  0  0  0  0  0
    0.3680    1.2593   -6.6579 N   0  0  0  0  0  0  0  0  0  0  0  0
   -0.7323   -2.1024    0.4149 H   0  0  0  0  0  0  0  0  0  0  0  0
    1.1170    0.0858    0.2779 H   0  0  0  0  0  0  0  0  0  0  0  0
   -0.3215    1.4324   -1.3707 H   0  0  0  0  0  0  0  0  0  0  0  0
   -1.1740   -0.0499   -1.7748 H   0  0  0  0  0  0  0  0  0  0  0  0
    1.8410    0.3981   -2.1217 H   0  0  0  0  0  0  0  0  0  0  0  0
    0.9782   -1.0866   -2.5388 H   0  0  0  0  0  0  0  0  0  0  0  0
   -0.3936    0.1372   -4.1962 H   0  0  0  0  0  0  0  0  0  0  0  0
    0.4642    1.6484   -3.8141 H   0  0  0  0  0  0  0  0  0  0  0  0
    2.4045   -0.3030   -4.5289 H   0  0  0  0  0  0  0  0  0  0  0  0
    2.4318    0.4309   -8.0404 H   0  0  0  0  0  0  0  0  0  0  0  0
    3.2979   -0.3201   -6.7314 H   0  0  0  0  0  0  0  0  0  0  0  0
    0.2833    1.5143   -7.6384 H   0  0  0  0  0  0  0  0  0  0  0  0
   -0.3888    1.5385   -6.0380 H   0  0  0  0  0  0  0  0  0  0  0  0
   -2.1086   -0.3913    0.9018 N   0  0  0  0  0  0  0  0  0  0  0  0
   -3.2175   -0.1358    1.7921 C   0  0  2  0  0  0  0  0  0  0  0  0
   -3.9668   -1.4456    1.9978 C   0  0  0  0  0  0  0  0  0  0  0  0
   -4.0809   -2.2982    1.1197 O   0  0  0  0  0  0  0  0  0  0  0  0
   -4.1400    0.9363    1.2333 C   0  0  0  0  0  0  0  0  0  0  0  0
   -2.2422   -1.0825    0.1695 H   0  0  0  0  0  0  0  0  0  0  0  0
   -2.7887    0.1939    2.7447 H   0  0  0  0  0  0  0  0  0  0  0  0
   -4.5791    0.6239    0.2788 H   0  0  0  0  0  0  0  0  0  0  0  0
   -4.9641    1.1490    1.9223 H   0  0  0  0  0  0  0  0  0  0  0  0
   -3.5927    1.8687    1.0580 H   0  0  0  0  0  0  0  0  0  0  0  0
   -4.5299   -1.5315    3.2634 N   0  0  0  0  0  0  0  0  0  0  0  0
   -5.3266   -2.6591    3.6874 C   0  0  0  0  0  0  0  0  0  0  0  0
   -4.3507   -0.7963    3.9410 H   0  0  0  0  0  0  0  0  0  0  0  0
   -6.3888   -2.4536    3.4887 H   0  0  0  0  0  0  0  0  0  0  0  0
   -5.0166   -3.5565    3.1319 H   0  0  0  0  0  0  0  0  0  0  0  0
   -5.1810   -2.8263    4.7648 H   0  0  0  0  0  0  0  0  0  0  0  0
  1  3  1  0  0  0  0
  1  7  1  0  0  0  0
  1  2  2  0  0  0  0
 42 43  1  0  0  0  0
 43 51  1  0  0  0  0
 43 44  2  0  0  0  0
  8  9  1  0  0  0  0
  9 17  1  0  0  0  0
  9 10  2  0  0  0  0
 18 19  1  0  0  0  0
 19 41  1  0  0  0  0
 19 20  2  0  0  0  0
 25 26  1  0  0  0  0
 25 27  1  0  0  0  0
 24 25  2  0  0  0  0
 42 45  1  0  0  0  0
  8 11  1  0  0  0  0
 51 52  1  0  0  0  0
 21 22  1  0  0  0  0
 22 23  1  0  0  0  0
 18 21  1  0  0  0  0
 23 24  1  0  0  0  0
 41 42  1  0  0  0  0
  7  8  1  0  0  0  0
 17 18  1  0  0  0  0
  3  4  1  0  0  0  0
  3  5  1  0  0  0  0
  3  6  1  0  0  0  0
 45 48  1  0  0  0  0
 45 49  1  0  0  0  0
 45 50  1  0  0  0  0
 11 14  1  0  0  0  0
 11 15  1  0  0  0  0
 11 16  1  0  0  0  0
 52 54  1  0  0  0  0
 52 55  1  0  0  0  0
 52 56  1  0  0  0  0
 22 32  1  0  0  0  0
 22 33  1  0  0  0  0
 21 30  1  0  0  0  0
 21 31  1  0  0  0  0
 23 34  1  0  0  0  0
 23 35  1  0  0  0  0
 42 47  1  0  0  0  0
  8 13  1  0  0  0  0
 18 29  1  0  0  0  0
 26 37  1  0  0  0  0
 26 38  1  0  0  0  0
 27 39  1  0  0  0  0
 27 40  1  0  0  0  0
 51 53  1  0  0  0  0
  7 12  1  0  0  0  0
 41 46  1  0  0  0  0
 17 28  1  0  0  0  0
 24 36  1  0  0  0  0
M  CHG  1  24   1
M  END
$$$$

  -OEChem-05262214473D

 56 55  0     1  0  0  0  0  0999 V2000
    0.7735   -5.8042   -2.0022 C   0  0  0  0  0  0  0  0  0  0  0  0
   -0.2086   -6.3825   -1.5519 O   0  0  0  0  0  0  0  0  0  0  0  0
    1.4751   -6.3646   -3.1946 C   0  0  0  0  0  0  0  0  0  0  0  0
    2.2765   -7.0687   -2.9186 H   0  0  0  0  0  0  0  0  0  0  0  0
    0.7988   -6.9360   -3.8504 H   0  0  0  0  0  0  0  0  0  0  0  0
    1.9556   -5.6216   -3.8511 H   0  0  0  0  0  0  0  0  0  0  0  0
    1.3322   -4.6359   -1.5106 N   0  0  0  0  0  0  0  0  0  0  0  0
    0.8124   -3.9290   -0.3698 C   0  0  2  0  0  0  0  0  0  0  0  0
    1.0666   -2.4424   -0.5818 C   0  0  0  0  0  0  0  0  0  0  0  0
    2.0598   -2.0076   -1.1610 O   0  0  0  0  0  0  0  0  0  0  0  0
    1.4560   -4.4118    0.9207 C   0  0  0  0  0  0  0  0  0  0  0  0
    2.1528   -4.2578   -1.9805 H   0  0  0  0  0  0  0  0  0  0  0  0
   -0.2667   -4.1160   -0.3467 H   0  0  0  0  0  0  0  0  0  0  0  0
    2.5374   -4.2329    0.9160 H   0  0  0  0  0  0  0  0  0  0  0  0
    1.0390   -3.8932    1.7903 H   0  0  0  0  0  0  0  0  0  0  0  0
    1.2976   -5.4871    1.0566 H   0  0  0  0  0  0  0  0  0  0  0  0
    0.0755   -1.6529   -0.0105 N   0  0  0  0  0  0  0  0  0  0  0  0
    0.1113   -0.2132   -0.0391 C   0  0  2  0  0  0  0  0  0  0  0  0
   -0.9026    0.2908    0.9823 C   0  0  0  0  0  0  0  0  0  0  0  0
   -0.7520    1.3335    1.6158 O   0  0  0  0  0  0  0  0  0  0  0  0
   -0.2084    0.3432   -1.4303 C   0  0  0  0  0  0  0  0  0  0  0  0
    0.8759    0.0018   -2.4594 C   0  0  0  0  0  0  0  0  0  0  0  0
    0.5525    0.5581   -3.8422 C   0  0  0  0  0  0  0  0  0  0  0  0
    1.5764    0.2107   -4.8250 N   0  3  0  0  0  0  0  0  0  0  0  0
    1.4668    0.5576   -6.1729 C   0  0  0  0  0  0  0  0  0  0  0  0
    2.4808    0.1935   -7.0525 N   0  0  0  0  0  0  0  0  0  0  0  0
    0.3680    1.2593   -6.6579 N   0  0  0  0  0  0  0  0  0  0  0  0
   -0.7323   -2.1024    0.4149 H   0  0  0  0  0  0  0  0  0  0  0  0
    1.1170    0.0858    0.2779 H   0  0  0  0  0  0  0  0  0  0  0  0
   -0.3215    1.4324   -1.3707 H   0  0  0  0  0  0  0  0  0  0  0  0
   -1.1740   -0.0499   -1.7748 H   0  0  0  0  0  0  0  0  0  0  0  0
    1.8410    0.3981   -2.1217 H   0  0  0  0  0  0  0  0  0  0  0  0
    0.9782   -1.0866   -2.5388 H   0  0  0  0  0  0  0  0  0  0  0  0
   -0.3936    0.1372   -4.1962 H   0  0  0  0  0  0  0  0  0  0  0  0
    0.4642    1.6484   -3.8141 H   0  0  0  0  0  0  0  0  0  0  0  0
    2.4045   -0.3030   -4.5289 H   0  0  0  0  0  0  0  0  0  0  0  0
    2.4318    0.4309   -8.0404 H   0  0  0  0  0  0  0  0  0  0  0  0
    3.2979   -0.3201   -6.7314 H   0  0  0  0  0  0  0  0  0  0  0  0
    0.2833    1.5143   -7.6384 H   0  0  0  0  0  0  0  0  0  0  0  0
   -0.3888    1.5385   -6.0380 H   0  0  0  0  0  0  0  0  0  0  0  0
   -1.9680   -0.5851    1.1370 N   0  0  0  0  0  0  0  0  0  0  0  0
   -3.0393   -0.3614    2.0802 C   0  0  2  0  0  0  0  0  0  0  0  0
   -3.5231   -1.7188    2.5731 C   0  0  0  0  0  0  0  0  0  0  0  0
   -3.5426   -2.7222    1.8633 O   0  0  0  0  0  0  0  0  0  0  0  0
   -4.1776    0.4247    1.4485 C   0  0  0  0  0  0  0  0  0  0  0  0
   -2.0256   -1.4090    0.5457 H   0  0  0  0  0  0  0  0  0  0  0  0
   -2.6113    0.2005    2.9175 H   0  0  0  0  0  0  0  0  0  0  0  0
   -4.6190   -0.1225    0.6075 H   0  0  0  0  0  0  0  0  0  0  0  0
   -4.9759    0.6181    2.1725 H   0  0  0  0  0  0  0  0  0  0  0  0
   -3.8216    1.3882    1.0679 H   0  0  0  0  0  0  0  0  0  0  0  0
   -3.9708   -1.6681    3.8858 N   0  0  0  0  0  0  0  0  0  0  0  0
   -4.5186   -2.8175    4.5676 C   0  0  0  0  0  0  0  0  0  0  0  0
   -3.8803   -0.8038    4.4116 H   0  0  0  0  0  0  0  0  0  0  0  0
   -5.6118   -2.8302    4.4458 H   0  0  0  0  0  0  0  0  0  0  0  0
   -4.0913   -3.7360    4.1389 H   0  0  0  0  0  0  0  0  0  0  0  0
   -4.2697   -2.7620    5.6376 H   0  0  0  0  0  0  0  0  0  0  0  0
  1  3  1  0  0  0  0
  1  7  1  0  0  0  0
  1  2  2  0  0  0  0
 42 43  1  0  0  0  0
 43 51  1  0  0  0  0
 43 44  2  0  0  0  0
  8  9  1  0  0  0  0
  9 17  1  0  0  0  0
  9 10  2  0  0  0  0
 18 19  1  0  0  0  0
 19 41  1  0  0  0  0
 19 20  2  0  0  0  0
 25 26  1  0  0  0  0
 25 27  1  0  0  0  0
 24 25  2  0  0  0  0
 42 45  1  0  0  0  0
  8 11  1  0  0  0  0
 51 52  1  0  0  0  0
 21 22  1  0  0  0  0
 22 23  1  0  0  0  0
 18 21  1  0  0  0  0
 23 24  1  0  0  0  0
 41 42  1  0  0  0  0
  7  8  1  0  0  0  0
 17 18  1  0  0  0  0
  3  4  1  0  0  0  0
  3  5  1  0  0  0  0
  3  6  1  0  0  0  0
 45 48  1  0  0  0  0
 45 49  1  0  0  0  0
 45 50  1  0  0  0  0
 11 14  1  0  0  0  0
 11 15  1  0  0  0  0
 11 16  1  0  0  0  0
 52 54  1  0  0  0  0
 52 55  1  0  0  0  0
 52 56  1  0  0  0  0
 22 32  1  0  0  0  0
 22 33  1  0  0  0  0
 21 30  1  0  0  0  0
 21 31  1  0  0  0  0
 23 34  1  0  0  0  0
 23 35  1  0  0  0  0
 42 47  1  0  0  0  0
  8 13  1  0  0  0  0
 18 29  1  0  0  0  0
 26 37  1  0  0  0  0
 26 38  1  0  0  0  0
 27 39  1  0  0  0  0
 27 40  1  0  0  0  0
 51 53  1  0  0  0  0
  7 12  1  0  0  0  0
 41 46  1  0  0  0  0
 17 28  1  0  0  0  0
 24 36  1  0  0  0  0
M  CHG  1  24   1
M  END
$$$$

  -OEChem-05262214473D

 56 55  0     1  0  0  0  0  0999 V2000
    0.7735   -5.8042   -2.0022 C   0  0  0  0  0  0  0  0  0  0  0  0
   -0.2086   -6.3825   -1.5519 O   0  0  0  0  0  0  0  0  0  0  0  0
    1.4751   -6.3646   -3.1946 C   0  0  0  0  0  0  0  0  0  0  0  0
    2.2765   -7.0687   -2.9186 H   0  0  0  0  0  0  0  0  0  0  0  0
    0.7988   -6.9360   -3.8504 H   0  0  0  0  0  0  0  0  0  0  0  0
    1.9556   -5.6216   -3.8511 H   0  0  0  0  0  0  0  0  0  0  0  0
    1.3322   -4.6359   -1.5106 N   0  0  0  0  0  0  0  0  0  0  0  0
    0.8124   -3.9290   -0.3698 C   0  0  2  0  0  0  0  0  0  0  0  0
    1.0666   -2.4424   -0.5818 C   0  0  0  0  0  0  0  0  0  0  0  0
    2.0598   -2.0076   -1.1610 O   0  0  0  0  0  0  0  0  0  0  0  0
    1.4560   -4.4118    0.9207 C   0  0  0  0  0  0  0  0  0  0  0  0
    2.1528   -4.2578   -1.9805 H   0  0  0  0  0  0  0  0  0  0  0  0
   -0.2667   -4.1160   -0.3467 H   0  0  0  0  0  0  0  0  0  0  0  0
    2.5374   -4.2329    0.9160 H   0  0  0  0  0  0  0  0  0  0  0  0
    1.0390   -3.8932    1.7903 H   0  0  0  0  0  0  0  0  0  0  0  0
    1.2976   -5.4871    1.0566 H   0  0  0  0  0  0  0  0  0  0  0  0
    0.0755   -1.6529   -0.0105 N   0  0  0  0  0  0  0  0  0  0  0  0
    0.1113   -0.2132   -0.0391 C   0  0  2  0  0  0  0  0  0  0  0  0
   -0.9026    0.2908    0.9823 C   0  0  0  0  0  0  0  0  0  0  0  0
   -0.8989    1.4407    1.4172 O   0  0  0  0  0  0  0  0  0  0  0  0
   -0.2084    0.3432   -1.4303 C   0  0  0  0  0  0  0  0  0  0  0  0
    0.8759    0.0018   -2.4594 C   0  0  0  0  0  0  0  0  0  0  0  0
    0.5525    0.5581   -3.8422 C   0  0  0  0  0  0  0  0  0  0  0  0
    1.5764    0.2107   -4.8250 N   0  3  0  0  0  0  0  0  0  0  0  0
    1.4668    0.5576   -6.1729 C   0  0  0  0  0  0  0  0  0  0  0  0
    2.4808    0.1935   -7.0525 N   0  0  0  0  0  0  0  0  0  0  0  0
    0.3680    1.2593   -6.6579 N   0  0  0  0  0  0  0  0  0  0  0  0
   -0.7323   -2.1024    0.4149 H   0  0  0  0  0  0  0  0  0  0  0  0
    1.1170    0.0858    0.2779 H   0  0  0  0  0  0  0  0  0  0  0  0
   -0.3215    1.4324   -1.3707 H   0  0  0  0  0  0  0  0  0  0  0  0
   -1.1740   -0.0499   -1.7748 H   0  0  0  0  0  0  0  0  0  0  0  0
    1.8410    0.3981   -2.1217 H   0  0  0  0  0  0  0  0  0  0  0  0
    0.9782   -1.0866   -2.5388 H   0  0  0  0  0  0  0  0  0  0  0  0
   -0.3936    0.1372   -4.1962 H   0  0  0  0  0  0  0  0  0  0  0  0
    0.4642    1.6484   -3.8141 H   0  0  0  0  0  0  0  0  0  0  0  0
    2.4045   -0.3030   -4.5289 H   0  0  0  0  0  0  0  0  0  0  0  0
    2.4318    0.4309   -8.0404 H   0  0  0  0  0  0  0  0  0  0  0  0
    3.2979   -0.3201   -6.7314 H   0  0  0  0  0  0  0  0  0  0  0  0
    0.2833    1.5143   -7.6384 H   0  0  0  0  0  0  0  0  0  0  0  0
   -0.3888    1.5385   -6.0380 H   0  0  0  0  0  0  0  0  0  0  0  0
   -1.7784   -0.7075    1.3855 N   0  0  0  0  0  0  0  0  0  0  0  0
   -2.8035   -0.4988    2.3821 C   0  0  2  0  0  0  0  0  0  0  0  0
   -2.9978   -1.8067    3.1378 C   0  0  0  0  0  0  0  0  0  0  0  0
   -2.8855   -2.9104    2.6084 O   0  0  0  0  0  0  0  0  0  0  0  0
   -4.1067   -0.0388    1.7476 C   0  0  0  0  0  0  0  0  0  0  0  0
   -1.7275   -1.6221    0.9467 H   0  0  0  0  0  0  0  0  0  0  0  0
   -2.4263    0.2674    3.0681 H   0  0  0  0  0  0  0  0  0  0  0  0
   -4.5000   -0.7937    1.0569 H   0  0  0  0  0  0  0  0  0  0  0  0
   -4.8739    0.1463    2.5066 H   0  0  0  0  0  0  0  0  0  0  0  0
   -3.9586    0.8861    1.1798 H   0  0  0  0  0  0  0  0  0  0  0  0
   -3.3539   -1.5961    4.4626 N   0  0  0  0  0  0  0  0  0  0  0  0
   -3.6354   -2.6789    5.3759 C   0  0  0  0  0  0  0  0  0  0  0  0
   -3.3844   -0.6485    4.8272 H   0  0  0  0  0  0  0  0  0  0  0  0
   -4.7141   -2.8945    5.3686 H   0  0  0  0  0  0  0  0  0  0  0  0
   -3.0803   -3.5757    5.0634 H   0  0  0  0  0  0  0  0  0  0  0  0
   -3.3259   -2.3916    6.3916 H   0  0  0  0  0  0  0  0  0  0  0  0
  1  3  1  0  0  0  0
  1  7  1  0  0  0  0
  1  2  2  0  0  0  0
 42 43  1  0  0  0  0
 43 51  1  0  0  0  0
 43 44  2  0  0  0  0
  8  9  1  0  0  0  0
  9 17  1  0  0  0  0
  9 10  2  0  0  0  0
 18 19  1  0  0  0  0
 19 41  1  0  0  0  0
 19 20  2  0  0  0  0
 25 26  1  0  0  0  0
 25 27  1  0  0  0  0
 24 25  2  0  0  0  0
 42 45  1  0  0  0  0
  8 11  1  0  0  0  0
 51 52  1  0  0  0  0
 21 22  1  0  0  0  0
 22 23  1  0  0  0  0
 18 21  1  0  0  0  0
 23 24  1  0  0  0  0
 41 42  1  0  0  0  0
  7  8  1  0  0  0  0
 17 18  1  0  0  0  0
  3  4  1  0  0  0  0
  3  5  1  0  0  0  0
  3  6  1  0  0  0  0
 45 48  1  0  0  0  0
 45 49  1  0  0  0  0
 45 50  1  0  0  0  0
 11 14  1  0  0  0  0
 11 15  1  0  0  0  0
 11 16  1  0  0  0  0
 52 54  1  0  0  0  0
 52 55  1  0  0  0  0
 52 56  1  0  0  0  0
 22 32  1  0  0  0  0
 22 33  1  0  0  0  0
 21 30  1  0  0  0  0
 21 31  1  0  0  0  0
 23 34  1  0  0  0  0
 23 35  1  0  0  0  0
 42 47  1  0  0  0  0
  8 13  1  0  0  0  0
 18 29  1  0  0  0  0
 26 37  1  0  0  0  0
 26 38  1  0  0  0  0
 27 39  1  0  0  0  0
 27 40  1  0  0  0  0
 51 53  1  0  0  0  0
  7 12  1  0  0  0  0
 41 46  1  0  0  0  0
 17 28  1  0  0  0  0
 24 36  1  0  0  0  0
M  CHG  1  24   1
M  END
$$$$

  -OEChem-05262214473D

 56 55  0     1  0  0  0  0  0999 V2000
    0.7735   -5.8042   -2.0022 C   0  0  0  0  0  0  0  0  0  0  0  0
   -0.2086   -6.3825   -1.5519 O   0  0  0  0  0  0  0  0  0  0  0  0
    1.4751   -6.3646   -3.1946 C   0  0  0  0  0  0  0  0  0  0  0  0
    2.2765   -7.0687   -2.9186 H   0  0  0  0  0  0  0  0  0  0  0  0
    0.7988   -6.9360   -3.8504 H   0  0  0  0  0  0  0  0  0  0  0  0
    1.9556   -5.6216   -3.8511 H   0  0  0  0  0  0  0  0  0  0  0  0
    1.3322   -4.6359   -1.5106 N   0  0  0  0  0  0  0  0  0  0  0  0
    0.8124   -3.9290   -0.3698 C   0  0  2  0  0  0  0  0  0  0  0  0
    1.0666   -2.4424   -0.5818 C   0  0  0  0  0  0  0  0  0  0  0  0
    2.0598   -2.0076   -1.1610 O   0  0  0  0  0  0  0  0  0  0  0  0
    1.4560   -4.4118    0.9207 C   0  0  0  0  0  0  0  0  0  0  0  0
    2.1528   -4.2578   -1.9805 H   0  0  0  0  0  0  0  0  0  0  0  0
   -0.2667   -4.1160   -0.3467 H   0  0  0  0  0  0  0  0  0  0  0  0
    2.5374   -4.2329    0.9160 H   0  0  0  0  0  0  0  0  0  0  0  0
    1.0390   -3.8932    1.7903 H   0  0  0  0  0  0  0  0  0  0  0  0
    1.2976   -5.4871    1.0566 H   0  0  0  0  0  0  0  0  0  0  0  0
    0.0755   -1.6529   -0.0105 N   0  0  0  0  0  0  0  0  0  0  0  0
    0.1113   -0.2132   -0.0391 C   0  0  2  0  0  0  0  0  0  0  0  0
   -0.9026    0.2908    0.9823 C   0  0  0  0  0  0  0  0  0  0  0  0
   -1.0763    1.4845    1.2194 O   0  0  0  0  0  0  0  0  0  0  0  0
   -0.2084    0.3432   -1.4303 C   0  0  0  0  0  0  0  0  0  0  0  0
    0.8759    0.0018   -2.4594 C   0  0  0  0  0  0  0  0  0  0  0  0
    0.5525    0.5581   -3.8422 C   0  0  0  0  0  0  0  0  0  0  0  0
    1.5764    0.2107   -4.8250 N   0  3  0  0  0  0  0  0  0  0  0  0
    1.4668    0.5576   -6.1729 C   0  0  0  0  0  0  0  0  0  0  0  0
    2.4808    0.1935   -7.0525 N   0  0  0  0  0  0  0  0  0  0  0  0
    0.3680    1.2593   -6.6579 N   0  0  0  0  0  0  0  0  0  0  0  0
   -0.7323   -2.1024    0.4149 H   0  0  0  0  0  0  0  0  0  0  0  0
    1.1170    0.0858    0.2779 H   0  0  0  0  0  0  0  0  0  0  0  0
   -0.3215    1.4324   -1.3707 H   0  0  0  0  0  0  0  0  0  0  0  0
   -1.1740   -0.0499   -1.7748 H   0  0  0  0  0  0  0  0  0  0  0  0
    1.8410    0.3981   -2.1217 H   0  0  0  0  0  0  0  0  0  0  0  0
    0.9782   -1.0866   -2.5388 H   0  0  0  0  0  0  0  0  0  0  0  0
   -0.3936    0.1372   -4.1962 H   0  0  0  0  0  0  0  0  0  0  0  0
    0.4642    1.6484   -3.8141 H   0  0  0  0  0  0  0  0  0  0  0  0
    2.4045   -0.3030   -4.5289 H   0  0  0  0  0  0  0  0  0  0  0  0
    2.4318    0.4309   -8.0404 H   0  0  0  0  0  0  0  0  0  0  0  0
    3.2979   -0.3201   -6.7314 H   0  0  0  0  0  0  0  0  0  0  0  0
    0.2833    1.5143   -7.6384 H   0  0  0  0  0  0  0  0  0  0  0  0
   -0.3888    1.5385   -6.0380 H   0  0  0  0  0  0  0  0  0  0  0  0
   -1.5528   -0.7500    1.6304 N   0  0  0  0  0  0  0  0  0  0  0  0
   -2.5260   -0.5387    2.6772 C   0  0  2  0  0  0  0  0  0  0  0  0
   -2.4270   -1.7034    3.6535 C   0  0  0  0  0  0  0  0  0  0  0  0
   -2.1544   -2.8501    3.3043 O   0  0  0  0  0  0  0  0  0  0  0  0
   -3.9323   -0.4229    2.1102 C   0  0  0  0  0  0  0  0  0  0  0  0
   -1.3684   -1.7073    1.3452 H   0  0  0  0  0  0  0  0  0  0  0  0
   -2.2463    0.3901    3.1863 H   0  0  0  0  0  0  0  0  0  0  0  0
   -4.2302   -1.3441    1.5963 H   0  0  0  0  0  0  0  0  0  0  0  0
   -4.6650   -0.2343    2.9018 H   0  0  0  0  0  0  0  0  0  0  0  0
   -3.9942    0.3965    1.3859 H   0  0  0  0  0  0  0  0  0  0  0  0
   -2.7211   -1.3203    4.9546 N   0  0  0  0  0  0  0  0  0  0  0  0
   -2.7371   -2.2529    6.0573 C   0  0  0  0  0  0  0  0  0  0  0  0
   -2.8967   -0.3410    5.1595 H   0  0  0  0  0  0  0  0  0  0  0  0
   -3.7568   -2.6421    6.1942 H   0  0  0  0  0  0  0  0  0  0  0  0
   -2.0524   -3.0865    5.8423 H   0  0  0  0  0  0  0  0  0  0  0  0
   -2.4140   -1.7405    6.9755 H   0  0  0  0  0  0  0  0  0  0  0  0
  1  3  1  0  0  0  0
  1  7  1  0  0  0  0
  1  2  2  0  0  0  0
 42 43  1  0  0  0  0
 43 51  1  0  0  0  0
 43 44  2  0  0  0  0
  8  9  1  0  0  0  0
  9 17  1  0  0  0  0
  9 10  2  0  0  0  0
 18 19  1  0  0  0  0
 19 41  1  0  0  0  0
 19 20  2  0  0  0  0
 25 26  1  0  0  0  0
 25 27  1  0  0  0  0
 24 25  2  0  0  0  0
 42 45  1  0  0  0  0
  8 11  1  0  0  0  0
 51 52  1  0  0  0  0
 21 22  1  0  0  0  0
 22 23  1  0  0  0  0
 18 21  1  0  0  0  0
 23 24  1  0  0  0  0
 41 42  1  0  0  0  0
  7  8  1  0  0  0  0
 17 18  1  0  0  0  0
  3  4  1  0  0  0  0
  3  5  1  0  0  0  0
  3  6  1  0  0  0  0
 45 48  1  0  0  0  0
 45 49  1  0  0  0  0
 45 50  1  0  0  0  0
 11 14  1  0  0  0  0
 11 15  1  0  0  0  0
 11 16  1  0  0  0  0
 52 54  1  0  0  0  0
 52 55  1  0  0  0  0
 52 56  1  0  0  0  0
 22 32  1  0  0  0  0
 22 33  1  0  0  0  0
 21 30  1  0  0  0  0
 21 31  1  0  0  0  0
 23 34  1  0  0  0  0
 23 35  1  0  0  0  0
 42 47  1  0  0  0  0
  8 13  1  0  0  0  0
 18 29  1  0  0  0  0
 26 37  1  0  0  0  0
 26 38  1  0  0  0  0
 27 39  1  0  0  0  0
 27 40  1  0  0  0  0
 51 53  1  0  0  0  0
  7 12  1  0  0  0  0
 41 46  1  0  0  0  0
 17 28  1  0  0  0  0
 24 36  1  0  0  0  0
M  CHG  1  24   1
M  END
$$$$

  -OEChem-05262214473D

 56 55  0     1  0  0  0  0  0999 V2000
    0.7735   -5.8042   -2.0022 C   0  0  0  0  0  0  0  0  0  0  0  0
   -0.2086   -6.3825   -1.5519 O   0  0  0  0  0  0  0  0  0  0  0  0
    1.4751   -6.3646   -3.1946 C   0  0  0  0  0  0  0  0  0  0  0  0
    2.2765   -7.0687   -2.9186 H   0  0  0  0  0  0  0  0  0  0  0  0
    0.7988   -6.9360   -3.8504 H   0  0  0  0  0  0  0  0  0  0  0  0
    1.9556   -5.6216   -3.8511 H   0  0  0  0  0  0  0  0  0  0  0  0
    1.3322   -4.6359   -1.5106 N   0  0  0  0  0  0  0  0  0  0  0  0
    0.8124   -3.9290   -0.3698 C   0  0  2  0  0  0  0  0  0  0  0  0
    1.0666   -2.4424   -0.5818 C   0  0  0  0  0  0  0  0  0  0  0  0
    2.0598   -2.0076   -1.1610 O   0  0  0  0  0  0  0  0  0  0  0  0
    1.4560   -4.4118    0.9207 C   0  0  0  0  0  0  0  0  0  0  0  0
    2.1528   -4.2578   -1.9805 H   0  0  0  0  0  0  0  0  0  0  0  0
   -0.2667   -4.1160   -0.3467 H   0  0  0  0  0  0  0  0  0  0  0  0
    2.5374   -4.2329    0.9160 H   0  0  0  0  0  0  0  0  0  0  0  0
    1.0390   -3.8932    1.7903 H   0  0  0  0  0  0  0  0  0  0  0  0
    1.2976   -5.4871    1.0566 H   0  0  0  0  0  0  0  0  0  0  0  0
    0.0755   -1.6529   -0.0105 N   0  0  0  0  0  0  0  0  0  0  0  0
    0.1113   -0.2132   -0.0391 C   0  0  2  0  0  0  0  0  0  0  0  0
   -0.9026    0.2908    0.9823 C   0  0  0  0  0  0  0  0  0  0  0  0
   -1.2722    1.4620    1.0361 O   0  0  0  0  0  0  0  0  0  0  0  0
   -0.2084    0.3432   -1.4303 C   0  0  0  0  0  0  0  0  0  0  0  0
    0.8759    0.0018   -2.4594 C   0  0  0  0  0  0  0  0  0  0  0  0
    0.5525    0.5581   -3.8422 C   0  0  0  0  0  0  0  0  0  0  0  0
    1.5764    0.2107   -4.8250 N   0  3  0  0  0  0  0  0  0  0  0  0
    1.4668    0.5576   -6.1729 C   0  0  0  0  0  0  0  0  0  0  0  0
    2.4808    0.1935   -7.0525 N   0  0  0  0  0  0  0  0  0  0  0  0
    0.3680    1.2593   -6.6579 N   0  0  0  0  0  0  0  0  0  0  0  0
   -0.7323   -2.1024    0.4149 H   0  0  0  0  0  0  0  0  0  0  0  0
    1.1170    0.0858    0.2779 H   0  0  0  0  0  0  0  0  0  0  0  0
   -0.3215    1.4324   -1.3707 H   0  0  0  0  0  0  0  0  0  0  0  0
   -1.1740   -0.0499   -1.7748 H   0  0  0  0  0  0  0  0  0  0  0  0
    1.8410    0.3981   -2.1217 H   0  0  0  0  0  0  0  0  0  0  0  0
    0.9782   -1.0866   -2.5388 H   0  0  0  0  0  0  0  0  0  0  0  0
   -0.3936    0.1372   -4.1962 H   0  0  0  0  0  0  0  0  0  0  0  0
    0.4642    1.6484   -3.8141 H   0  0  0  0  0  0  0  0  0  0  0  0
    2.4045   -0.3030   -4.5289 H   0  0  0  0  0  0  0  0  0  0  0  0
    2.4318    0.4309   -8.0404 H   0  0  0  0  0  0  0  0  0  0  0  0
    3.2979   -0.3201   -6.7314 H   0  0  0  0  0  0  0  0  0  0  0  0
    0.2833    1.5143   -7.6384 H   0  0  0  0  0  0  0  0  0  0  0  0
   -0.3888    1.5385   -6.0380 H   0  0  0  0  0  0  0  0  0  0  0  0
   -1.3066   -0.7099    1.8550 N   0  0  0  0  0  0  0  0  0  0  0  0
   -2.2258   -0.4784    2.9454 C   0  0  2  0  0  0  0  0  0  0  0  0
   -1.8493   -1.4159    4.0850 C   0  0  0  0  0  0  0  0  0  0  0  0
   -1.3991   -2.5453    3.9036 O   0  0  0  0  0  0  0  0  0  0  0  0
   -3.6663   -0.7012    2.5116 C   0  0  0  0  0  0  0  0  0  0  0  0
   -0.9726   -1.6587    1.7141 H   0  0  0  0  0  0  0  0  0  0  0  0
   -2.0836    0.5601    3.2639 H   0  0  0  0  0  0  0  0  0  0  0  0
   -3.8280   -1.7362    2.1890 H   0  0  0  0  0  0  0  0  0  0  0  0
   -4.3634   -0.4977    3.3311 H   0  0  0  0  0  0  0  0  0  0  0  0
   -3.9262   -0.0470    1.6724 H   0  0  0  0  0  0  0  0  0  0  0  0
   -2.1156   -0.8595    5.3283 N   0  0  0  0  0  0  0  0  0  0  0  0
   -1.8851   -1.5684    6.5653 C   0  0  0  0  0  0  0  0  0  0  0  0
   -2.4505    0.0977    5.3859 H   0  0  0  0  0  0  0  0  0  0  0  0
   -2.8053   -2.0904    6.8664 H   0  0  0  0  0  0  0  0  0  0  0  0
   -1.0777   -2.3018    6.4225 H   0  0  0  0  0  0  0  0  0  0  0  0
   -1.5962   -0.8530    7.3494 H   0  0  0  0  0  0  0  0  0  0  0  0
  1  3  1  0  0  0  0
  1  7  1  0  0  0  0
  1  2  2  0  0  0  0
 42 43  1  0  0  0  0
 43 51  1  0  0  0  0
 43 44  2  0  0  0  0
  8  9  1  0  0  0  0
  9 17  1  0  0  0  0
  9 10  2  0  0  0  0
 18 19  1  0  0  0  0
 19 41  1  0  0  0  0
 19 20  2  0  0  0  0
 25 26  1  0  0  0  0
 25 27  1  0  0  0  0
 24 25  2  0  0  0  0
 42 45  1  0  0  0  0
  8 11  1  0  0  0  0
 51 52  1  0  0  0  0
 21 22  1  0  0  0  0
 22 23  1  0  0  0  0
 18 21  1  0  0  0  0
 23 24  1  0  0  0  0
 41 42  1  0  0  0  0
  7  8  1  0  0  0  0
 17 18  1  0  0  0  0
  3  4  1  0  0  0  0
  3  5  1  0  0  0  0
  3  6  1  0  0  0  0
 45 48  1  0  0  0  0
 45 49  1  0  0  0  0
 45 50  1  0  0  0  0
 11 14  1  0  0  0  0
 11 15  1  0  0  0  0
 11 16  1  0  0  0  0
 52 54  1  0  0  0  0
 52 55  1  0  0  0  0
 52 56  1  0  0  0  0
 22 32  1  0  0  0  0
 22 33  1  0  0  0  0
 21 30  1  0  0  0  0
 21 31  1  0  0  0  0
 23 34  1  0  0  0  0
 23 35  1  0  0  0  0
 42 47  1  0  0  0  0
  8 13  1  0  0  0  0
 18 29  1  0  0  0  0
 26 37  1  0  0  0  0
 26 38  1  0  0  0  0
 27 39  1  0  0  0  0
 27 40  1  0  0  0  0
 51 53  1  0  0  0  0
  7 12  1  0  0  0  0
 41 46  1  0  0  0  0
 17 28  1  0  0  0  0
 24 36  1  0  0  0  0
M  CHG  1  24   1
M  END
$$$$

  -OEChem-05262214473D

 56 55  0     1  0  0  0  0  0999 V2000
    0.7735   -5.8042   -2.0022 C   0  0  0  0  0  0  0  0  0  0  0  0
   -0.2086   -6.3825   -1.5519 O   0  0  0  0  0  0  0  0  0  0  0  0
    1.4751   -6.3646   -3.1946 C   0  0  0  0  0  0  0  0  0  0  0  0
    2.2765   -7.0687   -2.9186 H   0  0  0  0  0  0  0  0  0  0  0  0
    0.7988   -6.9360   -3.8504 H   0  0  0  0  0  0  0  0  0  0  0  0
    1.9556   -5.6216   -3.8511 H   0  0  0  0  0  0  0  0  0  0  0  0
    1.3322   -4.6359   -1.5106 N   0  0  0  0  0  0  0  0  0  0  0  0
    0.8124   -3.9290   -0.3698 C   0  0  2  0  0  0  0  0  0  0  0  0
    1.0666   -2.4424   -0.5818 C   0  0  0  0  0  0  0  0  0  0  0  0
    2.0598   -2.0076   -1.1610 O   0  0  0  0  0  0  0  0  0  0  0  0
    1.4560   -4.4118    0.9207 C   0  0  0  0  0  0  0  0  0  0  0  0
    2.1528   -4.2578   -1.9805 H   0  0  0  0  0  0  0  0  0  0  0  0
   -0.2667   -4.1160   -0.3467 H   0  0  0  0  0  0  0  0  0  0  0  0
    2.5374   -4.2329    0.9160 H   0  0  0  0  0  0  0  0  0  0  0  0
    1.0390   -3.8932    1.7903 H   0  0  0  0  0  0  0  0  0  0  0  0
    1.2976   -5.4871    1.0566 H   0  0  0  0  0  0  0  0  0  0  0  0
    0.0755   -1.6529   -0.0105 N   0  0  0  0  0  0  0  0  0  0  0  0
    0.1113   -0.2132   -0.0391 C   0  0  2  0  0  0  0  0  0  0  0  0
   -0.9026    0.2908    0.9823 C   0  0  0  0  0  0  0  0  0  0  0  0
   -1.4732    1.3748    0.8796 O   0  0  0  0  0  0  0  0  0  0  0  0
   -0.2084    0.3432   -1.4303 C   0  0  0  0  0  0  0  0  0  0  0  0
    0.8759    0.0018   -2.4594 C   0  0  0  0  0  0  0  0  0  0  0  0
    0.5525    0.5581   -3.8422 C   0  0  0  0  0  0  0  0  0  0  0  0
    1.5764    0.2107   -4.8250 N   0  3  0  0  0  0  0  0  0  0  0  0
    1.4668    0.5576   -6.1729 C   0  0  0  0  0  0  0  0  0  0  0  0
    2.4808    0.1935   -7.0525 N   0  0  0  0  0  0  0  0  0  0  0  0
    0.3680    1.2593   -6.6579 N   0  0  0  0  0  0  0  0  0  0  0  0
   -0.7323   -2.1024    0.4149 H   0  0  0  0  0  0  0  0  0  0  0  0
    1.1170    0.0858    0.2779 H   0  0  0  0  0  0  0  0  0  0  0  0
   -0.3215    1.4324   -1.3707 H   0  0  0  0  0  0  0  0  0  0  0  0
   -1.1740   -0.0499   -1.7748 H   0  0  0  0  0  0  0  0  0  0  0  0
    1.8410    0.3981   -2.1217 H   0  0  0  0  0  0  0  0  0  0  0  0
    0.9782   -1.0866   -2.5388 H   0  0  0  0  0  0  0  0  0  0  0  0
   -0.3936    0.1372   -4.1962 H   0  0  0  0  0  0  0  0  0  0  0  0
    0.4642    1.6484   -3.8141 H   0  0  0  0  0  0  0  0  0  0  0  0
    2.4045   -0.3030   -4.5289 H   0  0  0  0  0  0  0  0  0  0  0  0
    2.4318    0.4309   -8.0404 H   0  0  0  0  0  0  0  0  0  0  0  0
    3.2979   -0.3201   -6.7314 H   0  0  0  0  0  0  0  0  0  0  0  0
    0.2833    1.5143   -7.6384 H   0  0  0  0  0  0  0  0  0  0  0  0
   -0.3888    1.5385   -6.0380 H   0  0  0  0  0  0  0  0  0  0  0  0
   -1.0565   -0.5898    2.0440 N   0  0  0  0  0  0  0  0  0  0  0  0
   -1.9234   -0.3219    3.1684 C   0  0  2  0  0  0  0  0  0  0  0  0
   -1.3043   -0.9639    4.4029 C   0  0  0  0  0  0  0  0  0  0  0  0
   -0.6712   -2.0169    4.3654 O   0  0  0  0  0  0  0  0  0  0  0  0
   -3.3267   -0.8548    2.9245 C   0  0  0  0  0  0  0  0  0  0  0  0
   -0.5672   -1.4797    2.0282 H   0  0  0  0  0  0  0  0  0  0  0  0
   -1.9492    0.7658    3.2957 H   0  0  0  0  0  0  0  0  0  0  0  0
   -3.3209   -1.9432    2.7945 H   0  0  0  0  0  0  0  0  0  0  0  0
   -3.9897   -0.6259    3.7653 H   0  0  0  0  0  0  0  0  0  0  0  0
   -3.7590   -0.4143    2.0195 H   0  0  0  0  0  0  0  0  0  0  0  0
   -1.5786   -0.2451    5.5581 N   0  0  0  0  0  0  0  0  0  0  0  0
   -1.1372   -0.6721    6.8653 C   0  0  0  0  0  0  0  0  0  0  0  0
   -2.0763    0.6378    5.4909 H   0  0  0  0  0  0  0  0  0  0  0  0
   -1.9244   -1.2768    7.3393 H   0  0  0  0  0  0  0  0  0  0  0  0
   -0.2226   -1.2749    6.7645 H   0  0  0  0  0  0  0  0  0  0  0  0
   -0.9280    0.2103    7.4878 H   0  0  0  0  0  0  0  0  0  0  0  0
  1  3  1  0  0  0  0
  1  7  1  0  0  0  0
  1  2  2  0  0  0  0
 42 43  1  0  0  0  0
 43 51  1  0  0  0  0
 43 44  2  0  0  0  0
  8  9  1  0  0  0  0
  9 17  1  0  0  0  0
  9 10  2  0  0  0  0
 18 19  1  0  0  0  0
 19 41  1  0  0  0  0
 19 20  2  0  0  0  0
 25 26  1  0  0  0  0
 25 27  1  0  0  0  0
 24 25  2  0  0  0  0
 42 45  1  0  0  0  0
  8 11  1  0  0  0  0
 51 52  1  0  0  0  0
 21 22  1  0  0  0  0
 22 23  1  0  0  0  0
 18 21  1  0  0  0  0
 23 24  1  0  0  0  0
 41 42  1  0  0  0  0
  7  8  1  0  0  0  0
 17 18  1  0  0  0  0
  3  4  1  0  0  0  0
  3  5  1  0  0  0  0
  3  6  1  0  0  0  0
 45 48  1  0  0  0  0
 45 49  1  0  0  0  0
 45 50  1  0  0  0  0
 11 14  1  0  0  0  0
 11 15  1  0  0  0  0
 11 16  1  0  0  0  0
 52 54  1  0  0  0  0
 52 55  1  0  0  0  0
 52 56  1  0  0  0  0
 22 32  1  0  0  0  0
 22 33  1  0  0  0  0
 21 30  1  0  0  0  0
 21 31  1  0  0  0  0
 23 34  1  0  0  0  0
 23 35  1  0  0  0  0
 42 47  1  0  0  0  0
  8 13  1  0  0  0  0
 18 29  1  0  0  0  0
 26 37  1  0  0  0  0
 26 38  1  0  0  0  0
 27 39  1  0  0  0  0
 27 40  1  0  0  0  0
 51 53  1  0  0  0  0
  7 12  1  0  0  0  0
 41 46  1  0  0  0  0
 17 28  1  0  0  0  0
 24 36  1  0  0  0  0
M  CHG  1  24   1
M  END
$$$$

  -OEChem-05262214473D

 56 55  0     1  0  0  0  0  0999 V2000
    0.7735   -5.8042   -2.0022 C   0  0  0  0  0  0  0  0  0  0  0  0
   -0.2086   -6.3825   -1.5519 O   0  0  0  0  0  0  0  0  0  0  0  0
    1.4751   -6.3646   -3.1946 C   0  0  0  0  0  0  0  0  0  0  0  0
    2.2765   -7.0687   -2.9186 H   0  0  0  0  0  0  0  0  0  0  0  0
    0.7988   -6.9360   -3.8504 H   0  0  0  0  0  0  0  0  0  0  0  0
    1.9556   -5.6216   -3.8511 H   0  0  0  0  0  0  0  0  0  0  0  0
    1.3322   -4.6359   -1.5106 N   0  0  0  0  0  0  0  0  0  0  0  0
    0.8124   -3.9290   -0.3698 C   0  0  2  0  0  0  0  0  0  0  0  0
    1.0666   -2.4424   -0.5818 C   0  0  0  0  0  0  0  0  0  0  0  0
    2.0598   -2.0076   -1.1610 O   0  0  0  0  0  0  0  0  0  0  0  0
    1.4560   -4.4118    0.9207 C   0  0  0  0  0  0  0  0  0  0  0  0
    2.1528   -4.2578   -1.9805 H   0  0  0  0  0  0  0  0  0  0  0  0
   -0.2667   -4.1160   -0.3467 H   0  0  0  0  0  0  0  0  0  0  0  0
    2.5374   -4.2329    0.9160 H   0  0  0  0  0  0  0  0  0  0  0  0
    1.0390   -3.8932    1.7903 H   0  0  0  0  0  0  0  0  0  0  0  0
    1.2976   -5.4871    1.0566 H   0  0  0  0  0  0  0  0  0  0  0  0
    0.0755   -1.6529   -0.0105 N   0  0  0  0  0  0  0  0  0  0  0  0
    0.1113   -0.2132   -0.0391 C   0  0  2  0  0  0  0  0  0  0  0  0
   -0.9026    0.2908    0.9823 C   0  0  0  0  0  0  0  0  0  0  0  0
   -1.6656    1.2288    0.7606 O   0  0  0  0  0  0  0  0  0  0  0  0
   -0.2084    0.3432   -1.4303 C   0  0  0  0  0  0  0  0  0  0  0  0
    0.8759    0.0018   -2.4594 C   0  0  0  0  0  0  0  0  0  0  0  0
    0.5525    0.5581   -3.8422 C   0  0  0  0  0  0  0  0  0  0  0  0
    1.5764    0.2107   -4.8250 N   0  3  0  0  0  0  0  0  0  0  0  0
    1.4668    0.5576   -6.1729 C   0  0  0  0  0  0  0  0  0  0  0  0
    2.4808    0.1935   -7.0525 N   0  0  0  0  0  0  0  0  0  0  0  0
    0.3680    1.2593   -6.6579 N   0  0  0  0  0  0  0  0  0  0  0  0
   -0.7323   -2.1024    0.4149 H   0  0  0  0  0  0  0  0  0  0  0  0
    1.1170    0.0858    0.2779 H   0  0  0  0  0  0  0  0  0  0  0  0
   -0.3215    1.4324   -1.3707 H   0  0  0  0  0  0  0  0  0  0  0  0
   -1.1740   -0.0499   -1.7748 H   0  0  0  0  0  0  0  0  0  0  0  0
    1.8410    0.3981   -2.1217 H   0  0  0  0  0  0  0  0  0  0  0  0
    0.9782   -1.0866   -2.5388 H   0  0  0  0  0  0  0  0  0  0  0  0
   -0.3936    0.1372   -4.1962 H   0  0  0  0  0  0  0  0  0  0  0  0
    0.4642    1.6484   -3.8141 H   0  0  0  0  0  0  0  0  0  0  0  0
    2.4045   -0.3030   -4.5289 H   0  0  0  0  0  0  0  0  0  0  0  0
    2.4318    0.4309   -8.0404 H   0  0  0  0  0  0  0  0  0  0  0  0
    3.2979   -0.3201   -6.7314 H   0  0  0  0  0  0  0  0  0  0  0  0
    0.2833    1.5143   -7.6384 H   0  0  0  0  0  0  0  0  0  0  0  0
   -0.3888    1.5385   -6.0380 H   0  0  0  0  0  0  0  0  0  0  0  0
   -0.8196   -0.3979    2.1845 N   0  0  0  0  0  0  0  0  0  0  0  0
   -1.6393   -0.0800    3.3310 C   0  0  2  0  0  0  0  0  0  0  0  0
   -0.8290   -0.3780    4.5856 C   0  0  0  0  0  0  0  0  0  0  0  0
   -0.0201   -1.3008    4.6582 O   0  0  0  0  0  0  0  0  0  0  0  0
   -2.9367   -0.8733    3.3207 C   0  0  0  0  0  0  0  0  0  0  0  0
   -0.1798   -1.1825    2.2661 H   0  0  0  0  0  0  0  0  0  0  0  0
   -1.8524    0.9933    3.2795 H   0  0  0  0  0  0  0  0  0  0  0  0
   -2.7433   -1.9510    3.3716 H   0  0  0  0  0  0  0  0  0  0  0  0
   -3.5694   -0.6103    4.1748 H   0  0  0  0  0  0  0  0  0  0  0  0
   -3.5042   -0.6804    2.4038 H   0  0  0  0  0  0  0  0  0  0  0  0
   -1.1468    0.4809    5.6284 N   0  0  0  0  0  0  0  0  0  0  0  0
   -0.5446    0.3749    6.9368 C   0  0  0  0  0  0  0  0  0  0  0  0
   -1.7994    1.2424    5.4673 H   0  0  0  0  0  0  0  0  0  0  0  0
   -1.1741   -0.2568    7.5807 H   0  0  0  0  0  0  0  0  0  0  0  0
    0.4545   -0.0760    6.8450 H   0  0  0  0  0  0  0  0  0  0  0  0
   -0.4551    1.3771    7.3814 H   0  0  0  0  0  0  0  0  0  0  0  0
  1  3  1  0  0  0  0
  1  7  1  0  0  0  0
  1  2  2  0  0  0  0
 42 43  1  0  0  0  0
 43 51  1  0  0  0  0
 43 44  2  0  0  0  0
  8  9  1  0  0  0  0
  9 17  1  0  0  0  0
  9 10  2  0  0  0  0
 18 19  1  0  0  0  0
 19 41  1  0  0  0  0
 19 20  2  0  0  0  0
 25 26  1  0  0  0  0
 25 27  1  0  0  0  0
 24 25  2  0  0  0  0
 42 45  1  0  0  0  0
  8 11  1  0  0  0  0
 51 52  1  0  0  0  0
 21 22  1  0  0  0  0
 22 23  1  0  0  0  0
 18 21  1  0  0  0  0
 23 24  1  0  0  0  0
 41 42  1  0  0  0  0
  7  8  1  0  0  0  0
 17 18  1  0  0  0  0
  3  4  1  0  0  0  0
  3  5  1  0  0  0  0
  3  6  1  0  0  0  0
 45 48  1  0  0  0  0
 45 49  1  0  0  0  0
 45 50  1  0  0  0  0
 11 14  1  0  0  0  0
 11 15  1  0  0  0  0
 11 16  1  0  0  0  0
 52 54  1  0  0  0  0
 52 55  1  0  0  0  0
 52 56  1  0  0  0  0
 22 32  1  0  0  0  0
 22 33  1  0  0  0  0
 21 30  1  0  0  0  0
 21 31  1  0  0  0  0
 23 34  1  0  0  0  0
 23 35  1  0  0  0  0
 42 47  1  0  0  0  0
  8 13  1  0  0  0  0
 18 29  1  0  0  0  0
 26 37  1  0  0  0  0
 26 38  1  0  0  0  0
 27 39  1  0  0  0  0
 27 40  1  0  0  0  0
 51 53  1  0  0  0  0
  7 12  1  0  0  0  0
 41 46  1  0  0  0  0
 17 28  1  0  0  0  0
 24 36  1  0  0  0  0
M  CHG  1  24   1
M  END
$$$$

  -OEChem-05262214473D

 56 55  0     1  0  0  0  0  0999 V2000
    0.7735   -5.8042   -2.0022 C   0  0  0  0  0  0  0  0  0  0  0  0
   -0.2086   -6.3825   -1.5519 O   0  0  0  0  0  0  0  0  0  0  0  0
    1.4751   -6.3646   -3.1946 C   0  0  0  0  0  0  0  0  0  0  0  0
    2.2765   -7.0687   -2.9186 H   0  0  0  0  0  0  0  0  0  0  0  0
    0.7988   -6.9360   -3.8504 H   0  0  0  0  0  0  0  0  0  0  0  0
    1.9556   -5.6216   -3.8511 H   0  0  0  0  0  0  0  0  0  0  0  0
    1.3322   -4.6359   -1.5106 N   0  0  0  0  0  0  0  0  0  0  0  0
    0.8124   -3.9290   -0.3698 C   0  0  2  0  0  0  0  0  0  0  0  0
    1.0666   -2.4424   -0.5818 C   0  0  0  0  0  0  0  0  0  0  0  0
    2.0598   -2.0076   -1.1610 O   0  0  0  0  0  0  0  0  0  0  0  0
    1.4560   -4.4118    0.9207 C   0  0  0  0  0  0  0  0  0  0  0  0
    2.1528   -4.2578   -1.9805 H   0  0  0  0  0  0  0  0  0  0  0  0
   -0.2667   -4.1160   -0.3467 H   0  0  0  0  0  0  0  0  0  0  0  0
    2.5374   -4.2329    0.9160 H   0  0  0  0  0  0  0  0  0  0  0  0
    1.0390   -3.8932    1.7903 H   0  0  0  0  0  0  0  0  0  0  0  0
    1.2976   -5.4871    1.0566 H   0  0  0  0  0  0  0  0  0  0  0  0
    0.0755   -1.6529   -0.0105 N   0  0  0  0  0  0  0  0  0  0  0  0
    0.1113   -0.2132   -0.0391 C   0  0  2  0  0  0  0  0  0  0  0  0
   -0.9026    0.2908    0.9823 C   0  0  0  0  0  0  0  0  0  0  0  0
   -1.8363    1.0340    0.6873 O   0  0  0  0  0  0  0  0  0  0  0  0
   -0.2084    0.3432   -1.4303 C   0  0  0  0  0  0  0  0  0  0  0  0
    0.8759    0.0018   -2.4594 C   0  0  0  0  0  0  0  0  0  0  0  0
    0.5525    0.5581   -3.8422 C   0  0  0  0  0  0  0  0  0  0  0  0
    1.5764    0.2107   -4.8250 N   0  3  0  0  0  0  0  0  0  0  0  0
    1.4668    0.5576   -6.1729 C   0  0  0  0  0  0  0  0  0  0  0  0
    2.4808    0.1935   -7.0525 N   0  0  0  0  0  0  0  0  0  0  0  0
    0.3680    1.2593   -6.6579 N   0  0  0  0  0  0  0  0  0  0  0  0
   -0.7323   -2.1024    0.4149 H   0  0  0  0  0  0  0  0  0  0  0  0
    1.1170    0.0858    0.2779 H   0  0  0  0  0  0  0  0  0  0  0  0
   -0.3215    1.4324   -1.3707 H   0  0  0  0  0  0  0  0  0  0  0  0
   -1.1740   -0.0499   -1.7748 H   0  0  0  0  0  0  0  0  0  0  0  0
    1.8410    0.3981   -2.1217 H   0  0  0  0  0  0  0  0  0  0  0  0
    0.9782   -1.0866   -2.5388 H   0  0  0  0  0  0  0  0  0  0  0  0
   -0.3936    0.1372   -4.1962 H   0  0  0  0  0  0  0  0  0  0  0  0
    0.4642    1.6484   -3.8141 H   0  0  0  0  0  0  0  0  0  0  0  0
    2.4045   -0.3030   -4.5289 H   0  0  0  0  0  0  0  0  0  0  0  0
    2.4318    0.4309   -8.0404 H   0  0  0  0  0  0  0  0  0  0  0  0
    3.2979   -0.3201   -6.7314 H   0  0  0  0  0  0  0  0  0  0  0  0
    0.2833    1.5143   -7.6384 H   0  0  0  0  0  0  0  0  0  0  0  0
   -0.3888    1.5385   -6.0380 H   0  0  0  0  0  0  0  0  0  0  0  0
   -0.6120   -0.1473    2.2668 N   0  0  0  0  0  0  0  0  0  0  0  0
   -1.3930    0.2310    3.4221 C   0  0  2  0  0  0  0  0  0  0  0  0
   -0.4559    0.3018    4.6205 C   0  0  0  0  0  0  0  0  0  0  0  0
    0.5096   -0.4458    4.7622 O   0  0  0  0  0  0  0  0  0  0  0  0
   -2.5230   -0.7553    3.6732 C   0  0  0  0  0  0  0  0  0  0  0  0
    0.1633   -0.7873    2.4116 H   0  0  0  0  0  0  0  0  0  0  0  0
   -1.7998    1.2271    3.2165 H   0  0  0  0  0  0  0  0  0  0  0  0
   -2.1347   -1.7591    3.8810 H   0  0  0  0  0  0  0  0  0  0  0  0
   -3.1311   -0.4518    4.5317 H   0  0  0  0  0  0  0  0  0  0  0  0
   -3.1790   -0.8272    2.7990 H   0  0  0  0  0  0  0  0  0  0  0  0
   -0.8496    1.2692    5.5344 N   0  0  0  0  0  0  0  0  0  0  0  0
   -0.1475    1.5014    6.7751 C   0  0  0  0  0  0  0  0  0  0  0  0
   -1.6388    1.8704    5.3168 H   0  0  0  0  0  0  0  0  0  0  0  0
   -0.6055    0.9000    7.5742 H   0  0  0  0  0  0  0  0  0  0  0  0
    0.9077    1.2134    6.6586 H   0  0  0  0  0  0  0  0  0  0  0  0
   -0.2097    2.5678    7.0374 H   0  0  0  0  0  0  0  0  0  0  0  0
  1  3  1  0  0  0  0
  1  7  1  0  0  0  0
  1  2  2  0  0  0  0
 42 43  1  0  0  0  0
 43 51  1  0  0  0  0
 43 44  2  0  0  0  0
  8  9  1  0  0  0  0
  9 17  1  0  0  0  0
  9 10  2  0  0  0  0
 18 19  1  0  0  0  0
 19 41  1  0  0  0  0
 19 20  2  0  0  0  0
 25 26  1  0  0  0  0
 25 27  1  0  0  0  0
 24 25  2  0  0  0  0
 42 45  1  0  0  0  0
  8 11  1  0  0  0  0
 51 52  1  0  0  0  0
 21 22  1  0  0  0  0
 22 23  1  0  0  0  0
 18 21  1  0  0  0  0
 23 24  1  0  0  0  0
 41 42  1  0  0  0  0
  7  8  1  0  0  0  0
 17 18  1  0  0  0  0
  3  4  1  0  0  0  0
  3  5  1  0  0  0  0
  3  6  1  0  0  0  0
 45 48  1  0  0  0  0
 45 49  1  0  0  0  0
 45 50  1  0  0  0  0
 11 14  1  0  0  0  0
 11 15  1  0  0  0  0
 11 16  1  0  0  0  0
 52 54  1  0  0  0  0
 52 55  1  0  0  0  0
 52 56  1  0  0  0  0
 22 32  1  0  0  0  0
 22 33  1  0  0  0  0
 21 30  1  0  0  0  0
 21 31  1  0  0  0  0
 23 34  1  0  0  0  0
 23 35  1  0  0  0  0
 42 47  1  0  0  0  0
  8 13  1  0  0  0  0
 18 29  1  0  0  0  0
 26 37  1  0  0  0  0
 26 38  1  0  0  0  0
 27 39  1  0  0  0  0
 27 40  1  0  0  0  0
 51 53  1  0  0  0  0
  7 12  1  0  0  0  0
 41 46  1  0  0  0  0
 17 28  1  0  0  0  0
 24 36  1  0  0  0  0
M  CHG  1  24   1
M  END
$$$$

  -OEChem-05262214473D

 56 55  0     1  0  0  0  0  0999 V2000
    0.7735   -5.8042   -2.0022 C   0  0  0  0  0  0  0  0  0  0  0  0
   -0.2086   -6.3825   -1.5519 O   0  0  0  0  0  0  0  0  0  0  0  0
    1.4751   -6.3646   -3.1946 C   0  0  0  0  0  0  0  0  0  0  0  0
    2.2765   -7.0687   -2.9186 H   0  0  0  0  0  0  0  0  0  0  0  0
    0.7988   -6.9360   -3.8504 H   0  0  0  0  0  0  0  0  0  0  0  0
    1.9556   -5.6216   -3.8511 H   0  0  0  0  0  0  0  0  0  0  0  0
    1.3322   -4.6359   -1.5106 N   0  0  0  0  0  0  0  0  0  0  0  0
    0.8124   -3.9290   -0.3698 C   0  0  2  0  0  0  0  0  0  0  0  0
    1.0666   -2.4424   -0.5818 C   0  0  0  0  0  0  0  0  0  0  0  0
    2.0598   -2.0076   -1.1610 O   0  0  0  0  0  0  0  0  0  0  0  0
    1.4560   -4.4118    0.9207 C   0  0  0  0  0  0  0  0  0  0  0  0
    2.1528   -4.2578   -1.9805 H   0  0  0  0  0  0  0  0  0  0  0  0
   -0.2667   -4.1160   -0.3467 H   0  0  0  0  0  0  0  0  0  0  0  0
    2.5374   -4.2329    0.9160 H   0  0  0  0  0  0  0  0  0  0  0  0
    1.0390   -3.8932    1.7903 H   0  0  0  0  0  0  0  0  0  0  0  0
    1.2976   -5.4871    1.0566 H   0  0  0  0  0  0  0  0  0  0  0  0
    0.0755   -1.6529   -0.0105 N   0  0  0  0  0  0  0  0  0  0  0  0
    0.1113   -0.2132   -0.0391 C   0  0  2  0  0  0  0  0  0  0  0  0
   -0.9026    0.2908    0.9823 C   0  0  0  0  0  0  0  0  0  0  0  0
   -1.9738    0.8035    0.6647 O   0  0  0  0  0  0  0  0  0  0  0  0
   -0.2084    0.3432   -1.4303 C   0  0  0  0  0  0  0  0  0  0  0  0
    0.8759    0.0018   -2.4594 C   0  0  0  0  0  0  0  0  0  0  0  0
    0.5525    0.5581   -3.8422 C   0  0  0  0  0  0  0  0  0  0  0  0
    1.5764    0.2107   -4.8250 N   0  3  0  0  0  0  0  0  0  0  0  0
    1.4668    0.5576   -6.1729 C   0  0  0  0  0  0  0  0  0  0  0  0
    2.4808    0.1935   -7.0525 N   0  0  0  0  0  0  0  0  0  0  0  0
    0.3680    1.2593   -6.6579 N   0  0  0  0  0  0  0  0  0  0  0  0
   -0.7323   -2.1024    0.4149 H   0  0  0  0  0  0  0  0  0  0  0  0
    1.1170    0.0858    0.2779 H   0  0  0  0  0  0  0  0  0  0  0  0
   -0.3215    1.4324   -1.3707 H   0  0  0  0  0  0  0  0  0  0  0  0
   -1.1740   -0.0499   -1.7748 H   0  0  0  0  0  0  0  0  0  0  0  0
    1.8410    0.3981   -2.1217 H   0  0  0  0  0  0  0  0  0  0  0  0
    0.9782   -1.0866   -2.5388 H   0  0  0  0  0  0  0  0  0  0  0  0
   -0.3936    0.1372   -4.1962 H   0  0  0  0  0  0  0  0  0  0  0  0
    0.4642    1.6484   -3.8141 H   0  0  0  0  0  0  0  0  0  0  0  0
    2.4045   -0.3030   -4.5289 H   0  0  0  0  0  0  0  0  0  0  0  0
    2.4318    0.4309   -8.0404 H   0  0  0  0  0  0  0  0  0  0  0  0
    3.2979   -0.3201   -6.7314 H   0  0  0  0  0  0  0  0  0  0  0  0
    0.2833    1.5143   -7.6384 H   0  0  0  0  0  0  0  0  0  0  0  0
   -0.3888    1.5385   -6.0380 H   0  0  0  0  0  0  0  0  0  0  0  0
   -0.4479    0.1449    2.2855 N   0  0  0  0  0  0  0  0  0  0  0  0
   -1.2011    0.5897    3.4355 C   0  0  2  0  0  0  0  0  0  0  0  0
   -0.2103    1.0291    4.5054 C   0  0  0  0  0  0  0  0  0  0  0  0
    0.8820    0.4898    4.6701 O   0  0  0  0  0  0  0  0  0  0  0  0
   -2.1136   -0.5090    3.9580 C   0  0  0  0  0  0  0  0  0  0  0  0
    0.4386   -0.3210    2.4548 H   0  0  0  0  0  0  0  0  0  0  0  0
   -1.7948    1.4512    3.1108 H   0  0  0  0  0  0  0  0  0  0  0  0
   -1.5366   -1.3806    4.2880 H   0  0  0  0  0  0  0  0  0  0  0  0
   -2.7046   -0.1614    4.8117 H   0  0  0  0  0  0  0  0  0  0  0  0
   -2.8057   -0.8445    3.1781 H   0  0  0  0  0  0  0  0  0  0  0  0
   -0.7072    2.0660    5.2826 N   0  0  0  0  0  0  0  0  0  0  0  0
    0.0269    2.6304    6.3910 C   0  0  0  0  0  0  0  0  0  0  0  0
   -1.6055    2.4789    5.0496 H   0  0  0  0  0  0  0  0  0  0  0  0
   -0.2574    2.1149    7.3202 H   0  0  0  0  0  0  0  0  0  0  0  0
    1.1059    2.5052    6.2178 H   0  0  0  0  0  0  0  0  0  0  0  0
   -0.2086    3.7013    6.4792 H   0  0  0  0  0  0  0  0  0  0  0  0
  1  3  1  0  0  0  0
  1  7  1  0  0  0  0
  1  2  2  0  0  0  0
 42 43  1  0  0  0  0
 43 51  1  0  0  0  0
 43 44  2  0  0  0  0
  8  9  1  0  0  0  0
  9 17  1  0  0  0  0
  9 10  2  0  0  0  0
 18 19  1  0  0  0  0
 19 41  1  0  0  0  0
 19 20  2  0  0  0  0
 25 26  1  0  0  0  0
 25 27  1  0  0  0  0
 24 25  2  0  0  0  0
 42 45  1  0  0  0  0
  8 11  1  0  0  0  0
 51 52  1  0  0  0  0
 21 22  1  0  0  0  0
 22 23  1  0  0  0  0
 18 21  1  0  0  0  0
 23 24  1  0  0  0  0
 41 42  1  0  0  0  0
  7  8  1  0  0  0  0
 17 18  1  0  0  0  0
  3  4  1  0  0  0  0
  3  5  1  0  0  0  0
  3  6  1  0  0  0  0
 45 48  1  0  0  0  0
 45 49  1  0  0  0  0
 45 50  1  0  0  0  0
 11 14  1  0  0  0  0
 11 15  1  0  0  0  0
 11 16  1  0  0  0  0
 52 54  1  0  0  0  0
 52 55  1  0  0  0  0
 52 56  1  0  0  0  0
 22 32  1  0  0  0  0
 22 33  1  0  0  0  0
 21 30  1  0  0  0  0
 21 31  1  0  0  0  0
 23 34  1  0  0  0  0
 23 35  1  0  0  0  0
 42 47  1  0  0  0  0
  8 13  1  0  0  0  0
 18 29  1  0  0  0  0
 26 37  1  0  0  0  0
 26 38  1  0  0  0  0
 27 39  1  0  0  0  0
 27 40  1  0  0  0  0
 51 53  1  0  0  0  0
  7 12  1  0  0  0  0
 41 46  1  0  0  0  0
 17 28  1  0  0  0  0
 24 36  1  0  0  0  0
M  CHG  1  24   1
M  END
$$$$

  -OEChem-05262214473D

 56 55  0     1  0  0  0  0  0999 V2000
    0.7735   -5.8042   -2.0022 C   0  0  0  0  0  0  0  0  0  0  0  0
   -0.2086   -6.3825   -1.5519 O   0  0  0  0  0  0  0  0  0  0  0  0
    1.4751   -6.3646   -3.1946 C   0  0  0  0  0  0  0  0  0  0  0  0
    2.2765   -7.0687   -2.9186 H   0  0  0  0  0  0  0  0  0  0  0  0
    0.7988   -6.9360   -3.8504 H   0  0  0  0  0  0  0  0  0  0  0  0
    1.9556   -5.6216   -3.8511 H   0  0  0  0  0  0  0  0  0  0  0  0
    1.3322   -4.6359   -1.5106 N   0  0  0  0  0  0  0  0  0  0  0  0
    0.8124   -3.9290   -0.3698 C   0  0  2  0  0  0  0  0  0  0  0  0
    1.0666   -2.4424   -0.5818 C   0  0  0  0  0  0  0  0  0  0  0  0
    2.0598   -2.0076   -1.1610 O   0  0  0  0  0  0  0  0  0  0  0  0
    1.4560   -4.4118    0.9207 C   0  0  0  0  0  0  0  0  0  0  0  0
    2.1528   -4.2578   -1.9805 H   0  0  0  0  0  0  0  0  0  0  0  0
   -0.2667   -4.1160   -0.3467 H   0  0  0  0  0  0  0  0  0  0  0  0
    2.5374   -4.2329    0.9160 H   0  0  0  0  0  0  0  0  0  0  0  0
    1.0390   -3.8932    1.7903 H   0  0  0  0  0  0  0  0  0  0  0  0
    1.2976   -5.4871    1.0566 H   0  0  0  0  0  0  0  0  0  0  0  0
    0.0755   -1.6529   -0.0105 N   0  0  0  0  0  0  0  0  0  0  0  0
    0.1113   -0.2132   -0.0391 C   0  0  2  0  0  0  0  0  0  0  0  0
   -0.9026    0.2908    0.9823 C   0  0  0  0  0  0  0  0  0  0  0  0
   -2.0685    0.5532    0.6942 O   0  0  0  0  0  0  0  0  0  0  0  0
   -0.2084    0.3432   -1.4303 C   0  0  0  0  0  0  0  0  0  0  0  0
    0.8759    0.0018   -2.4594 C   0  0  0  0  0  0  0  0  0  0  0  0
    0.5525    0.5581   -3.8422 C   0  0  0  0  0  0  0  0  0  0  0  0
    1.5764    0.2107   -4.8250 N   0  3  0  0  0  0  0  0  0  0  0  0
    1.4668    0.5576   -6.1729 C   0  0  0  0  0  0  0  0  0  0  0  0
    2.4808    0.1935   -7.0525 N   0  0  0  0  0  0  0  0  0  0  0  0
    0.3680    1.2593   -6.6579 N   0  0  0  0  0  0  0  0  0  0  0  0
   -0.7323   -2.1024    0.4149 H   0  0  0  0  0  0  0  0  0  0  0  0
    1.1170    0.0858    0.2779 H   0  0  0  0  0  0  0  0  0  0  0  0
   -0.3215    1.4324   -1.3707 H   0  0  0  0  0  0  0  0  0  0  0  0
   -1.1740   -0.0499   -1.7748 H   0  0  0  0  0  0  0  0  0  0  0  0
    1.8410    0.3981   -2.1217 H   0  0  0  0  0  0  0  0  0  0  0  0
    0.9782   -1.0866   -2.5388 H   0  0  0  0  0  0  0  0  0  0  0  0
   -0.3936    0.1372   -4.1962 H   0  0  0  0  0  0  0  0  0  0  0  0
    0.4642    1.6484   -3.8141 H   0  0  0  0  0  0  0  0  0  0  0  0
    2.4045   -0.3030   -4.5289 H   0  0  0  0  0  0  0  0  0  0  0  0
    2.4318    0.4309   -8.0404 H   0  0  0  0  0  0  0  0  0  0  0  0
    3.2979   -0.3201   -6.7314 H   0  0  0  0  0  0  0  0  0  0  0  0
    0.2833    1.5143   -7.6384 H   0  0  0  0  0  0  0  0  0  0  0  0
   -0.3888    1.5385   -6.0380 H   0  0  0  0  0  0  0  0  0  0  0  0
   -0.3385    0.4589    2.2393 N   0  0  0  0  0  0  0  0  0  0  0  0
   -1.0768    0.9717    3.3703 C   0  0  2  0  0  0  0  0  0  0  0  0
   -0.1090    1.7543    4.2480 C   0  0  0  0  0  0  0  0  0  0  0  0
    1.0716    1.4422    4.3883 O   0  0  0  0  0  0  0  0  0  0  0  0
   -1.7365   -0.1511    4.1557 C   0  0  0  0  0  0  0  0  0  0  0  0
    0.6274    0.1845    2.3927 H   0  0  0  0  0  0  0  0  0  0  0  0
   -1.8379    1.6503    2.9698 H   0  0  0  0  0  0  0  0  0  0  0  0
   -0.9896   -0.8412    4.5648 H   0  0  0  0  0  0  0  0  0  0  0  0
   -2.3190    0.2413    4.9957 H   0  0  0  0  0  0  0  0  0  0  0  0
   -2.4096   -0.7313    3.5154 H   0  0  0  0  0  0  0  0  0  0  0  0
   -0.7293    2.8169    4.8901 N   0  0  0  0  0  0  0  0  0  0  0  0
   -0.0333    3.6851    5.8109 C   0  0  0  0  0  0  0  0  0  0  0  0
   -1.7016    3.0265    4.6840 H   0  0  0  0  0  0  0  0  0  0  0  0
   -0.1535    3.3050    6.8361 H   0  0  0  0  0  0  0  0  0  0  0  0
    1.0357    3.7116    5.5528 H   0  0  0  0  0  0  0  0  0  0  0  0
   -0.4517    4.7003    5.7449 H   0  0  0  0  0  0  0  0  0  0  0  0
  1  3  1  0  0  0  0
  1  7  1  0  0  0  0
  1  2  2  0  0  0  0
 42 43  1  0  0  0  0
 43 51  1  0  0  0  0
 43 44  2  0  0  0  0
  8  9  1  0  0  0  0
  9 17  1  0  0  0  0
  9 10  2  0  0  0  0
 18 19  1  0  0  0  0
 19 41  1  0  0  0  0
 19 20  2  0  0  0  0
 25 26  1  0  0  0  0
 25 27  1  0  0  0  0
 24 25  2  0  0  0  0
 42 45  1  0  0  0  0
  8 11  1  0  0  0  0
 51 52  1  0  0  0  0
 21 22  1  0  0  0  0
 22 23  1  0  0  0  0
 18 21  1  0  0  0  0
 23 24  1  0  0  0  0
 41 42  1  0  0  0  0
  7  8  1  0  0  0  0
 17 18  1  0  0  0  0
  3  4  1  0  0  0  0
  3  5  1  0  0  0  0
  3  6  1  0  0  0  0
 45 48  1  0  0  0  0
 45 49  1  0  0  0  0
 45 50  1  0  0  0  0
 11 14  1  0  0  0  0
 11 15  1  0  0  0  0
 11 16  1  0  0  0  0
 52 54  1  0  0  0  0
 52 55  1  0  0  0  0
 52 56  1  0  0  0  0
 22 32  1  0  0  0  0
 22 33  1  0  0  0  0
 21 30  1  0  0  0  0
 21 31  1  0  0  0  0
 23 34  1  0  0  0  0
 23 35  1  0  0  0  0
 42 47  1  0  0  0  0
  8 13  1  0  0  0  0
 18 29  1  0  0  0  0
 26 37  1  0  0  0  0
 26 38  1  0  0  0  0
 27 39  1  0  0  0  0
 27 40  1  0  0  0  0
 51 53  1  0  0  0  0
  7 12  1  0  0  0  0
 41 46  1  0  0  0  0
 17 28  1  0  0  0  0
 24 36  1  0  0  0  0
M  CHG  1  24   1
M  END
$$$$

  -OEChem-05262214473D

 56 55  0     1  0  0  0  0  0999 V2000
    0.7735   -5.8042   -2.0022 C   0  0  0  0  0  0  0  0  0  0  0  0
   -0.2086   -6.3825   -1.5519 O   0  0  0  0  0  0  0  0  0  0  0  0
    1.4751   -6.3646   -3.1946 C   0  0  0  0  0  0  0  0  0  0  0  0
    2.2765   -7.0687   -2.9186 H   0  0  0  0  0  0  0  0  0  0  0  0
    0.7988   -6.9360   -3.8504 H   0  0  0  0  0  0  0  0  0  0  0  0
    1.9556   -5.6216   -3.8511 H   0  0  0  0  0  0  0  0  0  0  0  0
    1.3322   -4.6359   -1.5106 N   0  0  0  0  0  0  0  0  0  0  0  0
    0.8124   -3.9290   -0.3698 C   0  0  2  0  0  0  0  0  0  0  0  0
    1.0666   -2.4424   -0.5818 C   0  0  0  0  0  0  0  0  0  0  0  0
    2.0598   -2.0076   -1.1610 O   0  0  0  0  0  0  0  0  0  0  0  0
    1.4560   -4.4118    0.9207 C   0  0  0  0  0  0  0  0  0  0  0  0
    2.1528   -4.2578   -1.9805 H   0  0  0  0  0  0  0  0  0  0  0  0
   -0.2667   -4.1160   -0.3467 H   0  0  0  0  0  0  0  0  0  0  0  0
    2.5374   -4.2329    0.9160 H   0  0  0  0  0  0  0  0  0  0  0  0
    1.0390   -3.8932    1.7903 H   0  0  0  0  0  0  0  0  0  0  0  0
    1.2976   -5.4871    1.0566 H   0  0  0  0  0  0  0  0  0  0  0  0
    0.0755   -1.6529   -0.0105 N   0  0  0  0  0  0  0  0  0  0  0  0
    0.1113   -0.2132   -0.0391 C   0  0  2  0  0  0  0  0  0  0  0  0
   -0.9026    0.2908    0.9823 C   0  0  0  0  0  0  0  0  0  0  0  0
   -2.1140    0.3001    0.7738 O   0  0  0  0  0  0  0  0  0  0  0  0
   -0.2084    0.3432   -1.4303 C   0  0  0  0  0  0  0  0  0  0  0  0
    0.8759    0.0018   -2.4594 C   0  0  0  0  0  0  0  0  0  0  0  0
    0.5525    0.5581   -3.8422 C   0  0  0  0  0  0  0  0  0  0  0  0
    1.5764    0.2107   -4.8250 N   0  3  0  0  0  0  0  0  0  0  0  0
    1.4668    0.5576   -6.1729 C   0  0  0  0  0  0  0  0  0  0  0  0
    2.4808    0.1935   -7.0525 N   0  0  0  0  0  0  0  0  0  0  0  0
    0.3680    1.2593   -6.6579 N   0  0  0  0  0  0  0  0  0  0  0  0
   -0.7323   -2.1024    0.4149 H   0  0  0  0  0  0  0  0  0  0  0  0
    1.1170    0.0858    0.2779 H   0  0  0  0  0  0  0  0  0  0  0  0
   -0.3215    1.4324   -1.3707 H   0  0  0  0  0  0  0  0  0  0  0  0
   -1.1740   -0.0499   -1.7748 H   0  0  0  0  0  0  0  0  0  0  0  0
    1.8410    0.3981   -2.1217 H   0  0  0  0  0  0  0  0  0  0  0  0
    0.9782   -1.0866   -2.5388 H   0  0  0  0  0  0  0  0  0  0  0  0
   -0.3936    0.1372   -4.1962 H   0  0  0  0  0  0  0  0  0  0  0  0
    0.4642    1.6484   -3.8141 H   0  0  0  0  0  0  0  0  0  0  0  0
    2.4045   -0.3030   -4.5289 H   0  0  0  0  0  0  0  0  0  0  0  0
    2.4318    0.4309   -8.0404 H   0  0  0  0  0  0  0  0  0  0  0  0
    3.2979   -0.3201   -6.7314 H   0  0  0  0  0  0  0  0  0  0  0  0
    0.2833    1.5143   -7.6384 H   0  0  0  0  0  0  0  0  0  0  0  0
   -0.3888    1.5385   -6.0380 H   0  0  0  0  0  0  0  0  0  0  0  0
   -0.2911    0.7731    2.1312 N   0  0  0  0  0  0  0  0  0  0  0  0
   -1.0286    1.3511    3.2310 C   0  0  2  0  0  0  0  0  0  0  0  0
   -0.1590    2.4281    3.8659 C   0  0  0  0  0  0  0  0  0  0  0  0
    1.0656    2.3466    3.9361 O   0  0  0  0  0  0  0  0  0  0  0  0
   -1.4174    0.2940    4.2528 C   0  0  0  0  0  0  0  0  0  0  0  0
    0.7168    0.6949    2.2296 H   0  0  0  0  0  0  0  0  0  0  0  0
   -1.9261    1.8109    2.8030 H   0  0  0  0  0  0  0  0  0  0  0  0
   -0.5311   -0.1778    4.6925 H   0  0  0  0  0  0  0  0  0  0  0  0
   -2.0007    0.7288    5.0711 H   0  0  0  0  0  0  0  0  0  0  0  0
   -2.0179   -0.4953    3.7878 H   0  0  0  0  0  0  0  0  0  0  0  0
   -0.9144    3.4710    4.3836 N   0  0  0  0  0  0  0  0  0  0  0  0
   -0.3239    4.5936    5.0741 C   0  0  0  0  0  0  0  0  0  0  0  0
   -1.9206    3.4759    4.2448 H   0  0  0  0  0  0  0  0  0  0  0  0
   -0.3009    4.3893    6.1547 H   0  0  0  0  0  0  0  0  0  0  0  0
    0.7018    4.7503    4.7088 H   0  0  0  0  0  0  0  0  0  0  0  0
   -0.9226    5.4967    4.8845 H   0  0  0  0  0  0  0  0  0  0  0  0
  1  3  1  0  0  0  0
  1  7  1  0  0  0  0
  1  2  2  0  0  0  0
 42 43  1  0  0  0  0
 43 51  1  0  0  0  0
 43 44  2  0  0  0  0
  8  9  1  0  0  0  0
  9 17  1  0  0  0  0
  9 10  2  0  0  0  0
 18 19  1  0  0  0  0
 19 41  1  0  0  0  0
 19 20  2  0  0  0  0
 25 26  1  0  0  0  0
 25 27  1  0  0  0  0
 24 25  2  0  0  0  0
 42 45  1  0  0  0  0
  8 11  1  0  0  0  0
 51 52  1  0  0  0  0
 21 22  1  0  0  0  0
 22 23  1  0  0  0  0
 18 21  1  0  0  0  0
 23 24  1  0  0  0  0
 41 42  1  0  0  0  0
  7  8  1  0  0  0  0
 17 18  1  0  0  0  0
  3  4  1  0  0  0  0
  3  5  1  0  0  0  0
  3  6  1  0  0  0  0
 45 48  1  0  0  0  0
 45 49  1  0  0  0  0
 45 50  1  0  0  0  0
 11 14  1  0  0  0  0
 11 15  1  0  0  0  0
 11 16  1  0  0  0  0
 52 54  1  0  0  0  0
 52 55  1  0  0  0  0
 52 56  1  0  0  0  0
 22 32  1  0  0  0  0
 22 33  1  0  0  0  0
 21 30  1  0  0  0  0
 21 31  1  0  0  0  0
 23 34  1  0  0  0  0
 23 35  1  0  0  0  0
 42 47  1  0  0  0  0
  8 13  1  0  0  0  0
 18 29  1  0  0  0  0
 26 37  1  0  0  0  0
 26 38  1  0  0  0  0
 27 39  1  0  0  0  0
 27 40  1  0  0  0  0
 51 53  1  0  0  0  0
  7 12  1  0  0  0  0
 41 46  1  0  0  0  0
 17 28  1  0  0  0  0
 24 36  1  0  0  0  0
M  CHG  1  24   1
M  END
$$$$

  -OEChem-05262214473D

 56 55  0     1  0  0  0  0  0999 V2000
    0.7735   -5.8042   -2.0022 C   0  0  0  0  0  0  0  0  0  0  0  0
   -0.2086   -6.3825   -1.5519 O   0  0  0  0  0  0  0  0  0  0  0  0
    1.4751   -6.3646   -3.1946 C   0  0  0  0  0  0  0  0  0  0  0  0
    2.2765   -7.0687   -2.9186 H   0  0  0  0  0  0  0  0  0  0  0  0
    0.7988   -6.9360   -3.8504 H   0  0  0  0  0  0  0  0  0  0  0  0
    1.9556   -5.6216   -3.8511 H   0  0  0  0  0  0  0  0  0  0  0  0
    1.3322   -4.6359   -1.5106 N   0  0  0  0  0  0  0  0  0  0  0  0
    0.8124   -3.9290   -0.3698 C   0  0  2  0  0  0  0  0  0  0  0  0
    1.0666   -2.4424   -0.5818 C   0  0  0  0  0  0  0  0  0  0  0  0
    2.0598   -2.0076   -1.1610 O   0  0  0  0  0  0  0  0  0  0  0  0
    1.4560   -4.4118    0.9207 C   0  0  0  0  0  0  0  0  0  0  0  0
    2.1528   -4.2578   -1.9805 H   0  0  0  0  0  0  0  0  0  0  0  0
   -0.2667   -4.1160   -0.3467 H   0  0  0  0  0  0  0  0  0  0  0  0
    2.5374   -4.2329    0.9160 H   0  0  0  0  0  0  0  0  0  0  0  0
    1.0390   -3.8932    1.7903 H   0  0  0  0  0  0  0  0  0  0  0  0
    1.2976   -5.4871    1.0566 H   0  0  0  0  0  0  0  0  0  0  0  0
    0.0755   -1.6529   -0.0105 N   0  0  0  0  0  0  0  0  0  0  0  0
    0.1113   -0.2132   -0.0391 C   0  0  2  0  0  0  0  0  0  0  0  0
   -0.9026    0.2908    0.9823 C   0  0  0  0  0  0  0  0  0  0  0  0
   -2.1074    0.0614    0.8983 O   0  0  0  0  0  0  0  0  0  0  0  0
   -0.2084    0.3432   -1.4303 C   0  0  0  0  0  0  0  0  0  0  0  0
    0.8759    0.0018   -2.4594 C   0  0  0  0  0  0  0  0  0  0  0  0
    0.5525    0.5581   -3.8422 C   0  0  0  0  0  0  0  0  0  0  0  0
    1.5764    0.2107   -4.8250 N   0  3  0  0  0  0  0  0  0  0  0  0
    1.4668    0.5576   -6.1729 C   0  0  0  0  0  0  0  0  0  0  0  0
    2.4808    0.1935   -7.0525 N   0  0  0  0  0  0  0  0  0  0  0  0
    0.3680    1.2593   -6.6579 N   0  0  0  0  0  0  0  0  0  0  0  0
   -0.7323   -2.1024    0.4149 H   0  0  0  0  0  0  0  0  0  0  0  0
    1.1170    0.0858    0.2779 H   0  0  0  0  0  0  0  0  0  0  0  0
   -0.3215    1.4324   -1.3707 H   0  0  0  0  0  0  0  0  0  0  0  0
   -1.1740   -0.0499   -1.7748 H   0  0  0  0  0  0  0  0  0  0  0  0
    1.8410    0.3981   -2.1217 H   0  0  0  0  0  0  0  0  0  0  0  0
    0.9782   -1.0866   -2.5388 H   0  0  0  0  0  0  0  0  0  0  0  0
   -0.3936    0.1372   -4.1962 H   0  0  0  0  0  0  0  0  0  0  0  0
    0.4642    1.6484   -3.8141 H   0  0  0  0  0  0  0  0  0  0  0  0
    2.4045   -0.3030   -4.5289 H   0  0  0  0  0  0  0  0  0  0  0  0
    2.4318    0.4309   -8.0404 H   0  0  0  0  0  0  0  0  0  0  0  0
    3.2979   -0.3201   -6.7314 H   0  0  0  0  0  0  0  0  0  0  0  0
    0.2833    1.5143   -7.6384 H   0  0  0  0  0  0  0  0  0  0  0  0
   -0.3888    1.5385   -6.0380 H   0  0  0  0  0  0  0  0  0  0  0  0
   -0.3091    1.0663    1.9687 N   0  0  0  0  0  0  0  0  0  0  0  0
   -1.0597    1.7019    3.0270 C   0  0  2  0  0  0  0  0  0  0  0  0
   -0.3567    3.0046    3.3852 C   0  0  0  0  0  0  0  0  0  0  0  0
    0.8643    3.1412    3.3441 O   0  0  0  0  0  0  0  0  0  0  0  0
   -1.1780    0.7960    4.2427 C   0  0  0  0  0  0  0  0  0  0  0  0
    0.7007    1.1753    1.9766 H   0  0  0  0  0  0  0  0  0  0  0  0
   -2.0534    1.9220    2.6218 H   0  0  0  0  0  0  0  0  0  0  0  0
   -0.1923    0.5645    4.6625 H   0  0  0  0  0  0  0  0  0  0  0  0
   -1.7713    1.2678    5.0329 H   0  0  0  0  0  0  0  0  0  0  0  0
   -1.6570   -0.1525    3.9768 H   0  0  0  0  0  0  0  0  0  0  0  0
   -1.2500    3.9834    3.7976 N   0  0  0  0  0  0  0  0  0  0  0  0
   -0.8251    5.2940    4.2310 C   0  0  0  0  0  0  0  0  0  0  0  0
   -2.2477    3.7964    3.7620 H   0  0  0  0  0  0  0  0  0  0  0  0
   -0.6896    5.2938    5.3226 H   0  0  0  0  0  0  0  0  0  0  0  0
    0.1271    5.5505    3.7435 H   0  0  0  0  0  0  0  0  0  0  0  0
   -1.5891    6.0363    3.9566 H   0  0  0  0  0  0  0  0  0  0  0  0
  1  3  1  0  0  0  0
  1  7  1  0  0  0  0
  1  2  2  0  0  0  0
 42 43  1  0  0  0  0
 43 51  1  0  0  0  0
 43 44  2  0  0  0  0
  8  9  1  0  0  0  0
  9 17  1  0  0  0  0
  9 10  2  0  0  0  0
 18 19  1  0  0  0  0
 19 41  1  0  0  0  0
 19 20  2  0  0  0  0
 25 26  1  0  0  0  0
 25 27  1  0  0  0  0
 24 25  2  0  0  0  0
 42 45  1  0  0  0  0
  8 11  1  0  0  0  0
 51 52  1  0  0  0  0
 21 22  1  0  0  0  0
 22 23  1  0  0  0  0
 18 21  1  0  0  0  0
 23 24  1  0  0  0  0
 41 42  1  0  0  0  0
  7  8  1  0  0  0  0
 17 18  1  0  0  0  0
  3  4  1  0  0  0  0
  3  5  1  0  0  0  0
  3  6  1  0  0  0  0
 45 48  1  0  0  0  0
 45 49  1  0  0  0  0
 45 50  1  0  0  0  0
 11 14  1  0  0  0  0
 11 15  1  0  0  0  0
 11 16  1  0  0  0  0
 52 54  1  0  0  0  0
 52 55  1  0  0  0  0
 52 56  1  0  0  0  0
 22 32  1  0  0  0  0
 22 33  1  0  0  0  0
 21 30  1  0  0  0  0
 21 31  1  0  0  0  0
 23 34  1  0  0  0  0
 23 35  1  0  0  0  0
 42 47  1  0  0  0  0
  8 13  1  0  0  0  0
 18 29  1  0  0  0  0
 26 37  1  0  0  0  0
 26 38  1  0  0  0  0
 27 39  1  0  0  0  0
 27 40  1  0  0  0  0
 51 53  1  0  0  0  0
  7 12  1  0  0  0  0
 41 46  1  0  0  0  0
 17 28  1  0  0  0  0
 24 36  1  0  0  0  0
M  CHG  1  24   1
M  END
$$$$

  -OEChem-05262214473D

 56 55  0     1  0  0  0  0  0999 V2000
    0.7735   -5.8042   -2.0022 C   0  0  0  0  0  0  0  0  0  0  0  0
   -0.2086   -6.3825   -1.5519 O   0  0  0  0  0  0  0  0  0  0  0  0
    1.4751   -6.3646   -3.1946 C   0  0  0  0  0  0  0  0  0  0  0  0
    2.2765   -7.0687   -2.9186 H   0  0  0  0  0  0  0  0  0  0  0  0
    0.7988   -6.9360   -3.8504 H   0  0  0  0  0  0  0  0  0  0  0  0
    1.9556   -5.6216   -3.8511 H   0  0  0  0  0  0  0  0  0  0  0  0
    1.3322   -4.6359   -1.5106 N   0  0  0  0  0  0  0  0  0  0  0  0
    0.8124   -3.9290   -0.3698 C   0  0  2  0  0  0  0  0  0  0  0  0
    1.0666   -2.4424   -0.5818 C   0  0  0  0  0  0  0  0  0  0  0  0
    2.0598   -2.0076   -1.1610 O   0  0  0  0  0  0  0  0  0  0  0  0
    1.4560   -4.4118    0.9207 C   0  0  0  0  0  0  0  0  0  0  0  0
    2.1528   -4.2578   -1.9805 H   0  0  0  0  0  0  0  0  0  0  0  0
   -0.2667   -4.1160   -0.3467 H   0  0  0  0  0  0  0  0  0  0  0  0
    2.5374   -4.2329    0.9160 H   0  0  0  0  0  0  0  0  0  0  0  0
    1.0390   -3.8932    1.7903 H   0  0  0  0  0  0  0  0  0  0  0  0
    1.2976   -5.4871    1.0566 H   0  0  0  0  0  0  0  0  0  0  0  0
    0.0755   -1.6529   -0.0105 N   0  0  0  0  0  0  0  0  0  0  0  0
    0.1113   -0.2132   -0.0391 C   0  0  2  0  0  0  0  0  0  0  0  0
   -0.9026    0.2908    0.9823 C   0  0  0  0  0  0  0  0  0  0  0  0
   -2.0489   -0.1466    1.0589 O   0  0  0  0  0  0  0  0  0  0  0  0
   -0.2084    0.3432   -1.4303 C   0  0  0  0  0  0  0  0  0  0  0  0
    0.8759    0.0018   -2.4594 C   0  0  0  0  0  0  0  0  0  0  0  0
    0.5525    0.5581   -3.8422 C   0  0  0  0  0  0  0  0  0  0  0  0
    1.5764    0.2107   -4.8250 N   0  3  0  0  0  0  0  0  0  0  0  0
    1.4668    0.5576   -6.1729 C   0  0  0  0  0  0  0  0  0  0  0  0
    2.4808    0.1935   -7.0525 N   0  0  0  0  0  0  0  0  0  0  0  0
    0.3680    1.2593   -6.6579 N   0  0  0  0  0  0  0  0  0  0  0  0
   -0.7323   -2.1024    0.4149 H   0  0  0  0  0  0  0  0  0  0  0  0
    1.1170    0.0858    0.2779 H   0  0  0  0  0  0  0  0  0  0  0  0
   -0.3215    1.4324   -1.3707 H   0  0  0  0  0  0  0  0  0  0  0  0
   -1.1740   -0.0499   -1.7748 H   0  0  0  0  0  0  0  0  0  0  0  0
    1.8410    0.3981   -2.1217 H   0  0  0  0  0  0  0  0  0  0  0  0
    0.9782   -1.0866   -2.5388 H   0  0  0  0  0  0  0  0  0  0  0  0
   -0.3936    0.1372   -4.1962 H   0  0  0  0  0  0  0  0  0  0  0  0
    0.4642    1.6484   -3.8141 H   0  0  0  0  0  0  0  0  0  0  0  0
    2.4045   -0.3030   -4.5289 H   0  0  0  0  0  0  0  0  0  0  0  0
    2.4318    0.4309   -8.0404 H   0  0  0  0  0  0  0  0  0  0  0  0
    3.2979   -0.3201   -6.7314 H   0  0  0  0  0  0  0  0  0  0  0  0
    0.2833    1.5143   -7.6384 H   0  0  0  0  0  0  0  0  0  0  0  0
   -0.3888    1.5385   -6.0380 H   0  0  0  0  0  0  0  0  0  0  0  0
   -0.3912    1.3183    1.7628 N   0  0  0  0  0  0  0  0  0  0  0  0
   -1.1680    2.0003    2.7722 C   0  0  2  0  0  0  0  0  0  0  0  0
   -0.6888    3.4444    2.8385 C   0  0  0  0  0  0  0  0  0  0  0  0
    0.4814    3.7720    2.6527 O   0  0  0  0  0  0  0  0  0  0  0  0
   -1.0347    1.3206    4.1260 C   0  0  0  0  0  0  0  0  0  0  0  0
    0.5803    1.5929    1.6509 H   0  0  0  0  0  0  0  0  0  0  0  0
   -2.2112    1.9761    2.4385 H   0  0  0  0  0  0  0  0  0  0  0  0
    0.0037    1.3351    4.4768 H   0  0  0  0  0  0  0  0  0  0  0  0
   -1.6464    1.8216    4.8835 H   0  0  0  0  0  0  0  0  0  0  0  0
   -1.3518    0.2737    4.0694 H   0  0  0  0  0  0  0  0  0  0  0  0
   -1.7131    4.3194    3.1721 N   0  0  0  0  0  0  0  0  0  0  0  0
   -1.5028    5.7386    3.3389 C   0  0  0  0  0  0  0  0  0  0  0  0
   -2.6605    3.9661    3.2685 H   0  0  0  0  0  0  0  0  0  0  0  0
   -1.2930    5.9569    4.3964 H   0  0  0  0  0  0  0  0  0  0  0  0
   -0.6494    6.0576    2.7225 H   0  0  0  0  0  0  0  0  0  0  0  0
   -2.4058    6.2823    3.0245 H   0  0  0  0  0  0  0  0  0  0  0  0
  1  3  1  0  0  0  0
  1  7  1  0  0  0  0
  1  2  2  0  0  0  0
 42 43  1  0  0  0  0
 43 51  1  0  0  0  0
 43 44  2  0  0  0  0
  8  9  1  0  0  0  0
  9 17  1  0  0  0  0
  9 10  2  0  0  0  0
 18 19  1  0  0  0  0
 19 41  1  0  0  0  0
 19 20  2  0  0  0  0
 25 26  1  0  0  0  0
 25 27  1  0  0  0  0
 24 25  2  0  0  0  0
 42 45  1  0  0  0  0
  8 11  1  0  0  0  0
 51 52  1  0  0  0  0
 21 22  1  0  0  0  0
 22 23  1  0  0  0  0
 18 21  1  0  0  0  0
 23 24  1  0  0  0  0
 41 42  1  0  0  0  0
  7  8  1  0  0  0  0
 17 18  1  0  0  0  0
  3  4  1  0  0  0  0
  3  5  1  0  0  0  0
  3  6  1  0  0  0  0
 45 48  1  0  0  0  0
 45 49  1  0  0  0  0
 45 50  1  0  0  0  0
 11 14  1  0  0  0  0
 11 15  1  0  0  0  0
 11 16  1  0  0  0  0
 52 54  1  0  0  0  0
 52 55  1  0  0  0  0
 52 56  1  0  0  0  0
 22 32  1  0  0  0  0
 22 33  1  0  0  0  0
 21 30  1  0  0  0  0
 21 31  1  0  0  0  0
 23 34  1  0  0  0  0
 23 35  1  0  0  0  0
 42 47  1  0  0  0  0
  8 13  1  0  0  0  0
 18 29  1  0  0  0  0
 26 37  1  0  0  0  0
 26 38  1  0  0  0  0
 27 39  1  0  0  0  0
 27 40  1  0  0  0  0
 51 53  1  0  0  0  0
  7 12  1  0  0  0  0
 41 46  1  0  0  0  0
 17 28  1  0  0  0  0
 24 36  1  0  0  0  0
M  CHG  1  24   1
M  END
$$$$

  -OEChem-05262214473D

 56 55  0     1  0  0  0  0  0999 V2000
    0.7735   -5.8042   -2.0022 C   0  0  0  0  0  0  0  0  0  0  0  0
   -0.2086   -6.3825   -1.5519 O   0  0  0  0  0  0  0  0  0  0  0  0
    1.4751   -6.3646   -3.1946 C   0  0  0  0  0  0  0  0  0  0  0  0
    2.2765   -7.0687   -2.9186 H   0  0  0  0  0  0  0  0  0  0  0  0
    0.7988   -6.9360   -3.8504 H   0  0  0  0  0  0  0  0  0  0  0  0
    1.9556   -5.6216   -3.8511 H   0  0  0  0  0  0  0  0  0  0  0  0
    1.3322   -4.6359   -1.5106 N   0  0  0  0  0  0  0  0  0  0  0  0
    0.8124   -3.9290   -0.3698 C   0  0  2  0  0  0  0  0  0  0  0  0
    1.0666   -2.4424   -0.5818 C   0  0  0  0  0  0  0  0  0  0  0  0
    2.0598   -2.0076   -1.1610 O   0  0  0  0  0  0  0  0  0  0  0  0
    1.4560   -4.4118    0.9207 C   0  0  0  0  0  0  0  0  0  0  0  0
    2.1528   -4.2578   -1.9805 H   0  0  0  0  0  0  0  0  0  0  0  0
   -0.2667   -4.1160   -0.3467 H   0  0  0  0  0  0  0  0  0  0  0  0
    2.5374   -4.2329    0.9160 H   0  0  0  0  0  0  0  0  0  0  0  0
    1.0390   -3.8932    1.7903 H   0  0  0  0  0  0  0  0  0  0  0  0
    1.2976   -5.4871    1.0566 H   0  0  0  0  0  0  0  0  0  0  0  0
    0.0755   -1.6529   -0.0105 N   0  0  0  0  0  0  0  0  0  0  0  0
    0.1113   -0.2132   -0.0391 C   0  0  2  0  0  0  0  0  0  0  0  0
   -0.9026    0.2908    0.9823 C   0  0  0  0  0  0  0  0  0  0  0  0
   -1.9426   -0.3097    1.2449 O   0  0  0  0  0  0  0  0  0  0  0  0
   -0.2084    0.3432   -1.4303 C   0  0  0  0  0  0  0  0  0  0  0  0
    0.8759    0.0018   -2.4594 C   0  0  0  0  0  0  0  0  0  0  0  0
    0.5525    0.5581   -3.8422 C   0  0  0  0  0  0  0  0  0  0  0  0
    1.5764    0.2107   -4.8250 N   0  3  0  0  0  0  0  0  0  0  0  0
    1.4668    0.5576   -6.1729 C   0  0  0  0  0  0  0  0  0  0  0  0
    2.4808    0.1935   -7.0525 N   0  0  0  0  0  0  0  0  0  0  0  0
    0.3680    1.2593   -6.6579 N   0  0  0  0  0  0  0  0  0  0  0  0
   -0.7323   -2.1024    0.4149 H   0  0  0  0  0  0  0  0  0  0  0  0
    1.1170    0.0858    0.2779 H   0  0  0  0  0  0  0  0  0  0  0  0
   -0.3215    1.4324   -1.3707 H   0  0  0  0  0  0  0  0  0  0  0  0
   -1.1740   -0.0499   -1.7748 H   0  0  0  0  0  0  0  0  0  0  0  0
    1.8410    0.3981   -2.1217 H   0  0  0  0  0  0  0  0  0  0  0  0
    0.9782   -1.0866   -2.5388 H   0  0  0  0  0  0  0  0  0  0  0  0
   -0.3936    0.1372   -4.1962 H   0  0  0  0  0  0  0  0  0  0  0  0
    0.4642    1.6484   -3.8141 H   0  0  0  0  0  0  0  0  0  0  0  0
    2.4045   -0.3030   -4.5289 H   0  0  0  0  0  0  0  0  0  0  0  0
    2.4318    0.4309   -8.0404 H   0  0  0  0  0  0  0  0  0  0  0  0
    3.2979   -0.3201   -6.7314 H   0  0  0  0  0  0  0  0  0  0  0  0
    0.2833    1.5143   -7.6384 H   0  0  0  0  0  0  0  0  0  0  0  0
   -0.3888    1.5385   -6.0380 H   0  0  0  0  0  0  0  0  0  0  0  0
   -0.5318    1.5122    1.5275 N   0  0  0  0  0  0  0  0  0  0  0  0
   -1.3462    2.2259    2.4840 C   0  0  2  0  0  0  0  0  0  0  0  0
   -1.1325    3.7176    2.2632 C   0  0  0  0  0  0  0  0  0  0  0  0
   -0.0570    4.1960    1.9092 O   0  0  0  0  0  0  0  0  0  0  0  0
   -0.9971    1.8321    3.9109 C   0  0  0  0  0  0  0  0  0  0  0  0
    0.3636    1.9195    1.2747 H   0  0  0  0  0  0  0  0  0  0  0  0
   -2.3886    1.9694    2.2657 H   0  0  0  0  0  0  0  0  0  0  0  0
    0.0436    2.0814    4.1480 H   0  0  0  0  0  0  0  0  0  0  0  0
   -1.6345    2.3525    4.6333 H   0  0  0  0  0  0  0  0  0  0  0  0
   -1.1229    0.7542    4.0595 H   0  0  0  0  0  0  0  0  0  0  0  0
   -2.2721    4.4561    2.5498 N   0  0  0  0  0  0  0  0  0  0  0  0
   -2.3108    5.8970    2.4587 C   0  0  0  0  0  0  0  0  0  0  0  0
   -3.1309    3.9736    2.7979 H   0  0  0  0  0  0  0  0  0  0  0  0
   -2.0700    6.3334    3.4393 H   0  0  0  0  0  0  0  0  0  0  0  0
   -1.5747    6.2371    1.7154 H   0  0  0  0  0  0  0  0  0  0  0  0
   -3.3171    6.2180    2.1518 H   0  0  0  0  0  0  0  0  0  0  0  0
  1  3  1  0  0  0  0
  1  7  1  0  0  0  0
  1  2  2  0  0  0  0
 42 43  1  0  0  0  0
 43 51  1  0  0  0  0
 43 44  2  0  0  0  0
  8  9  1  0  0  0  0
  9 17  1  0  0  0  0
  9 10  2  0  0  0  0
 18 19  1  0  0  0  0
 19 41  1  0  0  0  0
 19 20  2  0  0  0  0
 25 26  1  0  0  0  0
 25 27  1  0  0  0  0
 24 25  2  0  0  0  0
 42 45  1  0  0  0  0
  8 11  1  0  0  0  0
 51 52  1  0  0  0  0
 21 22  1  0  0  0  0
 22 23  1  0  0  0  0
 18 21  1  0  0  0  0
 23 24  1  0  0  0  0
 41 42  1  0  0  0  0
  7  8  1  0  0  0  0
 17 18  1  0  0  0  0
  3  4  1  0  0  0  0
  3  5  1  0  0  0  0
  3  6  1  0  0  0  0
 45 48  1  0  0  0  0
 45 49  1  0  0  0  0
 45 50  1  0  0  0  0
 11 14  1  0  0  0  0
 11 15  1  0  0  0  0
 11 16  1  0  0  0  0
 52 54  1  0  0  0  0
 52 55  1  0  0  0  0
 52 56  1  0  0  0  0
 22 32  1  0  0  0  0
 22 33  1  0  0  0  0
 21 30  1  0  0  0  0
 21 31  1  0  0  0  0
 23 34  1  0  0  0  0
 23 35  1  0  0  0  0
 42 47  1  0  0  0  0
  8 13  1  0  0  0  0
 18 29  1  0  0  0  0
 26 37  1  0  0  0  0
 26 38  1  0  0  0  0
 27 39  1  0  0  0  0
 27 40  1  0  0  0  0
 51 53  1  0  0  0  0
  7 12  1  0  0  0  0
 41 46  1  0  0  0  0
 17 28  1  0  0  0  0
 24 36  1  0  0  0  0
M  CHG  1  24   1
M  END
$$$$

  -OEChem-05262214473D

 56 55  0     1  0  0  0  0  0999 V2000
    0.7735   -5.8042   -2.0022 C   0  0  0  0  0  0  0  0  0  0  0  0
   -0.2086   -6.3825   -1.5519 O   0  0  0  0  0  0  0  0  0  0  0  0
    1.4751   -6.3646   -3.1946 C   0  0  0  0  0  0  0  0  0  0  0  0
    2.2765   -7.0687   -2.9186 H   0  0  0  0  0  0  0  0  0  0  0  0
    0.7988   -6.9360   -3.8504 H   0  0  0  0  0  0  0  0  0  0  0  0
    1.9556   -5.6216   -3.8511 H   0  0  0  0  0  0  0  0  0  0  0  0
    1.3322   -4.6359   -1.5106 N   0  0  0  0  0  0  0  0  0  0  0  0
    0.8124   -3.9290   -0.3698 C   0  0  2  0  0  0  0  0  0  0  0  0
    1.0666   -2.4424   -0.5818 C   0  0  0  0  0  0  0  0  0  0  0  0
    2.0598   -2.0076   -1.1610 O   0  0  0  0  0  0  0  0  0  0  0  0
    1.4560   -4.4118    0.9207 C   0  0  0  0  0  0  0  0  0  0  0  0
    2.1528   -4.2578   -1.9805 H   0  0  0  0  0  0  0  0  0  0  0  0
   -0.2667   -4.1160   -0.3467 H   0  0  0  0  0  0  0  0  0  0  0  0
    2.5374   -4.2329    0.9160 H   0  0  0  0  0  0  0  0  0  0  0  0
    1.0390   -3.8932    1.7903 H   0  0  0  0  0  0  0  0  0  0  0  0
    1.2976   -5.4871    1.0566 H   0  0  0  0  0  0  0  0  0  0  0  0
    0.0755   -1.6529   -0.0105 N   0  0  0  0  0  0  0  0  0  0  0  0
    0.1113   -0.2132   -0.0391 C   0  0  2  0  0  0  0  0  0  0  0  0
   -0.9026    0.2908    0.9823 C   0  0  0  0  0  0  0  0  0  0  0  0
   -1.7957   -0.4168    1.4436 O   0  0  0  0  0  0  0  0  0  0  0  0
   -0.2084    0.3432   -1.4303 C   0  0  0  0  0  0  0  0  0  0  0  0
    0.8759    0.0018   -2.4594 C   0  0  0  0  0  0  0  0  0  0  0  0
    0.5525    0.5581   -3.8422 C   0  0  0  0  0  0  0  0  0  0  0  0
    1.5764    0.2107   -4.8250 N   0  3  0  0  0  0  0  0  0  0  0  0
    1.4668    0.5576   -6.1729 C   0  0  0  0  0  0  0  0  0  0  0  0
    2.4808    0.1935   -7.0525 N   0  0  0  0  0  0  0  0  0  0  0  0
    0.3680    1.2593   -6.6579 N   0  0  0  0  0  0  0  0  0  0  0  0
   -0.7323   -2.1024    0.4149 H   0  0  0  0  0  0  0  0  0  0  0  0
    1.1170    0.0858    0.2779 H   0  0  0  0  0  0  0  0  0  0  0  0
   -0.3215    1.4324   -1.3707 H   0  0  0  0  0  0  0  0  0  0  0  0
   -1.1740   -0.0499   -1.7748 H   0  0  0  0  0  0  0  0  0  0  0  0
    1.8410    0.3981   -2.1217 H   0  0  0  0  0  0  0  0  0  0  0  0
    0.9782   -1.0866   -2.5388 H   0  0  0  0  0  0  0  0  0  0  0  0
   -0.3936    0.1372   -4.1962 H   0  0  0  0  0  0  0  0  0  0  0  0
    0.4642    1.6484   -3.8141 H   0  0  0  0  0  0  0  0  0  0  0  0
    2.4045   -0.3030   -4.5289 H   0  0  0  0  0  0  0  0  0  0  0  0
    2.4318    0.4309   -8.0404 H   0  0  0  0  0  0  0  0  0  0  0  0
    3.2979   -0.3201   -6.7314 H   0  0  0  0  0  0  0  0  0  0  0  0
    0.2833    1.5143   -7.6384 H   0  0  0  0  0  0  0  0  0  0  0  0
   -0.3888    1.5385   -6.0380 H   0  0  0  0  0  0  0  0  0  0  0  0
   -0.7214    1.6345    1.2790 N   0  0  0  0  0  0  0  0  0  0  0  0
   -1.5820    2.3633    2.1821 C   0  0  2  0  0  0  0  0  0  0  0  0
   -1.6577    3.8055    1.6985 C   0  0  0  0  0  0  0  0  0  0  0  0
   -0.7141    4.3842    1.1640 O   0  0  0  0  0  0  0  0  0  0  0  0
   -1.0680    2.2957    3.6118 C   0  0  0  0  0  0  0  0  0  0  0  0
    0.0656    2.1326    0.8737 H   0  0  0  0  0  0  0  0  0  0  0  0
   -2.5736    1.9025    2.1150 H   0  0  0  0  0  0  0  0  0  0  0  0
   -0.0755    2.7526    3.6987 H   0  0  0  0  0  0  0  0  0  0  0  0
   -1.7365    2.8244    4.2992 H   0  0  0  0  0  0  0  0  0  0  0  0
   -0.9859    1.2564    3.9477 H   0  0  0  0  0  0  0  0  0  0  0  0
   -2.8891    4.3840    1.9729 N   0  0  0  0  0  0  0  0  0  0  0  0
   -3.1940    5.7584    1.6504 C   0  0  0  0  0  0  0  0  0  0  0  0
   -3.6268    3.8184    2.3823 H   0  0  0  0  0  0  0  0  0  0  0  0
   -2.9677    6.3977    2.5165 H   0  0  0  0  0  0  0  0  0  0  0  0
   -2.5857    6.0768    0.7910 H   0  0  0  0  0  0  0  0  0  0  0  0
   -4.2608    5.8476    1.3977 H   0  0  0  0  0  0  0  0  0  0  0  0
  1  3  1  0  0  0  0
  1  7  1  0  0  0  0
  1  2  2  0  0  0  0
 42 43  1  0  0  0  0
 43 51  1  0  0  0  0
 43 44  2  0  0  0  0
  8  9  1  0  0  0  0
  9 17  1  0  0  0  0
  9 10  2  0  0  0  0
 18 19  1  0  0  0  0
 19 41  1  0  0  0  0
 19 20  2  0  0  0  0
 25 26  1  0  0  0  0
 25 27  1  0  0  0  0
 24 25  2  0  0  0  0
 42 45  1  0  0  0  0
  8 11  1  0  0  0  0
 51 52  1  0  0  0  0
 21 22  1  0  0  0  0
 22 23  1  0  0  0  0
 18 21  1  0  0  0  0
 23 24  1  0  0  0  0
 41 42  1  0  0  0  0
  7  8  1  0  0  0  0
 17 18  1  0  0  0  0
  3  4  1  0  0  0  0
  3  5  1  0  0  0  0
  3  6  1  0  0  0  0
 45 48  1  0  0  0  0
 45 49  1  0  0  0  0
 45 50  1  0  0  0  0
 11 14  1  0  0  0  0
 11 15  1  0  0  0  0
 11 16  1  0  0  0  0
 52 54  1  0  0  0  0
 52 55  1  0  0  0  0
 52 56  1  0  0  0  0
 22 32  1  0  0  0  0
 22 33  1  0  0  0  0
 21 30  1  0  0  0  0
 21 31  1  0  0  0  0
 23 34  1  0  0  0  0
 23 35  1  0  0  0  0
 42 47  1  0  0  0  0
  8 13  1  0  0  0  0
 18 29  1  0  0  0  0
 26 37  1  0  0  0  0
 26 38  1  0  0  0  0
 27 39  1  0  0  0  0
 27 40  1  0  0  0  0
 51 53  1  0  0  0  0
  7 12  1  0  0  0  0
 41 46  1  0  0  0  0
 17 28  1  0  0  0  0
 24 36  1  0  0  0  0
M  CHG  1  24   1
M  END
$$$$

  -OEChem-05262214473D

 56 55  0     1  0  0  0  0  0999 V2000
    0.7735   -5.8042   -2.0022 C   0  0  0  0  0  0  0  0  0  0  0  0
   -0.2086   -6.3825   -1.5519 O   0  0  0  0  0  0  0  0  0  0  0  0
    1.4751   -6.3646   -3.1946 C   0  0  0  0  0  0  0  0  0  0  0  0
    2.2765   -7.0687   -2.9186 H   0  0  0  0  0  0  0  0  0  0  0  0
    0.7988   -6.9360   -3.8504 H   0  0  0  0  0  0  0  0  0  0  0  0
    1.9556   -5.6216   -3.8511 H   0  0  0  0  0  0  0  0  0  0  0  0
    1.3322   -4.6359   -1.5106 N   0  0  0  0  0  0  0  0  0  0  0  0
    0.8124   -3.9290   -0.3698 C   0  0  2  0  0  0  0  0  0  0  0  0
    1.0666   -2.4424   -0.5818 C   0  0  0  0  0  0  0  0  0  0  0  0
    2.0598   -2.0076   -1.1610 O   0  0  0  0  0  0  0  0  0  0  0  0
    1.4560   -4.4118    0.9207 C   0  0  0  0  0  0  0  0  0  0  0  0
    2.1528   -4.2578   -1.9805 H   0  0  0  0  0  0  0  0  0  0  0  0
   -0.2667   -4.1160   -0.3467 H   0  0  0  0  0  0  0  0  0  0  0  0
    2.5374   -4.2329    0.9160 H   0  0  0  0  0  0  0  0  0  0  0  0
    1.0390   -3.8932    1.7903 H   0  0  0  0  0  0  0  0  0  0  0  0
    1.2976   -5.4871    1.0566 H   0  0  0  0  0  0  0  0  0  0  0  0
    0.0755   -1.6529   -0.0105 N   0  0  0  0  0  0  0  0  0  0  0  0
    0.1113   -0.2132   -0.0391 C   0  0  2  0  0  0  0  0  0  0  0  0
   -0.6008    0.2879    1.2128 C   0  0  0  0  0  0  0  0  0  0  0  0
   -1.1262   -0.4652    2.0301 O   0  0  0  0  0  0  0  0  0  0  0  0
   -0.5540    0.3545   -1.2970 C   0  0  0  0  0  0  0  0  0  0  0  0
    0.2251    0.0157   -2.5735 C   0  0  0  0  0  0  0  0  0  0  0  0
   -0.4416    0.5832   -3.8223 C   0  0  0  0  0  0  0  0  0  0  0  0
    0.2911    0.2385   -5.0386 N   0  3  0  0  0  0  0  0  0  0  0  0
   -0.1613    0.5954   -6.3102 C   0  0  0  0  0  0  0  0  0  0  0  0
    0.5884    0.2332   -7.4243 N   0  0  0  0  0  0  0  0  0  0  0  0
   -1.3440    1.3053   -6.4903 N   0  0  0  0  0  0  0  0  0  0  0  0
   -0.7323   -2.1024    0.4149 H   0  0  0  0  0  0  0  0  0  0  0  0
    1.1665    0.0792    0.0086 H   0  0  0  0  0  0  0  0  0  0  0  0
   -0.6414    1.4437   -1.2039 H   0  0  0  0  0  0  0  0  0  0  0  0
   -1.5783   -0.0320   -1.3822 H   0  0  0  0  0  0  0  0  0  0  0  0
    1.2471    0.4055   -2.4947 H   0  0  0  0  0  0  0  0  0  0  0  0
    0.2968   -1.0725   -2.6829 H   0  0  0  0  0  0  0  0  0  0  0  0
   -1.4496    0.1690   -3.9220 H   0  0  0  0  0  0  0  0  0  0  0  0
   -0.5131    1.6737   -3.7661 H   0  0  0  0  0  0  0  0  0  0  0  0
    1.1645   -0.2809   -4.9697 H   0  0  0  0  0  0  0  0  0  0  0  0
    0.2869    0.4779   -8.3645 H   0  0  0  0  0  0  0  0  0  0  0  0
    1.4577   -0.2861   -7.3284 H   0  0  0  0  0  0  0  0  0  0  0  0
   -1.6779    1.5677   -7.4141 H   0  0  0  0  0  0  0  0  0  0  0  0
   -1.9130    1.5833   -5.6942 H   0  0  0  0  0  0  0  0  0  0  0  0
   -0.6220    1.6739    1.2822 N   0  0  0  0  0  0  0  0  0  0  0  0
   -1.2785    2.3979    2.3464 C   0  0  2  0  0  0  0  0  0  0  0  0
   -1.8094    3.7034    1.7692 C   0  0  0  0  0  0  0  0  0  0  0  0
   -1.2337    4.3268    0.8797 O   0  0  0  0  0  0  0  0  0  0  0  0
   -0.3284    2.6620    3.5041 C   0  0  0  0  0  0  0  0  0  0  0  0
   -0.1322    2.2158    0.5764 H   0  0  0  0  0  0  0  0  0  0  0  0
   -2.1174    1.7776    2.6802 H   0  0  0  0  0  0  0  0  0  0  0  0
    0.5187    3.2821    3.1887 H   0  0  0  0  0  0  0  0  0  0  0  0
   -0.8349    3.1856    4.3216 H   0  0  0  0  0  0  0  0  0  0  0  0
    0.0756    1.7234    3.8987 H   0  0  0  0  0  0  0  0  0  0  0  0
   -2.9790    4.1129    2.3940 N   0  0  0  0  0  0  0  0  0  0  0  0
   -3.6550    5.3431    2.0542 C   0  0  0  0  0  0  0  0  0  0  0  0
   -3.4078    3.5140    3.0935 H   0  0  0  0  0  0  0  0  0  0  0  0
   -3.3019    6.1502    2.7128 H   0  0  0  0  0  0  0  0  0  0  0  0
   -3.4388    5.6031    1.0075 H   0  0  0  0  0  0  0  0  0  0  0  0
   -4.7397    5.2130    2.1831 H   0  0  0  0  0  0  0  0  0  0  0  0
  1  3  1  0  0  0  0
  1  7  1  0  0  0  0
  1  2  2  0  0  0  0
 42 43  1  0  0  0  0
 43 51  1  0  0  0  0
 43 44  2  0  0  0  0
  8  9  1  0  0  0  0
  9 17  1  0  0  0  0
  9 10  2  0  0  0  0
 18 19  1  0  0  0  0
 19 41  1  0  0  0  0
 19 20  2  0  0  0  0
 25 26  1  0  0  0  0
 25 27  1  0  0  0  0
 24 25  2  0  0  0  0
 42 45  1  0  0  0  0
  8 11  1  0  0  0  0
 51 52  1  0  0  0  0
 21 22  1  0  0  0  0
 22 23  1  0  0  0  0
 18 21  1  0  0  0  0
 23 24  1  0  0  0  0
 41 42  1  0  0  0  0
  7  8  1  0  0  0  0
 17 18  1  0  0  0  0
  3  4  1  0  0  0  0
  3  5  1  0  0  0  0
  3  6  1  0  0  0  0
 45 48  1  0  0  0  0
 45 49  1  0  0  0  0
 45 50  1  0  0  0  0
 11 14  1  0  0  0  0
 11 15  1  0  0  0  0
 11 16  1  0  0  0  0
 52 54  1  0  0  0  0
 52 55  1  0  0  0  0
 52 56  1  0  0  0  0
 22 32  1  0  0  0  0
 22 33  1  0  0  0  0
 21 30  1  0  0  0  0
 21 31  1  0  0  0  0
 23 34  1  0  0  0  0
 23 35  1  0  0  0  0
 42 47  1  0  0  0  0
  8 13  1  0  0  0  0
 18 29  1  0  0  0  0
 26 37  1  0  0  0  0
 26 38  1  0  0  0  0
 27 39  1  0  0  0  0
 27 40  1  0  0  0  0
 51 53  1  0  0  0  0
  7 12  1  0  0  0  0
 41 46  1  0  0  0  0
 17 28  1  0  0  0  0
 24 36  1  0  0  0  0
M  CHG  1  24   1
M  END
$$$$

  -OEChem-05262214473D

 56 55  0     1  0  0  0  0  0999 V2000
    0.7735   -5.8042   -2.0022 C   0  0  0  0  0  0  0  0  0  0  0  0
   -0.2086   -6.3825   -1.5519 O   0  0  0  0  0  0  0  0  0  0  0  0
    1.4751   -6.3646   -3.1946 C   0  0  0  0  0  0  0  0  0  0  0  0
    2.2765   -7.0687   -2.9186 H   0  0  0  0  0  0  0  0  0  0  0  0
    0.7988   -6.9360   -3.8504 H   0  0  0  0  0  0  0  0  0  0  0  0
    1.9556   -5.6216   -3.8511 H   0  0  0  0  0  0  0  0  0  0  0  0
    1.3322   -4.6359   -1.5106 N   0  0  0  0  0  0  0  0  0  0  0  0
    0.8124   -3.9290   -0.3698 C   0  0  2  0  0  0  0  0  0  0  0  0
    1.0666   -2.4424   -0.5818 C   0  0  0  0  0  0  0  0  0  0  0  0
    2.0598   -2.0076   -1.1610 O   0  0  0  0  0  0  0  0  0  0  0  0
    1.4560   -4.4118    0.9207 C   0  0  0  0  0  0  0  0  0  0  0  0
    2.1528   -4.2578   -1.9805 H   0  0  0  0  0  0  0  0  0  0  0  0
   -0.2667   -4.1160   -0.3467 H   0  0  0  0  0  0  0  0  0  0  0  0
    2.5374   -4.2329    0.9160 H   0  0  0  0  0  0  0  0  0  0  0  0
    1.0390   -3.8932    1.7903 H   0  0  0  0  0  0  0  0  0  0  0  0
    1.2976   -5.4871    1.0566 H   0  0  0  0  0  0  0  0  0  0  0  0
    0.0755   -1.6529   -0.0105 N   0  0  0  0  0  0  0  0  0  0  0  0
    0.1113   -0.2132   -0.0391 C   0  0  2  0  0  0  0  0  0  0  0  0
   -0.6008    0.2879    1.2128 C   0  0  0  0  0  0  0  0  0  0  0  0
   -0.8894   -0.4448    2.1567 O   0  0  0  0  0  0  0  0  0  0  0  0
   -0.5540    0.3545   -1.2970 C   0  0  0  0  0  0  0  0  0  0  0  0
    0.2251    0.0157   -2.5735 C   0  0  0  0  0  0  0  0  0  0  0  0
   -0.4416    0.5832   -3.8223 C   0  0  0  0  0  0  0  0  0  0  0  0
    0.2911    0.2385   -5.0386 N   0  3  0  0  0  0  0  0  0  0  0  0
   -0.1613    0.5954   -6.3102 C   0  0  0  0  0  0  0  0  0  0  0  0
    0.5884    0.2332   -7.4243 N   0  0  0  0  0  0  0  0  0  0  0  0
   -1.3440    1.3053   -6.4903 N   0  0  0  0  0  0  0  0  0  0  0  0
   -0.7323   -2.1024    0.4149 H   0  0  0  0  0  0  0  0  0  0  0  0
    1.1665    0.0792    0.0086 H   0  0  0  0  0  0  0  0  0  0  0  0
   -0.6414    1.4437   -1.2039 H   0  0  0  0  0  0  0  0  0  0  0  0
   -1.5783   -0.0320   -1.3822 H   0  0  0  0  0  0  0  0  0  0  0  0
    1.2471    0.4055   -2.4947 H   0  0  0  0  0  0  0  0  0  0  0  0
    0.2968   -1.0725   -2.6829 H   0  0  0  0  0  0  0  0  0  0  0  0
   -1.4496    0.1690   -3.9220 H   0  0  0  0  0  0  0  0  0  0  0  0
   -0.5131    1.6737   -3.7661 H   0  0  0  0  0  0  0  0  0  0  0  0
    1.1645   -0.2809   -4.9697 H   0  0  0  0  0  0  0  0  0  0  0  0
    0.2869    0.4779   -8.3645 H   0  0  0  0  0  0  0  0  0  0  0  0
    1.4577   -0.2861   -7.3284 H   0  0  0  0  0  0  0  0  0  0  0  0
   -1.6779    1.5677   -7.4141 H   0  0  0  0  0  0  0  0  0  0  0  0
   -1.9130    1.5833   -5.6942 H   0  0  0  0  0  0  0  0  0  0  0  0
   -0.9182    1.6364    1.1288 N   0  0  0  0  0  0  0  0  0  0  0  0
   -1.6381    2.3407    2.1646 C   0  0  2  0  0  0  0  0  0  0  0  0
   -2.4807    3.4215    1.5001 C   0  0  0  0  0  0  0  0  0  0  0  0
   -2.1201    4.0295    0.4945 O   0  0  0  0  0  0  0  0  0  0  0  0
   -0.6875    2.9443    3.1867 C   0  0  0  0  0  0  0  0  0  0  0  0
   -0.6102    2.1715    0.3222 H   0  0  0  0  0  0  0  0  0  0  0  0
   -2.2957    1.6089    2.6464 H   0  0  0  0  0  0  0  0  0  0  0  0
   -0.0207    3.6801    2.7225 H   0  0  0  0  0  0  0  0  0  0  0  0
   -1.2357    3.4533    3.9864 H   0  0  0  0  0  0  0  0  0  0  0  0
   -0.0616    2.1693    3.6422 H   0  0  0  0  0  0  0  0  0  0  0  0
   -3.6633    3.6574    2.1871 N   0  0  0  0  0  0  0  0  0  0  0  0
   -4.6136    4.6659    1.7800 C   0  0  0  0  0  0  0  0  0  0  0  0
   -3.9000    3.0788    2.9878 H   0  0  0  0  0  0  0  0  0  0  0  0
   -4.3981    5.6073    2.3065 H   0  0  0  0  0  0  0  0  0  0  0  0
   -4.5351    4.8267    0.6946 H   0  0  0  0  0  0  0  0  0  0  0  0
   -5.6318    4.3317    2.0284 H   0  0  0  0  0  0  0  0  0  0  0  0
  1  3  1  0  0  0  0
  1  7  1  0  0  0  0
  1  2  2  0  0  0  0
 42 43  1  0  0  0  0
 43 51  1  0  0  0  0
 43 44  2  0  0  0  0
  8  9  1  0  0  0  0
  9 17  1  0  0  0  0
  9 10  2  0  0  0  0
 18 19  1  0  0  0  0
 19 41  1  0  0  0  0
 19 20  2  0  0  0  0
 25 26  1  0  0  0  0
 25 27  1  0  0  0  0
 24 25  2  0  0  0  0
 42 45  1  0  0  0  0
  8 11  1  0  0  0  0
 51 52  1  0  0  0  0
 21 22  1  0  0  0  0
 22 23  1  0  0  0  0
 18 21  1  0  0  0  0
 23 24  1  0  0  0  0
 41 42  1  0  0  0  0
  7  8  1  0  0  0  0
 17 18  1  0  0  0  0
  3  4  1  0  0  0  0
  3  5  1  0  0  0  0
  3  6  1  0  0  0  0
 45 48  1  0  0  0  0
 45 49  1  0  0  0  0
 45 50  1  0  0  0  0
 11 14  1  0  0  0  0
 11 15  1  0  0  0  0
 11 16  1  0  0  0  0
 52 54  1  0  0  0  0
 52 55  1  0  0  0  0
 52 56  1  0  0  0  0
 22 32  1  0  0  0  0
 22 33  1  0  0  0  0
 21 30  1  0  0  0  0
 21 31  1  0  0  0  0
 23 34  1  0  0  0  0
 23 35  1  0  0  0  0
 42 47  1  0  0  0  0
  8 13  1  0  0  0  0
 18 29  1  0  0  0  0
 26 37  1  0  0  0  0
 26 38  1  0  0  0  0
 27 39  1  0  0  0  0
 27 40  1  0  0  0  0
 51 53  1  0  0  0  0
  7 12  1  0  0  0  0
 41 46  1  0  0  0  0
 17 28  1  0  0  0  0
 24 36  1  0  0  0  0
M  CHG  1  24   1
M  END
$$$$

  -OEChem-05262214473D

 56 55  0     1  0  0  0  0  0999 V2000
    0.7735   -5.8042   -2.0022 C   0  0  0  0  0  0  0  0  0  0  0  0
   -0.2086   -6.3825   -1.5519 O   0  0  0  0  0  0  0  0  0  0  0  0
    1.4751   -6.3646   -3.1946 C   0  0  0  0  0  0  0  0  0  0  0  0
    2.2765   -7.0687   -2.9186 H   0  0  0  0  0  0  0  0  0  0  0  0
    0.7988   -6.9360   -3.8504 H   0  0  0  0  0  0  0  0  0  0  0  0
    1.9556   -5.6216   -3.8511 H   0  0  0  0  0  0  0  0  0  0  0  0
    1.3322   -4.6359   -1.5106 N   0  0  0  0  0  0  0  0  0  0  0  0
    0.8124   -3.9290   -0.3698 C   0  0  2  0  0  0  0  0  0  0  0  0
    1.0666   -2.4424   -0.5818 C   0  0  0  0  0  0  0  0  0  0  0  0
    2.0598   -2.0076   -1.1610 O   0  0  0  0  0  0  0  0  0  0  0  0
    1.4560   -4.4118    0.9207 C   0  0  0  0  0  0  0  0  0  0  0  0
    2.1528   -4.2578   -1.9805 H   0  0  0  0  0  0  0  0  0  0  0  0
   -0.2667   -4.1160   -0.3467 H   0  0  0  0  0  0  0  0  0  0  0  0
    2.5374   -4.2329    0.9160 H   0  0  0  0  0  0  0  0  0  0  0  0
    1.0390   -3.8932    1.7903 H   0  0  0  0  0  0  0  0  0  0  0  0
    1.2976   -5.4871    1.0566 H   0  0  0  0  0  0  0  0  0  0  0  0
    0.0755   -1.6529   -0.0105 N   0  0  0  0  0  0  0  0  0  0  0  0
    0.1113   -0.2132   -0.0391 C   0  0  2  0  0  0  0  0  0  0  0  0
   -0.6008    0.2879    1.2128 C   0  0  0  0  0  0  0  0  0  0  0  0
   -0.6543   -0.3596    2.2563 O   0  0  0  0  0  0  0  0  0  0  0  0
   -0.5540    0.3545   -1.2970 C   0  0  0  0  0  0  0  0  0  0  0  0
    0.2251    0.0157   -2.5735 C   0  0  0  0  0  0  0  0  0  0  0  0
   -0.4416    0.5832   -3.8223 C   0  0  0  0  0  0  0  0  0  0  0  0
    0.2911    0.2385   -5.0386 N   0  3  0  0  0  0  0  0  0  0  0  0
   -0.1613    0.5954   -6.3102 C   0  0  0  0  0  0  0  0  0  0  0  0
    0.5884    0.2332   -7.4243 N   0  0  0  0  0  0  0  0  0  0  0  0
   -1.3440    1.3053   -6.4903 N   0  0  0  0  0  0  0  0  0  0  0  0
   -0.7323   -2.1024    0.4149 H   0  0  0  0  0  0  0  0  0  0  0  0
    1.1665    0.0792    0.0086 H   0  0  0  0  0  0  0  0  0  0  0  0
   -0.6414    1.4437   -1.2039 H   0  0  0  0  0  0  0  0  0  0  0  0
   -1.5783   -0.0320   -1.3822 H   0  0  0  0  0  0  0  0  0  0  0  0
    1.2471    0.4055   -2.4947 H   0  0  0  0  0  0  0  0  0  0  0  0
    0.2968   -1.0725   -2.6829 H   0  0  0  0  0  0  0  0  0  0  0  0
   -1.4496    0.1690   -3.9220 H   0  0  0  0  0  0  0  0  0  0  0  0
   -0.5131    1.6737   -3.7661 H   0  0  0  0  0  0  0  0  0  0  0  0
    1.1645   -0.2809   -4.9697 H   0  0  0  0  0  0  0  0  0  0  0  0
    0.2869    0.4779   -8.3645 H   0  0  0  0  0  0  0  0  0  0  0  0
    1.4577   -0.2861   -7.3284 H   0  0  0  0  0  0  0  0  0  0  0  0
   -1.6779    1.5677   -7.4141 H   0  0  0  0  0  0  0  0  0  0  0  0
   -1.9130    1.5833   -5.6942 H   0  0  0  0  0  0  0  0  0  0  0  0
   -1.2093    1.5188    1.0102 N   0  0  0  0  0  0  0  0  0  0  0  0
   -1.9889    2.1872    2.0266 C   0  0  2  0  0  0  0  0  0  0  0  0
   -3.0921    2.9740    1.3314 C   0  0  0  0  0  0  0  0  0  0  0  0
   -2.9459    3.5075    0.2337 O   0  0  0  0  0  0  0  0  0  0  0  0
   -1.1214    3.1023    2.8767 C   0  0  0  0  0  0  0  0  0  0  0  0
   -1.0841    1.9965    0.1227 H   0  0  0  0  0  0  0  0  0  0  0  0
   -2.4349    1.4039    2.6492 H   0  0  0  0  0  0  0  0  0  0  0  0
   -0.6660    3.8936    2.2700 H   0  0  0  0  0  0  0  0  0  0  0  0
   -1.7082    3.5862    3.6644 H   0  0  0  0  0  0  0  0  0  0  0  0
   -0.3107    2.5398    3.3522 H   0  0  0  0  0  0  0  0  0  0  0  0
   -4.2451    3.0470    2.1005 N   0  0  0  0  0  0  0  0  0  0  0  0
   -5.4190    3.7750    1.6785 C   0  0  0  0  0  0  0  0  0  0  0  0
   -4.2919    2.5411    2.9801 H   0  0  0  0  0  0  0  0  0  0  0  0
   -5.3763    4.8009    2.0729 H   0  0  0  0  0  0  0  0  0  0  0  0
   -5.4556    3.8060    0.5795 H   0  0  0  0  0  0  0  0  0  0  0  0
   -6.3194    3.2723    2.0613 H   0  0  0  0  0  0  0  0  0  0  0  0
  1  3  1  0  0  0  0
  1  7  1  0  0  0  0
  1  2  2  0  0  0  0
 42 43  1  0  0  0  0
 43 51  1  0  0  0  0
 43 44  2  0  0  0  0
  8  9  1  0  0  0  0
  9 17  1  0  0  0  0
  9 10  2  0  0  0  0
 18 19  1  0  0  0  0
 19 41  1  0  0  0  0
 19 20  2  0  0  0  0
 25 26  1  0  0  0  0
 25 27  1  0  0  0  0
 24 25  2  0  0  0  0
 42 45  1  0  0  0  0
  8 11  1  0  0  0  0
 51 52  1  0  0  0  0
 21 22  1  0  0  0  0
 22 23  1  0  0  0  0
 18 21  1  0  0  0  0
 23 24  1  0  0  0  0
 41 42  1  0  0  0  0
  7  8  1  0  0  0  0
 17 18  1  0  0  0  0
  3  4  1  0  0  0  0
  3  5  1  0  0  0  0
  3  6  1  0  0  0  0
 45 48  1  0  0  0  0
 45 49  1  0  0  0  0
 45 50  1  0  0  0  0
 11 14  1  0  0  0  0
 11 15  1  0  0  0  0
 11 16  1  0  0  0  0
 52 54  1  0  0  0  0
 52 55  1  0  0  0  0
 52 56  1  0  0  0  0
 22 32  1  0  0  0  0
 22 33  1  0  0  0  0
 21 30  1  0  0  0  0
 21 31  1  0  0  0  0
 23 34  1  0  0  0  0
 23 35  1  0  0  0  0
 42 47  1  0  0  0  0
  8 13  1  0  0  0  0
 18 29  1  0  0  0  0
 26 37  1  0  0  0  0
 26 38  1  0  0  0  0
 27 39  1  0  0  0  0
 27 40  1  0  0  0  0
 51 53  1  0  0  0  0
  7 12  1  0  0  0  0
 41 46  1  0  0  0  0
 17 28  1  0  0  0  0
 24 36  1  0  0  0  0
M  CHG  1  24   1
M  END
$$$$

  -OEChem-05262214473D

 56 55  0     1  0  0  0  0  0999 V2000
    0.7735   -5.8042   -2.0022 C   0  0  0  0  0  0  0  0  0  0  0  0
   -0.2086   -6.3825   -1.5519 O   0  0  0  0  0  0  0  0  0  0  0  0
    1.4751   -6.3646   -3.1946 C   0  0  0  0  0  0  0  0  0  0  0  0
    2.2765   -7.0687   -2.9186 H   0  0  0  0  0  0  0  0  0  0  0  0
    0.7988   -6.9360   -3.8504 H   0  0  0  0  0  0  0  0  0  0  0  0
    1.9556   -5.6216   -3.8511 H   0  0  0  0  0  0  0  0  0  0  0  0
    1.3322   -4.6359   -1.5106 N   0  0  0  0  0  0  0  0  0  0  0  0
    0.8124   -3.9290   -0.3698 C   0  0  2  0  0  0  0  0  0  0  0  0
    1.0666   -2.4424   -0.5818 C   0  0  0  0  0  0  0  0  0  0  0  0
    2.0598   -2.0076   -1.1610 O   0  0  0  0  0  0  0  0  0  0  0  0
    1.4560   -4.4118    0.9207 C   0  0  0  0  0  0  0  0  0  0  0  0
    2.1528   -4.2578   -1.9805 H   0  0  0  0  0  0  0  0  0  0  0  0
   -0.2667   -4.1160   -0.3467 H   0  0  0  0  0  0  0  0  0  0  0  0
    2.5374   -4.2329    0.9160 H   0  0  0  0  0  0  0  0  0  0  0  0
    1.0390   -3.8932    1.7903 H   0  0  0  0  0  0  0  0  0  0  0  0
    1.2976   -5.4871    1.0566 H   0  0  0  0  0  0  0  0  0  0  0  0
    0.0755   -1.6529   -0.0105 N   0  0  0  0  0  0  0  0  0  0  0  0
    0.1113   -0.2132   -0.0391 C   0  0  2  0  0  0  0  0  0  0  0  0
   -0.6008    0.2879    1.2128 C   0  0  0  0  0  0  0  0  0  0  0  0
   -0.4367   -0.2153    2.3223 O   0  0  0  0  0  0  0  0  0  0  0  0
   -0.5540    0.3545   -1.2970 C   0  0  0  0  0  0  0  0  0  0  0  0
    0.2251    0.0157   -2.5735 C   0  0  0  0  0  0  0  0  0  0  0  0
   -0.4416    0.5832   -3.8223 C   0  0  0  0  0  0  0  0  0  0  0  0
    0.2911    0.2385   -5.0386 N   0  3  0  0  0  0  0  0  0  0  0  0
   -0.1613    0.5954   -6.3102 C   0  0  0  0  0  0  0  0  0  0  0  0
    0.5884    0.2332   -7.4243 N   0  0  0  0  0  0  0  0  0  0  0  0
   -1.3440    1.3053   -6.4903 N   0  0  0  0  0  0  0  0  0  0  0  0
   -0.7323   -2.1024    0.4149 H   0  0  0  0  0  0  0  0  0  0  0  0
    1.1665    0.0792    0.0086 H   0  0  0  0  0  0  0  0  0  0  0  0
   -0.6414    1.4437   -1.2039 H   0  0  0  0  0  0  0  0  0  0  0  0
   -1.5783   -0.0320   -1.3822 H   0  0  0  0  0  0  0  0  0  0  0  0
    1.2471    0.4055   -2.4947 H   0  0  0  0  0  0  0  0  0  0  0  0
    0.2968   -1.0725   -2.6829 H   0  0  0  0  0  0  0  0  0  0  0  0
   -1.4496    0.1690   -3.9220 H   0  0  0  0  0  0  0  0  0  0  0  0
   -0.5131    1.6737   -3.7661 H   0  0  0  0  0  0  0  0  0  0  0  0
    1.1645   -0.2809   -4.9697 H   0  0  0  0  0  0  0  0  0  0  0  0
    0.2869    0.4779   -8.3645 H   0  0  0  0  0  0  0  0  0  0  0  0
    1.4577   -0.2861   -7.3284 H   0  0  0  0  0  0  0  0  0  0  0  0
   -1.6779    1.5677   -7.4141 H   0  0  0  0  0  0  0  0  0  0  0  0
   -1.9130    1.5833   -5.6942 H   0  0  0  0  0  0  0  0  0  0  0  0
   -1.4757    1.3289    0.9347 N   0  0  0  0  0  0  0  0  0  0  0  0
   -2.3068    1.9476    1.9416 C   0  0  2  0  0  0  0  0  0  0  0  0
   -3.6020    2.3915    1.2746 C   0  0  0  0  0  0  0  0  0  0  0  0
   -3.6548    2.7963    0.1151 O   0  0  0  0  0  0  0  0  0  0  0  0
   -1.6005    3.1253    2.5950 C   0  0  0  0  0  0  0  0  0  0  0  0
   -1.5217    1.7027   -0.0086 H   0  0  0  0  0  0  0  0  0  0  0  0
   -2.5256    1.1767    2.6886 H   0  0  0  0  0  0  0  0  0  0  0  0
   -1.3731    3.9080    1.8620 H   0  0  0  0  0  0  0  0  0  0  0  0
   -2.2203    3.5753    3.3775 H   0  0  0  0  0  0  0  0  0  0  0  0
   -0.6546    2.8097    3.0484 H   0  0  0  0  0  0  0  0  0  0  0  0
   -4.6848    2.3233    2.1401 N   0  0  0  0  0  0  0  0  0  0  0  0
   -6.0162    2.7310    1.7566 C   0  0  0  0  0  0  0  0  0  0  0  0
   -4.5569    1.9375    3.0710 H   0  0  0  0  0  0  0  0  0  0  0  0
   -6.1696    3.7860    2.0279 H   0  0  0  0  0  0  0  0  0  0  0  0
   -6.1378    2.6106    0.6700 H   0  0  0  0  0  0  0  0  0  0  0  0
   -6.7556    2.1068    2.2797 H   0  0  0  0  0  0  0  0  0  0  0  0
  1  3  1  0  0  0  0
  1  7  1  0  0  0  0
  1  2  2  0  0  0  0
 42 43  1  0  0  0  0
 43 51  1  0  0  0  0
 43 44  2  0  0  0  0
  8  9  1  0  0  0  0
  9 17  1  0  0  0  0
  9 10  2  0  0  0  0
 18 19  1  0  0  0  0
 19 41  1  0  0  0  0
 19 20  2  0  0  0  0
 25 26  1  0  0  0  0
 25 27  1  0  0  0  0
 24 25  2  0  0  0  0
 42 45  1  0  0  0  0
  8 11  1  0  0  0  0
 51 52  1  0  0  0  0
 21 22  1  0  0  0  0
 22 23  1  0  0  0  0
 18 21  1  0  0  0  0
 23 24  1  0  0  0  0
 41 42  1  0  0  0  0
  7  8  1  0  0  0  0
 17 18  1  0  0  0  0
  3  4  1  0  0  0  0
  3  5  1  0  0  0  0
  3  6  1  0  0  0  0
 45 48  1  0  0  0  0
 45 49  1  0  0  0  0
 45 50  1  0  0  0  0
 11 14  1  0  0  0  0
 11 15  1  0  0  0  0
 11 16  1  0  0  0  0
 52 54  1  0  0  0  0
 52 55  1  0  0  0  0
 52 56  1  0  0  0  0
 22 32  1  0  0  0  0
 22 33  1  0  0  0  0
 21 30  1  0  0  0  0
 21 31  1  0  0  0  0
 23 34  1  0  0  0  0
 23 35  1  0  0  0  0
 42 47  1  0  0  0  0
  8 13  1  0  0  0  0
 18 29  1  0  0  0  0
 26 37  1  0  0  0  0
 26 38  1  0  0  0  0
 27 39  1  0  0  0  0
 27 40  1  0  0  0  0
 51 53  1  0  0  0  0
  7 12  1  0  0  0  0
 41 46  1  0  0  0  0
 17 28  1  0  0  0  0
 24 36  1  0  0  0  0
M  CHG  1  24   1
M  END
$$$$

  -OEChem-05262214473D

 56 55  0     1  0  0  0  0  0999 V2000
    0.7735   -5.8042   -2.0022 C   0  0  0  0  0  0  0  0  0  0  0  0
   -0.2086   -6.3825   -1.5519 O   0  0  0  0  0  0  0  0  0  0  0  0
    1.4751   -6.3646   -3.1946 C   0  0  0  0  0  0  0  0  0  0  0  0
    2.2765   -7.0687   -2.9186 H   0  0  0  0  0  0  0  0  0  0  0  0
    0.7988   -6.9360   -3.8504 H   0  0  0  0  0  0  0  0  0  0  0  0
    1.9556   -5.6216   -3.8511 H   0  0  0  0  0  0  0  0  0  0  0  0
    1.3322   -4.6359   -1.5106 N   0  0  0  0  0  0  0  0  0  0  0  0
    0.8124   -3.9290   -0.3698 C   0  0  2  0  0  0  0  0  0  0  0  0
    1.0666   -2.4424   -0.5818 C   0  0  0  0  0  0  0  0  0  0  0  0
    2.0598   -2.0076   -1.1610 O   0  0  0  0  0  0  0  0  0  0  0  0
    1.4560   -4.4118    0.9207 C   0  0  0  0  0  0  0  0  0  0  0  0
    2.1528   -4.2578   -1.9805 H   0  0  0  0  0  0  0  0  0  0  0  0
   -0.2667   -4.1160   -0.3467 H   0  0  0  0  0  0  0  0  0  0  0  0
    2.5374   -4.2329    0.9160 H   0  0  0  0  0  0  0  0  0  0  0  0
    1.0390   -3.8932    1.7903 H   0  0  0  0  0  0  0  0  0  0  0  0
    1.2976   -5.4871    1.0566 H   0  0  0  0  0  0  0  0  0  0  0  0
    0.0755   -1.6529   -0.0105 N   0  0  0  0  0  0  0  0  0  0  0  0
    0.1113   -0.2132   -0.0391 C   0  0  2  0  0  0  0  0  0  0  0  0
   -0.6008    0.2879    1.2128 C   0  0  0  0  0  0  0  0  0  0  0  0
   -0.2517   -0.0217    2.3501 O   0  0  0  0  0  0  0  0  0  0  0  0
   -0.5540    0.3545   -1.2970 C   0  0  0  0  0  0  0  0  0  0  0  0
    0.2251    0.0157   -2.5735 C   0  0  0  0  0  0  0  0  0  0  0  0
   -0.4416    0.5832   -3.8223 C   0  0  0  0  0  0  0  0  0  0  0  0
    0.2911    0.2385   -5.0386 N   0  3  0  0  0  0  0  0  0  0  0  0
   -0.1613    0.5954   -6.3102 C   0  0  0  0  0  0  0  0  0  0  0  0
    0.5884    0.2332   -7.4243 N   0  0  0  0  0  0  0  0  0  0  0  0
   -1.3440    1.3053   -6.4903 N   0  0  0  0  0  0  0  0  0  0  0  0
   -0.7323   -2.1024    0.4149 H   0  0  0  0  0  0  0  0  0  0  0  0
    1.1665    0.0792    0.0086 H   0  0  0  0  0  0  0  0  0  0  0  0
   -0.6414    1.4437   -1.2039 H   0  0  0  0  0  0  0  0  0  0  0  0
   -1.5783   -0.0320   -1.3822 H   0  0  0  0  0  0  0  0  0  0  0  0
    1.2471    0.4055   -2.4947 H   0  0  0  0  0  0  0  0  0  0  0  0
    0.2968   -1.0725   -2.6829 H   0  0  0  0  0  0  0  0  0  0  0  0
   -1.4496    0.1690   -3.9220 H   0  0  0  0  0  0  0  0  0  0  0  0
   -0.5131    1.6737   -3.7661 H   0  0  0  0  0  0  0  0  0  0  0  0
    1.1645   -0.2809   -4.9697 H   0  0  0  0  0  0  0  0  0  0  0  0
    0.2869    0.4779   -8.3645 H   0  0  0  0  0  0  0  0  0  0  0  0
    1.4577   -0.2861   -7.3284 H   0  0  0  0  0  0  0  0  0  0  0  0
   -1.6779    1.5677   -7.4141 H   0  0  0  0  0  0  0  0  0  0  0  0
   -1.9130    1.5833   -5.6942 H   0  0  0  0  0  0  0  0  0  0  0  0
   -1.6990    1.0798    0.9074 N   0  0  0  0  0  0  0  0  0  0  0  0
   -2.5702    1.6384    1.9156 C   0  0  2  0  0  0  0  0  0  0  0  0
   -3.9755    1.7137    1.3335 C   0  0  0  0  0  0  0  0  0  0  0  0
   -4.1986    1.9444    0.1468 O   0  0  0  0  0  0  0  0  0  0  0  0
   -2.0920    3.0117    2.3608 C   0  0  0  0  0  0  0  0  0  0  0  0
   -1.8930    1.3100   -0.0627 H   0  0  0  0  0  0  0  0  0  0  0  0
   -2.5615    0.9428    2.7618 H   0  0  0  0  0  0  0  0  0  0  0  0
   -2.0939    3.7223    1.5263 H   0  0  0  0  0  0  0  0  0  0  0  0
   -2.7370    3.4213    3.1452 H   0  0  0  0  0  0  0  0  0  0  0  0
   -1.0701    2.9607    2.7517 H   0  0  0  0  0  0  0  0  0  0  0  0
   -4.9523    1.5357    2.3032 N   0  0  0  0  0  0  0  0  0  0  0  0
   -6.3646    1.6052    2.0091 C   0  0  0  0  0  0  0  0  0  0  0  0
   -4.6768    1.3092    3.2543 H   0  0  0  0  0  0  0  0  0  0  0  0
   -6.7241    2.6316    2.1746 H   0  0  0  0  0  0  0  0  0  0  0  0
   -6.5350    1.3219    0.9600 H   0  0  0  0  0  0  0  0  0  0  0  0
   -6.9108    0.9147    2.6686 H   0  0  0  0  0  0  0  0  0  0  0  0
  1  3  1  0  0  0  0
  1  7  1  0  0  0  0
  1  2  2  0  0  0  0
 42 43  1  0  0  0  0
 43 51  1  0  0  0  0
 43 44  2  0  0  0  0
  8  9  1  0  0  0  0
  9 17  1  0  0  0  0
  9 10  2  0  0  0  0
 18 19  1  0  0  0  0
 19 41  1  0  0  0  0
 19 20  2  0  0  0  0
 25 26  1  0  0  0  0
 25 27  1  0  0  0  0
 24 25  2  0  0  0  0
 42 45  1  0  0  0  0
  8 11  1  0  0  0  0
 51 52  1  0  0  0  0
 21 22  1  0  0  0  0
 22 23  1  0  0  0  0
 18 21  1  0  0  0  0
 23 24  1  0  0  0  0
 41 42  1  0  0  0  0
  7  8  1  0  0  0  0
 17 18  1  0  0  0  0
  3  4  1  0  0  0  0
  3  5  1  0  0  0  0
  3  6  1  0  0  0  0
 45 48  1  0  0  0  0
 45 49  1  0  0  0  0
 45 50  1  0  0  0  0
 11 14  1  0  0  0  0
 11 15  1  0  0  0  0
 11 16  1  0  0  0  0
 52 54  1  0  0  0  0
 52 55  1  0  0  0  0
 52 56  1  0  0  0  0
 22 32  1  0  0  0  0
 22 33  1  0  0  0  0
 21 30  1  0  0  0  0
 21 31  1  0  0  0  0
 23 34  1  0  0  0  0
 23 35  1  0  0  0  0
 42 47  1  0  0  0  0
  8 13  1  0  0  0  0
 18 29  1  0  0  0  0
 26 37  1  0  0  0  0
 26 38  1  0  0  0  0
 27 39  1  0  0  0  0
 27 40  1  0  0  0  0
 51 53  1  0  0  0  0
  7 12  1  0  0  0  0
 41 46  1  0  0  0  0
 17 28  1  0  0  0  0
 24 36  1  0  0  0  0
M  CHG  1  24   1
M  END
$$$$

  -OEChem-05262214473D

 56 55  0     1  0  0  0  0  0999 V2000
    0.7735   -5.8042   -2.0022 C   0  0  0  0  0  0  0  0  0  0  0  0
   -0.2086   -6.3825   -1.5519 O   0  0  0  0  0  0  0  0  0  0  0  0
    1.4751   -6.3646   -3.1946 C   0  0  0  0  0  0  0  0  0  0  0  0
    2.2765   -7.0687   -2.9186 H   0  0  0  0  0  0  0  0  0  0  0  0
    0.7988   -6.9360   -3.8504 H   0  0  0  0  0  0  0  0  0  0  0  0
    1.9556   -5.6216   -3.8511 H   0  0  0  0  0  0  0  0  0  0  0  0
    1.3322   -4.6359   -1.5106 N   0  0  0  0  0  0  0  0  0  0  0  0
    0.8124   -3.9290   -0.3698 C   0  0  2  0  0  0  0  0  0  0  0  0
    1.0666   -2.4424   -0.5818 C   0  0  0  0  0  0  0  0  0  0  0  0
    2.0598   -2.0076   -1.1610 O   0  0  0  0  0  0  0  0  0  0  0  0
    1.4560   -4.4118    0.9207 C   0  0  0  0  0  0  0  0  0  0  0  0
    2.1528   -4.2578   -1.9805 H   0  0  0  0  0  0  0  0  0  0  0  0
   -0.2667   -4.1160   -0.3467 H   0  0  0  0  0  0  0  0  0  0  0  0
    2.5374   -4.2329    0.9160 H   0  0  0  0  0  0  0  0  0  0  0  0
    1.0390   -3.8932    1.7903 H   0  0  0  0  0  0  0  0  0  0  0  0
    1.2976   -5.4871    1.0566 H   0  0  0  0  0  0  0  0  0  0  0  0
    0.0755   -1.6529   -0.0105 N   0  0  0  0  0  0  0  0  0  0  0  0
    0.1113   -0.2132   -0.0391 C   0  0  2  0  0  0  0  0  0  0  0  0
   -0.6008    0.2879    1.2128 C   0  0  0  0  0  0  0  0  0  0  0  0
   -0.1117    0.2080    2.3378 O   0  0  0  0  0  0  0  0  0  0  0  0
   -0.5540    0.3545   -1.2970 C   0  0  0  0  0  0  0  0  0  0  0  0
    0.2251    0.0157   -2.5735 C   0  0  0  0  0  0  0  0  0  0  0  0
   -0.4416    0.5832   -3.8223 C   0  0  0  0  0  0  0  0  0  0  0  0
    0.2911    0.2385   -5.0386 N   0  3  0  0  0  0  0  0  0  0  0  0
   -0.1613    0.5954   -6.3102 C   0  0  0  0  0  0  0  0  0  0  0  0
    0.5884    0.2332   -7.4243 N   0  0  0  0  0  0  0  0  0  0  0  0
   -1.3440    1.3053   -6.4903 N   0  0  0  0  0  0  0  0  0  0  0  0
   -0.7323   -2.1024    0.4149 H   0  0  0  0  0  0  0  0  0  0  0  0
    1.1665    0.0792    0.0086 H   0  0  0  0  0  0  0  0  0  0  0  0
   -0.6414    1.4437   -1.2039 H   0  0  0  0  0  0  0  0  0  0  0  0
   -1.5783   -0.0320   -1.3822 H   0  0  0  0  0  0  0  0  0  0  0  0
    1.2471    0.4055   -2.4947 H   0  0  0  0  0  0  0  0  0  0  0  0
    0.2968   -1.0725   -2.6829 H   0  0  0  0  0  0  0  0  0  0  0  0
   -1.4496    0.1690   -3.9220 H   0  0  0  0  0  0  0  0  0  0  0  0
   -0.5131    1.6737   -3.7661 H   0  0  0  0  0  0  0  0  0  0  0  0
    1.1645   -0.2809   -4.9697 H   0  0  0  0  0  0  0  0  0  0  0  0
    0.2869    0.4779   -8.3645 H   0  0  0  0  0  0  0  0  0  0  0  0
    1.4577   -0.2861   -7.3284 H   0  0  0  0  0  0  0  0  0  0  0  0
   -1.6779    1.5677   -7.4141 H   0  0  0  0  0  0  0  0  0  0  0  0
   -1.9130    1.5833   -5.6942 H   0  0  0  0  0  0  0  0  0  0  0  0
   -1.8641    0.7884    0.9301 N   0  0  0  0  0  0  0  0  0  0  0  0
   -2.7611    1.2806    1.9502 C   0  0  2  0  0  0  0  0  0  0  0  0
   -4.1873    0.9866    1.5040 C   0  0  0  0  0  0  0  0  0  0  0  0
   -4.5401    1.0098    0.3267 O   0  0  0  0  0  0  0  0  0  0  0  0
   -2.5626    2.7691    2.1902 C   0  0  0  0  0  0  0  0  0  0  0  0
   -2.1729    0.8452   -0.0358 H   0  0  0  0  0  0  0  0  0  0  0  0
   -2.5404    0.7180    2.8638 H   0  0  0  0  0  0  0  0  0  0  0  0
   -2.7792    3.3493    1.2858 H   0  0  0  0  0  0  0  0  0  0  0  0
   -3.2231    3.1347    2.9834 H   0  0  0  0  0  0  0  0  0  0  0  0
   -1.5286    2.9823    2.4822 H   0  0  0  0  0  0  0  0  0  0  0  0
   -5.0295    0.7377    2.5787 N   0  0  0  0  0  0  0  0  0  0  0  0
   -6.4405    0.4742    2.4187 C   0  0  0  0  0  0  0  0  0  0  0  0
   -4.6436    0.6990    3.5174 H   0  0  0  0  0  0  0  0  0  0  0  0
   -7.0019    1.4164    2.5030 H   0  0  0  0  0  0  0  0  0  0  0  0
   -6.6202    0.0278    1.4295 H   0  0  0  0  0  0  0  0  0  0  0  0
   -6.7743   -0.2227    3.2016 H   0  0  0  0  0  0  0  0  0  0  0  0
  1  3  1  0  0  0  0
  1  7  1  0  0  0  0
  1  2  2  0  0  0  0
 42 43  1  0  0  0  0
 43 51  1  0  0  0  0
 43 44  2  0  0  0  0
  8  9  1  0  0  0  0
  9 17  1  0  0  0  0
  9 10  2  0  0  0  0
 18 19  1  0  0  0  0
 19 41  1  0  0  0  0
 19 20  2  0  0  0  0
 25 26  1  0  0  0  0
 25 27  1  0  0  0  0
 24 25  2  0  0  0  0
 42 45  1  0  0  0  0
  8 11  1  0  0  0  0
 51 52  1  0  0  0  0
 21 22  1  0  0  0  0
 22 23  1  0  0  0  0
 18 21  1  0  0  0  0
 23 24  1  0  0  0  0
 41 42  1  0  0  0  0
  7  8  1  0  0  0  0
 17 18  1  0  0  0  0
  3  4  1  0  0  0  0
  3  5  1  0  0  0  0
  3  6  1  0  0  0  0
 45 48  1  0  0  0  0
 45 49  1  0  0  0  0
 45 50  1  0  0  0  0
 11 14  1  0  0  0  0
 11 15  1  0  0  0  0
 11 16  1  0  0  0  0
 52 54  1  0  0  0  0
 52 55  1  0  0  0  0
 52 56  1  0  0  0  0
 22 32  1  0  0  0  0
 22 33  1  0  0  0  0
 21 30  1  0  0  0  0
 21 31  1  0  0  0  0
 23 34  1  0  0  0  0
 23 35  1  0  0  0  0
 42 47  1  0  0  0  0
  8 13  1  0  0  0  0
 18 29  1  0  0  0  0
 26 37  1  0  0  0  0
 26 38  1  0  0  0  0
 27 39  1  0  0  0  0
 27 40  1  0  0  0  0
 51 53  1  0  0  0  0
  7 12  1  0  0  0  0
 41 46  1  0  0  0  0
 17 28  1  0  0  0  0
 24 36  1  0  0  0  0
M  CHG  1  24   1
M  END
$$$$

  -OEChem-05262214473D

 56 55  0     1  0  0  0  0  0999 V2000
    0.7735   -5.8042   -2.0022 C   0  0  0  0  0  0  0  0  0  0  0  0
   -0.2086   -6.3825   -1.5519 O   0  0  0  0  0  0  0  0  0  0  0  0
    1.4751   -6.3646   -3.1946 C   0  0  0  0  0  0  0  0  0  0  0  0
    2.2765   -7.0687   -2.9186 H   0  0  0  0  0  0  0  0  0  0  0  0
    0.7988   -6.9360   -3.8504 H   0  0  0  0  0  0  0  0  0  0  0  0
    1.9556   -5.6216   -3.8511 H   0  0  0  0  0  0  0  0  0  0  0  0
    1.3322   -4.6359   -1.5106 N   0  0  0  0  0  0  0  0  0  0  0  0
    0.8124   -3.9290   -0.3698 C   0  0  2  0  0  0  0  0  0  0  0  0
    1.0666   -2.4424   -0.5818 C   0  0  0  0  0  0  0  0  0  0  0  0
    2.0598   -2.0076   -1.1610 O   0  0  0  0  0  0  0  0  0  0  0  0
    1.4560   -4.4118    0.9207 C   0  0  0  0  0  0  0  0  0  0  0  0
    2.1528   -4.2578   -1.9805 H   0  0  0  0  0  0  0  0  0  0  0  0
   -0.2667   -4.1160   -0.3467 H   0  0  0  0  0  0  0  0  0  0  0  0
    2.5374   -4.2329    0.9160 H   0  0  0  0  0  0  0  0  0  0  0  0
    1.0390   -3.8932    1.7903 H   0  0  0  0  0  0  0  0  0  0  0  0
    1.2976   -5.4871    1.0566 H   0  0  0  0  0  0  0  0  0  0  0  0
    0.0755   -1.6529   -0.0105 N   0  0  0  0  0  0  0  0  0  0  0  0
    0.1113   -0.2132   -0.0391 C   0  0  2  0  0  0  0  0  0  0  0  0
   -0.6008    0.2879    1.2128 C   0  0  0  0  0  0  0  0  0  0  0  0
   -0.0264    0.4581    2.2862 O   0  0  0  0  0  0  0  0  0  0  0  0
   -0.5540    0.3545   -1.2970 C   0  0  0  0  0  0  0  0  0  0  0  0
    0.2251    0.0157   -2.5735 C   0  0  0  0  0  0  0  0  0  0  0  0
   -0.4416    0.5832   -3.8223 C   0  0  0  0  0  0  0  0  0  0  0  0
    0.2911    0.2385   -5.0386 N   0  3  0  0  0  0  0  0  0  0  0  0
   -0.1613    0.5954   -6.3102 C   0  0  0  0  0  0  0  0  0  0  0  0
    0.5884    0.2332   -7.4243 N   0  0  0  0  0  0  0  0  0  0  0  0
   -1.3440    1.3053   -6.4903 N   0  0  0  0  0  0  0  0  0  0  0  0
   -0.7323   -2.1024    0.4149 H   0  0  0  0  0  0  0  0  0  0  0  0
    1.1665    0.0792    0.0086 H   0  0  0  0  0  0  0  0  0  0  0  0
   -0.6414    1.4437   -1.2039 H   0  0  0  0  0  0  0  0  0  0  0  0
   -1.5783   -0.0320   -1.3822 H   0  0  0  0  0  0  0  0  0  0  0  0
    1.2471    0.4055   -2.4947 H   0  0  0  0  0  0  0  0  0  0  0  0
    0.2968   -1.0725   -2.6829 H   0  0  0  0  0  0  0  0  0  0  0  0
   -1.4496    0.1690   -3.9220 H   0  0  0  0  0  0  0  0  0  0  0  0
   -0.5131    1.6737   -3.7661 H   0  0  0  0  0  0  0  0  0  0  0  0
    1.1645   -0.2809   -4.9697 H   0  0  0  0  0  0  0  0  0  0  0  0
    0.2869    0.4779   -8.3645 H   0  0  0  0  0  0  0  0  0  0  0  0
    1.4577   -0.2861   -7.3284 H   0  0  0  0  0  0  0  0  0  0  0  0
   -1.6779    1.5677   -7.4141 H   0  0  0  0  0  0  0  0  0  0  0  0
   -1.9130    1.5833   -5.6942 H   0  0  0  0  0  0  0  0  0  0  0  0
   -1.9598    0.4746    1.0013 N   0  0  0  0  0  0  0  0  0  0  0  0
   -2.8666    0.8986    2.0431 C   0  0  2  0  0  0  0  0  0  0  0  0
   -4.2229    0.2600    1.7746 C   0  0  0  0  0  0  0  0  0  0  0  0
   -4.6561    0.0562    0.6424 O   0  0  0  0  0  0  0  0  0  0  0  0
   -2.9802    2.4143    2.0947 C   0  0  0  0  0  0  0  0  0  0  0  0
   -2.3423    0.3401    0.0701 H   0  0  0  0  0  0  0  0  0  0  0  0
   -2.4634    0.5177    2.9877 H   0  0  0  0  0  0  0  0  0  0  0  0
   -3.3824    2.8143    1.1568 H   0  0  0  0  0  0  0  0  0  0  0  0
   -3.6455    2.7350    2.9031 H   0  0  0  0  0  0  0  0  0  0  0  0
   -1.9991    2.8733    2.2582 H   0  0  0  0  0  0  0  0  0  0  0  0
   -4.9111   -0.0161    2.9478 N   0  0  0  0  0  0  0  0  0  0  0  0
   -6.2387   -0.5849    2.9575 C   0  0  0  0  0  0  0  0  0  0  0  0
   -4.4594    0.1484    3.8426 H   0  0  0  0  0  0  0  0  0  0  0  0
   -6.9842    0.2233    2.9907 H   0  0  0  0  0  0  0  0  0  0  0  0
   -6.3876   -1.1836    2.0468 H   0  0  0  0  0  0  0  0  0  0  0  0
   -6.3555   -1.2279    3.8422 H   0  0  0  0  0  0  0  0  0  0  0  0
  1  3  1  0  0  0  0
  1  7  1  0  0  0  0
  1  2  2  0  0  0  0
 42 43  1  0  0  0  0
 43 51  1  0  0  0  0
 43 44  2  0  0  0  0
  8  9  1  0  0  0  0
  9 17  1  0  0  0  0
  9 10  2  0  0  0  0
 18 19  1  0  0  0  0
 19 41  1  0  0  0  0
 19 20  2  0  0  0  0
 25 26  1  0  0  0  0
 25 27  1  0  0  0  0
 24 25  2  0  0  0  0
 42 45  1  0  0  0  0
  8 11  1  0  0  0  0
 51 52  1  0  0  0  0
 21 22  1  0  0  0  0
 22 23  1  0  0  0  0
 18 21  1  0  0  0  0
 23 24  1  0  0  0  0
 41 42  1  0  0  0  0
  7  8  1  0  0  0  0
 17 18  1  0  0  0  0
  3  4  1  0  0  0  0
  3  5  1  0  0  0  0
  3  6  1  0  0  0  0
 45 48  1  0  0  0  0
 45 49  1  0  0  0  0
 45 50  1  0  0  0  0
 11 14  1  0  0  0  0
 11 15  1  0  0  0  0
 11 16  1  0  0  0  0
 52 54  1  0  0  0  0
 52 55  1  0  0  0  0
 52 56  1  0  0  0  0
 22 32  1  0  0  0  0
 22 33  1  0  0  0  0
 21 30  1  0  0  0  0
 21 31  1  0  0  0  0
 23 34  1  0  0  0  0
 23 35  1  0  0  0  0
 42 47  1  0  0  0  0
  8 13  1  0  0  0  0
 18 29  1  0  0  0  0
 26 37  1  0  0  0  0
 26 38  1  0  0  0  0
 27 39  1  0  0  0  0
 27 40  1  0  0  0  0
 51 53  1  0  0  0  0
  7 12  1  0  0  0  0
 41 46  1  0  0  0  0
 17 28  1  0  0  0  0
 24 36  1  0  0  0  0
M  CHG  1  24   1
M  END
$$$$

  -OEChem-05262214473D

 56 55  0     1  0  0  0  0  0999 V2000
    0.7735   -5.8042   -2.0022 C   0  0  0  0  0  0  0  0  0  0  0  0
   -0.2086   -6.3825   -1.5519 O   0  0  0  0  0  0  0  0  0  0  0  0
    1.4751   -6.3646   -3.1946 C   0  0  0  0  0  0  0  0  0  0  0  0
    2.2765   -7.0687   -2.9186 H   0  0  0  0  0  0  0  0  0  0  0  0
    0.7988   -6.9360   -3.8504 H   0  0  0  0  0  0  0  0  0  0  0  0
    1.9556   -5.6216   -3.8511 H   0  0  0  0  0  0  0  0  0  0  0  0
    1.3322   -4.6359   -1.5106 N   0  0  0  0  0  0  0  0  0  0  0  0
    0.8124   -3.9290   -0.3698 C   0  0  2  0  0  0  0  0  0  0  0  0
    1.0666   -2.4424   -0.5818 C   0  0  0  0  0  0  0  0  0  0  0  0
    2.0598   -2.0076   -1.1610 O   0  0  0  0  0  0  0  0  0  0  0  0
    1.4560   -4.4118    0.9207 C   0  0  0  0  0  0  0  0  0  0  0  0
    2.1528   -4.2578   -1.9805 H   0  0  0  0  0  0  0  0  0  0  0  0
   -0.2667   -4.1160   -0.3467 H   0  0  0  0  0  0  0  0  0  0  0  0
    2.5374   -4.2329    0.9160 H   0  0  0  0  0  0  0  0  0  0  0  0
    1.0390   -3.8932    1.7903 H   0  0  0  0  0  0  0  0  0  0  0  0
    1.2976   -5.4871    1.0566 H   0  0  0  0  0  0  0  0  0  0  0  0
    0.0755   -1.6529   -0.0105 N   0  0  0  0  0  0  0  0  0  0  0  0
    0.1113   -0.2132   -0.0391 C   0  0  2  0  0  0  0  0  0  0  0  0
   -0.6008    0.2879    1.2128 C   0  0  0  0  0  0  0  0  0  0  0  0
   -0.0014    0.7116    2.1989 O   0  0  0  0  0  0  0  0  0  0  0  0
   -0.5540    0.3545   -1.2970 C   0  0  0  0  0  0  0  0  0  0  0  0
    0.2251    0.0157   -2.5735 C   0  0  0  0  0  0  0  0  0  0  0  0
   -0.4416    0.5832   -3.8223 C   0  0  0  0  0  0  0  0  0  0  0  0
    0.2911    0.2385   -5.0386 N   0  3  0  0  0  0  0  0  0  0  0  0
   -0.1613    0.5954   -6.3102 C   0  0  0  0  0  0  0  0  0  0  0  0
    0.5884    0.2332   -7.4243 N   0  0  0  0  0  0  0  0  0  0  0  0
   -1.3440    1.3053   -6.4903 N   0  0  0  0  0  0  0  0  0  0  0  0
   -0.7323   -2.1024    0.4149 H   0  0  0  0  0  0  0  0  0  0  0  0
    1.1665    0.0792    0.0086 H   0  0  0  0  0  0  0  0  0  0  0  0
   -0.6414    1.4437   -1.2039 H   0  0  0  0  0  0  0  0  0  0  0  0
   -1.5783   -0.0320   -1.3822 H   0  0  0  0  0  0  0  0  0  0  0  0
    1.2471    0.4055   -2.4947 H   0  0  0  0  0  0  0  0  0  0  0  0
    0.2968   -1.0725   -2.6829 H   0  0  0  0  0  0  0  0  0  0  0  0
   -1.4496    0.1690   -3.9220 H   0  0  0  0  0  0  0  0  0  0  0  0
   -0.5131    1.6737   -3.7661 H   0  0  0  0  0  0  0  0  0  0  0  0
    1.1645   -0.2809   -4.9697 H   0  0  0  0  0  0  0  0  0  0  0  0
    0.2869    0.4779   -8.3645 H   0  0  0  0  0  0  0  0  0  0  0  0
    1.4577   -0.2861   -7.3284 H   0  0  0  0  0  0  0  0  0  0  0  0
   -1.6779    1.5677   -7.4141 H   0  0  0  0  0  0  0  0  0  0  0  0
   -1.9130    1.5833   -5.6942 H   0  0  0  0  0  0  0  0  0  0  0  0
   -1.9794    0.1598    1.1162 N   0  0  0  0  0  0  0  0  0  0  0  0
   -2.8794    0.5185    2.1880 C   0  0  2  0  0  0  0  0  0  0  0  0
   -4.0799   -0.4167    2.1269 C   0  0  0  0  0  0  0  0  0  0  0  0
   -4.5386   -0.8513    1.0725 O   0  0  0  0  0  0  0  0  0  0  0  0
   -3.3162    1.9713    2.0809 C   0  0  0  0  0  0  0  0  0  0  0  0
   -2.3895   -0.1710    0.2478 H   0  0  0  0  0  0  0  0  0  0  0  0
   -2.3361    0.3555    3.1251 H   0  0  0  0  0  0  0  0  0  0  0  0
   -3.8623    2.1538    1.1482 H   0  0  0  0  0  0  0  0  0  0  0  0
   -3.9755    2.2495    2.9098 H   0  0  0  0  0  0  0  0  0  0  0  0
   -2.4494    2.6409    2.0951 H   0  0  0  0  0  0  0  0  0  0  0  0
   -4.6052   -0.6745    3.3854 N   0  0  0  0  0  0  0  0  0  0  0  0
   -5.7729   -1.4998    3.5887 C   0  0  0  0  0  0  0  0  0  0  0  0
   -4.1369   -0.3050    4.2076 H   0  0  0  0  0  0  0  0  0  0  0  0
   -6.6720   -0.8664    3.6045 H   0  0  0  0  0  0  0  0  0  0  0  0
   -5.8530   -2.2297    2.7696 H   0  0  0  0  0  0  0  0  0  0  0  0
   -5.6829   -2.0325    4.5469 H   0  0  0  0  0  0  0  0  0  0  0  0
  1  3  1  0  0  0  0
  1  7  1  0  0  0  0
  1  2  2  0  0  0  0
 42 43  1  0  0  0  0
 43 51  1  0  0  0  0
 43 44  2  0  0  0  0
  8  9  1  0  0  0  0
  9 17  1  0  0  0  0
  9 10  2  0  0  0  0
 18 19  1  0  0  0  0
 19 41  1  0  0  0  0
 19 20  2  0  0  0  0
 25 26  1  0  0  0  0
 25 27  1  0  0  0  0
 24 25  2  0  0  0  0
 42 45  1  0  0  0  0
  8 11  1  0  0  0  0
 51 52  1  0  0  0  0
 21 22  1  0  0  0  0
 22 23  1  0  0  0  0
 18 21  1  0  0  0  0
 23 24  1  0  0  0  0
 41 42  1  0  0  0  0
  7  8  1  0  0  0  0
 17 18  1  0  0  0  0
  3  4  1  0  0  0  0
  3  5  1  0  0  0  0
  3  6  1  0  0  0  0
 45 48  1  0  0  0  0
 45 49  1  0  0  0  0
 45 50  1  0  0  0  0
 11 14  1  0  0  0  0
 11 15  1  0  0  0  0
 11 16  1  0  0  0  0
 52 54  1  0  0  0  0
 52 55  1  0  0  0  0
 52 56  1  0  0  0  0
 22 32  1  0  0  0  0
 22 33  1  0  0  0  0
 21 30  1  0  0  0  0
 21 31  1  0  0  0  0
 23 34  1  0  0  0  0
 23 35  1  0  0  0  0
 42 47  1  0  0  0  0
  8 13  1  0  0  0  0
 18 29  1  0  0  0  0
 26 37  1  0  0  0  0
 26 38  1  0  0  0  0
 27 39  1  0  0  0  0
 27 40  1  0  0  0  0
 51 53  1  0  0  0  0
  7 12  1  0  0  0  0
 41 46  1  0  0  0  0
 17 28  1  0  0  0  0
 24 36  1  0  0  0  0
M  CHG  1  24   1
M  END
$$$$

  -OEChem-05262214473D

 56 55  0     1  0  0  0  0  0999 V2000
    0.7735   -5.8042   -2.0022 C   0  0  0  0  0  0  0  0  0  0  0  0
   -0.2086   -6.3825   -1.5519 O   0  0  0  0  0  0  0  0  0  0  0  0
    1.4751   -6.3646   -3.1946 C   0  0  0  0  0  0  0  0  0  0  0  0
    2.2765   -7.0687   -2.9186 H   0  0  0  0  0  0  0  0  0  0  0  0
    0.7988   -6.9360   -3.8504 H   0  0  0  0  0  0  0  0  0  0  0  0
    1.9556   -5.6216   -3.8511 H   0  0  0  0  0  0  0  0  0  0  0  0
    1.3322   -4.6359   -1.5106 N   0  0  0  0  0  0  0  0  0  0  0  0
    0.8124   -3.9290   -0.3698 C   0  0  2  0  0  0  0  0  0  0  0  0
    1.0666   -2.4424   -0.5818 C   0  0  0  0  0  0  0  0  0  0  0  0
    2.0598   -2.0076   -1.1610 O   0  0  0  0  0  0  0  0  0  0  0  0
    1.4560   -4.4118    0.9207 C   0  0  0  0  0  0  0  0  0  0  0  0
    2.1528   -4.2578   -1.9805 H   0  0  0  0  0  0  0  0  0  0  0  0
   -0.2667   -4.1160   -0.3467 H   0  0  0  0  0  0  0  0  0  0  0  0
    2.5374   -4.2329    0.9160 H   0  0  0  0  0  0  0  0  0  0  0  0
    1.0390   -3.8932    1.7903 H   0  0  0  0  0  0  0  0  0  0  0  0
    1.2976   -5.4871    1.0566 H   0  0  0  0  0  0  0  0  0  0  0  0
    0.0755   -1.6529   -0.0105 N   0  0  0  0  0  0  0  0  0  0  0  0
    0.1113   -0.2132   -0.0391 C   0  0  2  0  0  0  0  0  0  0  0  0
   -0.6008    0.2879    1.2128 C   0  0  0  0  0  0  0  0  0  0  0  0
   -0.0386    0.9512    2.0818 O   0  0  0  0  0  0  0  0  0  0  0  0
   -0.5540    0.3545   -1.2970 C   0  0  0  0  0  0  0  0  0  0  0  0
    0.2251    0.0157   -2.5735 C   0  0  0  0  0  0  0  0  0  0  0  0
   -0.4416    0.5832   -3.8223 C   0  0  0  0  0  0  0  0  0  0  0  0
    0.2911    0.2385   -5.0386 N   0  3  0  0  0  0  0  0  0  0  0  0
   -0.1613    0.5954   -6.3102 C   0  0  0  0  0  0  0  0  0  0  0  0
    0.5884    0.2332   -7.4243 N   0  0  0  0  0  0  0  0  0  0  0  0
   -1.3440    1.3053   -6.4903 N   0  0  0  0  0  0  0  0  0  0  0  0
   -0.7323   -2.1024    0.4149 H   0  0  0  0  0  0  0  0  0  0  0  0
    1.1665    0.0792    0.0086 H   0  0  0  0  0  0  0  0  0  0  0  0
   -0.6414    1.4437   -1.2039 H   0  0  0  0  0  0  0  0  0  0  0  0
   -1.5783   -0.0320   -1.3822 H   0  0  0  0  0  0  0  0  0  0  0  0
    1.2471    0.4055   -2.4947 H   0  0  0  0  0  0  0  0  0  0  0  0
    0.2968   -1.0725   -2.6829 H   0  0  0  0  0  0  0  0  0  0  0  0
   -1.4496    0.1690   -3.9220 H   0  0  0  0  0  0  0  0  0  0  0  0
   -0.5131    1.6737   -3.7661 H   0  0  0  0  0  0  0  0  0  0  0  0
    1.1645   -0.2809   -4.9697 H   0  0  0  0  0  0  0  0  0  0  0  0
    0.2869    0.4779   -8.3645 H   0  0  0  0  0  0  0  0  0  0  0  0
    1.4577   -0.2861   -7.3284 H   0  0  0  0  0  0  0  0  0  0  0  0
   -1.6779    1.5677   -7.4141 H   0  0  0  0  0  0  0  0  0  0  0  0
   -1.9130    1.5833   -5.6942 H   0  0  0  0  0  0  0  0  0  0  0  0
   -1.9218   -0.1346    1.2668 N   0  0  0  0  0  0  0  0  0  0  0  0
   -2.7987    0.1661    2.3750 C   0  0  2  0  0  0  0  0  0  0  0  0
   -3.7680   -0.9974    2.5368 C   0  0  0  0  0  0  0  0  0  0  0  0
   -4.1958   -1.6511    1.5877 O   0  0  0  0  0  0  0  0  0  0  0  0
   -3.5478    1.4703    2.1497 C   0  0  0  0  0  0  0  0  0  0  0  0
   -2.3114   -0.6533    0.4853 H   0  0  0  0  0  0  0  0  0  0  0  0
   -2.1669    0.2426    3.2666 H   0  0  0  0  0  0  0  0  0  0  0  0
   -4.1862    1.4128    1.2606 H   0  0  0  0  0  0  0  0  0  0  0  0
   -4.1904    1.7112    3.0030 H   0  0  0  0  0  0  0  0  0  0  0  0
   -2.8489    2.3010    2.0039 H   0  0  0  0  0  0  0  0  0  0  0  0
   -4.1326   -1.1926    3.8616 N   0  0  0  0  0  0  0  0  0  0  0  0
   -5.0748   -2.2084    4.2694 C   0  0  0  0  0  0  0  0  0  0  0  0
   -3.6980   -0.6304    4.5875 H   0  0  0  0  0  0  0  0  0  0  0  0
   -6.0868   -1.7785    4.3025 H   0  0  0  0  0  0  0  0  0  0  0  0
   -5.0529   -3.0392    3.5488 H   0  0  0  0  0  0  0  0  0  0  0  0
   -4.8023   -2.5816    5.2676 H   0  0  0  0  0  0  0  0  0  0  0  0
  1  3  1  0  0  0  0
  1  7  1  0  0  0  0
  1  2  2  0  0  0  0
 42 43  1  0  0  0  0
 43 51  1  0  0  0  0
 43 44  2  0  0  0  0
  8  9  1  0  0  0  0
  9 17  1  0  0  0  0
  9 10  2  0  0  0  0
 18 19  1  0  0  0  0
 19 41  1  0  0  0  0
 19 20  2  0  0  0  0
 25 26  1  0  0  0  0
 25 27  1  0  0  0  0
 24 25  2  0  0  0  0
 42 45  1  0  0  0  0
  8 11  1  0  0  0  0
 51 52  1  0  0  0  0
 21 22  1  0  0  0  0
 22 23  1  0  0  0  0
 18 21  1  0  0  0  0
 23 24  1  0  0  0  0
 41 42  1  0  0  0  0
  7  8  1  0  0  0  0
 17 18  1  0  0  0  0
  3  4  1  0  0  0  0
  3  5  1  0  0  0  0
  3  6  1  0  0  0  0
 45 48  1  0  0  0  0
 45 49  1  0  0  0  0
 45 50  1  0  0  0  0
 11 14  1  0  0  0  0
 11 15  1  0  0  0  0
 11 16  1  0  0  0  0
 52 54  1  0  0  0  0
 52 55  1  0  0  0  0
 52 56  1  0  0  0  0
 22 32  1  0  0  0  0
 22 33  1  0  0  0  0
 21 30  1  0  0  0  0
 21 31  1  0  0  0  0
 23 34  1  0  0  0  0
 23 35  1  0  0  0  0
 42 47  1  0  0  0  0
  8 13  1  0  0  0  0
 18 29  1  0  0  0  0
 26 37  1  0  0  0  0
 26 38  1  0  0  0  0
 27 39  1  0  0  0  0
 27 40  1  0  0  0  0
 51 53  1  0  0  0  0
  7 12  1  0  0  0  0
 41 46  1  0  0  0  0
 17 28  1  0  0  0  0
 24 36  1  0  0  0  0
M  CHG  1  24   1
M  END
$$$$

  -OEChem-05262214473D

 56 55  0     1  0  0  0  0  0999 V2000
    0.7735   -5.8042   -2.0022 C   0  0  0  0  0  0  0  0  0  0  0  0
   -0.2086   -6.3825   -1.5519 O   0  0  0  0  0  0  0  0  0  0  0  0
    1.4751   -6.3646   -3.1946 C   0  0  0  0  0  0  0  0  0  0  0  0
    2.2765   -7.0687   -2.9186 H   0  0  0  0  0  0  0  0  0  0  0  0
    0.7988   -6.9360   -3.8504 H   0  0  0  0  0  0  0  0  0  0  0  0
    1.9556   -5.6216   -3.8511 H   0  0  0  0  0  0  0  0  0  0  0  0
    1.3322   -4.6359   -1.5106 N   0  0  0  0  0  0  0  0  0  0  0  0
    0.8124   -3.9290   -0.3698 C   0  0  2  0  0  0  0  0  0  0  0  0
    1.0666   -2.4424   -0.5818 C   0  0  0  0  0  0  0  0  0  0  0  0
    2.0598   -2.0076   -1.1610 O   0  0  0  0  0  0  0  0  0  0  0  0
    1.4560   -4.4118    0.9207 C   0  0  0  0  0  0  0  0  0  0  0  0
    2.1528   -4.2578   -1.9805 H   0  0  0  0  0  0  0  0  0  0  0  0
   -0.2667   -4.1160   -0.3467 H   0  0  0  0  0  0  0  0  0  0  0  0
    2.5374   -4.2329    0.9160 H   0  0  0  0  0  0  0  0  0  0  0  0
    1.0390   -3.8932    1.7903 H   0  0  0  0  0  0  0  0  0  0  0  0
    1.2976   -5.4871    1.0566 H   0  0  0  0  0  0  0  0  0  0  0  0
    0.0755   -1.6529   -0.0105 N   0  0  0  0  0  0  0  0  0  0  0  0
    0.1113   -0.2132   -0.0391 C   0  0  2  0  0  0  0  0  0  0  0  0
   -0.6008    0.2879    1.2128 C   0  0  0  0  0  0  0  0  0  0  0  0
   -0.1354    1.1605    1.9429 O   0  0  0  0  0  0  0  0  0  0  0  0
   -0.5540    0.3545   -1.2970 C   0  0  0  0  0  0  0  0  0  0  0  0
    0.2251    0.0157   -2.5735 C   0  0  0  0  0  0  0  0  0  0  0  0
   -0.4416    0.5832   -3.8223 C   0  0  0  0  0  0  0  0  0  0  0  0
    0.2911    0.2385   -5.0386 N   0  3  0  0  0  0  0  0  0  0  0  0
   -0.1613    0.5954   -6.3102 C   0  0  0  0  0  0  0  0  0  0  0  0
    0.5884    0.2332   -7.4243 N   0  0  0  0  0  0  0  0  0  0  0  0
   -1.3440    1.3053   -6.4903 N   0  0  0  0  0  0  0  0  0  0  0  0
   -0.7323   -2.1024    0.4149 H   0  0  0  0  0  0  0  0  0  0  0  0
    1.1665    0.0792    0.0086 H   0  0  0  0  0  0  0  0  0  0  0  0
   -0.6414    1.4437   -1.2039 H   0  0  0  0  0  0  0  0  0  0  0  0
   -1.5783   -0.0320   -1.3822 H   0  0  0  0  0  0  0  0  0  0  0  0
    1.2471    0.4055   -2.4947 H   0  0  0  0  0  0  0  0  0  0  0  0
    0.2968   -1.0725   -2.6829 H   0  0  0  0  0  0  0  0  0  0  0  0
   -1.4496    0.1690   -3.9220 H   0  0  0  0  0  0  0  0  0  0  0  0
   -0.5131    1.6737   -3.7661 H   0  0  0  0  0  0  0  0  0  0  0  0
    1.1645   -0.2809   -4.9697 H   0  0  0  0  0  0  0  0  0  0  0  0
    0.2869    0.4779   -8.3645 H   0  0  0  0  0  0  0  0  0  0  0  0
    1.4577   -0.2861   -7.3284 H   0  0  0  0  0  0  0  0  0  0  0  0
   -1.6779    1.5677   -7.4141 H   0  0  0  0  0  0  0  0  0  0  0  0
   -1.9130    1.5833   -5.6942 H   0  0  0  0  0  0  0  0  0  0  0  0
   -1.7907   -0.3885    1.4430 N   0  0  0  0  0  0  0  0  0  0  0  0
   -2.6300   -0.1345    2.5913 C   0  0  2  0  0  0  0  0  0  0  0  0
   -3.3084   -1.4425    2.9764 C   0  0  0  0  0  0  0  0  0  0  0  0
   -3.6509   -2.2884    2.1528 O   0  0  0  0  0  0  0  0  0  0  0  0
   -3.6592    0.9454    2.2964 C   0  0  0  0  0  0  0  0  0  0  0  0
   -2.1133   -1.0738    0.7663 H   0  0  0  0  0  0  0  0  0  0  0  0
   -1.9674    0.1865    3.4025 H   0  0  0  0  0  0  0  0  0  0  0  0
   -4.3321    0.6417    1.4862 H   0  0  0  0  0  0  0  0  0  0  0  0
   -4.2757    1.1568    3.1764 H   0  0  0  0  0  0  0  0  0  0  0  0
   -3.1703    1.8768    1.9909 H   0  0  0  0  0  0  0  0  0  0  0  0
   -3.5255   -1.5350    4.3440 N   0  0  0  0  0  0  0  0  0  0  0  0
   -4.1921   -2.6622    4.9532 C   0  0  0  0  0  0  0  0  0  0  0  0
   -3.1727   -0.8054    4.9564 H   0  0  0  0  0  0  0  0  0  0  0  0
   -5.2684   -2.4507    5.0372 H   0  0  0  0  0  0  0  0  0  0  0  0
   -4.0418   -3.5569    4.3312 H   0  0  0  0  0  0  0  0  0  0  0  0
   -3.7738   -2.8377    5.9553 H   0  0  0  0  0  0  0  0  0  0  0  0
  1  3  1  0  0  0  0
  1  7  1  0  0  0  0
  1  2  2  0  0  0  0
 42 43  1  0  0  0  0
 43 51  1  0  0  0  0
 43 44  2  0  0  0  0
  8  9  1  0  0  0  0
  9 17  1  0  0  0  0
  9 10  2  0  0  0  0
 18 19  1  0  0  0  0
 19 41  1  0  0  0  0
 19 20  2  0  0  0  0
 25 26  1  0  0  0  0
 25 27  1  0  0  0  0
 24 25  2  0  0  0  0
 42 45  1  0  0  0  0
  8 11  1  0  0  0  0
 51 52  1  0  0  0  0
 21 22  1  0  0  0  0
 22 23  1  0  0  0  0
 18 21  1  0  0  0  0
 23 24  1  0  0  0  0
 41 42  1  0  0  0  0
  7  8  1  0  0  0  0
 17 18  1  0  0  0  0
  3  4  1  0  0  0  0
  3  5  1  0  0  0  0
  3  6  1  0  0  0  0
 45 48  1  0  0  0  0
 45 49  1  0  0  0  0
 45 50  1  0  0  0  0
 11 14  1  0  0  0  0
 11 15  1  0  0  0  0
 11 16  1  0  0  0  0
 52 54  1  0  0  0  0
 52 55  1  0  0  0  0
 52 56  1  0  0  0  0
 22 32  1  0  0  0  0
 22 33  1  0  0  0  0
 21 30  1  0  0  0  0
 21 31  1  0  0  0  0
 23 34  1  0  0  0  0
 23 35  1  0  0  0  0
 42 47  1  0  0  0  0
  8 13  1  0  0  0  0
 18 29  1  0  0  0  0
 26 37  1  0  0  0  0
 26 38  1  0  0  0  0
 27 39  1  0  0  0  0
 27 40  1  0  0  0  0
 51 53  1  0  0  0  0
  7 12  1  0  0  0  0
 41 46  1  0  0  0  0
 17 28  1  0  0  0  0
 24 36  1  0  0  0  0
M  CHG  1  24   1
M  END
$$$$

  -OEChem-05262214473D

 56 55  0     1  0  0  0  0  0999 V2000
    0.7735   -5.8042   -2.0022 C   0  0  0  0  0  0  0  0  0  0  0  0
   -0.2086   -6.3825   -1.5519 O   0  0  0  0  0  0  0  0  0  0  0  0
    1.4751   -6.3646   -3.1946 C   0  0  0  0  0  0  0  0  0  0  0  0
    2.2765   -7.0687   -2.9186 H   0  0  0  0  0  0  0  0  0  0  0  0
    0.7988   -6.9360   -3.8504 H   0  0  0  0  0  0  0  0  0  0  0  0
    1.9556   -5.6216   -3.8511 H   0  0  0  0  0  0  0  0  0  0  0  0
    1.3322   -4.6359   -1.5106 N   0  0  0  0  0  0  0  0  0  0  0  0
    0.8124   -3.9290   -0.3698 C   0  0  2  0  0  0  0  0  0  0  0  0
    1.0666   -2.4424   -0.5818 C   0  0  0  0  0  0  0  0  0  0  0  0
    2.0598   -2.0076   -1.1610 O   0  0  0  0  0  0  0  0  0  0  0  0
    1.4560   -4.4118    0.9207 C   0  0  0  0  0  0  0  0  0  0  0  0
    2.1528   -4.2578   -1.9805 H   0  0  0  0  0  0  0  0  0  0  0  0
   -0.2667   -4.1160   -0.3467 H   0  0  0  0  0  0  0  0  0  0  0  0
    2.5374   -4.2329    0.9160 H   0  0  0  0  0  0  0  0  0  0  0  0
    1.0390   -3.8932    1.7903 H   0  0  0  0  0  0  0  0  0  0  0  0
    1.2976   -5.4871    1.0566 H   0  0  0  0  0  0  0  0  0  0  0  0
    0.0755   -1.6529   -0.0105 N   0  0  0  0  0  0  0  0  0  0  0  0
    0.1113   -0.2132   -0.0391 C   0  0  2  0  0  0  0  0  0  0  0  0
   -0.6008    0.2879    1.2128 C   0  0  0  0  0  0  0  0  0  0  0  0
   -0.2852    1.3254    1.7917 O   0  0  0  0  0  0  0  0  0  0  0  0
   -0.5540    0.3545   -1.2970 C   0  0  0  0  0  0  0  0  0  0  0  0
    0.2251    0.0157   -2.5735 C   0  0  0  0  0  0  0  0  0  0  0  0
   -0.4416    0.5832   -3.8223 C   0  0  0  0  0  0  0  0  0  0  0  0
    0.2911    0.2385   -5.0386 N   0  3  0  0  0  0  0  0  0  0  0  0
   -0.1613    0.5954   -6.3102 C   0  0  0  0  0  0  0  0  0  0  0  0
    0.5884    0.2332   -7.4243 N   0  0  0  0  0  0  0  0  0  0  0  0
   -1.3440    1.3053   -6.4903 N   0  0  0  0  0  0  0  0  0  0  0  0
   -0.7323   -2.1024    0.4149 H   0  0  0  0  0  0  0  0  0  0  0  0
    1.1665    0.0792    0.0086 H   0  0  0  0  0  0  0  0  0  0  0  0
   -0.6414    1.4437   -1.2039 H   0  0  0  0  0  0  0  0  0  0  0  0
   -1.5783   -0.0320   -1.3822 H   0  0  0  0  0  0  0  0  0  0  0  0
    1.2471    0.4055   -2.4947 H   0  0  0  0  0  0  0  0  0  0  0  0
    0.2968   -1.0725   -2.6829 H   0  0  0  0  0  0  0  0  0  0  0  0
   -1.4496    0.1690   -3.9220 H   0  0  0  0  0  0  0  0  0  0  0  0
   -0.5131    1.6737   -3.7661 H   0  0  0  0  0  0  0  0  0  0  0  0
    1.1645   -0.2809   -4.9697 H   0  0  0  0  0  0  0  0  0  0  0  0
    0.2869    0.4779   -8.3645 H   0  0  0  0  0  0  0  0  0  0  0  0
    1.4577   -0.2861   -7.3284 H   0  0  0  0  0  0  0  0  0  0  0  0
   -1.6779    1.5677   -7.4141 H   0  0  0  0  0  0  0  0  0  0  0  0
   -1.9130    1.5833   -5.6942 H   0  0  0  0  0  0  0  0  0  0  0  0
   -1.5952   -0.5846    1.6327 N   0  0  0  0  0  0  0  0  0  0  0  0
   -2.3847   -0.3629    2.8223 C   0  0  2  0  0  0  0  0  0  0  0  0
   -2.7326   -1.7217    3.4157 C   0  0  0  0  0  0  0  0  0  0  0  0
   -2.9411   -2.7200    2.7293 O   0  0  0  0  0  0  0  0  0  0  0  0
   -3.6429    0.4326    2.5111 C   0  0  0  0  0  0  0  0  0  0  0  0
   -1.8087   -1.4039    1.0717 H   0  0  0  0  0  0  0  0  0  0  0  0
   -1.7513    0.1911    3.5236 H   0  0  0  0  0  0  0  0  0  0  0  0
   -4.2901   -0.1067    1.8098 H   0  0  0  0  0  0  0  0  0  0  0  0
   -4.2256    0.6242    3.4181 H   0  0  0  0  0  0  0  0  0  0  0  0
   -3.3917    1.3972    2.0569 H   0  0  0  0  0  0  0  0  0  0  0  0
   -2.8253   -1.6785    4.7998 N   0  0  0  0  0  0  0  0  0  0  0  0
   -3.1849   -2.8303    5.5934 C   0  0  0  0  0  0  0  0  0  0  0  0
   -2.5966   -0.8183    5.2892 H   0  0  0  0  0  0  0  0  0  0  0  0
   -4.2725   -2.8374    5.7585 H   0  0  0  0  0  0  0  0  0  0  0  0
   -2.8886   -3.7476    5.0635 H   0  0  0  0  0  0  0  0  0  0  0  0
   -2.6674   -2.7835    6.5629 H   0  0  0  0  0  0  0  0  0  0  0  0
  1  3  1  0  0  0  0
  1  7  1  0  0  0  0
  1  2  2  0  0  0  0
 42 43  1  0  0  0  0
 43 51  1  0  0  0  0
 43 44  2  0  0  0  0
  8  9  1  0  0  0  0
  9 17  1  0  0  0  0
  9 10  2  0  0  0  0
 18 19  1  0  0  0  0
 19 41  1  0  0  0  0
 19 20  2  0  0  0  0
 25 26  1  0  0  0  0
 25 27  1  0  0  0  0
 24 25  2  0  0  0  0
 42 45  1  0  0  0  0
  8 11  1  0  0  0  0
 51 52  1  0  0  0  0
 21 22  1  0  0  0  0
 22 23  1  0  0  0  0
 18 21  1  0  0  0  0
 23 24  1  0  0  0  0
 41 42  1  0  0  0  0
  7  8  1  0  0  0  0
 17 18  1  0  0  0  0
  3  4  1  0  0  0  0
  3  5  1  0  0  0  0
  3  6  1  0  0  0  0
 45 48  1  0  0  0  0
 45 49  1  0  0  0  0
 45 50  1  0  0  0  0
 11 14  1  0  0  0  0
 11 15  1  0  0  0  0
 11 16  1  0  0  0  0
 52 54  1  0  0  0  0
 52 55  1  0  0  0  0
 52 56  1  0  0  0  0
 22 32  1  0  0  0  0
 22 33  1  0  0  0  0
 21 30  1  0  0  0  0
 21 31  1  0  0  0  0
 23 34  1  0  0  0  0
 23 35  1  0  0  0  0
 42 47  1  0  0  0  0
  8 13  1  0  0  0  0
 18 29  1  0  0  0  0
 26 37  1  0  0  0  0
 26 38  1  0  0  0  0
 27 39  1  0  0  0  0
 27 40  1  0  0  0  0
 51 53  1  0  0  0  0
  7 12  1  0  0  0  0
 41 46  1  0  0  0  0
 17 28  1  0  0  0  0
 24 36  1  0  0  0  0
M  CHG  1  24   1
M  END
$$$$

  -OEChem-05262214473D

 56 55  0     1  0  0  0  0  0999 V2000
    0.7735   -5.8042   -2.0022 C   0  0  0  0  0  0  0  0  0  0  0  0
   -0.2086   -6.3825   -1.5519 O   0  0  0  0  0  0  0  0  0  0  0  0
    1.4751   -6.3646   -3.1946 C   0  0  0  0  0  0  0  0  0  0  0  0
    2.2765   -7.0687   -2.9186 H   0  0  0  0  0  0  0  0  0  0  0  0
    0.7988   -6.9360   -3.8504 H   0  0  0  0  0  0  0  0  0  0  0  0
    1.9556   -5.6216   -3.8511 H   0  0  0  0  0  0  0  0  0  0  0  0
    1.3322   -4.6359   -1.5106 N   0  0  0  0  0  0  0  0  0  0  0  0
    0.8124   -3.9290   -0.3698 C   0  0  2  0  0  0  0  0  0  0  0  0
    1.0666   -2.4424   -0.5818 C   0  0  0  0  0  0  0  0  0  0  0  0
    2.0598   -2.0076   -1.1610 O   0  0  0  0  0  0  0  0  0  0  0  0
    1.4560   -4.4118    0.9207 C   0  0  0  0  0  0  0  0  0  0  0  0
    2.1528   -4.2578   -1.9805 H   0  0  0  0  0  0  0  0  0  0  0  0
   -0.2667   -4.1160   -0.3467 H   0  0  0  0  0  0  0  0  0  0  0  0
    2.5374   -4.2329    0.9160 H   0  0  0  0  0  0  0  0  0  0  0  0
    1.0390   -3.8932    1.7903 H   0  0  0  0  0  0  0  0  0  0  0  0
    1.2976   -5.4871    1.0566 H   0  0  0  0  0  0  0  0  0  0  0  0
    0.0755   -1.6529   -0.0105 N   0  0  0  0  0  0  0  0  0  0  0  0
    0.1113   -0.2132   -0.0391 C   0  0  2  0  0  0  0  0  0  0  0  0
   -0.6008    0.2879    1.2128 C   0  0  0  0  0  0  0  0  0  0  0  0
   -0.4778    1.4346    1.6385 O   0  0  0  0  0  0  0  0  0  0  0  0
   -0.5540    0.3545   -1.2970 C   0  0  0  0  0  0  0  0  0  0  0  0
    0.2251    0.0157   -2.5735 C   0  0  0  0  0  0  0  0  0  0  0  0
   -0.4416    0.5832   -3.8223 C   0  0  0  0  0  0  0  0  0  0  0  0
    0.2911    0.2385   -5.0386 N   0  3  0  0  0  0  0  0  0  0  0  0
   -0.1613    0.5954   -6.3102 C   0  0  0  0  0  0  0  0  0  0  0  0
    0.5884    0.2332   -7.4243 N   0  0  0  0  0  0  0  0  0  0  0  0
   -1.3440    1.3053   -6.4903 N   0  0  0  0  0  0  0  0  0  0  0  0
   -0.7323   -2.1024    0.4149 H   0  0  0  0  0  0  0  0  0  0  0  0
    1.1665    0.0792    0.0086 H   0  0  0  0  0  0  0  0  0  0  0  0
   -0.6414    1.4437   -1.2039 H   0  0  0  0  0  0  0  0  0  0  0  0
   -1.5783   -0.0320   -1.3822 H   0  0  0  0  0  0  0  0  0  0  0  0
    1.2471    0.4055   -2.4947 H   0  0  0  0  0  0  0  0  0  0  0  0
    0.2968   -1.0725   -2.6829 H   0  0  0  0  0  0  0  0  0  0  0  0
   -1.4496    0.1690   -3.9220 H   0  0  0  0  0  0  0  0  0  0  0  0
   -0.5131    1.6737   -3.7661 H   0  0  0  0  0  0  0  0  0  0  0  0
    1.1645   -0.2809   -4.9697 H   0  0  0  0  0  0  0  0  0  0  0  0
    0.2869    0.4779   -8.3645 H   0  0  0  0  0  0  0  0  0  0  0  0
    1.4577   -0.2861   -7.3284 H   0  0  0  0  0  0  0  0  0  0  0  0
   -1.6779    1.5677   -7.4141 H   0  0  0  0  0  0  0  0  0  0  0  0
   -1.9130    1.5833   -5.6942 H   0  0  0  0  0  0  0  0  0  0  0  0
   -1.3485   -0.7095    1.8230 N   0  0  0  0  0  0  0  0  0  0  0  0
   -2.0796   -0.5035    3.0521 C   0  0  2  0  0  0  0  0  0  0  0  0
   -2.0797   -1.8159    3.8248 C   0  0  0  0  0  0  0  0  0  0  0  0
   -2.1148   -2.9163    3.2780 O   0  0  0  0  0  0  0  0  0  0  0  0
   -3.4999   -0.0334    2.7789 C   0  0  0  0  0  0  0  0  0  0  0  0
   -1.4184   -1.6212    1.3807 H   0  0  0  0  0  0  0  0  0  0  0  0
   -1.5332    0.2562    3.6216 H   0  0  0  0  0  0  0  0  0  0  0  0
   -4.0629   -0.7817    2.2092 H   0  0  0  0  0  0  0  0  0  0  0  0
   -4.0435    0.1496    3.7117 H   0  0  0  0  0  0  0  0  0  0  0  0
   -3.4981    0.8948    2.1975 H   0  0  0  0  0  0  0  0  0  0  0  0
   -2.0797   -1.6132    5.1978 N   0  0  0  0  0  0  0  0  0  0  0  0
   -2.1219   -2.7013    6.1465 C   0  0  0  0  0  0  0  0  0  0  0  0
   -2.0091   -0.6681    5.5633 H   0  0  0  0  0  0  0  0  0  0  0  0
   -3.1670   -2.9121    6.4173 H   0  0  0  0  0  0  0  0  0  0  0  0
   -1.6719   -3.5982    5.6959 H   0  0  0  0  0  0  0  0  0  0  0  0
   -1.5585   -2.4226    7.0493 H   0  0  0  0  0  0  0  0  0  0  0  0
  1  3  1  0  0  0  0
  1  7  1  0  0  0  0
  1  2  2  0  0  0  0
 42 43  1  0  0  0  0
 43 51  1  0  0  0  0
 43 44  2  0  0  0  0
  8  9  1  0  0  0  0
  9 17  1  0  0  0  0
  9 10  2  0  0  0  0
 18 19  1  0  0  0  0
 19 41  1  0  0  0  0
 19 20  2  0  0  0  0
 25 26  1  0  0  0  0
 25 27  1  0  0  0  0
 24 25  2  0  0  0  0
 42 45  1  0  0  0  0
  8 11  1  0  0  0  0
 51 52  1  0  0  0  0
 21 22  1  0  0  0  0
 22 23  1  0  0  0  0
 18 21  1  0  0  0  0
 23 24  1  0  0  0  0
 41 42  1  0  0  0  0
  7  8  1  0  0  0  0
 17 18  1  0  0  0  0
  3  4  1  0  0  0  0
  3  5  1  0  0  0  0
  3  6  1  0  0  0  0
 45 48  1  0  0  0  0
 45 49  1  0  0  0  0
 45 50  1  0  0  0  0
 11 14  1  0  0  0  0
 11 15  1  0  0  0  0
 11 16  1  0  0  0  0
 52 54  1  0  0  0  0
 52 55  1  0  0  0  0
 52 56  1  0  0  0  0
 22 32  1  0  0  0  0
 22 33  1  0  0  0  0
 21 30  1  0  0  0  0
 21 31  1  0  0  0  0
 23 34  1  0  0  0  0
 23 35  1  0  0  0  0
 42 47  1  0  0  0  0
  8 13  1  0  0  0  0
 18 29  1  0  0  0  0
 26 37  1  0  0  0  0
 26 38  1  0  0  0  0
 27 39  1  0  0  0  0
 27 40  1  0  0  0  0
 51 53  1  0  0  0  0
  7 12  1  0  0  0  0
 41 46  1  0  0  0  0
 17 28  1  0  0  0  0
 24 36  1  0  0  0  0
M  CHG  1  24   1
M  END
$$$$

  -OEChem-05262214473D

 56 55  0     1  0  0  0  0  0999 V2000
    0.7735   -5.8042   -2.0022 C   0  0  0  0  0  0  0  0  0  0  0  0
   -0.2086   -6.3825   -1.5519 O   0  0  0  0  0  0  0  0  0  0  0  0
    1.4751   -6.3646   -3.1946 C   0  0  0  0  0  0  0  0  0  0  0  0
    2.2765   -7.0687   -2.9186 H   0  0  0  0  0  0  0  0  0  0  0  0
    0.7988   -6.9360   -3.8504 H   0  0  0  0  0  0  0  0  0  0  0  0
    1.9556   -5.6216   -3.8511 H   0  0  0  0  0  0  0  0  0  0  0  0
    1.3322   -4.6359   -1.5106 N   0  0  0  0  0  0  0  0  0  0  0  0
    0.8124   -3.9290   -0.3698 C   0  0  2  0  0  0  0  0  0  0  0  0
    1.0666   -2.4424   -0.5818 C   0  0  0  0  0  0  0  0  0  0  0  0
    2.0598   -2.0076   -1.1610 O   0  0  0  0  0  0  0  0  0  0  0  0
    1.4560   -4.4118    0.9207 C   0  0  0  0  0  0  0  0  0  0  0  0
    2.1528   -4.2578   -1.9805 H   0  0  0  0  0  0  0  0  0  0  0  0
   -0.2667   -4.1160   -0.3467 H   0  0  0  0  0  0  0  0  0  0  0  0
    2.5374   -4.2329    0.9160 H   0  0  0  0  0  0  0  0  0  0  0  0
    1.0390   -3.8932    1.7903 H   0  0  0  0  0  0  0  0  0  0  0  0
    1.2976   -5.4871    1.0566 H   0  0  0  0  0  0  0  0  0  0  0  0
    0.0755   -1.6529   -0.0105 N   0  0  0  0  0  0  0  0  0  0  0  0
    0.1113   -0.2132   -0.0391 C   0  0  2  0  0  0  0  0  0  0  0  0
   -0.6008    0.2879    1.2128 C   0  0  0  0  0  0  0  0  0  0  0  0
   -0.7001    1.4806    1.4936 O   0  0  0  0  0  0  0  0  0  0  0  0
   -0.5540    0.3545   -1.2970 C   0  0  0  0  0  0  0  0  0  0  0  0
    0.2251    0.0157   -2.5735 C   0  0  0  0  0  0  0  0  0  0  0  0
   -0.4416    0.5832   -3.8223 C   0  0  0  0  0  0  0  0  0  0  0  0
    0.2911    0.2385   -5.0386 N   0  3  0  0  0  0  0  0  0  0  0  0
   -0.1613    0.5954   -6.3102 C   0  0  0  0  0  0  0  0  0  0  0  0
    0.5884    0.2332   -7.4243 N   0  0  0  0  0  0  0  0  0  0  0  0
   -1.3440    1.3053   -6.4903 N   0  0  0  0  0  0  0  0  0  0  0  0
   -0.7323   -2.1024    0.4149 H   0  0  0  0  0  0  0  0  0  0  0  0
    1.1665    0.0792    0.0086 H   0  0  0  0  0  0  0  0  0  0  0  0
   -0.6414    1.4437   -1.2039 H   0  0  0  0  0  0  0  0  0  0  0  0
   -1.5783   -0.0320   -1.3822 H   0  0  0  0  0  0  0  0  0  0  0  0
    1.2471    0.4055   -2.4947 H   0  0  0  0  0  0  0  0  0  0  0  0
    0.2968   -1.0725   -2.6829 H   0  0  0  0  0  0  0  0  0  0  0  0
   -1.4496    0.1690   -3.9220 H   0  0  0  0  0  0  0  0  0  0  0  0
   -0.5131    1.6737   -3.7661 H   0  0  0  0  0  0  0  0  0  0  0  0
    1.1645   -0.2809   -4.9697 H   0  0  0  0  0  0  0  0  0  0  0  0
    0.2869    0.4779   -8.3645 H   0  0  0  0  0  0  0  0  0  0  0  0
    1.4577   -0.2861   -7.3284 H   0  0  0  0  0  0  0  0  0  0  0  0
   -1.6779    1.5677   -7.4141 H   0  0  0  0  0  0  0  0  0  0  0  0
   -1.9130    1.5833   -5.6942 H   0  0  0  0  0  0  0  0  0  0  0  0
   -1.0675   -0.7548    2.0010 N   0  0  0  0  0  0  0  0  0  0  0  0
   -1.7355   -0.5467    3.2651 C   0  0  2  0  0  0  0  0  0  0  0  0
   -1.3943   -1.7188    4.1758 C   0  0  0  0  0  0  0  0  0  0  0  0
   -1.2282   -2.8641    3.7614 O   0  0  0  0  0  0  0  0  0  0  0  0
   -3.2399   -0.4208    3.0819 C   0  0  0  0  0  0  0  0  0  0  0  0
   -0.9689   -1.7108    1.6723 H   0  0  0  0  0  0  0  0  0  0  0  0
   -1.3281    0.3772    3.6898 H   0  0  0  0  0  0  0  0  0  0  0  0
   -3.6661   -1.3371    2.6573 H   0  0  0  0  0  0  0  0  0  0  0  0
   -3.7418   -0.2347    4.0371 H   0  0  0  0  0  0  0  0  0  0  0  0
   -3.4821    0.4040    2.4030 H   0  0  0  0  0  0  0  0  0  0  0  0
   -1.3395   -1.3436    5.5109 N   0  0  0  0  0  0  0  0  0  0  0  0
   -1.0754   -2.2840    6.5748 C   0  0  0  0  0  0  0  0  0  0  0  0
   -1.4503   -0.3651    5.7599 H   0  0  0  0  0  0  0  0  0  0  0  0
   -2.0273   -2.6698    6.9686 H   0  0  0  0  0  0  0  0  0  0  0  0
   -0.4746   -3.1190    6.1851 H   0  0  0  0  0  0  0  0  0  0  0  0
   -0.5227   -1.7796    7.3811 H   0  0  0  0  0  0  0  0  0  0  0  0
  1  3  1  0  0  0  0
  1  7  1  0  0  0  0
  1  2  2  0  0  0  0
 42 43  1  0  0  0  0
 43 51  1  0  0  0  0
 43 44  2  0  0  0  0
  8  9  1  0  0  0  0
  9 17  1  0  0  0  0
  9 10  2  0  0  0  0
 18 19  1  0  0  0  0
 19 41  1  0  0  0  0
 19 20  2  0  0  0  0
 25 26  1  0  0  0  0
 25 27  1  0  0  0  0
 24 25  2  0  0  0  0
 42 45  1  0  0  0  0
  8 11  1  0  0  0  0
 51 52  1  0  0  0  0
 21 22  1  0  0  0  0
 22 23  1  0  0  0  0
 18 21  1  0  0  0  0
 23 24  1  0  0  0  0
 41 42  1  0  0  0  0
  7  8  1  0  0  0  0
 17 18  1  0  0  0  0
  3  4  1  0  0  0  0
  3  5  1  0  0  0  0
  3  6  1  0  0  0  0
 45 48  1  0  0  0  0
 45 49  1  0  0  0  0
 45 50  1  0  0  0  0
 11 14  1  0  0  0  0
 11 15  1  0  0  0  0
 11 16  1  0  0  0  0
 52 54  1  0  0  0  0
 52 55  1  0  0  0  0
 52 56  1  0  0  0  0
 22 32  1  0  0  0  0
 22 33  1  0  0  0  0
 21 30  1  0  0  0  0
 21 31  1  0  0  0  0
 23 34  1  0  0  0  0
 23 35  1  0  0  0  0
 42 47  1  0  0  0  0
  8 13  1  0  0  0  0
 18 29  1  0  0  0  0
 26 37  1  0  0  0  0
 26 38  1  0  0  0  0
 27 39  1  0  0  0  0
 27 40  1  0  0  0  0
 51 53  1  0  0  0  0
  7 12  1  0  0  0  0
 41 46  1  0  0  0  0
 17 28  1  0  0  0  0
 24 36  1  0  0  0  0
M  CHG  1  24   1
M  END
$$$$

  -OEChem-05262214473D

 56 55  0     1  0  0  0  0  0999 V2000
    0.7735   -5.8042   -2.0022 C   0  0  0  0  0  0  0  0  0  0  0  0
   -0.2086   -6.3825   -1.5519 O   0  0  0  0  0  0  0  0  0  0  0  0
    1.4751   -6.3646   -3.1946 C   0  0  0  0  0  0  0  0  0  0  0  0
    2.2765   -7.0687   -2.9186 H   0  0  0  0  0  0  0  0  0  0  0  0
    0.7988   -6.9360   -3.8504 H   0  0  0  0  0  0  0  0  0  0  0  0
    1.9556   -5.6216   -3.8511 H   0  0  0  0  0  0  0  0  0  0  0  0
    1.3322   -4.6359   -1.5106 N   0  0  0  0  0  0  0  0  0  0  0  0
    0.8124   -3.9290   -0.3698 C   0  0  2  0  0  0  0  0  0  0  0  0
    1.0666   -2.4424   -0.5818 C   0  0  0  0  0  0  0  0  0  0  0  0
    2.0598   -2.0076   -1.1610 O   0  0  0  0  0  0  0  0  0  0  0  0
    1.4560   -4.4118    0.9207 C   0  0  0  0  0  0  0  0  0  0  0  0
    2.1528   -4.2578   -1.9805 H   0  0  0  0  0  0  0  0  0  0  0  0
   -0.2667   -4.1160   -0.3467 H   0  0  0  0  0  0  0  0  0  0  0  0
    2.5374   -4.2329    0.9160 H   0  0  0  0  0  0  0  0  0  0  0  0
    1.0390   -3.8932    1.7903 H   0  0  0  0  0  0  0  0  0  0  0  0
    1.2976   -5.4871    1.0566 H   0  0  0  0  0  0  0  0  0  0  0  0
    0.0755   -1.6529   -0.0105 N   0  0  0  0  0  0  0  0  0  0  0  0
    0.1113   -0.2132   -0.0391 C   0  0  2  0  0  0  0  0  0  0  0  0
   -0.6008    0.2879    1.2128 C   0  0  0  0  0  0  0  0  0  0  0  0
   -0.9369    1.4603    1.3671 O   0  0  0  0  0  0  0  0  0  0  0  0
   -0.5540    0.3545   -1.2970 C   0  0  0  0  0  0  0  0  0  0  0  0
    0.2251    0.0157   -2.5735 C   0  0  0  0  0  0  0  0  0  0  0  0
   -0.4416    0.5832   -3.8223 C   0  0  0  0  0  0  0  0  0  0  0  0
    0.2911    0.2385   -5.0386 N   0  3  0  0  0  0  0  0  0  0  0  0
   -0.1613    0.5954   -6.3102 C   0  0  0  0  0  0  0  0  0  0  0  0
    0.5884    0.2332   -7.4243 N   0  0  0  0  0  0  0  0  0  0  0  0
   -1.3440    1.3053   -6.4903 N   0  0  0  0  0  0  0  0  0  0  0  0
   -0.7323   -2.1024    0.4149 H   0  0  0  0  0  0  0  0  0  0  0  0
    1.1665    0.0792    0.0086 H   0  0  0  0  0  0  0  0  0  0  0  0
   -0.6414    1.4437   -1.2039 H   0  0  0  0  0  0  0  0  0  0  0  0
   -1.5783   -0.0320   -1.3822 H   0  0  0  0  0  0  0  0  0  0  0  0
    1.2471    0.4055   -2.4947 H   0  0  0  0  0  0  0  0  0  0  0  0
    0.2968   -1.0725   -2.6829 H   0  0  0  0  0  0  0  0  0  0  0  0
   -1.4496    0.1690   -3.9220 H   0  0  0  0  0  0  0  0  0  0  0  0
   -0.5131    1.6737   -3.7661 H   0  0  0  0  0  0  0  0  0  0  0  0
    1.1645   -0.2809   -4.9697 H   0  0  0  0  0  0  0  0  0  0  0  0
    0.2869    0.4779   -8.3645 H   0  0  0  0  0  0  0  0  0  0  0  0
    1.4577   -0.2861   -7.3284 H   0  0  0  0  0  0  0  0  0  0  0  0
   -1.6779    1.5677   -7.4141 H   0  0  0  0  0  0  0  0  0  0  0  0
   -1.9130    1.5833   -5.6942 H   0  0  0  0  0  0  0  0  0  0  0  0
   -0.7714   -0.7173    2.1545 N   0  0  0  0  0  0  0  0  0  0  0  0
   -1.3758   -0.4896    3.4469 C   0  0  2  0  0  0  0  0  0  0  0  0
   -0.7230   -1.4369    4.4449 C   0  0  0  0  0  0  0  0  0  0  0  0
   -0.3418   -2.5668    4.1466 O   0  0  0  0  0  0  0  0  0  0  0  0
   -2.8807   -0.7031    3.3992 C   0  0  0  0  0  0  0  0  0  0  0  0
   -0.4909   -1.6665    1.9265 H   0  0  0  0  0  0  0  0  0  0  0  0
   -1.1498    0.5459    3.7237 H   0  0  0  0  0  0  0  0  0  0  0  0
   -3.1266   -1.7351    3.1234 H   0  0  0  0  0  0  0  0  0  0  0  0
   -3.3410   -0.5024    4.3723 H   0  0  0  0  0  0  0  0  0  0  0  0
   -3.3450   -0.0418    2.6596 H   0  0  0  0  0  0  0  0  0  0  0  0
   -0.6553   -0.8881    5.7178 N   0  0  0  0  0  0  0  0  0  0  0  0
   -0.1168   -1.6068    6.8490 C   0  0  0  0  0  0  0  0  0  0  0  0
   -0.9581    0.0701    5.8657 H   0  0  0  0  0  0  0  0  0  0  0  0
   -0.9310   -2.1270    7.3749 H   0  0  0  0  0  0  0  0  0  0  0  0
    0.6217   -2.3426    6.4980 H   0  0  0  0  0  0  0  0  0  0  0  0
    0.3693   -0.8983    7.5357 H   0  0  0  0  0  0  0  0  0  0  0  0
  1  3  1  0  0  0  0
  1  7  1  0  0  0  0
  1  2  2  0  0  0  0
 42 43  1  0  0  0  0
 43 51  1  0  0  0  0
 43 44  2  0  0  0  0
  8  9  1  0  0  0  0
  9 17  1  0  0  0  0
  9 10  2  0  0  0  0
 18 19  1  0  0  0  0
 19 41  1  0  0  0  0
 19 20  2  0  0  0  0
 25 26  1  0  0  0  0
 25 27  1  0  0  0  0
 24 25  2  0  0  0  0
 42 45  1  0  0  0  0
  8 11  1  0  0  0  0
 51 52  1  0  0  0  0
 21 22  1  0  0  0  0
 22 23  1  0  0  0  0
 18 21  1  0  0  0  0
 23 24  1  0  0  0  0
 41 42  1  0  0  0  0
  7  8  1  0  0  0  0
 17 18  1  0  0  0  0
  3  4  1  0  0  0  0
  3  5  1  0  0  0  0
  3  6  1  0  0  0  0
 45 48  1  0  0  0  0
 45 49  1  0  0  0  0
 45 50  1  0  0  0  0
 11 14  1  0  0  0  0
 11 15  1  0  0  0  0
 11 16  1  0  0  0  0
 52 54  1  0  0  0  0
 52 55  1  0  0  0  0
 52 56  1  0  0  0  0
 22 32  1  0  0  0  0
 22 33  1  0  0  0  0
 21 30  1  0  0  0  0
 21 31  1  0  0  0  0
 23 34  1  0  0  0  0
 23 35  1  0  0  0  0
 42 47  1  0  0  0  0
  8 13  1  0  0  0  0
 18 29  1  0  0  0  0
 26 37  1  0  0  0  0
 26 38  1  0  0  0  0
 27 39  1  0  0  0  0
 27 40  1  0  0  0  0
 51 53  1  0  0  0  0
  7 12  1  0  0  0  0
 41 46  1  0  0  0  0
 17 28  1  0  0  0  0
 24 36  1  0  0  0  0
M  CHG  1  24   1
M  END
$$$$

  -OEChem-05262214473D

 56 55  0     1  0  0  0  0  0999 V2000
    0.7735   -5.8042   -2.0022 C   0  0  0  0  0  0  0  0  0  0  0  0
   -0.2086   -6.3825   -1.5519 O   0  0  0  0  0  0  0  0  0  0  0  0
    1.4751   -6.3646   -3.1946 C   0  0  0  0  0  0  0  0  0  0  0  0
    2.2765   -7.0687   -2.9186 H   0  0  0  0  0  0  0  0  0  0  0  0
    0.7988   -6.9360   -3.8504 H   0  0  0  0  0  0  0  0  0  0  0  0
    1.9556   -5.6216   -3.8511 H   0  0  0  0  0  0  0  0  0  0  0  0
    1.3322   -4.6359   -1.5106 N   0  0  0  0  0  0  0  0  0  0  0  0
    0.8124   -3.9290   -0.3698 C   0  0  2  0  0  0  0  0  0  0  0  0
    1.0666   -2.4424   -0.5818 C   0  0  0  0  0  0  0  0  0  0  0  0
    2.0598   -2.0076   -1.1610 O   0  0  0  0  0  0  0  0  0  0  0  0
    1.4560   -4.4118    0.9207 C   0  0  0  0  0  0  0  0  0  0  0  0
    2.1528   -4.2578   -1.9805 H   0  0  0  0  0  0  0  0  0  0  0  0
   -0.2667   -4.1160   -0.3467 H   0  0  0  0  0  0  0  0  0  0  0  0
    2.5374   -4.2329    0.9160 H   0  0  0  0  0  0  0  0  0  0  0  0
    1.0390   -3.8932    1.7903 H   0  0  0  0  0  0  0  0  0  0  0  0
    1.2976   -5.4871    1.0566 H   0  0  0  0  0  0  0  0  0  0  0  0
    0.0755   -1.6529   -0.0105 N   0  0  0  0  0  0  0  0  0  0  0  0
    0.1113   -0.2132   -0.0391 C   0  0  2  0  0  0  0  0  0  0  0  0
   -0.6008    0.2879    1.2128 C   0  0  0  0  0  0  0  0  0  0  0  0
   -1.1721    1.3750    1.2674 O   0  0  0  0  0  0  0  0  0  0  0  0
   -0.5540    0.3545   -1.2970 C   0  0  0  0  0  0  0  0  0  0  0  0
    0.2251    0.0157   -2.5735 C   0  0  0  0  0  0  0  0  0  0  0  0
   -0.4416    0.5832   -3.8223 C   0  0  0  0  0  0  0  0  0  0  0  0
    0.2911    0.2385   -5.0386 N   0  3  0  0  0  0  0  0  0  0  0  0
   -0.1613    0.5954   -6.3102 C   0  0  0  0  0  0  0  0  0  0  0  0
    0.5884    0.2332   -7.4243 N   0  0  0  0  0  0  0  0  0  0  0  0
   -1.3440    1.3053   -6.4903 N   0  0  0  0  0  0  0  0  0  0  0  0
   -0.7323   -2.1024    0.4149 H   0  0  0  0  0  0  0  0  0  0  0  0
    1.1665    0.0792    0.0086 H   0  0  0  0  0  0  0  0  0  0  0  0
   -0.6414    1.4437   -1.2039 H   0  0  0  0  0  0  0  0  0  0  0  0
   -1.5783   -0.0320   -1.3822 H   0  0  0  0  0  0  0  0  0  0  0  0
    1.2471    0.4055   -2.4947 H   0  0  0  0  0  0  0  0  0  0  0  0
    0.2968   -1.0725   -2.6829 H   0  0  0  0  0  0  0  0  0  0  0  0
   -1.4496    0.1690   -3.9220 H   0  0  0  0  0  0  0  0  0  0  0  0
   -0.5131    1.6737   -3.7661 H   0  0  0  0  0  0  0  0  0  0  0  0
    1.1645   -0.2809   -4.9697 H   0  0  0  0  0  0  0  0  0  0  0  0
    0.2869    0.4779   -8.3645 H   0  0  0  0  0  0  0  0  0  0  0  0
    1.4577   -0.2861   -7.3284 H   0  0  0  0  0  0  0  0  0  0  0  0
   -1.6779    1.5677   -7.4141 H   0  0  0  0  0  0  0  0  0  0  0  0
   -1.9130    1.5833   -5.6942 H   0  0  0  0  0  0  0  0  0  0  0  0
   -0.4802   -0.5996    2.2730 N   0  0  0  0  0  0  0  0  0  0  0  0
   -1.0251   -0.3360    3.5849 C   0  0  2  0  0  0  0  0  0  0  0  0
   -0.1115   -0.9894    4.6135 C   0  0  0  0  0  0  0  0  0  0  0  0
    0.4840   -2.0448    4.4074 O   0  0  0  0  0  0  0  0  0  0  0  0
   -2.4469   -0.8611    3.7093 C   0  0  0  0  0  0  0  0  0  0  0  0
   -0.0169   -1.4915    2.1260 H   0  0  0  0  0  0  0  0  0  0  0  0
   -1.0106    0.7509    3.7208 H   0  0  0  0  0  0  0  0  0  0  0  0
   -2.4814   -1.9485    3.5760 H   0  0  0  0  0  0  0  0  0  0  0  0
   -2.8685   -0.6354    4.6943 H   0  0  0  0  0  0  0  0  0  0  0  0
   -3.0959   -0.4124    2.9495 H   0  0  0  0  0  0  0  0  0  0  0  0
   -0.0735   -0.2777    5.8044 N   0  0  0  0  0  0  0  0  0  0  0  0
    0.6885   -0.7159    6.9505 C   0  0  0  0  0  0  0  0  0  0  0  0
   -0.5662    0.6078    5.8734 H   0  0  0  0  0  0  0  0  0  0  0  0
    0.0471   -1.3206    7.6085 H   0  0  0  0  0  0  0  0  0  0  0  0
    1.5423   -1.3219    6.6131 H   0  0  0  0  0  0  0  0  0  0  0  0
    1.0569    0.1611    7.5028 H   0  0  0  0  0  0  0  0  0  0  0  0
  1  3  1  0  0  0  0
  1  7  1  0  0  0  0
  1  2  2  0  0  0  0
 42 43  1  0  0  0  0
 43 51  1  0  0  0  0
 43 44  2  0  0  0  0
  8  9  1  0  0  0  0
  9 17  1  0  0  0  0
  9 10  2  0  0  0  0
 18 19  1  0  0  0  0
 19 41  1  0  0  0  0
 19 20  2  0  0  0  0
 25 26  1  0  0  0  0
 25 27  1  0  0  0  0
 24 25  2  0  0  0  0
 42 45  1  0  0  0  0
  8 11  1  0  0  0  0
 51 52  1  0  0  0  0
 21 22  1  0  0  0  0
 22 23  1  0  0  0  0
 18 21  1  0  0  0  0
 23 24  1  0  0  0  0
 41 42  1  0  0  0  0
  7  8  1  0  0  0  0
 17 18  1  0  0  0  0
  3  4  1  0  0  0  0
  3  5  1  0  0  0  0
  3  6  1  0  0  0  0
 45 48  1  0  0  0  0
 45 49  1  0  0  0  0
 45 50  1  0  0  0  0
 11 14  1  0  0  0  0
 11 15  1  0  0  0  0
 11 16  1  0  0  0  0
 52 54  1  0  0  0  0
 52 55  1  0  0  0  0
 52 56  1  0  0  0  0
 22 32  1  0  0  0  0
 22 33  1  0  0  0  0
 21 30  1  0  0  0  0
 21 31  1  0  0  0  0
 23 34  1  0  0  0  0
 23 35  1  0  0  0  0
 42 47  1  0  0  0  0
  8 13  1  0  0  0  0
 18 29  1  0  0  0  0
 26 37  1  0  0  0  0
 26 38  1  0  0  0  0
 27 39  1  0  0  0  0
 27 40  1  0  0  0  0
 51 53  1  0  0  0  0
  7 12  1  0  0  0  0
 41 46  1  0  0  0  0
 17 28  1  0  0  0  0
 24 36  1  0  0  0  0
M  CHG  1  24   1
M  END
$$$$

  -OEChem-05262214473D

 56 55  0     1  0  0  0  0  0999 V2000
    0.7735   -5.8042   -2.0022 C   0  0  0  0  0  0  0  0  0  0  0  0
   -0.2086   -6.3825   -1.5519 O   0  0  0  0  0  0  0  0  0  0  0  0
    1.4751   -6.3646   -3.1946 C   0  0  0  0  0  0  0  0  0  0  0  0
    2.2765   -7.0687   -2.9186 H   0  0  0  0  0  0  0  0  0  0  0  0
    0.7988   -6.9360   -3.8504 H   0  0  0  0  0  0  0  0  0  0  0  0
    1.9556   -5.6216   -3.8511 H   0  0  0  0  0  0  0  0  0  0  0  0
    1.3322   -4.6359   -1.5106 N   0  0  0  0  0  0  0  0  0  0  0  0
    0.8124   -3.9290   -0.3698 C   0  0  2  0  0  0  0  0  0  0  0  0
    1.0666   -2.4424   -0.5818 C   0  0  0  0  0  0  0  0  0  0  0  0
    2.0598   -2.0076   -1.1610 O   0  0  0  0  0  0  0  0  0  0  0  0
    1.4560   -4.4118    0.9207 C   0  0  0  0  0  0  0  0  0  0  0  0
    2.1528   -4.2578   -1.9805 H   0  0  0  0  0  0  0  0  0  0  0  0
   -0.2667   -4.1160   -0.3467 H   0  0  0  0  0  0  0  0  0  0  0  0
    2.5374   -4.2329    0.9160 H   0  0  0  0  0  0  0  0  0  0  0  0
    1.0390   -3.8932    1.7903 H   0  0  0  0  0  0  0  0  0  0  0  0
    1.2976   -5.4871    1.0566 H   0  0  0  0  0  0  0  0  0  0  0  0
    0.0755   -1.6529   -0.0105 N   0  0  0  0  0  0  0  0  0  0  0  0
    0.1113   -0.2132   -0.0391 C   0  0  2  0  0  0  0  0  0  0  0  0
   -0.6008    0.2879    1.2128 C   0  0  0  0  0  0  0  0  0  0  0  0
   -1.3896    1.2307    1.2014 O   0  0  0  0  0  0  0  0  0  0  0  0
   -0.5540    0.3545   -1.2970 C   0  0  0  0  0  0  0  0  0  0  0  0
    0.2251    0.0157   -2.5735 C   0  0  0  0  0  0  0  0  0  0  0  0
   -0.4416    0.5832   -3.8223 C   0  0  0  0  0  0  0  0  0  0  0  0
    0.2911    0.2385   -5.0386 N   0  3  0  0  0  0  0  0  0  0  0  0
   -0.1613    0.5954   -6.3102 C   0  0  0  0  0  0  0  0  0  0  0  0
    0.5884    0.2332   -7.4243 N   0  0  0  0  0  0  0  0  0  0  0  0
   -1.3440    1.3053   -6.4903 N   0  0  0  0  0  0  0  0  0  0  0  0
   -0.7323   -2.1024    0.4149 H   0  0  0  0  0  0  0  0  0  0  0  0
    1.1665    0.0792    0.0086 H   0  0  0  0  0  0  0  0  0  0  0  0
   -0.6414    1.4437   -1.2039 H   0  0  0  0  0  0  0  0  0  0  0  0
   -1.5783   -0.0320   -1.3822 H   0  0  0  0  0  0  0  0  0  0  0  0
    1.2471    0.4055   -2.4947 H   0  0  0  0  0  0  0  0  0  0  0  0
    0.2968   -1.0725   -2.6829 H   0  0  0  0  0  0  0  0  0  0  0  0
   -1.4496    0.1690   -3.9220 H   0  0  0  0  0  0  0  0  0  0  0  0
   -0.5131    1.6737   -3.7661 H   0  0  0  0  0  0  0  0  0  0  0  0
    1.1645   -0.2809   -4.9697 H   0  0  0  0  0  0  0  0  0  0  0  0
    0.2869    0.4779   -8.3645 H   0  0  0  0  0  0  0  0  0  0  0  0
    1.4577   -0.2861   -7.3284 H   0  0  0  0  0  0  0  0  0  0  0  0
   -1.6779    1.5677   -7.4141 H   0  0  0  0  0  0  0  0  0  0  0  0
   -1.9130    1.5833   -5.6942 H   0  0  0  0  0  0  0  0  0  0  0  0
   -0.2139   -0.4097    2.3485 N   0  0  0  0  0  0  0  0  0  0  0  0
   -0.7072   -0.0965    3.6698 C   0  0  2  0  0  0  0  0  0  0  0  0
    0.3983   -0.4069    4.6704 C   0  0  0  0  0  0  0  0  0  0  0  0
    1.1929   -1.3336    4.5260 O   0  0  0  0  0  0  0  0  0  0  0  0
   -1.9678   -0.8841    3.9910 C   0  0  0  0  0  0  0  0  0  0  0  0
    0.4206   -1.1976    2.2573 H   0  0  0  0  0  0  0  0  0  0  0  0
   -0.9199    0.9781    3.6815 H   0  0  0  0  0  0  0  0  0  0  0  0
   -1.7743   -1.9630    3.9840 H   0  0  0  0  0  0  0  0  0  0  0  0
   -2.3564   -0.6245    4.9812 H   0  0  0  0  0  0  0  0  0  0  0  0
   -2.7519   -0.6823    3.2533 H   0  0  0  0  0  0  0  0  0  0  0  0
    0.3662    0.4459    5.7649 N   0  0  0  0  0  0  0  0  0  0  0  0
    1.2858    0.3280    6.8723 C   0  0  0  0  0  0  0  0  0  0  0  0
   -0.3013    1.2114    5.7825 H   0  0  0  0  0  0  0  0  0  0  0  0
    0.8405   -0.3056    7.6535 H   0  0  0  0  0  0  0  0  0  0  0  0
    2.2244   -0.1265    6.5226 H   0  0  0  0  0  0  0  0  0  0  0  0
    1.4932    1.3266    7.2844 H   0  0  0  0  0  0  0  0  0  0  0  0
  1  3  1  0  0  0  0
  1  7  1  0  0  0  0
  1  2  2  0  0  0  0
 42 43  1  0  0  0  0
 43 51  1  0  0  0  0
 43 44  2  0  0  0  0
  8  9  1  0  0  0  0
  9 17  1  0  0  0  0
  9 10  2  0  0  0  0
 18 19  1  0  0  0  0
 19 41  1  0  0  0  0
 19 20  2  0  0  0  0
 25 26  1  0  0  0  0
 25 27  1  0  0  0  0
 24 25  2  0  0  0  0
 42 45  1  0  0  0  0
  8 11  1  0  0  0  0
 51 52  1  0  0  0  0
 21 22  1  0  0  0  0
 22 23  1  0  0  0  0
 18 21  1  0  0  0  0
 23 24  1  0  0  0  0
 41 42  1  0  0  0  0
  7  8  1  0  0  0  0
 17 18  1  0  0  0  0
  3  4  1  0  0  0  0
  3  5  1  0  0  0  0
  3  6  1  0  0  0  0
 45 48  1  0  0  0  0
 45 49  1  0  0  0  0
 45 50  1  0  0  0  0
 11 14  1  0  0  0  0
 11 15  1  0  0  0  0
 11 16  1  0  0  0  0
 52 54  1  0  0  0  0
 52 55  1  0  0  0  0
 52 56  1  0  0  0  0
 22 32  1  0  0  0  0
 22 33  1  0  0  0  0
 21 30  1  0  0  0  0
 21 31  1  0  0  0  0
 23 34  1  0  0  0  0
 23 35  1  0  0  0  0
 42 47  1  0  0  0  0
  8 13  1  0  0  0  0
 18 29  1  0  0  0  0
 26 37  1  0  0  0  0
 26 38  1  0  0  0  0
 27 39  1  0  0  0  0
 27 40  1  0  0  0  0
 51 53  1  0  0  0  0
  7 12  1  0  0  0  0
 41 46  1  0  0  0  0
 17 28  1  0  0  0  0
 24 36  1  0  0  0  0
M  CHG  1  24   1
M  END
$$$$

  -OEChem-05262214473D

 56 55  0     1  0  0  0  0  0999 V2000
    0.7735   -5.8042   -2.0022 C   0  0  0  0  0  0  0  0  0  0  0  0
   -0.2086   -6.3825   -1.5519 O   0  0  0  0  0  0  0  0  0  0  0  0
    1.4751   -6.3646   -3.1946 C   0  0  0  0  0  0  0  0  0  0  0  0
    2.2765   -7.0687   -2.9186 H   0  0  0  0  0  0  0  0  0  0  0  0
    0.7988   -6.9360   -3.8504 H   0  0  0  0  0  0  0  0  0  0  0  0
    1.9556   -5.6216   -3.8511 H   0  0  0  0  0  0  0  0  0  0  0  0
    1.3322   -4.6359   -1.5106 N   0  0  0  0  0  0  0  0  0  0  0  0
    0.8124   -3.9290   -0.3698 C   0  0  2  0  0  0  0  0  0  0  0  0
    1.0666   -2.4424   -0.5818 C   0  0  0  0  0  0  0  0  0  0  0  0
    2.0598   -2.0076   -1.1610 O   0  0  0  0  0  0  0  0  0  0  0  0
    1.4560   -4.4118    0.9207 C   0  0  0  0  0  0  0  0  0  0  0  0
    2.1528   -4.2578   -1.9805 H   0  0  0  0  0  0  0  0  0  0  0  0
   -0.2667   -4.1160   -0.3467 H   0  0  0  0  0  0  0  0  0  0  0  0
    2.5374   -4.2329    0.9160 H   0  0  0  0  0  0  0  0  0  0  0  0
    1.0390   -3.8932    1.7903 H   0  0  0  0  0  0  0  0  0  0  0  0
    1.2976   -5.4871    1.0566 H   0  0  0  0  0  0  0  0  0  0  0  0
    0.0755   -1.6529   -0.0105 N   0  0  0  0  0  0  0  0  0  0  0  0
    0.1113   -0.2132   -0.0391 C   0  0  2  0  0  0  0  0  0  0  0  0
   -0.6008    0.2879    1.2128 C   0  0  0  0  0  0  0  0  0  0  0  0
   -1.5746    1.0371    1.1737 O   0  0  0  0  0  0  0  0  0  0  0  0
   -0.5540    0.3545   -1.2970 C   0  0  0  0  0  0  0  0  0  0  0  0
    0.2251    0.0157   -2.5735 C   0  0  0  0  0  0  0  0  0  0  0  0
   -0.4416    0.5832   -3.8223 C   0  0  0  0  0  0  0  0  0  0  0  0
    0.2911    0.2385   -5.0386 N   0  3  0  0  0  0  0  0  0  0  0  0
   -0.1613    0.5954   -6.3102 C   0  0  0  0  0  0  0  0  0  0  0  0
    0.5884    0.2332   -7.4243 N   0  0  0  0  0  0  0  0  0  0  0  0
   -1.3440    1.3053   -6.4903 N   0  0  0  0  0  0  0  0  0  0  0  0
   -0.7323   -2.1024    0.4149 H   0  0  0  0  0  0  0  0  0  0  0  0
    1.1665    0.0792    0.0086 H   0  0  0  0  0  0  0  0  0  0  0  0
   -0.6414    1.4437   -1.2039 H   0  0  0  0  0  0  0  0  0  0  0  0
   -1.5783   -0.0320   -1.3822 H   0  0  0  0  0  0  0  0  0  0  0  0
    1.2471    0.4055   -2.4947 H   0  0  0  0  0  0  0  0  0  0  0  0
    0.2968   -1.0725   -2.6829 H   0  0  0  0  0  0  0  0  0  0  0  0
   -1.4496    0.1690   -3.9220 H   0  0  0  0  0  0  0  0  0  0  0  0
   -0.5131    1.6737   -3.7661 H   0  0  0  0  0  0  0  0  0  0  0  0
    1.1645   -0.2809   -4.9697 H   0  0  0  0  0  0  0  0  0  0  0  0
    0.2869    0.4779   -8.3645 H   0  0  0  0  0  0  0  0  0  0  0  0
    1.4577   -0.2861   -7.3284 H   0  0  0  0  0  0  0  0  0  0  0  0
   -1.6779    1.5677   -7.4141 H   0  0  0  0  0  0  0  0  0  0  0  0
   -1.9130    1.5833   -5.6942 H   0  0  0  0  0  0  0  0  0  0  0  0
    0.0095   -0.1606    2.3758 N   0  0  0  0  0  0  0  0  0  0  0  0
   -0.4438    0.2127    3.6959 C   0  0  2  0  0  0  0  0  0  0  0  0
    0.7719    0.2710    4.6115 C   0  0  0  0  0  0  0  0  0  0  0  0
    1.7366   -0.4817    4.4943 O   0  0  0  0  0  0  0  0  0  0  0  0
   -1.4762   -0.7704    4.2251 C   0  0  0  0  0  0  0  0  0  0  0  0
    0.7920   -0.8050    2.3114 H   0  0  0  0  0  0  0  0  0  0  0  0
   -0.8839    1.2121    3.6083 H   0  0  0  0  0  0  0  0  0  0  0  0
   -1.0535   -1.7773    4.3197 H   0  0  0  0  0  0  0  0  0  0  0  0
   -1.8397   -0.4704    5.2135 H   0  0  0  0  0  0  0  0  0  0  0  0
   -2.3365   -0.8332    3.5500 H   0  0  0  0  0  0  0  0  0  0  0  0
    0.6337    1.2336    5.6018 N   0  0  0  0  0  0  0  0  0  0  0  0
    1.6342    1.4539    6.6199 C   0  0  0  0  0  0  0  0  0  0  0  0
   -0.1813    1.8397    5.5992 H   0  0  0  0  0  0  0  0  0  0  0  0
    1.3949    0.8488    7.5068 H   0  0  0  0  0  0  0  0  0  0  0  0
    2.6216    1.1622    6.2327 H   0  0  0  0  0  0  0  0  0  0  0  0
    1.6484    2.5187    6.8955 H   0  0  0  0  0  0  0  0  0  0  0  0
  1  3  1  0  0  0  0
  1  7  1  0  0  0  0
  1  2  2  0  0  0  0
 42 43  1  0  0  0  0
 43 51  1  0  0  0  0
 43 44  2  0  0  0  0
  8  9  1  0  0  0  0
  9 17  1  0  0  0  0
  9 10  2  0  0  0  0
 18 19  1  0  0  0  0
 19 41  1  0  0  0  0
 19 20  2  0  0  0  0
 25 26  1  0  0  0  0
 25 27  1  0  0  0  0
 24 25  2  0  0  0  0
 42 45  1  0  0  0  0
  8 11  1  0  0  0  0
 51 52  1  0  0  0  0
 21 22  1  0  0  0  0
 22 23  1  0  0  0  0
 18 21  1  0  0  0  0
 23 24  1  0  0  0  0
 41 42  1  0  0  0  0
  7  8  1  0  0  0  0
 17 18  1  0  0  0  0
  3  4  1  0  0  0  0
  3  5  1  0  0  0  0
  3  6  1  0  0  0  0
 45 48  1  0  0  0  0
 45 49  1  0  0  0  0
 45 50  1  0  0  0  0
 11 14  1  0  0  0  0
 11 15  1  0  0  0  0
 11 16  1  0  0  0  0
 52 54  1  0  0  0  0
 52 55  1  0  0  0  0
 52 56  1  0  0  0  0
 22 32  1  0  0  0  0
 22 33  1  0  0  0  0
 21 30  1  0  0  0  0
 21 31  1  0  0  0  0
 23 34  1  0  0  0  0
 23 35  1  0  0  0  0
 42 47  1  0  0  0  0
  8 13  1  0  0  0  0
 18 29  1  0  0  0  0
 26 37  1  0  0  0  0
 26 38  1  0  0  0  0
 27 39  1  0  0  0  0
 27 40  1  0  0  0  0
 51 53  1  0  0  0  0
  7 12  1  0  0  0  0
 41 46  1  0  0  0  0
 17 28  1  0  0  0  0
 24 36  1  0  0  0  0
M  CHG  1  24   1
M  END
$$$$

  -OEChem-05262214473D

 56 55  0     1  0  0  0  0  0999 V2000
    0.7735   -5.8042   -2.0022 C   0  0  0  0  0  0  0  0  0  0  0  0
   -0.2086   -6.3825   -1.5519 O   0  0  0  0  0  0  0  0  0  0  0  0
    1.4751   -6.3646   -3.1946 C   0  0  0  0  0  0  0  0  0  0  0  0
    2.2765   -7.0687   -2.9186 H   0  0  0  0  0  0  0  0  0  0  0  0
    0.7988   -6.9360   -3.8504 H   0  0  0  0  0  0  0  0  0  0  0  0
    1.9556   -5.6216   -3.8511 H   0  0  0  0  0  0  0  0  0  0  0  0
    1.3322   -4.6359   -1.5106 N   0  0  0  0  0  0  0  0  0  0  0  0
    0.8124   -3.9290   -0.3698 C   0  0  2  0  0  0  0  0  0  0  0  0
    1.0666   -2.4424   -0.5818 C   0  0  0  0  0  0  0  0  0  0  0  0
    2.0598   -2.0076   -1.1610 O   0  0  0  0  0  0  0  0  0  0  0  0
    1.4560   -4.4118    0.9207 C   0  0  0  0  0  0  0  0  0  0  0  0
    2.1528   -4.2578   -1.9805 H   0  0  0  0  0  0  0  0  0  0  0  0
   -0.2667   -4.1160   -0.3467 H   0  0  0  0  0  0  0  0  0  0  0  0
    2.5374   -4.2329    0.9160 H   0  0  0  0  0  0  0  0  0  0  0  0
    1.0390   -3.8932    1.7903 H   0  0  0  0  0  0  0  0  0  0  0  0
    1.2976   -5.4871    1.0566 H   0  0  0  0  0  0  0  0  0  0  0  0
    0.0755   -1.6529   -0.0105 N   0  0  0  0  0  0  0  0  0  0  0  0
    0.1113   -0.2132   -0.0391 C   0  0  2  0  0  0  0  0  0  0  0  0
   -0.6008    0.2879    1.2128 C   0  0  0  0  0  0  0  0  0  0  0  0
   -1.7146    0.8074    1.1860 O   0  0  0  0  0  0  0  0  0  0  0  0
   -0.5540    0.3545   -1.2970 C   0  0  0  0  0  0  0  0  0  0  0  0
    0.2251    0.0157   -2.5735 C   0  0  0  0  0  0  0  0  0  0  0  0
   -0.4416    0.5832   -3.8223 C   0  0  0  0  0  0  0  0  0  0  0  0
    0.2911    0.2385   -5.0386 N   0  3  0  0  0  0  0  0  0  0  0  0
   -0.1613    0.5954   -6.3102 C   0  0  0  0  0  0  0  0  0  0  0  0
    0.5884    0.2332   -7.4243 N   0  0  0  0  0  0  0  0  0  0  0  0
   -1.3440    1.3053   -6.4903 N   0  0  0  0  0  0  0  0  0  0  0  0
   -0.7323   -2.1024    0.4149 H   0  0  0  0  0  0  0  0  0  0  0  0
    1.1665    0.0792    0.0086 H   0  0  0  0  0  0  0  0  0  0  0  0
   -0.6414    1.4437   -1.2039 H   0  0  0  0  0  0  0  0  0  0  0  0
   -1.5783   -0.0320   -1.3822 H   0  0  0  0  0  0  0  0  0  0  0  0
    1.2471    0.4055   -2.4947 H   0  0  0  0  0  0  0  0  0  0  0  0
    0.2968   -1.0725   -2.6829 H   0  0  0  0  0  0  0  0  0  0  0  0
   -1.4496    0.1690   -3.9220 H   0  0  0  0  0  0  0  0  0  0  0  0
   -0.5131    1.6737   -3.7661 H   0  0  0  0  0  0  0  0  0  0  0  0
    1.1645   -0.2809   -4.9697 H   0  0  0  0  0  0  0  0  0  0  0  0
    0.2869    0.4779   -8.3645 H   0  0  0  0  0  0  0  0  0  0  0  0
    1.4577   -0.2861   -7.3284 H   0  0  0  0  0  0  0  0  0  0  0  0
   -1.6779    1.5677   -7.4141 H   0  0  0  0  0  0  0  0  0  0  0  0
   -1.9130    1.5833   -5.6942 H   0  0  0  0  0  0  0  0  0  0  0  0
    0.1746    0.1307    2.3531 N   0  0  0  0  0  0  0  0  0  0  0  0
   -0.2528    0.5705    3.6613 C   0  0  2  0  0  0  0  0  0  0  0  0
    0.9837    0.9980    4.4410 C   0  0  0  0  0  0  0  0  0  0  0  0
    2.0781    0.4529    4.3144 O   0  0  0  0  0  0  0  0  0  0  0  0
   -1.0057   -0.5279    4.3957 C   0  0  0  0  0  0  0  0  0  0  0  0
    1.0719   -0.3402    2.2845 H   0  0  0  0  0  0  0  0  0  0  0  0
   -0.9051    1.4368    3.5062 H   0  0  0  0  0  0  0  0  0  0  0  0
   -0.3682   -1.4043    4.5602 H   0  0  0  0  0  0  0  0  0  0  0  0
   -1.3536   -0.1838    5.3753 H   0  0  0  0  0  0  0  0  0  0  0  0
   -1.8779   -0.8549    3.8195 H   0  0  0  0  0  0  0  0  0  0  0  0
    0.7109    2.0315    5.3263 N   0  0  0  0  0  0  0  0  0  0  0  0
    1.7101    2.5849    6.2103 C   0  0  0  0  0  0  0  0  0  0  0  0
   -0.2145    2.4500    5.3360 H   0  0  0  0  0  0  0  0  0  0  0  0
    1.6728    2.0640    7.1784 H   0  0  0  0  0  0  0  0  0  0  0  0
    2.7068    2.4563    5.7631 H   0  0  0  0  0  0  0  0  0  0  0  0
    1.5119    3.6561    6.3625 H   0  0  0  0  0  0  0  0  0  0  0  0
  1  3  1  0  0  0  0
  1  7  1  0  0  0  0
  1  2  2  0  0  0  0
 42 43  1  0  0  0  0
 43 51  1  0  0  0  0
 43 44  2  0  0  0  0
  8  9  1  0  0  0  0
  9 17  1  0  0  0  0
  9 10  2  0  0  0  0
 18 19  1  0  0  0  0
 19 41  1  0  0  0  0
 19 20  2  0  0  0  0
 25 26  1  0  0  0  0
 25 27  1  0  0  0  0
 24 25  2  0  0  0  0
 42 45  1  0  0  0  0
  8 11  1  0  0  0  0
 51 52  1  0  0  0  0
 21 22  1  0  0  0  0
 22 23  1  0  0  0  0
 18 21  1  0  0  0  0
 23 24  1  0  0  0  0
 41 42  1  0  0  0  0
  7  8  1  0  0  0  0
 17 18  1  0  0  0  0
  3  4  1  0  0  0  0
  3  5  1  0  0  0  0
  3  6  1  0  0  0  0
 45 48  1  0  0  0  0
 45 49  1  0  0  0  0
 45 50  1  0  0  0  0
 11 14  1  0  0  0  0
 11 15  1  0  0  0  0
 11 16  1  0  0  0  0
 52 54  1  0  0  0  0
 52 55  1  0  0  0  0
 52 56  1  0  0  0  0
 22 32  1  0  0  0  0
 22 33  1  0  0  0  0
 21 30  1  0  0  0  0
 21 31  1  0  0  0  0
 23 34  1  0  0  0  0
 23 35  1  0  0  0  0
 42 47  1  0  0  0  0
  8 13  1  0  0  0  0
 18 29  1  0  0  0  0
 26 37  1  0  0  0  0
 26 38  1  0  0  0  0
 27 39  1  0  0  0  0
 27 40  1  0  0  0  0
 51 53  1  0  0  0  0
  7 12  1  0  0  0  0
 41 46  1  0  0  0  0
 17 28  1  0  0  0  0
 24 36  1  0  0  0  0
M  CHG  1  24   1
M  END
$$$$

  -OEChem-05262214473D

 56 55  0     1  0  0  0  0  0999 V2000
    0.7735   -5.8042   -2.0022 C   0  0  0  0  0  0  0  0  0  0  0  0
   -0.2086   -6.3825   -1.5519 O   0  0  0  0  0  0  0  0  0  0  0  0
    1.4751   -6.3646   -3.1946 C   0  0  0  0  0  0  0  0  0  0  0  0
    2.2765   -7.0687   -2.9186 H   0  0  0  0  0  0  0  0  0  0  0  0
    0.7988   -6.9360   -3.8504 H   0  0  0  0  0  0  0  0  0  0  0  0
    1.9556   -5.6216   -3.8511 H   0  0  0  0  0  0  0  0  0  0  0  0
    1.3322   -4.6359   -1.5106 N   0  0  0  0  0  0  0  0  0  0  0  0
    0.8124   -3.9290   -0.3698 C   0  0  2  0  0  0  0  0  0  0  0  0
    1.0666   -2.4424   -0.5818 C   0  0  0  0  0  0  0  0  0  0  0  0
    2.0598   -2.0076   -1.1610 O   0  0  0  0  0  0  0  0  0  0  0  0
    1.4560   -4.4118    0.9207 C   0  0  0  0  0  0  0  0  0  0  0  0
    2.1528   -4.2578   -1.9805 H   0  0  0  0  0  0  0  0  0  0  0  0
   -0.2667   -4.1160   -0.3467 H   0  0  0  0  0  0  0  0  0  0  0  0
    2.5374   -4.2329    0.9160 H   0  0  0  0  0  0  0  0  0  0  0  0
    1.0390   -3.8932    1.7903 H   0  0  0  0  0  0  0  0  0  0  0  0
    1.2976   -5.4871    1.0566 H   0  0  0  0  0  0  0  0  0  0  0  0
    0.0755   -1.6529   -0.0105 N   0  0  0  0  0  0  0  0  0  0  0  0
    0.1113   -0.2132   -0.0391 C   0  0  2  0  0  0  0  0  0  0  0  0
   -0.6008    0.2879    1.2128 C   0  0  0  0  0  0  0  0  0  0  0  0
   -1.8000    0.5573    1.2375 O   0  0  0  0  0  0  0  0  0  0  0  0
   -0.5540    0.3545   -1.2970 C   0  0  0  0  0  0  0  0  0  0  0  0
    0.2251    0.0157   -2.5735 C   0  0  0  0  0  0  0  0  0  0  0  0
   -0.4416    0.5832   -3.8223 C   0  0  0  0  0  0  0  0  0  0  0  0
    0.2911    0.2385   -5.0386 N   0  3  0  0  0  0  0  0  0  0  0  0
   -0.1613    0.5954   -6.3102 C   0  0  0  0  0  0  0  0  0  0  0  0
    0.5884    0.2332   -7.4243 N   0  0  0  0  0  0  0  0  0  0  0  0
   -1.3440    1.3053   -6.4903 N   0  0  0  0  0  0  0  0  0  0  0  0
   -0.7323   -2.1024    0.4149 H   0  0  0  0  0  0  0  0  0  0  0  0
    1.1665    0.0792    0.0086 H   0  0  0  0  0  0  0  0  0  0  0  0
   -0.6414    1.4437   -1.2039 H   0  0  0  0  0  0  0  0  0  0  0  0
   -1.5783   -0.0320   -1.3822 H   0  0  0  0  0  0  0  0  0  0  0  0
    1.2471    0.4055   -2.4947 H   0  0  0  0  0  0  0  0  0  0  0  0
    0.2968   -1.0725   -2.6829 H   0  0  0  0  0  0  0  0  0  0  0  0
   -1.4496    0.1690   -3.9220 H   0  0  0  0  0  0  0  0  0  0  0  0
   -0.5131    1.6737   -3.7661 H   0  0  0  0  0  0  0  0  0  0  0  0
    1.1645   -0.2809   -4.9697 H   0  0  0  0  0  0  0  0  0  0  0  0
    0.2869    0.4779   -8.3645 H   0  0  0  0  0  0  0  0  0  0  0  0
    1.4577   -0.2861   -7.3284 H   0  0  0  0  0  0  0  0  0  0  0  0
   -1.6779    1.5677   -7.4141 H   0  0  0  0  0  0  0  0  0  0  0  0
   -1.9130    1.5833   -5.6942 H   0  0  0  0  0  0  0  0  0  0  0  0
    0.2702    0.4445    2.2819 N   0  0  0  0  0  0  0  0  0  0  0  0
   -0.1473    0.9525    3.5684 C   0  0  2  0  0  0  0  0  0  0  0  0
    1.0192    1.7247    4.1703 C   0  0  0  0  0  0  0  0  0  0  0  0
    2.1941    1.4065    3.9987 O   0  0  0  0  0  0  0  0  0  0  0  0
   -0.5881   -0.1730    4.4912 C   0  0  0  0  0  0  0  0  0  0  0  0
    1.2413    0.1649    2.1787 H   0  0  0  0  0  0  0  0  0  0  0  0
   -0.9820    1.6371    3.3823 H   0  0  0  0  0  0  0  0  0  0  0  0
    0.2350   -0.8693    4.6892 H   0  0  0  0  0  0  0  0  0  0  0  0
   -0.9312    0.2159    5.4556 H   0  0  0  0  0  0  0  0  0  0  0  0
   -1.4075   -0.7458    4.0435 H   0  0  0  0  0  0  0  0  0  0  0  0
    0.5925    2.7853    4.9571 N   0  0  0  0  0  0  0  0  0  0  0  0
    1.5082    3.6439    5.6715 C   0  0  0  0  0  0  0  0  0  0  0  0
   -0.3987    3.0006    5.0108 H   0  0  0  0  0  0  0  0  0  0  0  0
    1.6550    3.2570    6.6907 H   0  0  0  0  0  0  0  0  0  0  0  0
    2.4742    3.6677    5.1458 H   0  0  0  0  0  0  0  0  0  0  0  0
    1.0931    4.6613    5.7219 H   0  0  0  0  0  0  0  0  0  0  0  0
  1  3  1  0  0  0  0
  1  7  1  0  0  0  0
  1  2  2  0  0  0  0
 42 43  1  0  0  0  0
 43 51  1  0  0  0  0
 43 44  2  0  0  0  0
  8  9  1  0  0  0  0
  9 17  1  0  0  0  0
  9 10  2  0  0  0  0
 18 19  1  0  0  0  0
 19 41  1  0  0  0  0
 19 20  2  0  0  0  0
 25 26  1  0  0  0  0
 25 27  1  0  0  0  0
 24 25  2  0  0  0  0
 42 45  1  0  0  0  0
  8 11  1  0  0  0  0
 51 52  1  0  0  0  0
 21 22  1  0  0  0  0
 22 23  1  0  0  0  0
 18 21  1  0  0  0  0
 23 24  1  0  0  0  0
 41 42  1  0  0  0  0
  7  8  1  0  0  0  0
 17 18  1  0  0  0  0
  3  4  1  0  0  0  0
  3  5  1  0  0  0  0
  3  6  1  0  0  0  0
 45 48  1  0  0  0  0
 45 49  1  0  0  0  0
 45 50  1  0  0  0  0
 11 14  1  0  0  0  0
 11 15  1  0  0  0  0
 11 16  1  0  0  0  0
 52 54  1  0  0  0  0
 52 55  1  0  0  0  0
 52 56  1  0  0  0  0
 22 32  1  0  0  0  0
 22 33  1  0  0  0  0
 21 30  1  0  0  0  0
 21 31  1  0  0  0  0
 23 34  1  0  0  0  0
 23 35  1  0  0  0  0
 42 47  1  0  0  0  0
  8 13  1  0  0  0  0
 18 29  1  0  0  0  0
 26 37  1  0  0  0  0
 26 38  1  0  0  0  0
 27 39  1  0  0  0  0
 27 40  1  0  0  0  0
 51 53  1  0  0  0  0
  7 12  1  0  0  0  0
 41 46  1  0  0  0  0
 17 28  1  0  0  0  0
 24 36  1  0  0  0  0
M  CHG  1  24   1
M  END
$$$$

  -OEChem-05262214473D

 56 55  0     1  0  0  0  0  0999 V2000
    0.7735   -5.8042   -2.0022 C   0  0  0  0  0  0  0  0  0  0  0  0
   -0.2086   -6.3825   -1.5519 O   0  0  0  0  0  0  0  0  0  0  0  0
    1.4751   -6.3646   -3.1946 C   0  0  0  0  0  0  0  0  0  0  0  0
    2.2765   -7.0687   -2.9186 H   0  0  0  0  0  0  0  0  0  0  0  0
    0.7988   -6.9360   -3.8504 H   0  0  0  0  0  0  0  0  0  0  0  0
    1.9556   -5.6216   -3.8511 H   0  0  0  0  0  0  0  0  0  0  0  0
    1.3322   -4.6359   -1.5106 N   0  0  0  0  0  0  0  0  0  0  0  0
    0.8124   -3.9290   -0.3698 C   0  0  2  0  0  0  0  0  0  0  0  0
    1.0666   -2.4424   -0.5818 C   0  0  0  0  0  0  0  0  0  0  0  0
    2.0598   -2.0076   -1.1610 O   0  0  0  0  0  0  0  0  0  0  0  0
    1.4560   -4.4118    0.9207 C   0  0  0  0  0  0  0  0  0  0  0  0
    2.1528   -4.2578   -1.9805 H   0  0  0  0  0  0  0  0  0  0  0  0
   -0.2667   -4.1160   -0.3467 H   0  0  0  0  0  0  0  0  0  0  0  0
    2.5374   -4.2329    0.9160 H   0  0  0  0  0  0  0  0  0  0  0  0
    1.0390   -3.8932    1.7903 H   0  0  0  0  0  0  0  0  0  0  0  0
    1.2976   -5.4871    1.0566 H   0  0  0  0  0  0  0  0  0  0  0  0
    0.0755   -1.6529   -0.0105 N   0  0  0  0  0  0  0  0  0  0  0  0
    0.1113   -0.2132   -0.0391 C   0  0  2  0  0  0  0  0  0  0  0  0
   -0.6008    0.2879    1.2128 C   0  0  0  0  0  0  0  0  0  0  0  0
   -1.8249    0.3039    1.3248 O   0  0  0  0  0  0  0  0  0  0  0  0
   -0.5540    0.3545   -1.2970 C   0  0  0  0  0  0  0  0  0  0  0  0
    0.2251    0.0157   -2.5735 C   0  0  0  0  0  0  0  0  0  0  0  0
   -0.4416    0.5832   -3.8223 C   0  0  0  0  0  0  0  0  0  0  0  0
    0.2911    0.2385   -5.0386 N   0  3  0  0  0  0  0  0  0  0  0  0
   -0.1613    0.5954   -6.3102 C   0  0  0  0  0  0  0  0  0  0  0  0
    0.5884    0.2332   -7.4243 N   0  0  0  0  0  0  0  0  0  0  0  0
   -1.3440    1.3053   -6.4903 N   0  0  0  0  0  0  0  0  0  0  0  0
   -0.7323   -2.1024    0.4149 H   0  0  0  0  0  0  0  0  0  0  0  0
    1.1665    0.0792    0.0086 H   0  0  0  0  0  0  0  0  0  0  0  0
   -0.6414    1.4437   -1.2039 H   0  0  0  0  0  0  0  0  0  0  0  0
   -1.5783   -0.0320   -1.3822 H   0  0  0  0  0  0  0  0  0  0  0  0
    1.2471    0.4055   -2.4947 H   0  0  0  0  0  0  0  0  0  0  0  0
    0.2968   -1.0725   -2.6829 H   0  0  0  0  0  0  0  0  0  0  0  0
   -1.4496    0.1690   -3.9220 H   0  0  0  0  0  0  0  0  0  0  0  0
   -0.5131    1.6737   -3.7661 H   0  0  0  0  0  0  0  0  0  0  0  0
    1.1645   -0.2809   -4.9697 H   0  0  0  0  0  0  0  0  0  0  0  0
    0.2869    0.4779   -8.3645 H   0  0  0  0  0  0  0  0  0  0  0  0
    1.4577   -0.2861   -7.3284 H   0  0  0  0  0  0  0  0  0  0  0  0
   -1.6779    1.5677   -7.4141 H   0  0  0  0  0  0  0  0  0  0  0  0
   -1.9130    1.5833   -5.6942 H   0  0  0  0  0  0  0  0  0  0  0  0
    0.2899    0.7593    2.1671 N   0  0  0  0  0  0  0  0  0  0  0  0
   -0.1345    1.3327    3.4235 C   0  0  2  0  0  0  0  0  0  0  0  0
    0.8762    2.4014    3.8181 C   0  0  0  0  0  0  0  0  0  0  0  0
    2.0767    2.3140    3.5686 O   0  0  0  0  0  0  0  0  0  0  0  0
   -0.2521    0.2700    4.5050 C   0  0  0  0  0  0  0  0  0  0  0  0
    1.2885    0.6761    2.0009 H   0  0  0  0  0  0  0  0  0  0  0  0
   -1.1094    1.7993    3.2449 H   0  0  0  0  0  0  0  0  0  0  0  0
    0.7149   -0.2088    4.6977 H   0  0  0  0  0  0  0  0  0  0  0  0
   -0.6013    0.7014    5.4489 H   0  0  0  0  0  0  0  0  0  0  0  0
   -0.9571   -0.5134    4.2066 H   0  0  0  0  0  0  0  0  0  0  0  0
    0.2866    3.4437    4.5195 N   0  0  0  0  0  0  0  0  0  0  0  0
    1.0424    4.5589    5.0403 C   0  0  0  0  0  0  0  0  0  0  0  0
   -0.7212    3.4540    4.6459 H   0  0  0  0  0  0  0  0  0  0  0  0
    1.3429    4.3468    6.0769 H   0  0  0  0  0  0  0  0  0  0  0  0
    1.9396    4.7138    4.4230 H   0  0  0  0  0  0  0  0  0  0  0  0
    0.4205    5.4659    5.0172 H   0  0  0  0  0  0  0  0  0  0  0  0
  1  3  1  0  0  0  0
  1  7  1  0  0  0  0
  1  2  2  0  0  0  0
 42 43  1  0  0  0  0
 43 51  1  0  0  0  0
 43 44  2  0  0  0  0
  8  9  1  0  0  0  0
  9 17  1  0  0  0  0
  9 10  2  0  0  0  0
 18 19  1  0  0  0  0
 19 41  1  0  0  0  0
 19 20  2  0  0  0  0
 25 26  1  0  0  0  0
 25 27  1  0  0  0  0
 24 25  2  0  0  0  0
 42 45  1  0  0  0  0
  8 11  1  0  0  0  0
 51 52  1  0  0  0  0
 21 22  1  0  0  0  0
 22 23  1  0  0  0  0
 18 21  1  0  0  0  0
 23 24  1  0  0  0  0
 41 42  1  0  0  0  0
  7  8  1  0  0  0  0
 17 18  1  0  0  0  0
  3  4  1  0  0  0  0
  3  5  1  0  0  0  0
  3  6  1  0  0  0  0
 45 48  1  0  0  0  0
 45 49  1  0  0  0  0
 45 50  1  0  0  0  0
 11 14  1  0  0  0  0
 11 15  1  0  0  0  0
 11 16  1  0  0  0  0
 52 54  1  0  0  0  0
 52 55  1  0  0  0  0
 52 56  1  0  0  0  0
 22 32  1  0  0  0  0
 22 33  1  0  0  0  0
 21 30  1  0  0  0  0
 21 31  1  0  0  0  0
 23 34  1  0  0  0  0
 23 35  1  0  0  0  0
 42 47  1  0  0  0  0
  8 13  1  0  0  0  0
 18 29  1  0  0  0  0
 26 37  1  0  0  0  0
 26 38  1  0  0  0  0
 27 39  1  0  0  0  0
 27 40  1  0  0  0  0
 51 53  1  0  0  0  0
  7 12  1  0  0  0  0
 41 46  1  0  0  0  0
 17 28  1  0  0  0  0
 24 36  1  0  0  0  0
M  CHG  1  24   1
M  END
$$$$

  -OEChem-05262214473D

 56 55  0     1  0  0  0  0  0999 V2000
    0.7735   -5.8042   -2.0022 C   0  0  0  0  0  0  0  0  0  0  0  0
   -0.2086   -6.3825   -1.5519 O   0  0  0  0  0  0  0  0  0  0  0  0
    1.4751   -6.3646   -3.1946 C   0  0  0  0  0  0  0  0  0  0  0  0
    2.2765   -7.0687   -2.9186 H   0  0  0  0  0  0  0  0  0  0  0  0
    0.7988   -6.9360   -3.8504 H   0  0  0  0  0  0  0  0  0  0  0  0
    1.9556   -5.6216   -3.8511 H   0  0  0  0  0  0  0  0  0  0  0  0
    1.3322   -4.6359   -1.5106 N   0  0  0  0  0  0  0  0  0  0  0  0
    0.8124   -3.9290   -0.3698 C   0  0  2  0  0  0  0  0  0  0  0  0
    1.0666   -2.4424   -0.5818 C   0  0  0  0  0  0  0  0  0  0  0  0
    2.0598   -2.0076   -1.1610 O   0  0  0  0  0  0  0  0  0  0  0  0
    1.4560   -4.4118    0.9207 C   0  0  0  0  0  0  0  0  0  0  0  0
    2.1528   -4.2578   -1.9805 H   0  0  0  0  0  0  0  0  0  0  0  0
   -0.2667   -4.1160   -0.3467 H   0  0  0  0  0  0  0  0  0  0  0  0
    2.5374   -4.2329    0.9160 H   0  0  0  0  0  0  0  0  0  0  0  0
    1.0390   -3.8932    1.7903 H   0  0  0  0  0  0  0  0  0  0  0  0
    1.2976   -5.4871    1.0566 H   0  0  0  0  0  0  0  0  0  0  0  0
    0.0755   -1.6529   -0.0105 N   0  0  0  0  0  0  0  0  0  0  0  0
    0.1113   -0.2132   -0.0391 C   0  0  2  0  0  0  0  0  0  0  0  0
   -0.6008    0.2879    1.2128 C   0  0  0  0  0  0  0  0  0  0  0  0
   -1.7877    0.0643    1.4419 O   0  0  0  0  0  0  0  0  0  0  0  0
   -0.5540    0.3545   -1.2970 C   0  0  0  0  0  0  0  0  0  0  0  0
    0.2251    0.0157   -2.5735 C   0  0  0  0  0  0  0  0  0  0  0  0
   -0.4416    0.5832   -3.8223 C   0  0  0  0  0  0  0  0  0  0  0  0
    0.2911    0.2385   -5.0386 N   0  3  0  0  0  0  0  0  0  0  0  0
   -0.1613    0.5954   -6.3102 C   0  0  0  0  0  0  0  0  0  0  0  0
    0.5884    0.2332   -7.4243 N   0  0  0  0  0  0  0  0  0  0  0  0
   -1.3440    1.3053   -6.4903 N   0  0  0  0  0  0  0  0  0  0  0  0
   -0.7323   -2.1024    0.4149 H   0  0  0  0  0  0  0  0  0  0  0  0
    1.1665    0.0792    0.0086 H   0  0  0  0  0  0  0  0  0  0  0  0
   -0.6414    1.4437   -1.2039 H   0  0  0  0  0  0  0  0  0  0  0  0
   -1.5783   -0.0320   -1.3822 H   0  0  0  0  0  0  0  0  0  0  0  0
    1.2471    0.4055   -2.4947 H   0  0  0  0  0  0  0  0  0  0  0  0
    0.2968   -1.0725   -2.6829 H   0  0  0  0  0  0  0  0  0  0  0  0
   -1.4496    0.1690   -3.9220 H   0  0  0  0  0  0  0  0  0  0  0  0
   -0.5131    1.6737   -3.7661 H   0  0  0  0  0  0  0  0  0  0  0  0
    1.1645   -0.2809   -4.9697 H   0  0  0  0  0  0  0  0  0  0  0  0
    0.2869    0.4779   -8.3645 H   0  0  0  0  0  0  0  0  0  0  0  0
    1.4577   -0.2861   -7.3284 H   0  0  0  0  0  0  0  0  0  0  0  0
   -1.6779    1.5677   -7.4141 H   0  0  0  0  0  0  0  0  0  0  0  0
   -1.9130    1.5833   -5.6942 H   0  0  0  0  0  0  0  0  0  0  0  0
    0.2322    1.0537    2.0164 N   0  0  0  0  0  0  0  0  0  0  0  0
   -0.2152    1.6851    3.2365 C   0  0  2  0  0  0  0  0  0  0  0  0
    0.5643    2.9821    3.4082 C   0  0  0  0  0  0  0  0  0  0  0  0
    1.7339    3.1137    3.0534 O   0  0  0  0  0  0  0  0  0  0  0  0
   -0.0205    0.7710    4.4362 C   0  0  0  0  0  0  0  0  0  0  0  0
    1.2104    1.1583    1.7635 H   0  0  0  0  0  0  0  0  0  0  0  0
   -1.2786    1.9123    3.1035 H   0  0  0  0  0  0  0  0  0  0  0  0
    1.0389    0.5323    4.5854 H   0  0  0  0  0  0  0  0  0  0  0  0
   -0.3863    1.2397    5.3557 H   0  0  0  0  0  0  0  0  0  0  0  0
   -0.5577   -0.1735    4.2978 H   0  0  0  0  0  0  0  0  0  0  0  0
   -0.1860    3.9618    4.0433 N   0  0  0  0  0  0  0  0  0  0  0  0
    0.3444    5.2674    4.3596 C   0  0  0  0  0  0  0  0  0  0  0  0
   -1.1601    3.7793    4.2660 H   0  0  0  0  0  0  0  0  0  0  0  0
    0.7576    5.2588    5.3789 H   0  0  0  0  0  0  0  0  0  0  0  0
    1.1395    5.5232    3.6438 H   0  0  0  0  0  0  0  0  0  0  0  0
   -0.4601    6.0150    4.2965 H   0  0  0  0  0  0  0  0  0  0  0  0
  1  3  1  0  0  0  0
  1  7  1  0  0  0  0
  1  2  2  0  0  0  0
 42 43  1  0  0  0  0
 43 51  1  0  0  0  0
 43 44  2  0  0  0  0
  8  9  1  0  0  0  0
  9 17  1  0  0  0  0
  9 10  2  0  0  0  0
 18 19  1  0  0  0  0
 19 41  1  0  0  0  0
 19 20  2  0  0  0  0
 25 26  1  0  0  0  0
 25 27  1  0  0  0  0
 24 25  2  0  0  0  0
 42 45  1  0  0  0  0
  8 11  1  0  0  0  0
 51 52  1  0  0  0  0
 21 22  1  0  0  0  0
 22 23  1  0  0  0  0
 18 21  1  0  0  0  0
 23 24  1  0  0  0  0
 41 42  1  0  0  0  0
  7  8  1  0  0  0  0
 17 18  1  0  0  0  0
  3  4  1  0  0  0  0
  3  5  1  0  0  0  0
  3  6  1  0  0  0  0
 45 48  1  0  0  0  0
 45 49  1  0  0  0  0
 45 50  1  0  0  0  0
 11 14  1  0  0  0  0
 11 15  1  0  0  0  0
 11 16  1  0  0  0  0
 52 54  1  0  0  0  0
 52 55  1  0  0  0  0
 52 56  1  0  0  0  0
 22 32  1  0  0  0  0
 22 33  1  0  0  0  0
 21 30  1  0  0  0  0
 21 31  1  0  0  0  0
 23 34  1  0  0  0  0
 23 35  1  0  0  0  0
 42 47  1  0  0  0  0
  8 13  1  0  0  0  0
 18 29  1  0  0  0  0
 26 37  1  0  0  0  0
 26 38  1  0  0  0  0
 27 39  1  0  0  0  0
 27 40  1  0  0  0  0
 51 53  1  0  0  0  0
  7 12  1  0  0  0  0
 41 46  1  0  0  0  0
 17 28  1  0  0  0  0
 24 36  1  0  0  0  0
M  CHG  1  24   1
M  END
$$$$

  -OEChem-05262214473D

 56 55  0     1  0  0  0  0  0999 V2000
    0.7735   -5.8042   -2.0022 C   0  0  0  0  0  0  0  0  0  0  0  0
   -0.2086   -6.3825   -1.5519 O   0  0  0  0  0  0  0  0  0  0  0  0
    1.4751   -6.3646   -3.1946 C   0  0  0  0  0  0  0  0  0  0  0  0
    2.2765   -7.0687   -2.9186 H   0  0  0  0  0  0  0  0  0  0  0  0
    0.7988   -6.9360   -3.8504 H   0  0  0  0  0  0  0  0  0  0  0  0
    1.9556   -5.6216   -3.8511 H   0  0  0  0  0  0  0  0  0  0  0  0
    1.3322   -4.6359   -1.5106 N   0  0  0  0  0  0  0  0  0  0  0  0
    0.8124   -3.9290   -0.3698 C   0  0  2  0  0  0  0  0  0  0  0  0
    1.0666   -2.4424   -0.5818 C   0  0  0  0  0  0  0  0  0  0  0  0
    2.0598   -2.0076   -1.1610 O   0  0  0  0  0  0  0  0  0  0  0  0
    1.4560   -4.4118    0.9207 C   0  0  0  0  0  0  0  0  0  0  0  0
    2.1528   -4.2578   -1.9805 H   0  0  0  0  0  0  0  0  0  0  0  0
   -0.2667   -4.1160   -0.3467 H   0  0  0  0  0  0  0  0  0  0  0  0
    2.5374   -4.2329    0.9160 H   0  0  0  0  0  0  0  0  0  0  0  0
    1.0390   -3.8932    1.7903 H   0  0  0  0  0  0  0  0  0  0  0  0
    1.2976   -5.4871    1.0566 H   0  0  0  0  0  0  0  0  0  0  0  0
    0.0755   -1.6529   -0.0105 N   0  0  0  0  0  0  0  0  0  0  0  0
    0.1113   -0.2132   -0.0391 C   0  0  2  0  0  0  0  0  0  0  0  0
   -0.6008    0.2879    1.2128 C   0  0  0  0  0  0  0  0  0  0  0  0
   -1.6909   -0.1451    1.5808 O   0  0  0  0  0  0  0  0  0  0  0  0
   -0.5540    0.3545   -1.2970 C   0  0  0  0  0  0  0  0  0  0  0  0
    0.2251    0.0157   -2.5735 C   0  0  0  0  0  0  0  0  0  0  0  0
   -0.4416    0.5832   -3.8223 C   0  0  0  0  0  0  0  0  0  0  0  0
    0.2911    0.2385   -5.0386 N   0  3  0  0  0  0  0  0  0  0  0  0
   -0.1613    0.5954   -6.3102 C   0  0  0  0  0  0  0  0  0  0  0  0
    0.5884    0.2332   -7.4243 N   0  0  0  0  0  0  0  0  0  0  0  0
   -1.3440    1.3053   -6.4903 N   0  0  0  0  0  0  0  0  0  0  0  0
   -0.7323   -2.1024    0.4149 H   0  0  0  0  0  0  0  0  0  0  0  0
    1.1665    0.0792    0.0086 H   0  0  0  0  0  0  0  0  0  0  0  0
   -0.6414    1.4437   -1.2039 H   0  0  0  0  0  0  0  0  0  0  0  0
   -1.5783   -0.0320   -1.3822 H   0  0  0  0  0  0  0  0  0  0  0  0
    1.2471    0.4055   -2.4947 H   0  0  0  0  0  0  0  0  0  0  0  0
    0.2968   -1.0725   -2.6829 H   0  0  0  0  0  0  0  0  0  0  0  0
   -1.4496    0.1690   -3.9220 H   0  0  0  0  0  0  0  0  0  0  0  0
   -0.5131    1.6737   -3.7661 H   0  0  0  0  0  0  0  0  0  0  0  0
    1.1645   -0.2809   -4.9697 H   0  0  0  0  0  0  0  0  0  0  0  0
    0.2869    0.4779   -8.3645 H   0  0  0  0  0  0  0  0  0  0  0  0
    1.4577   -0.2861   -7.3284 H   0  0  0  0  0  0  0  0  0  0  0  0
   -1.6779    1.5677   -7.4141 H   0  0  0  0  0  0  0  0  0  0  0  0
   -1.9130    1.5833   -5.6942 H   0  0  0  0  0  0  0  0  0  0  0  0
    0.1012    1.3076    1.8403 N   0  0  0  0  0  0  0  0  0  0  0  0
   -0.3840    1.9857    3.0202 C   0  0  2  0  0  0  0  0  0  0  0  0
    0.1048    3.4272    2.9686 C   0  0  0  0  0  0  0  0  0  0  0  0
    1.1890    3.7511    2.4883 O   0  0  0  0  0  0  0  0  0  0  0  0
    0.0910    1.2958    4.2895 C   0  0  0  0  0  0  0  0  0  0  0  0
    1.0123    1.5788    1.4824 H   0  0  0  0  0  0  0  0  0  0  0  0
   -1.4780    1.9683    2.9676 H   0  0  0  0  0  0  0  0  0  0  0  0
    1.1848    1.3033    4.3598 H   0  0  0  0  0  0  0  0  0  0  0  0
   -0.3010    1.7940    5.1823 H   0  0  0  0  0  0  0  0  0  0  0  0
   -0.2363    0.2507    4.3108 H   0  0  0  0  0  0  0  0  0  0  0  0
   -0.7931    4.3042    3.5609 N   0  0  0  0  0  0  0  0  0  0  0  0
   -0.5383    5.7212    3.6758 C   0  0  0  0  0  0  0  0  0  0  0  0
   -1.6855    3.9544    3.8970 H   0  0  0  0  0  0  0  0  0  0  0  0
   -0.0608    5.9311    4.6442 H   0  0  0  0  0  0  0  0  0  0  0  0
    0.1284    6.0410    2.8614 H   0  0  0  0  0  0  0  0  0  0  0  0
   -1.4887    6.2711    3.6089 H   0  0  0  0  0  0  0  0  0  0  0  0
  1  3  1  0  0  0  0
  1  7  1  0  0  0  0
  1  2  2  0  0  0  0
 42 43  1  0  0  0  0
 43 51  1  0  0  0  0
 43 44  2  0  0  0  0
  8  9  1  0  0  0  0
  9 17  1  0  0  0  0
  9 10  2  0  0  0  0
 18 19  1  0  0  0  0
 19 41  1  0  0  0  0
 19 20  2  0  0  0  0
 25 26  1  0  0  0  0
 25 27  1  0  0  0  0
 24 25  2  0  0  0  0
 42 45  1  0  0  0  0
  8 11  1  0  0  0  0
 51 52  1  0  0  0  0
 21 22  1  0  0  0  0
 22 23  1  0  0  0  0
 18 21  1  0  0  0  0
 23 24  1  0  0  0  0
 41 42  1  0  0  0  0
  7  8  1  0  0  0  0
 17 18  1  0  0  0  0
  3  4  1  0  0  0  0
  3  5  1  0  0  0  0
  3  6  1  0  0  0  0
 45 48  1  0  0  0  0
 45 49  1  0  0  0  0
 45 50  1  0  0  0  0
 11 14  1  0  0  0  0
 11 15  1  0  0  0  0
 11 16  1  0  0  0  0
 52 54  1  0  0  0  0
 52 55  1  0  0  0  0
 52 56  1  0  0  0  0
 22 32  1  0  0  0  0
 22 33  1  0  0  0  0
 21 30  1  0  0  0  0
 21 31  1  0  0  0  0
 23 34  1  0  0  0  0
 23 35  1  0  0  0  0
 42 47  1  0  0  0  0
  8 13  1  0  0  0  0
 18 29  1  0  0  0  0
 26 37  1  0  0  0  0
 26 38  1  0  0  0  0
 27 39  1  0  0  0  0
 27 40  1  0  0  0  0
 51 53  1  0  0  0  0
  7 12  1  0  0  0  0
 41 46  1  0  0  0  0
 17 28  1  0  0  0  0
 24 36  1  0  0  0  0
M  CHG  1  24   1
M  END
$$$$

  -OEChem-05262214473D

 56 55  0     1  0  0  0  0  0999 V2000
    0.7735   -5.8042   -2.0022 C   0  0  0  0  0  0  0  0  0  0  0  0
   -0.2086   -6.3825   -1.5519 O   0  0  0  0  0  0  0  0  0  0  0  0
    1.4751   -6.3646   -3.1946 C   0  0  0  0  0  0  0  0  0  0  0  0
    2.2765   -7.0687   -2.9186 H   0  0  0  0  0  0  0  0  0  0  0  0
    0.7988   -6.9360   -3.8504 H   0  0  0  0  0  0  0  0  0  0  0  0
    1.9556   -5.6216   -3.8511 H   0  0  0  0  0  0  0  0  0  0  0  0
    1.3322   -4.6359   -1.5106 N   0  0  0  0  0  0  0  0  0  0  0  0
    0.8124   -3.9290   -0.3698 C   0  0  2  0  0  0  0  0  0  0  0  0
    1.0666   -2.4424   -0.5818 C   0  0  0  0  0  0  0  0  0  0  0  0
    2.0598   -2.0076   -1.1610 O   0  0  0  0  0  0  0  0  0  0  0  0
    1.4560   -4.4118    0.9207 C   0  0  0  0  0  0  0  0  0  0  0  0
    2.1528   -4.2578   -1.9805 H   0  0  0  0  0  0  0  0  0  0  0  0
   -0.2667   -4.1160   -0.3467 H   0  0  0  0  0  0  0  0  0  0  0  0
    2.5374   -4.2329    0.9160 H   0  0  0  0  0  0  0  0  0  0  0  0
    1.0390   -3.8932    1.7903 H   0  0  0  0  0  0  0  0  0  0  0  0
    1.2976   -5.4871    1.0566 H   0  0  0  0  0  0  0  0  0  0  0  0
    0.0755   -1.6529   -0.0105 N   0  0  0  0  0  0  0  0  0  0  0  0
    0.1113   -0.2132   -0.0391 C   0  0  2  0  0  0  0  0  0  0  0  0
   -0.6008    0.2879    1.2128 C   0  0  0  0  0  0  0  0  0  0  0  0
   -1.5411   -0.3100    1.7320 O   0  0  0  0  0  0  0  0  0  0  0  0
   -0.5540    0.3545   -1.2970 C   0  0  0  0  0  0  0  0  0  0  0  0
    0.2251    0.0157   -2.5735 C   0  0  0  0  0  0  0  0  0  0  0  0
   -0.4416    0.5832   -3.8223 C   0  0  0  0  0  0  0  0  0  0  0  0
    0.2911    0.2385   -5.0386 N   0  3  0  0  0  0  0  0  0  0  0  0
   -0.1613    0.5954   -6.3102 C   0  0  0  0  0  0  0  0  0  0  0  0
    0.5884    0.2332   -7.4243 N   0  0  0  0  0  0  0  0  0  0  0  0
   -1.3440    1.3053   -6.4903 N   0  0  0  0  0  0  0  0  0  0  0  0
   -0.7323   -2.1024    0.4149 H   0  0  0  0  0  0  0  0  0  0  0  0
    1.1665    0.0792    0.0086 H   0  0  0  0  0  0  0  0  0  0  0  0
   -0.6414    1.4437   -1.2039 H   0  0  0  0  0  0  0  0  0  0  0  0
   -1.5783   -0.0320   -1.3822 H   0  0  0  0  0  0  0  0  0  0  0  0
    1.2471    0.4055   -2.4947 H   0  0  0  0  0  0  0  0  0  0  0  0
    0.2968   -1.0725   -2.6829 H   0  0  0  0  0  0  0  0  0  0  0  0
   -1.4496    0.1690   -3.9220 H   0  0  0  0  0  0  0  0  0  0  0  0
   -0.5131    1.6737   -3.7661 H   0  0  0  0  0  0  0  0  0  0  0  0
    1.1645   -0.2809   -4.9697 H   0  0  0  0  0  0  0  0  0  0  0  0
    0.2869    0.4779   -8.3645 H   0  0  0  0  0  0  0  0  0  0  0  0
    1.4577   -0.2861   -7.3284 H   0  0  0  0  0  0  0  0  0  0  0  0
   -1.6779    1.5677   -7.4141 H   0  0  0  0  0  0  0  0  0  0  0  0
   -1.9130    1.5833   -5.6942 H   0  0  0  0  0  0  0  0  0  0  0  0
   -0.0943    1.5037    1.6505 N   0  0  0  0  0  0  0  0  0  0  0  0
   -0.6293    2.2141    2.7892 C   0  0  2  0  0  0  0  0  0  0  0  0
   -0.4710    3.7064    2.5293 C   0  0  0  0  0  0  0  0  0  0  0  0
    0.4792    4.1827    1.9118 O   0  0  0  0  0  0  0  0  0  0  0  0
    0.0746    1.8087    4.0749 C   0  0  0  0  0  0  0  0  0  0  0  0
    0.7077    1.9090    1.1770 H   0  0  0  0  0  0  0  0  0  0  0  0
   -1.6942    1.9637    2.8465 H   0  0  0  0  0  0  0  0  0  0  0  0
    1.1427    2.0518    4.0362 H   0  0  0  0  0  0  0  0  0  0  0  0
   -0.3511    2.3267    4.9406 H   0  0  0  0  0  0  0  0  0  0  0  0
   -0.0148    0.7303    4.2448 H   0  0  0  0  0  0  0  0  0  0  0  0
   -1.4933    4.4477    3.1052 N   0  0  0  0  0  0  0  0  0  0  0  0
   -1.5455    5.8894    3.0355 C   0  0  0  0  0  0  0  0  0  0  0  0
   -2.2615    3.9672    3.5642 H   0  0  0  0  0  0  0  0  0  0  0  0
   -1.0567    6.3178    3.9229 H   0  0  0  0  0  0  0  0  0  0  0  0
   -1.0248    6.2317    2.1291 H   0  0  0  0  0  0  0  0  0  0  0  0
   -2.5951    6.2169    3.0012 H   0  0  0  0  0  0  0  0  0  0  0  0
  1  3  1  0  0  0  0
  1  7  1  0  0  0  0
  1  2  2  0  0  0  0
 42 43  1  0  0  0  0
 43 51  1  0  0  0  0
 43 44  2  0  0  0  0
  8  9  1  0  0  0  0
  9 17  1  0  0  0  0
  9 10  2  0  0  0  0
 18 19  1  0  0  0  0
 19 41  1  0  0  0  0
 19 20  2  0  0  0  0
 25 26  1  0  0  0  0
 25 27  1  0  0  0  0
 24 25  2  0  0  0  0
 42 45  1  0  0  0  0
  8 11  1  0  0  0  0
 51 52  1  0  0  0  0
 21 22  1  0  0  0  0
 22 23  1  0  0  0  0
 18 21  1  0  0  0  0
 23 24  1  0  0  0  0
 41 42  1  0  0  0  0
  7  8  1  0  0  0  0
 17 18  1  0  0  0  0
  3  4  1  0  0  0  0
  3  5  1  0  0  0  0
  3  6  1  0  0  0  0
 45 48  1  0  0  0  0
 45 49  1  0  0  0  0
 45 50  1  0  0  0  0
 11 14  1  0  0  0  0
 11 15  1  0  0  0  0
 11 16  1  0  0  0  0
 52 54  1  0  0  0  0
 52 55  1  0  0  0  0
 52 56  1  0  0  0  0
 22 32  1  0  0  0  0
 22 33  1  0  0  0  0
 21 30  1  0  0  0  0
 21 31  1  0  0  0  0
 23 34  1  0  0  0  0
 23 35  1  0  0  0  0
 42 47  1  0  0  0  0
  8 13  1  0  0  0  0
 18 29  1  0  0  0  0
 26 37  1  0  0  0  0
 26 38  1  0  0  0  0
 27 39  1  0  0  0  0
 27 40  1  0  0  0  0
 51 53  1  0  0  0  0
  7 12  1  0  0  0  0
 41 46  1  0  0  0  0
 17 28  1  0  0  0  0
 24 36  1  0  0  0  0
M  CHG  1  24   1
M  END
$$$$

  -OEChem-05262214473D

 56 55  0     1  0  0  0  0  0999 V2000
    0.7735   -5.8042   -2.0022 C   0  0  0  0  0  0  0  0  0  0  0  0
   -0.2086   -6.3825   -1.5519 O   0  0  0  0  0  0  0  0  0  0  0  0
    1.4751   -6.3646   -3.1946 C   0  0  0  0  0  0  0  0  0  0  0  0
    2.2765   -7.0687   -2.9186 H   0  0  0  0  0  0  0  0  0  0  0  0
    0.7988   -6.9360   -3.8504 H   0  0  0  0  0  0  0  0  0  0  0  0
    1.9556   -5.6216   -3.8511 H   0  0  0  0  0  0  0  0  0  0  0  0
    1.3322   -4.6359   -1.5106 N   0  0  0  0  0  0  0  0  0  0  0  0
    0.8124   -3.9290   -0.3698 C   0  0  2  0  0  0  0  0  0  0  0  0
    1.0666   -2.4424   -0.5818 C   0  0  0  0  0  0  0  0  0  0  0  0
    2.0598   -2.0076   -1.1610 O   0  0  0  0  0  0  0  0  0  0  0  0
    1.4560   -4.4118    0.9207 C   0  0  0  0  0  0  0  0  0  0  0  0
    2.1528   -4.2578   -1.9805 H   0  0  0  0  0  0  0  0  0  0  0  0
   -0.2667   -4.1160   -0.3467 H   0  0  0  0  0  0  0  0  0  0  0  0
    2.5374   -4.2329    0.9160 H   0  0  0  0  0  0  0  0  0  0  0  0
    1.0390   -3.8932    1.7903 H   0  0  0  0  0  0  0  0  0  0  0  0
    1.2976   -5.4871    1.0566 H   0  0  0  0  0  0  0  0  0  0  0  0
    0.0755   -1.6529   -0.0105 N   0  0  0  0  0  0  0  0  0  0  0  0
    0.1113   -0.2132   -0.0391 C   0  0  2  0  0  0  0  0  0  0  0  0
   -0.6008    0.2879    1.2128 C   0  0  0  0  0  0  0  0  0  0  0  0
   -1.3485   -0.4192    1.8853 O   0  0  0  0  0  0  0  0  0  0  0  0
   -0.5540    0.3545   -1.2970 C   0  0  0  0  0  0  0  0  0  0  0  0
    0.2251    0.0157   -2.5735 C   0  0  0  0  0  0  0  0  0  0  0  0
   -0.4416    0.5832   -3.8223 C   0  0  0  0  0  0  0  0  0  0  0  0
    0.2911    0.2385   -5.0386 N   0  3  0  0  0  0  0  0  0  0  0  0
   -0.1613    0.5954   -6.3102 C   0  0  0  0  0  0  0  0  0  0  0  0
    0.5884    0.2332   -7.4243 N   0  0  0  0  0  0  0  0  0  0  0  0
   -1.3440    1.3053   -6.4903 N   0  0  0  0  0  0  0  0  0  0  0  0
   -0.7323   -2.1024    0.4149 H   0  0  0  0  0  0  0  0  0  0  0  0
    1.1665    0.0792    0.0086 H   0  0  0  0  0  0  0  0  0  0  0  0
   -0.6414    1.4437   -1.2039 H   0  0  0  0  0  0  0  0  0  0  0  0
   -1.5783   -0.0320   -1.3822 H   0  0  0  0  0  0  0  0  0  0  0  0
    1.2471    0.4055   -2.4947 H   0  0  0  0  0  0  0  0  0  0  0  0
    0.2968   -1.0725   -2.6829 H   0  0  0  0  0  0  0  0  0  0  0  0
   -1.4496    0.1690   -3.9220 H   0  0  0  0  0  0  0  0  0  0  0  0
   -0.5131    1.6737   -3.7661 H   0  0  0  0  0  0  0  0  0  0  0  0
    1.1645   -0.2809   -4.9697 H   0  0  0  0  0  0  0  0  0  0  0  0
    0.2869    0.4779   -8.3645 H   0  0  0  0  0  0  0  0  0  0  0  0
    1.4577   -0.2861   -7.3284 H   0  0  0  0  0  0  0  0  0  0  0  0
   -1.6779    1.5677   -7.4141 H   0  0  0  0  0  0  0  0  0  0  0  0
   -1.9130    1.5833   -5.6942 H   0  0  0  0  0  0  0  0  0  0  0  0
   -0.3410    1.6286    1.4602 N   0  0  0  0  0  0  0  0  0  0  0  0
   -0.9344    2.3547    2.5594 C   0  0  2  0  0  0  0  0  0  0  0  0
   -1.1239    3.8006    2.1202 C   0  0  0  0  0  0  0  0  0  0  0  0
   -0.3472    4.3790    1.3631 O   0  0  0  0  0  0  0  0  0  0  0  0
   -0.0684    2.2747    3.8070 C   0  0  0  0  0  0  0  0  0  0  0  0
    0.3173    2.1262    0.8680 H   0  0  0  0  0  0  0  0  0  0  0  0
   -1.9122    1.8986    2.7485 H   0  0  0  0  0  0  0  0  0  0  0  0
    0.9155    2.7267    3.6368 H   0  0  0  0  0  0  0  0  0  0  0  0
   -0.5332    2.8013    4.6470 H   0  0  0  0  0  0  0  0  0  0  0  0
    0.0915    1.2326    4.1042 H   0  0  0  0  0  0  0  0  0  0  0  0
   -2.2389    4.3824    2.7072 N   0  0  0  0  0  0  0  0  0  0  0  0
   -2.6086    5.7604    2.4824 C   0  0  0  0  0  0  0  0  0  0  0  0
   -2.8490    3.8170    3.2901 H   0  0  0  0  0  0  0  0  0  0  0  0
   -2.1622    6.3925    3.2642 H   0  0  0  0  0  0  0  0  0  0  0  0
   -2.2415    6.0823    1.4967 H   0  0  0  0  0  0  0  0  0  0  0  0
   -3.7039    5.8560    2.5149 H   0  0  0  0  0  0  0  0  0  0  0  0
  1  3  1  0  0  0  0
  1  7  1  0  0  0  0
  1  2  2  0  0  0  0
 42 43  1  0  0  0  0
 43 51  1  0  0  0  0
 43 44  2  0  0  0  0
  8  9  1  0  0  0  0
  9 17  1  0  0  0  0
  9 10  2  0  0  0  0
 18 19  1  0  0  0  0
 19 41  1  0  0  0  0
 19 20  2  0  0  0  0
 25 26  1  0  0  0  0
 25 27  1  0  0  0  0
 24 25  2  0  0  0  0
 42 45  1  0  0  0  0
  8 11  1  0  0  0  0
 51 52  1  0  0  0  0
 21 22  1  0  0  0  0
 22 23  1  0  0  0  0
 18 21  1  0  0  0  0
 23 24  1  0  0  0  0
 41 42  1  0  0  0  0
  7  8  1  0  0  0  0
 17 18  1  0  0  0  0
  3  4  1  0  0  0  0
  3  5  1  0  0  0  0
  3  6  1  0  0  0  0
 45 48  1  0  0  0  0
 45 49  1  0  0  0  0
 45 50  1  0  0  0  0
 11 14  1  0  0  0  0
 11 15  1  0  0  0  0
 11 16  1  0  0  0  0
 52 54  1  0  0  0  0
 52 55  1  0  0  0  0
 52 56  1  0  0  0  0
 22 32  1  0  0  0  0
 22 33  1  0  0  0  0
 21 30  1  0  0  0  0
 21 31  1  0  0  0  0
 23 34  1  0  0  0  0
 23 35  1  0  0  0  0
 42 47  1  0  0  0  0
  8 13  1  0  0  0  0
 18 29  1  0  0  0  0
 26 37  1  0  0  0  0
 26 38  1  0  0  0  0
 27 39  1  0  0  0  0
 27 40  1  0  0  0  0
 51 53  1  0  0  0  0
  7 12  1  0  0  0  0
 41 46  1  0  0  0  0
 17 28  1  0  0  0  0
 24 36  1  0  0  0  0
M  CHG  1  24   1
M  END
$$$$

  -OEChem-05262214473D

 56 55  0     1  0  0  0  0  0999 V2000
    0.7735   -5.8042   -2.0022 C   0  0  0  0  0  0  0  0  0  0  0  0
   -0.2086   -6.3825   -1.5519 O   0  0  0  0  0  0  0  0  0  0  0  0
    1.4751   -6.3646   -3.1946 C   0  0  0  0  0  0  0  0  0  0  0  0
    2.2765   -7.0687   -2.9186 H   0  0  0  0  0  0  0  0  0  0  0  0
    0.7988   -6.9360   -3.8504 H   0  0  0  0  0  0  0  0  0  0  0  0
    1.9556   -5.6216   -3.8511 H   0  0  0  0  0  0  0  0  0  0  0  0
    1.3322   -4.6359   -1.5106 N   0  0  0  0  0  0  0  0  0  0  0  0
    0.8124   -3.9290   -0.3698 C   0  0  2  0  0  0  0  0  0  0  0  0
    1.0666   -2.4424   -0.5818 C   0  0  0  0  0  0  0  0  0  0  0  0
    2.0598   -2.0076   -1.1610 O   0  0  0  0  0  0  0  0  0  0  0  0
    1.4560   -4.4118    0.9207 C   0  0  0  0  0  0  0  0  0  0  0  0
    2.1528   -4.2578   -1.9805 H   0  0  0  0  0  0  0  0  0  0  0  0
   -0.2667   -4.1160   -0.3467 H   0  0  0  0  0  0  0  0  0  0  0  0
    2.5374   -4.2329    0.9160 H   0  0  0  0  0  0  0  0  0  0  0  0
    1.0390   -3.8932    1.7903 H   0  0  0  0  0  0  0  0  0  0  0  0
    1.2976   -5.4871    1.0566 H   0  0  0  0  0  0  0  0  0  0  0  0
    0.0755   -1.6529   -0.0105 N   0  0  0  0  0  0  0  0  0  0  0  0
    0.1113   -0.2132   -0.0391 C   0  0  2  0  0  0  0  0  0  0  0  0
   -0.2497    0.2820    1.3573 C   0  0  0  0  0  0  0  0  0  0  0  0
   -0.5503   -0.4746    2.2783 O   0  0  0  0  0  0  0  0  0  0  0  0
   -0.8533    0.3663   -1.0788 C   0  0  0  0  0  0  0  0  0  0  0  0
   -0.4329    0.0333   -2.5153 C   0  0  0  0  0  0  0  0  0  0  0  0
   -1.3966    0.6125   -3.5458 C   0  0  0  0  0  0  0  0  0  0  0  0
   -1.0055    0.2733   -4.9122 N   0  3  0  0  0  0  0  0  0  0  0  0
   -1.7694    0.6413   -6.0214 C   0  0  0  0  0  0  0  0  0  0  0  0
   -1.3355    0.2838   -7.2936 N   0  0  0  0  0  0  0  0  0  0  0  0
   -2.9541    1.3575   -5.8853 N   0  0  0  0  0  0  0  0  0  0  0  0
   -0.7323   -2.1024    0.4149 H   0  0  0  0  0  0  0  0  0  0  0  0
    1.1447    0.0743   -0.2643 H   0  0  0  0  0  0  0  0  0  0  0  0
   -0.9071    1.4551   -0.9599 H   0  0  0  0  0  0  0  0  0  0  0  0
   -1.8671   -0.0152   -0.8983 H   0  0  0  0  0  0  0  0  0  0  0  0
    0.5770    0.4181   -2.7013 H   0  0  0  0  0  0  0  0  0  0  0  0
   -0.3985   -1.0544   -2.6458 H   0  0  0  0  0  0  0  0  0  0  0  0
   -2.3985    0.2034   -3.3837 H   0  0  0  0  0  0  0  0  0  0  0  0
   -1.4446    1.7029   -3.4667 H   0  0  0  0  0  0  0  0  0  0  0  0
   -0.1472   -0.2503   -5.0746 H   0  0  0  0  0  0  0  0  0  0  0  0
   -1.8685    0.5365   -8.1223 H   0  0  0  0  0  0  0  0  0  0  0  0
   -0.4741   -0.2400   -7.4289 H   0  0  0  0  0  0  0  0  0  0  0  0
   -3.5140    1.6278   -6.6897 H   0  0  0  0  0  0  0  0  0  0  0  0
   -3.2961    1.6322   -4.9675 H   0  0  0  0  0  0  0  0  0  0  0  0
   -0.2439    1.6676    1.4378 N   0  0  0  0  0  0  0  0  0  0  0  0
   -0.5984    2.3868    2.6397 C   0  0  2  0  0  0  0  0  0  0  0  0
   -1.2527    3.6987    2.2271 C   0  0  0  0  0  0  0  0  0  0  0  0
   -0.9230    4.3259    1.2226 O   0  0  0  0  0  0  0  0  0  0  0  0
    0.6204    2.6386    3.5137 C   0  0  0  0  0  0  0  0  0  0  0  0
    0.0499    2.2124    0.6325 H   0  0  0  0  0  0  0  0  0  0  0  0
   -1.3262    1.7678    3.1757 H   0  0  0  0  0  0  0  0  0  0  0  0
    1.3607    3.2572    2.9936 H   0  0  0  0  0  0  0  0  0  0  0  0
    0.3456    3.1585    4.4374 H   0  0  0  0  0  0  0  0  0  0  0  0
    1.1070    1.6955    3.7850 H   0  0  0  0  0  0  0  0  0  0  0  0
   -2.2185    4.1087    3.1356 N   0  0  0  0  0  0  0  0  0  0  0  0
   -2.9520    5.3442    2.9893 C   0  0  0  0  0  0  0  0  0  0  0  0
   -2.4553    3.5067    3.9187 H   0  0  0  0  0  0  0  0  0  0  0  0
   -2.4356    6.1450    3.5388 H   0  0  0  0  0  0  0  0  0  0  0  0
   -3.0123    5.6107    1.9238 H   0  0  0  0  0  0  0  0  0  0  0  0
   -3.9671    5.2178    3.3937 H   0  0  0  0  0  0  0  0  0  0  0  0
  1  3  1  0  0  0  0
  1  7  1  0  0  0  0
  1  2  2  0  0  0  0
 42 43  1  0  0  0  0
 43 51  1  0  0  0  0
 43 44  2  0  0  0  0
  8  9  1  0  0  0  0
  9 17  1  0  0  0  0
  9 10  2  0  0  0  0
 18 19  1  0  0  0  0
 19 41  1  0  0  0  0
 19 20  2  0  0  0  0
 25 26  1  0  0  0  0
 25 27  1  0  0  0  0
 24 25  2  0  0  0  0
 42 45  1  0  0  0  0
  8 11  1  0  0  0  0
 51 52  1  0  0  0  0
 21 22  1  0  0  0  0
 22 23  1  0  0  0  0
 18 21  1  0  0  0  0
 23 24  1  0  0  0  0
 41 42  1  0  0  0  0
  7  8  1  0  0  0  0
 17 18  1  0  0  0  0
  3  4  1  0  0  0  0
  3  5  1  0  0  0  0
  3  6  1  0  0  0  0
 45 48  1  0  0  0  0
 45 49  1  0  0  0  0
 45 50  1  0  0  0  0
 11 14  1  0  0  0  0
 11 15  1  0  0  0  0
 11 16  1  0  0  0  0
 52 54  1  0  0  0  0
 52 55  1  0  0  0  0
 52 56  1  0  0  0  0
 22 32  1  0  0  0  0
 22 33  1  0  0  0  0
 21 30  1  0  0  0  0
 21 31  1  0  0  0  0
 23 34  1  0  0  0  0
 23 35  1  0  0  0  0
 42 47  1  0  0  0  0
  8 13  1  0  0  0  0
 18 29  1  0  0  0  0
 26 37  1  0  0  0  0
 26 38  1  0  0  0  0
 27 39  1  0  0  0  0
 27 40  1  0  0  0  0
 51 53  1  0  0  0  0
  7 12  1  0  0  0  0
 41 46  1  0  0  0  0
 17 28  1  0  0  0  0
 24 36  1  0  0  0  0
M  CHG  1  24   1
M  END
$$$$

  -OEChem-05262214473D

 56 55  0     1  0  0  0  0  0999 V2000
    0.7735   -5.8042   -2.0022 C   0  0  0  0  0  0  0  0  0  0  0  0
   -0.2086   -6.3825   -1.5519 O   0  0  0  0  0  0  0  0  0  0  0  0
    1.4751   -6.3646   -3.1946 C   0  0  0  0  0  0  0  0  0  0  0  0
    2.2765   -7.0687   -2.9186 H   0  0  0  0  0  0  0  0  0  0  0  0
    0.7988   -6.9360   -3.8504 H   0  0  0  0  0  0  0  0  0  0  0  0
    1.9556   -5.6216   -3.8511 H   0  0  0  0  0  0  0  0  0  0  0  0
    1.3322   -4.6359   -1.5106 N   0  0  0  0  0  0  0  0  0  0  0  0
    0.8124   -3.9290   -0.3698 C   0  0  2  0  0  0  0  0  0  0  0  0
    1.0666   -2.4424   -0.5818 C   0  0  0  0  0  0  0  0  0  0  0  0
    2.0598   -2.0076   -1.1610 O   0  0  0  0  0  0  0  0  0  0  0  0
    1.4560   -4.4118    0.9207 C   0  0  0  0  0  0  0  0  0  0  0  0
    2.1528   -4.2578   -1.9805 H   0  0  0  0  0  0  0  0  0  0  0  0
   -0.2667   -4.1160   -0.3467 H   0  0  0  0  0  0  0  0  0  0  0  0
    2.5374   -4.2329    0.9160 H   0  0  0  0  0  0  0  0  0  0  0  0
    1.0390   -3.8932    1.7903 H   0  0  0  0  0  0  0  0  0  0  0  0
    1.2976   -5.4871    1.0566 H   0  0  0  0  0  0  0  0  0  0  0  0
    0.0755   -1.6529   -0.0105 N   0  0  0  0  0  0  0  0  0  0  0  0
    0.1113   -0.2132   -0.0391 C   0  0  2  0  0  0  0  0  0  0  0  0
   -0.2497    0.2820    1.3573 C   0  0  0  0  0  0  0  0  0  0  0  0
   -0.2887   -0.4562    2.3395 O   0  0  0  0  0  0  0  0  0  0  0  0
   -0.8533    0.3663   -1.0788 C   0  0  0  0  0  0  0  0  0  0  0  0
   -0.4329    0.0333   -2.5153 C   0  0  0  0  0  0  0  0  0  0  0  0
   -1.3966    0.6125   -3.5458 C   0  0  0  0  0  0  0  0  0  0  0  0
   -1.0055    0.2733   -4.9122 N   0  3  0  0  0  0  0  0  0  0  0  0
   -1.7694    0.6413   -6.0214 C   0  0  0  0  0  0  0  0  0  0  0  0
   -1.3355    0.2838   -7.2936 N   0  0  0  0  0  0  0  0  0  0  0  0
   -2.9541    1.3575   -5.8853 N   0  0  0  0  0  0  0  0  0  0  0  0
   -0.7323   -2.1024    0.4149 H   0  0  0  0  0  0  0  0  0  0  0  0
    1.1447    0.0743   -0.2643 H   0  0  0  0  0  0  0  0  0  0  0  0
   -0.9071    1.4551   -0.9599 H   0  0  0  0  0  0  0  0  0  0  0  0
   -1.8671   -0.0152   -0.8983 H   0  0  0  0  0  0  0  0  0  0  0  0
    0.5770    0.4181   -2.7013 H   0  0  0  0  0  0  0  0  0  0  0  0
   -0.3985   -1.0544   -2.6458 H   0  0  0  0  0  0  0  0  0  0  0  0
   -2.3985    0.2034   -3.3837 H   0  0  0  0  0  0  0  0  0  0  0  0
   -1.4446    1.7029   -3.4667 H   0  0  0  0  0  0  0  0  0  0  0  0
   -0.1472   -0.2503   -5.0746 H   0  0  0  0  0  0  0  0  0  0  0  0
   -1.8685    0.5365   -8.1223 H   0  0  0  0  0  0  0  0  0  0  0  0
   -0.4741   -0.2400   -7.4289 H   0  0  0  0  0  0  0  0  0  0  0  0
   -3.5140    1.6278   -6.6897 H   0  0  0  0  0  0  0  0  0  0  0  0
   -3.2961    1.6322   -4.9675 H   0  0  0  0  0  0  0  0  0  0  0  0
   -0.5699    1.6325    1.3660 N   0  0  0  0  0  0  0  0  0  0  0  0
   -0.9932    2.3325    2.5569 C   0  0  2  0  0  0  0  0  0  0  0  0
   -1.9725    3.4216    2.1392 C   0  0  0  0  0  0  0  0  0  0  0  0
   -1.8807    4.0352    1.0781 O   0  0  0  0  0  0  0  0  0  0  0  0
    0.1931    2.9247    3.3018 C   0  0  0  0  0  0  0  0  0  0  0  0
   -0.4778    2.1720    0.5103 H   0  0  0  0  0  0  0  0  0  0  0  0
   -1.5081    1.6000    3.1881 H   0  0  0  0  0  0  0  0  0  0  0  0
    0.7215    3.6609    2.6851 H   0  0  0  0  0  0  0  0  0  0  0  0
   -0.1266    3.4303    4.2189 H   0  0  0  0  0  0  0  0  0  0  0  0
    0.9108    2.1437    3.5753 H   0  0  0  0  0  0  0  0  0  0  0  0
   -2.9357    3.6576    3.1101 N   0  0  0  0  0  0  0  0  0  0  0  0
   -3.9529    4.6731    2.9685 C   0  0  0  0  0  0  0  0  0  0  0  0
   -2.9607    3.0744    3.9414 H   0  0  0  0  0  0  0  0  0  0  0  0
   -3.6029    5.6098    3.4268 H   0  0  0  0  0  0  0  0  0  0  0  0
   -4.1568    4.8413    1.9008 H   0  0  0  0  0  0  0  0  0  0  0  0
   -4.8741    4.3415    3.4699 H   0  0  0  0  0  0  0  0  0  0  0  0
  1  3  1  0  0  0  0
  1  7  1  0  0  0  0
  1  2  2  0  0  0  0
 42 43  1  0  0  0  0
 43 51  1  0  0  0  0
 43 44  2  0  0  0  0
  8  9  1  0  0  0  0
  9 17  1  0  0  0  0
  9 10  2  0  0  0  0
 18 19  1  0  0  0  0
 19 41  1  0  0  0  0
 19 20  2  0  0  0  0
 25 26  1  0  0  0  0
 25 27  1  0  0  0  0
 24 25  2  0  0  0  0
 42 45  1  0  0  0  0
  8 11  1  0  0  0  0
 51 52  1  0  0  0  0
 21 22  1  0  0  0  0
 22 23  1  0  0  0  0
 18 21  1  0  0  0  0
 23 24  1  0  0  0  0
 41 42  1  0  0  0  0
  7  8  1  0  0  0  0
 17 18  1  0  0  0  0
  3  4  1  0  0  0  0
  3  5  1  0  0  0  0
  3  6  1  0  0  0  0
 45 48  1  0  0  0  0
 45 49  1  0  0  0  0
 45 50  1  0  0  0  0
 11 14  1  0  0  0  0
 11 15  1  0  0  0  0
 11 16  1  0  0  0  0
 52 54  1  0  0  0  0
 52 55  1  0  0  0  0
 52 56  1  0  0  0  0
 22 32  1  0  0  0  0
 22 33  1  0  0  0  0
 21 30  1  0  0  0  0
 21 31  1  0  0  0  0
 23 34  1  0  0  0  0
 23 35  1  0  0  0  0
 42 47  1  0  0  0  0
  8 13  1  0  0  0  0
 18 29  1  0  0  0  0
 26 37  1  0  0  0  0
 26 38  1  0  0  0  0
 27 39  1  0  0  0  0
 27 40  1  0  0  0  0
 51 53  1  0  0  0  0
  7 12  1  0  0  0  0
 41 46  1  0  0  0  0
 17 28  1  0  0  0  0
 24 36  1  0  0  0  0
M  CHG  1  24   1
M  END
$$$$

  -OEChem-05262214473D

 56 55  0     1  0  0  0  0  0999 V2000
    0.7735   -5.8042   -2.0022 C   0  0  0  0  0  0  0  0  0  0  0  0
   -0.2086   -6.3825   -1.5519 O   0  0  0  0  0  0  0  0  0  0  0  0
    1.4751   -6.3646   -3.1946 C   0  0  0  0  0  0  0  0  0  0  0  0
    2.2765   -7.0687   -2.9186 H   0  0  0  0  0  0  0  0  0  0  0  0
    0.7988   -6.9360   -3.8504 H   0  0  0  0  0  0  0  0  0  0  0  0
    1.9556   -5.6216   -3.8511 H   0  0  0  0  0  0  0  0  0  0  0  0
    1.3322   -4.6359   -1.5106 N   0  0  0  0  0  0  0  0  0  0  0  0
    0.8124   -3.9290   -0.3698 C   0  0  2  0  0  0  0  0  0  0  0  0
    1.0666   -2.4424   -0.5818 C   0  0  0  0  0  0  0  0  0  0  0  0
    2.0598   -2.0076   -1.1610 O   0  0  0  0  0  0  0  0  0  0  0  0
    1.4560   -4.4118    0.9207 C   0  0  0  0  0  0  0  0  0  0  0  0
    2.1528   -4.2578   -1.9805 H   0  0  0  0  0  0  0  0  0  0  0  0
   -0.2667   -4.1160   -0.3467 H   0  0  0  0  0  0  0  0  0  0  0  0
    2.5374   -4.2329    0.9160 H   0  0  0  0  0  0  0  0  0  0  0  0
    1.0390   -3.8932    1.7903 H   0  0  0  0  0  0  0  0  0  0  0  0
    1.2976   -5.4871    1.0566 H   0  0  0  0  0  0  0  0  0  0  0  0
    0.0755   -1.6529   -0.0105 N   0  0  0  0  0  0  0  0  0  0  0  0
    0.1113   -0.2132   -0.0391 C   0  0  2  0  0  0  0  0  0  0  0  0
   -0.2497    0.2820    1.3573 C   0  0  0  0  0  0  0  0  0  0  0  0
   -0.0353   -0.3727    2.3754 O   0  0  0  0  0  0  0  0  0  0  0  0
   -0.8533    0.3663   -1.0788 C   0  0  0  0  0  0  0  0  0  0  0  0
   -0.4329    0.0333   -2.5153 C   0  0  0  0  0  0  0  0  0  0  0  0
   -1.3966    0.6125   -3.5458 C   0  0  0  0  0  0  0  0  0  0  0  0
   -1.0055    0.2733   -4.9122 N   0  3  0  0  0  0  0  0  0  0  0  0
   -1.7694    0.6413   -6.0214 C   0  0  0  0  0  0  0  0  0  0  0  0
   -1.3355    0.2838   -7.2936 N   0  0  0  0  0  0  0  0  0  0  0  0
   -2.9541    1.3575   -5.8853 N   0  0  0  0  0  0  0  0  0  0  0  0
   -0.7323   -2.1024    0.4149 H   0  0  0  0  0  0  0  0  0  0  0  0
    1.1447    0.0743   -0.2643 H   0  0  0  0  0  0  0  0  0  0  0  0
   -0.9071    1.4551   -0.9599 H   0  0  0  0  0  0  0  0  0  0  0  0
   -1.8671   -0.0152   -0.8983 H   0  0  0  0  0  0  0  0  0  0  0  0
    0.5770    0.4181   -2.7013 H   0  0  0  0  0  0  0  0  0  0  0  0
   -0.3985   -1.0544   -2.6458 H   0  0  0  0  0  0  0  0  0  0  0  0
   -2.3985    0.2034   -3.3837 H   0  0  0  0  0  0  0  0  0  0  0  0
   -1.4446    1.7029   -3.4667 H   0  0  0  0  0  0  0  0  0  0  0  0
   -0.1472   -0.2503   -5.0746 H   0  0  0  0  0  0  0  0  0  0  0  0
   -1.8685    0.5365   -8.1223 H   0  0  0  0  0  0  0  0  0  0  0  0
   -0.4741   -0.2400   -7.4289 H   0  0  0  0  0  0  0  0  0  0  0  0
   -3.5140    1.6278   -6.6897 H   0  0  0  0  0  0  0  0  0  0  0  0
   -3.2961    1.6322   -4.9675 H   0  0  0  0  0  0  0  0  0  0  0  0
   -0.8825    1.5169    1.3262 N   0  0  0  0  0  0  0  0  0  0  0  0
   -1.3686    2.1814    2.5134 C   0  0  2  0  0  0  0  0  0  0  0  0
   -2.6094    2.9779    2.1319 C   0  0  0  0  0  0  0  0  0  0  0  0
   -2.7489    3.5186    1.0368 O   0  0  0  0  0  0  0  0  0  0  0  0
   -0.3053    3.0868    3.1154 C   0  0  0  0  0  0  0  0  0  0  0  0
   -0.9883    2.0004    0.4392 H   0  0  0  0  0  0  0  0  0  0  0  0
   -1.6431    1.3957    3.2257 H   0  0  0  0  0  0  0  0  0  0  0  0
   -0.0176    3.8803    2.4162 H   0  0  0  0  0  0  0  0  0  0  0  0
   -0.6655    3.5675    4.0309 H   0  0  0  0  0  0  0  0  0  0  0  0
    0.5974    2.5174    3.3617 H   0  0  0  0  0  0  0  0  0  0  0  0
   -3.5238    3.0503    3.1734 N   0  0  0  0  0  0  0  0  0  0  0  0
   -4.7624    3.7864    3.0737 C   0  0  0  0  0  0  0  0  0  0  0  0
   -3.3445    2.5385    4.0323 H   0  0  0  0  0  0  0  0  0  0  0  0
   -4.6130    4.8093    3.4496 H   0  0  0  0  0  0  0  0  0  0  0  0
   -5.0819    3.8254    2.0219 H   0  0  0  0  0  0  0  0  0  0  0  0
   -5.5361    3.2848    3.6736 H   0  0  0  0  0  0  0  0  0  0  0  0
  1  3  1  0  0  0  0
  1  7  1  0  0  0  0
  1  2  2  0  0  0  0
 42 43  1  0  0  0  0
 43 51  1  0  0  0  0
 43 44  2  0  0  0  0
  8  9  1  0  0  0  0
  9 17  1  0  0  0  0
  9 10  2  0  0  0  0
 18 19  1  0  0  0  0
 19 41  1  0  0  0  0
 19 20  2  0  0  0  0
 25 26  1  0  0  0  0
 25 27  1  0  0  0  0
 24 25  2  0  0  0  0
 42 45  1  0  0  0  0
  8 11  1  0  0  0  0
 51 52  1  0  0  0  0
 21 22  1  0  0  0  0
 22 23  1  0  0  0  0
 18 21  1  0  0  0  0
 23 24  1  0  0  0  0
 41 42  1  0  0  0  0
  7  8  1  0  0  0  0
 17 18  1  0  0  0  0
  3  4  1  0  0  0  0
  3  5  1  0  0  0  0
  3  6  1  0  0  0  0
 45 48  1  0  0  0  0
 45 49  1  0  0  0  0
 45 50  1  0  0  0  0
 11 14  1  0  0  0  0
 11 15  1  0  0  0  0
 11 16  1  0  0  0  0
 52 54  1  0  0  0  0
 52 55  1  0  0  0  0
 52 56  1  0  0  0  0
 22 32  1  0  0  0  0
 22 33  1  0  0  0  0
 21 30  1  0  0  0  0
 21 31  1  0  0  0  0
 23 34  1  0  0  0  0
 23 35  1  0  0  0  0
 42 47  1  0  0  0  0
  8 13  1  0  0  0  0
 18 29  1  0  0  0  0
 26 37  1  0  0  0  0
 26 38  1  0  0  0  0
 27 39  1  0  0  0  0
 27 40  1  0  0  0  0
 51 53  1  0  0  0  0
  7 12  1  0  0  0  0
 41 46  1  0  0  0  0
 17 28  1  0  0  0  0
 24 36  1  0  0  0  0
M  CHG  1  24   1
M  END
$$$$

  -OEChem-05262214473D

 56 55  0     1  0  0  0  0  0999 V2000
    0.7735   -5.8042   -2.0022 C   0  0  0  0  0  0  0  0  0  0  0  0
   -0.2086   -6.3825   -1.5519 O   0  0  0  0  0  0  0  0  0  0  0  0
    1.4751   -6.3646   -3.1946 C   0  0  0  0  0  0  0  0  0  0  0  0
    2.2765   -7.0687   -2.9186 H   0  0  0  0  0  0  0  0  0  0  0  0
    0.7988   -6.9360   -3.8504 H   0  0  0  0  0  0  0  0  0  0  0  0
    1.9556   -5.6216   -3.8511 H   0  0  0  0  0  0  0  0  0  0  0  0
    1.3322   -4.6359   -1.5106 N   0  0  0  0  0  0  0  0  0  0  0  0
    0.8124   -3.9290   -0.3698 C   0  0  2  0  0  0  0  0  0  0  0  0
    1.0666   -2.4424   -0.5818 C   0  0  0  0  0  0  0  0  0  0  0  0
    2.0598   -2.0076   -1.1610 O   0  0  0  0  0  0  0  0  0  0  0  0
    1.4560   -4.4118    0.9207 C   0  0  0  0  0  0  0  0  0  0  0  0
    2.1528   -4.2578   -1.9805 H   0  0  0  0  0  0  0  0  0  0  0  0
   -0.2667   -4.1160   -0.3467 H   0  0  0  0  0  0  0  0  0  0  0  0
    2.5374   -4.2329    0.9160 H   0  0  0  0  0  0  0  0  0  0  0  0
    1.0390   -3.8932    1.7903 H   0  0  0  0  0  0  0  0  0  0  0  0
    1.2976   -5.4871    1.0566 H   0  0  0  0  0  0  0  0  0  0  0  0
    0.0755   -1.6529   -0.0105 N   0  0  0  0  0  0  0  0  0  0  0  0
    0.1113   -0.2132   -0.0391 C   0  0  2  0  0  0  0  0  0  0  0  0
   -0.2497    0.2820    1.3573 C   0  0  0  0  0  0  0  0  0  0  0  0
    0.1927   -0.2298    2.3836 O   0  0  0  0  0  0  0  0  0  0  0  0
   -0.8533    0.3663   -1.0788 C   0  0  0  0  0  0  0  0  0  0  0  0
   -0.4329    0.0333   -2.5153 C   0  0  0  0  0  0  0  0  0  0  0  0
   -1.3966    0.6125   -3.5458 C   0  0  0  0  0  0  0  0  0  0  0  0
   -1.0055    0.2733   -4.9122 N   0  3  0  0  0  0  0  0  0  0  0  0
   -1.7694    0.6413   -6.0214 C   0  0  0  0  0  0  0  0  0  0  0  0
   -1.3355    0.2838   -7.2936 N   0  0  0  0  0  0  0  0  0  0  0  0
   -2.9541    1.3575   -5.8853 N   0  0  0  0  0  0  0  0  0  0  0  0
   -0.7323   -2.1024    0.4149 H   0  0  0  0  0  0  0  0  0  0  0  0
    1.1447    0.0743   -0.2643 H   0  0  0  0  0  0  0  0  0  0  0  0
   -0.9071    1.4551   -0.9599 H   0  0  0  0  0  0  0  0  0  0  0  0
   -1.8671   -0.0152   -0.8983 H   0  0  0  0  0  0  0  0  0  0  0  0
    0.5770    0.4181   -2.7013 H   0  0  0  0  0  0  0  0  0  0  0  0
   -0.3985   -1.0544   -2.6458 H   0  0  0  0  0  0  0  0  0  0  0  0
   -2.3985    0.2034   -3.3837 H   0  0  0  0  0  0  0  0  0  0  0  0
   -1.4446    1.7029   -3.4667 H   0  0  0  0  0  0  0  0  0  0  0  0
   -0.1472   -0.2503   -5.0746 H   0  0  0  0  0  0  0  0  0  0  0  0
   -1.8685    0.5365   -8.1223 H   0  0  0  0  0  0  0  0  0  0  0  0
   -0.4741   -0.2400   -7.4289 H   0  0  0  0  0  0  0  0  0  0  0  0
   -3.5140    1.6278   -6.6897 H   0  0  0  0  0  0  0  0  0  0  0  0
   -3.2961    1.6322   -4.9675 H   0  0  0  0  0  0  0  0  0  0  0  0
   -1.1605    1.3287    1.3210 N   0  0  0  0  0  0  0  0  0  0  0  0
   -1.6991    1.9438    2.5122 C   0  0  2  0  0  0  0  0  0  0  0  0
   -3.1201    2.3980    2.2055 C   0  0  0  0  0  0  0  0  0  0  0  0
   -3.4686    2.8113    1.1015 O   0  0  0  0  0  0  0  0  0  0  0  0
   -0.8408    3.1138    2.9674 C   0  0  0  0  0  0  0  0  0  0  0  0
   -1.4467    1.7094    0.4239 H   0  0  0  0  0  0  0  0  0  0  0  0
   -1.7219    1.1686    3.2859 H   0  0  0  0  0  0  0  0  0  0  0  0
   -0.8060    3.9007    2.2051 H   0  0  0  0  0  0  0  0  0  0  0  0
   -1.2344    3.5609    3.8862 H   0  0  0  0  0  0  0  0  0  0  0  0
    0.1882    2.7909    3.1589 H   0  0  0  0  0  0  0  0  0  0  0  0
   -3.9425    2.3283    3.3213 N   0  0  0  0  0  0  0  0  0  0  0  0
   -5.3254    2.7445    3.2977 C   0  0  0  0  0  0  0  0  0  0  0  0
   -3.5805    1.9354    4.1851 H   0  0  0  0  0  0  0  0  0  0  0  0
   -5.3971    3.7981    3.6055 H   0  0  0  0  0  0  0  0  0  0  0  0
   -5.7246    2.6323    2.2788 H   0  0  0  0  0  0  0  0  0  0  0  0
   -5.9080    2.1197    3.9906 H   0  0  0  0  0  0  0  0  0  0  0  0
  1  3  1  0  0  0  0
  1  7  1  0  0  0  0
  1  2  2  0  0  0  0
 42 43  1  0  0  0  0
 43 51  1  0  0  0  0
 43 44  2  0  0  0  0
  8  9  1  0  0  0  0
  9 17  1  0  0  0  0
  9 10  2  0  0  0  0
 18 19  1  0  0  0  0
 19 41  1  0  0  0  0
 19 20  2  0  0  0  0
 25 26  1  0  0  0  0
 25 27  1  0  0  0  0
 24 25  2  0  0  0  0
 42 45  1  0  0  0  0
  8 11  1  0  0  0  0
 51 52  1  0  0  0  0
 21 22  1  0  0  0  0
 22 23  1  0  0  0  0
 18 21  1  0  0  0  0
 23 24  1  0  0  0  0
 41 42  1  0  0  0  0
  7  8  1  0  0  0  0
 17 18  1  0  0  0  0
  3  4  1  0  0  0  0
  3  5  1  0  0  0  0
  3  6  1  0  0  0  0
 45 48  1  0  0  0  0
 45 49  1  0  0  0  0
 45 50  1  0  0  0  0
 11 14  1  0  0  0  0
 11 15  1  0  0  0  0
 11 16  1  0  0  0  0
 52 54  1  0  0  0  0
 52 55  1  0  0  0  0
 52 56  1  0  0  0  0
 22 32  1  0  0  0  0
 22 33  1  0  0  0  0
 21 30  1  0  0  0  0
 21 31  1  0  0  0  0
 23 34  1  0  0  0  0
 23 35  1  0  0  0  0
 42 47  1  0  0  0  0
  8 13  1  0  0  0  0
 18 29  1  0  0  0  0
 26 37  1  0  0  0  0
 26 38  1  0  0  0  0
 27 39  1  0  0  0  0
 27 40  1  0  0  0  0
 51 53  1  0  0  0  0
  7 12  1  0  0  0  0
 41 46  1  0  0  0  0
 17 28  1  0  0  0  0
 24 36  1  0  0  0  0
M  CHG  1  24   1
M  END
$$$$

  -OEChem-05262214473D

 56 55  0     1  0  0  0  0  0999 V2000
    0.7735   -5.8042   -2.0022 C   0  0  0  0  0  0  0  0  0  0  0  0
   -0.2086   -6.3825   -1.5519 O   0  0  0  0  0  0  0  0  0  0  0  0
    1.4751   -6.3646   -3.1946 C   0  0  0  0  0  0  0  0  0  0  0  0
    2.2765   -7.0687   -2.9186 H   0  0  0  0  0  0  0  0  0  0  0  0
    0.7988   -6.9360   -3.8504 H   0  0  0  0  0  0  0  0  0  0  0  0
    1.9556   -5.6216   -3.8511 H   0  0  0  0  0  0  0  0  0  0  0  0
    1.3322   -4.6359   -1.5106 N   0  0  0  0  0  0  0  0  0  0  0  0
    0.8124   -3.9290   -0.3698 C   0  0  2  0  0  0  0  0  0  0  0  0
    1.0666   -2.4424   -0.5818 C   0  0  0  0  0  0  0  0  0  0  0  0
    2.0598   -2.0076   -1.1610 O   0  0  0  0  0  0  0  0  0  0  0  0
    1.4560   -4.4118    0.9207 C   0  0  0  0  0  0  0  0  0  0  0  0
    2.1528   -4.2578   -1.9805 H   0  0  0  0  0  0  0  0  0  0  0  0
   -0.2667   -4.1160   -0.3467 H   0  0  0  0  0  0  0  0  0  0  0  0
    2.5374   -4.2329    0.9160 H   0  0  0  0  0  0  0  0  0  0  0  0
    1.0390   -3.8932    1.7903 H   0  0  0  0  0  0  0  0  0  0  0  0
    1.2976   -5.4871    1.0566 H   0  0  0  0  0  0  0  0  0  0  0  0
    0.0755   -1.6529   -0.0105 N   0  0  0  0  0  0  0  0  0  0  0  0
    0.1113   -0.2132   -0.0391 C   0  0  2  0  0  0  0  0  0  0  0  0
   -0.2497    0.2820    1.3573 C   0  0  0  0  0  0  0  0  0  0  0  0
    0.3798   -0.0372    2.3637 O   0  0  0  0  0  0  0  0  0  0  0  0
   -0.8533    0.3663   -1.0788 C   0  0  0  0  0  0  0  0  0  0  0  0
   -0.4329    0.0333   -2.5153 C   0  0  0  0  0  0  0  0  0  0  0  0
   -1.3966    0.6125   -3.5458 C   0  0  0  0  0  0  0  0  0  0  0  0
   -1.0055    0.2733   -4.9122 N   0  3  0  0  0  0  0  0  0  0  0  0
   -1.7694    0.6413   -6.0214 C   0  0  0  0  0  0  0  0  0  0  0  0
   -1.3355    0.2838   -7.2936 N   0  0  0  0  0  0  0  0  0  0  0  0
   -2.9541    1.3575   -5.8853 N   0  0  0  0  0  0  0  0  0  0  0  0
   -0.7323   -2.1024    0.4149 H   0  0  0  0  0  0  0  0  0  0  0  0
    1.1447    0.0743   -0.2643 H   0  0  0  0  0  0  0  0  0  0  0  0
   -0.9071    1.4551   -0.9599 H   0  0  0  0  0  0  0  0  0  0  0  0
   -1.8671   -0.0152   -0.8983 H   0  0  0  0  0  0  0  0  0  0  0  0
    0.5770    0.4181   -2.7013 H   0  0  0  0  0  0  0  0  0  0  0  0
   -0.3985   -1.0544   -2.6458 H   0  0  0  0  0  0  0  0  0  0  0  0
   -2.3985    0.2034   -3.3837 H   0  0  0  0  0  0  0  0  0  0  0  0
   -1.4446    1.7029   -3.4667 H   0  0  0  0  0  0  0  0  0  0  0  0
   -0.1472   -0.2503   -5.0746 H   0  0  0  0  0  0  0  0  0  0  0  0
   -1.8685    0.5365   -8.1223 H   0  0  0  0  0  0  0  0  0  0  0  0
   -0.4741   -0.2400   -7.4289 H   0  0  0  0  0  0  0  0  0  0  0  0
   -3.5140    1.6278   -6.6897 H   0  0  0  0  0  0  0  0  0  0  0  0
   -3.2961    1.6322   -4.9675 H   0  0  0  0  0  0  0  0  0  0  0  0
   -1.3847    1.0808    1.3510 N   0  0  0  0  0  0  0  0  0  0  0  0
   -1.9621    1.6359    2.5534 C   0  0  2  0  0  0  0  0  0  0  0  0
   -3.4697    1.7214    2.3551 C   0  0  0  0  0  0  0  0  0  0  0  0
   -3.9908    1.9615    1.2679 O   0  0  0  0  0  0  0  0  0  0  0  0
   -1.3769    3.0039    2.8677 C   0  0  0  0  0  0  0  0  0  0  0  0
   -1.8217    1.3187    0.4655 H   0  0  0  0  0  0  0  0  0  0  0  0
   -1.7391    0.9343    3.3645 H   0  0  0  0  0  0  0  0  0  0  0  0
   -1.5902    3.7205    2.0662 H   0  0  0  0  0  0  0  0  0  0  0  0
   -1.7945    3.4107    3.7946 H   0  0  0  0  0  0  0  0  0  0  0  0
   -0.2889    2.9458    2.9806 H   0  0  0  0  0  0  0  0  0  0  0  0
   -4.1635    1.5407    3.5435 N   0  0  0  0  0  0  0  0  0  0  0  0
   -5.6034    1.6184    3.6252 C   0  0  0  0  0  0  0  0  0  0  0  0
   -3.6527    1.3063    4.3896 H   0  0  0  0  0  0  0  0  0  0  0  0
   -5.9016    2.6451    3.8840 H   0  0  0  0  0  0  0  0  0  0  0  0
   -6.0410    1.3433    2.6542 H   0  0  0  0  0  0  0  0  0  0  0  0
   -5.9645    0.9256    4.3996 H   0  0  0  0  0  0  0  0  0  0  0  0
  1  3  1  0  0  0  0
  1  7  1  0  0  0  0
  1  2  2  0  0  0  0
 42 43  1  0  0  0  0
 43 51  1  0  0  0  0
 43 44  2  0  0  0  0
  8  9  1  0  0  0  0
  9 17  1  0  0  0  0
  9 10  2  0  0  0  0
 18 19  1  0  0  0  0
 19 41  1  0  0  0  0
 19 20  2  0  0  0  0
 25 26  1  0  0  0  0
 25 27  1  0  0  0  0
 24 25  2  0  0  0  0
 42 45  1  0  0  0  0
  8 11  1  0  0  0  0
 51 52  1  0  0  0  0
 21 22  1  0  0  0  0
 22 23  1  0  0  0  0
 18 21  1  0  0  0  0
 23 24  1  0  0  0  0
 41 42  1  0  0  0  0
  7  8  1  0  0  0  0
 17 18  1  0  0  0  0
  3  4  1  0  0  0  0
  3  5  1  0  0  0  0
  3  6  1  0  0  0  0
 45 48  1  0  0  0  0
 45 49  1  0  0  0  0
 45 50  1  0  0  0  0
 11 14  1  0  0  0  0
 11 15  1  0  0  0  0
 11 16  1  0  0  0  0
 52 54  1  0  0  0  0
 52 55  1  0  0  0  0
 52 56  1  0  0  0  0
 22 32  1  0  0  0  0
 22 33  1  0  0  0  0
 21 30  1  0  0  0  0
 21 31  1  0  0  0  0
 23 34  1  0  0  0  0
 23 35  1  0  0  0  0
 42 47  1  0  0  0  0
  8 13  1  0  0  0  0
 18 29  1  0  0  0  0
 26 37  1  0  0  0  0
 26 38  1  0  0  0  0
 27 39  1  0  0  0  0
 27 40  1  0  0  0  0
 51 53  1  0  0  0  0
  7 12  1  0  0  0  0
 41 46  1  0  0  0  0
 17 28  1  0  0  0  0
 24 36  1  0  0  0  0
M  CHG  1  24   1
M  END
$$$$

  -OEChem-05262214473D

 56 55  0     1  0  0  0  0  0999 V2000
    0.7735   -5.8042   -2.0022 C   0  0  0  0  0  0  0  0  0  0  0  0
   -0.2086   -6.3825   -1.5519 O   0  0  0  0  0  0  0  0  0  0  0  0
    1.4751   -6.3646   -3.1946 C   0  0  0  0  0  0  0  0  0  0  0  0
    2.2765   -7.0687   -2.9186 H   0  0  0  0  0  0  0  0  0  0  0  0
    0.7988   -6.9360   -3.8504 H   0  0  0  0  0  0  0  0  0  0  0  0
    1.9556   -5.6216   -3.8511 H   0  0  0  0  0  0  0  0  0  0  0  0
    1.3322   -4.6359   -1.5106 N   0  0  0  0  0  0  0  0  0  0  0  0
    0.8124   -3.9290   -0.3698 C   0  0  2  0  0  0  0  0  0  0  0  0
    1.0666   -2.4424   -0.5818 C   0  0  0  0  0  0  0  0  0  0  0  0
    2.0598   -2.0076   -1.1610 O   0  0  0  0  0  0  0  0  0  0  0  0
    1.4560   -4.4118    0.9207 C   0  0  0  0  0  0  0  0  0  0  0  0
    2.1528   -4.2578   -1.9805 H   0  0  0  0  0  0  0  0  0  0  0  0
   -0.2667   -4.1160   -0.3467 H   0  0  0  0  0  0  0  0  0  0  0  0
    2.5374   -4.2329    0.9160 H   0  0  0  0  0  0  0  0  0  0  0  0
    1.0390   -3.8932    1.7903 H   0  0  0  0  0  0  0  0  0  0  0  0
    1.2976   -5.4871    1.0566 H   0  0  0  0  0  0  0  0  0  0  0  0
    0.0755   -1.6529   -0.0105 N   0  0  0  0  0  0  0  0  0  0  0  0
    0.1113   -0.2132   -0.0391 C   0  0  2  0  0  0  0  0  0  0  0  0
   -0.2497    0.2820    1.3573 C   0  0  0  0  0  0  0  0  0  0  0  0
    0.5132    0.1920    2.3169 O   0  0  0  0  0  0  0  0  0  0  0  0
   -0.8533    0.3663   -1.0788 C   0  0  0  0  0  0  0  0  0  0  0  0
   -0.4329    0.0333   -2.5153 C   0  0  0  0  0  0  0  0  0  0  0  0
   -1.3966    0.6125   -3.5458 C   0  0  0  0  0  0  0  0  0  0  0  0
   -1.0055    0.2733   -4.9122 N   0  3  0  0  0  0  0  0  0  0  0  0
   -1.7694    0.6413   -6.0214 C   0  0  0  0  0  0  0  0  0  0  0  0
   -1.3355    0.2838   -7.2936 N   0  0  0  0  0  0  0  0  0  0  0  0
   -2.9541    1.3575   -5.8853 N   0  0  0  0  0  0  0  0  0  0  0  0
   -0.7323   -2.1024    0.4149 H   0  0  0  0  0  0  0  0  0  0  0  0
    1.1447    0.0743   -0.2643 H   0  0  0  0  0  0  0  0  0  0  0  0
   -0.9071    1.4551   -0.9599 H   0  0  0  0  0  0  0  0  0  0  0  0
   -1.8671   -0.0152   -0.8983 H   0  0  0  0  0  0  0  0  0  0  0  0
    0.5770    0.4181   -2.7013 H   0  0  0  0  0  0  0  0  0  0  0  0
   -0.3985   -1.0544   -2.6458 H   0  0  0  0  0  0  0  0  0  0  0  0
   -2.3985    0.2034   -3.3837 H   0  0  0  0  0  0  0  0  0  0  0  0
   -1.4446    1.7029   -3.4667 H   0  0  0  0  0  0  0  0  0  0  0  0
   -0.1472   -0.2503   -5.0746 H   0  0  0  0  0  0  0  0  0  0  0  0
   -1.8685    0.5365   -8.1223 H   0  0  0  0  0  0  0  0  0  0  0  0
   -0.4741   -0.2400   -7.4289 H   0  0  0  0  0  0  0  0  0  0  0  0
   -3.5140    1.6278   -6.6897 H   0  0  0  0  0  0  0  0  0  0  0  0
   -3.2961    1.6322   -4.9675 H   0  0  0  0  0  0  0  0  0  0  0  0
   -1.5401    0.7900    1.4140 N   0  0  0  0  0  0  0  0  0  0  0  0
   -2.1398    1.2788    2.6342 C   0  0  2  0  0  0  0  0  0  0  0  0
   -3.6346    0.9941    2.5705 C   0  0  0  0  0  0  0  0  0  0  0  0
   -4.2797    1.0271    1.5246 O   0  0  0  0  0  0  0  0  0  0  0  0
   -1.8770    2.7647    2.8233 C   0  0  0  0  0  0  0  0  0  0  0  0
   -2.0880    0.8550    0.5611 H   0  0  0  0  0  0  0  0  0  0  0  0
   -1.6936    0.7087    3.4563 H   0  0  0  0  0  0  0  0  0  0  0  0
   -2.3167    3.3522    2.0090 H   0  0  0  0  0  0  0  0  0  0  0  0
   -2.3076    3.1274    3.7624 H   0  0  0  0  0  0  0  0  0  0  0  0
   -0.8014    2.9713    2.8390 H   0  0  0  0  0  0  0  0  0  0  0  0
   -4.1716    0.7412    3.8250 N   0  0  0  0  0  0  0  0  0  0  0  0
   -5.5775    0.4848    4.0339 C   0  0  0  0  0  0  0  0  0  0  0  0
   -3.5562    0.6940    4.6317 H   0  0  0  0  0  0  0  0  0  0  0  0
   -6.0923    1.4288    4.2661 H   0  0  0  0  0  0  0  0  0  0  0  0
   -6.0096    0.0463    3.1224 H   0  0  0  0  0  0  0  0  0  0  0  0
   -5.7016   -0.2162    4.8725 H   0  0  0  0  0  0  0  0  0  0  0  0
  1  3  1  0  0  0  0
  1  7  1  0  0  0  0
  1  2  2  0  0  0  0
 42 43  1  0  0  0  0
 43 51  1  0  0  0  0
 43 44  2  0  0  0  0
  8  9  1  0  0  0  0
  9 17  1  0  0  0  0
  9 10  2  0  0  0  0
 18 19  1  0  0  0  0
 19 41  1  0  0  0  0
 19 20  2  0  0  0  0
 25 26  1  0  0  0  0
 25 27  1  0  0  0  0
 24 25  2  0  0  0  0
 42 45  1  0  0  0  0
  8 11  1  0  0  0  0
 51 52  1  0  0  0  0
 21 22  1  0  0  0  0
 22 23  1  0  0  0  0
 18 21  1  0  0  0  0
 23 24  1  0  0  0  0
 41 42  1  0  0  0  0
  7  8  1  0  0  0  0
 17 18  1  0  0  0  0
  3  4  1  0  0  0  0
  3  5  1  0  0  0  0
  3  6  1  0  0  0  0
 45 48  1  0  0  0  0
 45 49  1  0  0  0  0
 45 50  1  0  0  0  0
 11 14  1  0  0  0  0
 11 15  1  0  0  0  0
 11 16  1  0  0  0  0
 52 54  1  0  0  0  0
 52 55  1  0  0  0  0
 52 56  1  0  0  0  0
 22 32  1  0  0  0  0
 22 33  1  0  0  0  0
 21 30  1  0  0  0  0
 21 31  1  0  0  0  0
 23 34  1  0  0  0  0
 23 35  1  0  0  0  0
 42 47  1  0  0  0  0
  8 13  1  0  0  0  0
 18 29  1  0  0  0  0
 26 37  1  0  0  0  0
 26 38  1  0  0  0  0
 27 39  1  0  0  0  0
 27 40  1  0  0  0  0
 51 53  1  0  0  0  0
  7 12  1  0  0  0  0
 41 46  1  0  0  0  0
 17 28  1  0  0  0  0
 24 36  1  0  0  0  0
M  CHG  1  24   1
M  END
$$$$

  -OEChem-05262214473D

 56 55  0     1  0  0  0  0  0999 V2000
    0.7735   -5.8042   -2.0022 C   0  0  0  0  0  0  0  0  0  0  0  0
   -0.2086   -6.3825   -1.5519 O   0  0  0  0  0  0  0  0  0  0  0  0
    1.4751   -6.3646   -3.1946 C   0  0  0  0  0  0  0  0  0  0  0  0
    2.2765   -7.0687   -2.9186 H   0  0  0  0  0  0  0  0  0  0  0  0
    0.7988   -6.9360   -3.8504 H   0  0  0  0  0  0  0  0  0  0  0  0
    1.9556   -5.6216   -3.8511 H   0  0  0  0  0  0  0  0  0  0  0  0
    1.3322   -4.6359   -1.5106 N   0  0  0  0  0  0  0  0  0  0  0  0
    0.8124   -3.9290   -0.3698 C   0  0  2  0  0  0  0  0  0  0  0  0
    1.0666   -2.4424   -0.5818 C   0  0  0  0  0  0  0  0  0  0  0  0
    2.0598   -2.0076   -1.1610 O   0  0  0  0  0  0  0  0  0  0  0  0
    1.4560   -4.4118    0.9207 C   0  0  0  0  0  0  0  0  0  0  0  0
    2.1528   -4.2578   -1.9805 H   0  0  0  0  0  0  0  0  0  0  0  0
   -0.2667   -4.1160   -0.3467 H   0  0  0  0  0  0  0  0  0  0  0  0
    2.5374   -4.2329    0.9160 H   0  0  0  0  0  0  0  0  0  0  0  0
    1.0390   -3.8932    1.7903 H   0  0  0  0  0  0  0  0  0  0  0  0
    1.2976   -5.4871    1.0566 H   0  0  0  0  0  0  0  0  0  0  0  0
    0.0755   -1.6529   -0.0105 N   0  0  0  0  0  0  0  0  0  0  0  0
    0.1113   -0.2132   -0.0391 C   0  0  2  0  0  0  0  0  0  0  0  0
   -0.2497    0.2820    1.3573 C   0  0  0  0  0  0  0  0  0  0  0  0
    0.5839    0.4421    2.2465 O   0  0  0  0  0  0  0  0  0  0  0  0
   -0.8533    0.3663   -1.0788 C   0  0  0  0  0  0  0  0  0  0  0  0
   -0.4329    0.0333   -2.5153 C   0  0  0  0  0  0  0  0  0  0  0  0
   -1.3966    0.6125   -3.5458 C   0  0  0  0  0  0  0  0  0  0  0  0
   -1.0055    0.2733   -4.9122 N   0  3  0  0  0  0  0  0  0  0  0  0
   -1.7694    0.6413   -6.0214 C   0  0  0  0  0  0  0  0  0  0  0  0
   -1.3355    0.2838   -7.2936 N   0  0  0  0  0  0  0  0  0  0  0  0
   -2.9541    1.3575   -5.8853 N   0  0  0  0  0  0  0  0  0  0  0  0
   -0.7323   -2.1024    0.4149 H   0  0  0  0  0  0  0  0  0  0  0  0
    1.1447    0.0743   -0.2643 H   0  0  0  0  0  0  0  0  0  0  0  0
   -0.9071    1.4551   -0.9599 H   0  0  0  0  0  0  0  0  0  0  0  0
   -1.8671   -0.0152   -0.8983 H   0  0  0  0  0  0  0  0  0  0  0  0
    0.5770    0.4181   -2.7013 H   0  0  0  0  0  0  0  0  0  0  0  0
   -0.3985   -1.0544   -2.6458 H   0  0  0  0  0  0  0  0  0  0  0  0
   -2.3985    0.2034   -3.3837 H   0  0  0  0  0  0  0  0  0  0  0  0
   -1.4446    1.7029   -3.4667 H   0  0  0  0  0  0  0  0  0  0  0  0
   -0.1472   -0.2503   -5.0746 H   0  0  0  0  0  0  0  0  0  0  0  0
   -1.8685    0.5365   -8.1223 H   0  0  0  0  0  0  0  0  0  0  0  0
   -0.4741   -0.2400   -7.4289 H   0  0  0  0  0  0  0  0  0  0  0  0
   -3.5140    1.6278   -6.6897 H   0  0  0  0  0  0  0  0  0  0  0  0
   -3.2961    1.6322   -4.9675 H   0  0  0  0  0  0  0  0  0  0  0  0
   -1.6160    0.4761    1.5057 N   0  0  0  0  0  0  0  0  0  0  0  0
   -2.2199    0.8966    2.7490 C   0  0  2  0  0  0  0  0  0  0  0  0
   -3.6033    0.2657    2.8369 C   0  0  0  0  0  0  0  0  0  0  0  0
   -4.3158    0.0718    1.8541 O   0  0  0  0  0  0  0  0  0  0  0  0
   -2.3071    2.4123    2.8370 C   0  0  0  0  0  0  0  0  0  0  0  0
   -2.2272    0.3498    0.7043 H   0  0  0  0  0  0  0  0  0  0  0  0
   -1.5884    0.5071    3.5550 H   0  0  0  0  0  0  0  0  0  0  0  0
   -2.9359    2.8207    2.0374 H   0  0  0  0  0  0  0  0  0  0  0  0
   -2.7388    2.7301    3.7918 H   0  0  0  0  0  0  0  0  0  0  0  0
   -1.3145    2.8659    2.7437 H   0  0  0  0  0  0  0  0  0  0  0  0
   -3.9663   -0.0158    4.1465 N   0  0  0  0  0  0  0  0  0  0  0  0
   -5.2495   -0.5789    4.4960 C   0  0  0  0  0  0  0  0  0  0  0  0
   -3.2975    0.1403    4.8950 H   0  0  0  0  0  0  0  0  0  0  0  0
   -5.9562    0.2322    4.7257 H   0  0  0  0  0  0  0  0  0  0  0  0
   -5.6325   -1.1705    3.6514 H   0  0  0  0  0  0  0  0  0  0  0  0
   -5.1374   -1.2277    5.3772 H   0  0  0  0  0  0  0  0  0  0  0  0
  1  3  1  0  0  0  0
  1  7  1  0  0  0  0
  1  2  2  0  0  0  0
 42 43  1  0  0  0  0
 43 51  1  0  0  0  0
 43 44  2  0  0  0  0
  8  9  1  0  0  0  0
  9 17  1  0  0  0  0
  9 10  2  0  0  0  0
 18 19  1  0  0  0  0
 19 41  1  0  0  0  0
 19 20  2  0  0  0  0
 25 26  1  0  0  0  0
 25 27  1  0  0  0  0
 24 25  2  0  0  0  0
 42 45  1  0  0  0  0
  8 11  1  0  0  0  0
 51 52  1  0  0  0  0
 21 22  1  0  0  0  0
 22 23  1  0  0  0  0
 18 21  1  0  0  0  0
 23 24  1  0  0  0  0
 41 42  1  0  0  0  0
  7  8  1  0  0  0  0
 17 18  1  0  0  0  0
  3  4  1  0  0  0  0
  3  5  1  0  0  0  0
  3  6  1  0  0  0  0
 45 48  1  0  0  0  0
 45 49  1  0  0  0  0
 45 50  1  0  0  0  0
 11 14  1  0  0  0  0
 11 15  1  0  0  0  0
 11 16  1  0  0  0  0
 52 54  1  0  0  0  0
 52 55  1  0  0  0  0
 52 56  1  0  0  0  0
 22 32  1  0  0  0  0
 22 33  1  0  0  0  0
 21 30  1  0  0  0  0
 21 31  1  0  0  0  0
 23 34  1  0  0  0  0
 23 35  1  0  0  0  0
 42 47  1  0  0  0  0
  8 13  1  0  0  0  0
 18 29  1  0  0  0  0
 26 37  1  0  0  0  0
 26 38  1  0  0  0  0
 27 39  1  0  0  0  0
 27 40  1  0  0  0  0
 51 53  1  0  0  0  0
  7 12  1  0  0  0  0
 41 46  1  0  0  0  0
 17 28  1  0  0  0  0
 24 36  1  0  0  0  0
M  CHG  1  24   1
M  END
$$$$

  -OEChem-05262214473D

 56 55  0     1  0  0  0  0  0999 V2000
    0.7735   -5.8042   -2.0022 C   0  0  0  0  0  0  0  0  0  0  0  0
   -0.2086   -6.3825   -1.5519 O   0  0  0  0  0  0  0  0  0  0  0  0
    1.4751   -6.3646   -3.1946 C   0  0  0  0  0  0  0  0  0  0  0  0
    2.2765   -7.0687   -2.9186 H   0  0  0  0  0  0  0  0  0  0  0  0
    0.7988   -6.9360   -3.8504 H   0  0  0  0  0  0  0  0  0  0  0  0
    1.9556   -5.6216   -3.8511 H   0  0  0  0  0  0  0  0  0  0  0  0
    1.3322   -4.6359   -1.5106 N   0  0  0  0  0  0  0  0  0  0  0  0
    0.8124   -3.9290   -0.3698 C   0  0  2  0  0  0  0  0  0  0  0  0
    1.0666   -2.4424   -0.5818 C   0  0  0  0  0  0  0  0  0  0  0  0
    2.0598   -2.0076   -1.1610 O   0  0  0  0  0  0  0  0  0  0  0  0
    1.4560   -4.4118    0.9207 C   0  0  0  0  0  0  0  0  0  0  0  0
    2.1528   -4.2578   -1.9805 H   0  0  0  0  0  0  0  0  0  0  0  0
   -0.2667   -4.1160   -0.3467 H   0  0  0  0  0  0  0  0  0  0  0  0
    2.5374   -4.2329    0.9160 H   0  0  0  0  0  0  0  0  0  0  0  0
    1.0390   -3.8932    1.7903 H   0  0  0  0  0  0  0  0  0  0  0  0
    1.2976   -5.4871    1.0566 H   0  0  0  0  0  0  0  0  0  0  0  0
    0.0755   -1.6529   -0.0105 N   0  0  0  0  0  0  0  0  0  0  0  0
    0.1113   -0.2132   -0.0391 C   0  0  2  0  0  0  0  0  0  0  0  0
   -0.2497    0.2820    1.3573 C   0  0  0  0  0  0  0  0  0  0  0  0
    0.5869    0.6961    2.1572 O   0  0  0  0  0  0  0  0  0  0  0  0
   -0.8533    0.3663   -1.0788 C   0  0  0  0  0  0  0  0  0  0  0  0
   -0.4329    0.0333   -2.5153 C   0  0  0  0  0  0  0  0  0  0  0  0
   -1.3966    0.6125   -3.5458 C   0  0  0  0  0  0  0  0  0  0  0  0
   -1.0055    0.2733   -4.9122 N   0  3  0  0  0  0  0  0  0  0  0  0
   -1.7694    0.6413   -6.0214 C   0  0  0  0  0  0  0  0  0  0  0  0
   -1.3355    0.2838   -7.2936 N   0  0  0  0  0  0  0  0  0  0  0  0
   -2.9541    1.3575   -5.8853 N   0  0  0  0  0  0  0  0  0  0  0  0
   -0.7323   -2.1024    0.4149 H   0  0  0  0  0  0  0  0  0  0  0  0
    1.1447    0.0743   -0.2643 H   0  0  0  0  0  0  0  0  0  0  0  0
   -0.9071    1.4551   -0.9599 H   0  0  0  0  0  0  0  0  0  0  0  0
   -1.8671   -0.0152   -0.8983 H   0  0  0  0  0  0  0  0  0  0  0  0
    0.5770    0.4181   -2.7013 H   0  0  0  0  0  0  0  0  0  0  0  0
   -0.3985   -1.0544   -2.6458 H   0  0  0  0  0  0  0  0  0  0  0  0
   -2.3985    0.2034   -3.3837 H   0  0  0  0  0  0  0  0  0  0  0  0
   -1.4446    1.7029   -3.4667 H   0  0  0  0  0  0  0  0  0  0  0  0
   -0.1472   -0.2503   -5.0746 H   0  0  0  0  0  0  0  0  0  0  0  0
   -1.8685    0.5365   -8.1223 H   0  0  0  0  0  0  0  0  0  0  0  0
   -0.4741   -0.2400   -7.4289 H   0  0  0  0  0  0  0  0  0  0  0  0
   -3.5140    1.6278   -6.6897 H   0  0  0  0  0  0  0  0  0  0  0  0
   -3.2961    1.6322   -4.9675 H   0  0  0  0  0  0  0  0  0  0  0  0
   -1.6071    0.1606    1.6199 N   0  0  0  0  0  0  0  0  0  0  0  0
   -2.1971    0.5155    2.8901 C   0  0  2  0  0  0  0  0  0  0  0  0
   -3.3781   -0.4141    3.1362 C   0  0  0  0  0  0  0  0  0  0  0  0
   -4.0966   -0.8393    2.2339 O   0  0  0  0  0  0  0  0  0  0  0  0
   -2.6380    1.9708    2.9081 C   0  0  0  0  0  0  0  0  0  0  0  0
   -2.2299   -0.1623    0.8852 H   0  0  0  0  0  0  0  0  0  0  0  0
   -1.4308    0.3435    3.6538 H   0  0  0  0  0  0  0  0  0  0  0  0
   -3.4056    2.1623    2.1495 H   0  0  0  0  0  0  0  0  0  0  0  0
   -3.0587    2.2459    3.8808 H   0  0  0  0  0  0  0  0  0  0  0  0
   -1.7931    2.6366    2.7013 H   0  0  0  0  0  0  0  0  0  0  0  0
   -3.5615   -0.6786    4.4863 N   0  0  0  0  0  0  0  0  0  0  0  0
   -4.6418   -1.5003    4.9800 C   0  0  0  0  0  0  0  0  0  0  0  0
   -2.8943   -0.3170    5.1614 H   0  0  0  0  0  0  0  0  0  0  0  0
   -5.5025   -0.8632    5.2315 H   0  0  0  0  0  0  0  0  0  0  0  0
   -4.9355   -2.2240    4.2053 H   0  0  0  0  0  0  0  0  0  0  0  0
   -4.3102   -2.0402    5.8792 H   0  0  0  0  0  0  0  0  0  0  0  0
  1  3  1  0  0  0  0
  1  7  1  0  0  0  0
  1  2  2  0  0  0  0
 42 43  1  0  0  0  0
 43 51  1  0  0  0  0
 43 44  2  0  0  0  0
  8  9  1  0  0  0  0
  9 17  1  0  0  0  0
  9 10  2  0  0  0  0
 18 19  1  0  0  0  0
 19 41  1  0  0  0  0
 19 20  2  0  0  0  0
 25 26  1  0  0  0  0
 25 27  1  0  0  0  0
 24 25  2  0  0  0  0
 42 45  1  0  0  0  0
  8 11  1  0  0  0  0
 51 52  1  0  0  0  0
 21 22  1  0  0  0  0
 22 23  1  0  0  0  0
 18 21  1  0  0  0  0
 23 24  1  0  0  0  0
 41 42  1  0  0  0  0
  7  8  1  0  0  0  0
 17 18  1  0  0  0  0
  3  4  1  0  0  0  0
  3  5  1  0  0  0  0
  3  6  1  0  0  0  0
 45 48  1  0  0  0  0
 45 49  1  0  0  0  0
 45 50  1  0  0  0  0
 11 14  1  0  0  0  0
 11 15  1  0  0  0  0
 11 16  1  0  0  0  0
 52 54  1  0  0  0  0
 52 55  1  0  0  0  0
 52 56  1  0  0  0  0
 22 32  1  0  0  0  0
 22 33  1  0  0  0  0
 21 30  1  0  0  0  0
 21 31  1  0  0  0  0
 23 34  1  0  0  0  0
 23 35  1  0  0  0  0
 42 47  1  0  0  0  0
  8 13  1  0  0  0  0
 18 29  1  0  0  0  0
 26 37  1  0  0  0  0
 26 38  1  0  0  0  0
 27 39  1  0  0  0  0
 27 40  1  0  0  0  0
 51 53  1  0  0  0  0
  7 12  1  0  0  0  0
 41 46  1  0  0  0  0
 17 28  1  0  0  0  0
 24 36  1  0  0  0  0
M  CHG  1  24   1
M  END
$$$$

  -OEChem-05262214473D

 56 55  0     1  0  0  0  0  0999 V2000
    0.7735   -5.8042   -2.0022 C   0  0  0  0  0  0  0  0  0  0  0  0
   -0.2086   -6.3825   -1.5519 O   0  0  0  0  0  0  0  0  0  0  0  0
    1.4751   -6.3646   -3.1946 C   0  0  0  0  0  0  0  0  0  0  0  0
    2.2765   -7.0687   -2.9186 H   0  0  0  0  0  0  0  0  0  0  0  0
    0.7988   -6.9360   -3.8504 H   0  0  0  0  0  0  0  0  0  0  0  0
    1.9556   -5.6216   -3.8511 H   0  0  0  0  0  0  0  0  0  0  0  0
    1.3322   -4.6359   -1.5106 N   0  0  0  0  0  0  0  0  0  0  0  0
    0.8124   -3.9290   -0.3698 C   0  0  2  0  0  0  0  0  0  0  0  0
    1.0666   -2.4424   -0.5818 C   0  0  0  0  0  0  0  0  0  0  0  0
    2.0598   -2.0076   -1.1610 O   0  0  0  0  0  0  0  0  0  0  0  0
    1.4560   -4.4118    0.9207 C   0  0  0  0  0  0  0  0  0  0  0  0
    2.1528   -4.2578   -1.9805 H   0  0  0  0  0  0  0  0  0  0  0  0
   -0.2667   -4.1160   -0.3467 H   0  0  0  0  0  0  0  0  0  0  0  0
    2.5374   -4.2329    0.9160 H   0  0  0  0  0  0  0  0  0  0  0  0
    1.0390   -3.8932    1.7903 H   0  0  0  0  0  0  0  0  0  0  0  0
    1.2976   -5.4871    1.0566 H   0  0  0  0  0  0  0  0  0  0  0  0
    0.0755   -1.6529   -0.0105 N   0  0  0  0  0  0  0  0  0  0  0  0
    0.1113   -0.2132   -0.0391 C   0  0  2  0  0  0  0  0  0  0  0  0
   -0.2497    0.2820    1.3573 C   0  0  0  0  0  0  0  0  0  0  0  0
    0.5221    0.9366    2.0551 O   0  0  0  0  0  0  0  0  0  0  0  0
   -0.8533    0.3663   -1.0788 C   0  0  0  0  0  0  0  0  0  0  0  0
   -0.4329    0.0333   -2.5153 C   0  0  0  0  0  0  0  0  0  0  0  0
   -1.3966    0.6125   -3.5458 C   0  0  0  0  0  0  0  0  0  0  0  0
   -1.0055    0.2733   -4.9122 N   0  3  0  0  0  0  0  0  0  0  0  0
   -1.7694    0.6413   -6.0214 C   0  0  0  0  0  0  0  0  0  0  0  0
   -1.3355    0.2838   -7.2936 N   0  0  0  0  0  0  0  0  0  0  0  0
   -2.9541    1.3575   -5.8853 N   0  0  0  0  0  0  0  0  0  0  0  0
   -0.7323   -2.1024    0.4149 H   0  0  0  0  0  0  0  0  0  0  0  0
    1.1447    0.0743   -0.2643 H   0  0  0  0  0  0  0  0  0  0  0  0
   -0.9071    1.4551   -0.9599 H   0  0  0  0  0  0  0  0  0  0  0  0
   -1.8671   -0.0152   -0.8983 H   0  0  0  0  0  0  0  0  0  0  0  0
    0.5770    0.4181   -2.7013 H   0  0  0  0  0  0  0  0  0  0  0  0
   -0.3985   -1.0544   -2.6458 H   0  0  0  0  0  0  0  0  0  0  0  0
   -2.3985    0.2034   -3.3837 H   0  0  0  0  0  0  0  0  0  0  0  0
   -1.4446    1.7029   -3.4667 H   0  0  0  0  0  0  0  0  0  0  0  0
   -0.1472   -0.2503   -5.0746 H   0  0  0  0  0  0  0  0  0  0  0  0
   -1.8685    0.5365   -8.1223 H   0  0  0  0  0  0  0  0  0  0  0  0
   -0.4741   -0.2400   -7.4289 H   0  0  0  0  0  0  0  0  0  0  0  0
   -3.5140    1.6278   -6.6897 H   0  0  0  0  0  0  0  0  0  0  0  0
   -3.2961    1.6322   -4.9675 H   0  0  0  0  0  0  0  0  0  0  0  0
   -1.5142   -0.1351    1.7488 N   0  0  0  0  0  0  0  0  0  0  0  0
   -2.0729    0.1614    3.0478 C   0  0  2  0  0  0  0  0  0  0  0  0
   -2.9743   -0.9991    3.4481 C   0  0  0  0  0  0  0  0  0  0  0  0
   -3.6369   -1.6441    2.6382 O   0  0  0  0  0  0  0  0  0  0  0  0
   -2.8469    1.4703    3.0315 C   0  0  0  0  0  0  0  0  0  0  0  0
   -2.0959   -0.6466    1.0916 H   0  0  0  0  0  0  0  0  0  0  0  0
   -1.2315    0.2288    3.7460 H   0  0  0  0  0  0  0  0  0  0  0  0
   -3.6939    1.4219    2.3375 H   0  0  0  0  0  0  0  0  0  0  0  0
   -3.2455    1.7079    4.0234 H   0  0  0  0  0  0  0  0  0  0  0  0
   -2.2046    2.2991    2.7146 H   0  0  0  0  0  0  0  0  0  0  0  0
   -2.9849   -1.2021    4.8210 N   0  0  0  0  0  0  0  0  0  0  0  0
   -3.7957   -2.2167    5.4528 C   0  0  0  0  0  0  0  0  0  0  0  0
   -2.3741   -0.6469    5.4130 H   0  0  0  0  0  0  0  0  0  0  0  0
   -4.7621   -1.7827    5.7491 H   0  0  0  0  0  0  0  0  0  0  0  0
   -3.9659   -3.0424    4.7463 H   0  0  0  0  0  0  0  0  0  0  0  0
   -3.2765   -2.5982    6.3444 H   0  0  0  0  0  0  0  0  0  0  0  0
  1  3  1  0  0  0  0
  1  7  1  0  0  0  0
  1  2  2  0  0  0  0
 42 43  1  0  0  0  0
 43 51  1  0  0  0  0
 43 44  2  0  0  0  0
  8  9  1  0  0  0  0
  9 17  1  0  0  0  0
  9 10  2  0  0  0  0
 18 19  1  0  0  0  0
 19 41  1  0  0  0  0
 19 20  2  0  0  0  0
 25 26  1  0  0  0  0
 25 27  1  0  0  0  0
 24 25  2  0  0  0  0
 42 45  1  0  0  0  0
  8 11  1  0  0  0  0
 51 52  1  0  0  0  0
 21 22  1  0  0  0  0
 22 23  1  0  0  0  0
 18 21  1  0  0  0  0
 23 24  1  0  0  0  0
 41 42  1  0  0  0  0
  7  8  1  0  0  0  0
 17 18  1  0  0  0  0
  3  4  1  0  0  0  0
  3  5  1  0  0  0  0
  3  6  1  0  0  0  0
 45 48  1  0  0  0  0
 45 49  1  0  0  0  0
 45 50  1  0  0  0  0
 11 14  1  0  0  0  0
 11 15  1  0  0  0  0
 11 16  1  0  0  0  0
 52 54  1  0  0  0  0
 52 55  1  0  0  0  0
 52 56  1  0  0  0  0
 22 32  1  0  0  0  0
 22 33  1  0  0  0  0
 21 30  1  0  0  0  0
 21 31  1  0  0  0  0
 23 34  1  0  0  0  0
 23 35  1  0  0  0  0
 42 47  1  0  0  0  0
  8 13  1  0  0  0  0
 18 29  1  0  0  0  0
 26 37  1  0  0  0  0
 26 38  1  0  0  0  0
 27 39  1  0  0  0  0
 27 40  1  0  0  0  0
 51 53  1  0  0  0  0
  7 12  1  0  0  0  0
 41 46  1  0  0  0  0
 17 28  1  0  0  0  0
 24 36  1  0  0  0  0
M  CHG  1  24   1
M  END
$$$$

  -OEChem-05262214473D

 56 55  0     1  0  0  0  0  0999 V2000
    0.7735   -5.8042   -2.0022 C   0  0  0  0  0  0  0  0  0  0  0  0
   -0.2086   -6.3825   -1.5519 O   0  0  0  0  0  0  0  0  0  0  0  0
    1.4751   -6.3646   -3.1946 C   0  0  0  0  0  0  0  0  0  0  0  0
    2.2765   -7.0687   -2.9186 H   0  0  0  0  0  0  0  0  0  0  0  0
    0.7988   -6.9360   -3.8504 H   0  0  0  0  0  0  0  0  0  0  0  0
    1.9556   -5.6216   -3.8511 H   0  0  0  0  0  0  0  0  0  0  0  0
    1.3322   -4.6359   -1.5106 N   0  0  0  0  0  0  0  0  0  0  0  0
    0.8124   -3.9290   -0.3698 C   0  0  2  0  0  0  0  0  0  0  0  0
    1.0666   -2.4424   -0.5818 C   0  0  0  0  0  0  0  0  0  0  0  0
    2.0598   -2.0076   -1.1610 O   0  0  0  0  0  0  0  0  0  0  0  0
    1.4560   -4.4118    0.9207 C   0  0  0  0  0  0  0  0  0  0  0  0
    2.1528   -4.2578   -1.9805 H   0  0  0  0  0  0  0  0  0  0  0  0
   -0.2667   -4.1160   -0.3467 H   0  0  0  0  0  0  0  0  0  0  0  0
    2.5374   -4.2329    0.9160 H   0  0  0  0  0  0  0  0  0  0  0  0
    1.0390   -3.8932    1.7903 H   0  0  0  0  0  0  0  0  0  0  0  0
    1.2976   -5.4871    1.0566 H   0  0  0  0  0  0  0  0  0  0  0  0
    0.0755   -1.6529   -0.0105 N   0  0  0  0  0  0  0  0  0  0  0  0
    0.1113   -0.2132   -0.0391 C   0  0  2  0  0  0  0  0  0  0  0  0
   -0.2497    0.2820    1.3573 C   0  0  0  0  0  0  0  0  0  0  0  0
    0.3939    1.1474    1.9472 O   0  0  0  0  0  0  0  0  0  0  0  0
   -0.8533    0.3663   -1.0788 C   0  0  0  0  0  0  0  0  0  0  0  0
   -0.4329    0.0333   -2.5153 C   0  0  0  0  0  0  0  0  0  0  0  0
   -1.3966    0.6125   -3.5458 C   0  0  0  0  0  0  0  0  0  0  0  0
   -1.0055    0.2733   -4.9122 N   0  3  0  0  0  0  0  0  0  0  0  0
   -1.7694    0.6413   -6.0214 C   0  0  0  0  0  0  0  0  0  0  0  0
   -1.3355    0.2838   -7.2936 N   0  0  0  0  0  0  0  0  0  0  0  0
   -2.9541    1.3575   -5.8853 N   0  0  0  0  0  0  0  0  0  0  0  0
   -0.7323   -2.1024    0.4149 H   0  0  0  0  0  0  0  0  0  0  0  0
    1.1447    0.0743   -0.2643 H   0  0  0  0  0  0  0  0  0  0  0  0
   -0.9071    1.4551   -0.9599 H   0  0  0  0  0  0  0  0  0  0  0  0
   -1.8671   -0.0152   -0.8983 H   0  0  0  0  0  0  0  0  0  0  0  0
    0.5770    0.4181   -2.7013 H   0  0  0  0  0  0  0  0  0  0  0  0
   -0.3985   -1.0544   -2.6458 H   0  0  0  0  0  0  0  0  0  0  0  0
   -2.3985    0.2034   -3.3837 H   0  0  0  0  0  0  0  0  0  0  0  0
   -1.4446    1.7029   -3.4667 H   0  0  0  0  0  0  0  0  0  0  0  0
   -0.1472   -0.2503   -5.0746 H   0  0  0  0  0  0  0  0  0  0  0  0
   -1.8685    0.5365   -8.1223 H   0  0  0  0  0  0  0  0  0  0  0  0
   -0.4741   -0.2400   -7.4289 H   0  0  0  0  0  0  0  0  0  0  0  0
   -3.5140    1.6278   -6.6897 H   0  0  0  0  0  0  0  0  0  0  0  0
   -3.2961    1.6322   -4.9675 H   0  0  0  0  0  0  0  0  0  0  0  0
   -1.3436   -0.3908    1.8836 N   0  0  0  0  0  0  0  0  0  0  0  0
   -1.8557   -0.1415    3.2114 C   0  0  2  0  0  0  0  0  0  0  0  0
   -2.4193   -1.4493    3.7513 C   0  0  0  0  0  0  0  0  0  0  0  0
   -2.9683   -2.2878    3.0394 O   0  0  0  0  0  0  0  0  0  0  0  0
   -2.9197    0.9450    3.1990 C   0  0  0  0  0  0  0  0  0  0  0  0
   -1.8344   -1.0699    1.3094 H   0  0  0  0  0  0  0  0  0  0  0  0
   -1.0040    0.1709    3.8253 H   0  0  0  0  0  0  0  0  0  0  0  0
   -3.7811    0.6499    2.5888 H   0  0  0  0  0  0  0  0  0  0  0  0
   -3.2864    1.1527    4.2097 H   0  0  0  0  0  0  0  0  0  0  0  0
   -2.5209    1.8763    2.7828 H   0  0  0  0  0  0  0  0  0  0  0  0
   -2.2758   -1.5505    5.1280 N   0  0  0  0  0  0  0  0  0  0  0  0
   -2.7689   -2.6791    5.8824 C   0  0  0  0  0  0  0  0  0  0  0  0
   -1.7722   -0.8269    5.6324 H   0  0  0  0  0  0  0  0  0  0  0  0
   -3.7855   -2.4637    6.2431 H   0  0  0  0  0  0  0  0  0  0  0  0
   -2.7900   -3.5700    5.2375 H   0  0  0  0  0  0  0  0  0  0  0  0
   -2.1066   -2.8636    6.7411 H   0  0  0  0  0  0  0  0  0  0  0  0
  1  3  1  0  0  0  0
  1  7  1  0  0  0  0
  1  2  2  0  0  0  0
 42 43  1  0  0  0  0
 43 51  1  0  0  0  0
 43 44  2  0  0  0  0
  8  9  1  0  0  0  0
  9 17  1  0  0  0  0
  9 10  2  0  0  0  0
 18 19  1  0  0  0  0
 19 41  1  0  0  0  0
 19 20  2  0  0  0  0
 25 26  1  0  0  0  0
 25 27  1  0  0  0  0
 24 25  2  0  0  0  0
 42 45  1  0  0  0  0
  8 11  1  0  0  0  0
 51 52  1  0  0  0  0
 21 22  1  0  0  0  0
 22 23  1  0  0  0  0
 18 21  1  0  0  0  0
 23 24  1  0  0  0  0
 41 42  1  0  0  0  0
  7  8  1  0  0  0  0
 17 18  1  0  0  0  0
  3  4  1  0  0  0  0
  3  5  1  0  0  0  0
  3  6  1  0  0  0  0
 45 48  1  0  0  0  0
 45 49  1  0  0  0  0
 45 50  1  0  0  0  0
 11 14  1  0  0  0  0
 11 15  1  0  0  0  0
 11 16  1  0  0  0  0
 52 54  1  0  0  0  0
 52 55  1  0  0  0  0
 52 56  1  0  0  0  0
 22 32  1  0  0  0  0
 22 33  1  0  0  0  0
 21 30  1  0  0  0  0
 21 31  1  0  0  0  0
 23 34  1  0  0  0  0
 23 35  1  0  0  0  0
 42 47  1  0  0  0  0
  8 13  1  0  0  0  0
 18 29  1  0  0  0  0
 26 37  1  0  0  0  0
 26 38  1  0  0  0  0
 27 39  1  0  0  0  0
 27 40  1  0  0  0  0
 51 53  1  0  0  0  0
  7 12  1  0  0  0  0
 41 46  1  0  0  0  0
 17 28  1  0  0  0  0
 24 36  1  0  0  0  0
M  CHG  1  24   1
M  END
$$$$

  -OEChem-05262214473D

 56 55  0     1  0  0  0  0  0999 V2000
    0.7735   -5.8042   -2.0022 C   0  0  0  0  0  0  0  0  0  0  0  0
   -0.2086   -6.3825   -1.5519 O   0  0  0  0  0  0  0  0  0  0  0  0
    1.4751   -6.3646   -3.1946 C   0  0  0  0  0  0  0  0  0  0  0  0
    2.2765   -7.0687   -2.9186 H   0  0  0  0  0  0  0  0  0  0  0  0
    0.7988   -6.9360   -3.8504 H   0  0  0  0  0  0  0  0  0  0  0  0
    1.9556   -5.6216   -3.8511 H   0  0  0  0  0  0  0  0  0  0  0  0
    1.3322   -4.6359   -1.5106 N   0  0  0  0  0  0  0  0  0  0  0  0
    0.8124   -3.9290   -0.3698 C   0  0  2  0  0  0  0  0  0  0  0  0
    1.0666   -2.4424   -0.5818 C   0  0  0  0  0  0  0  0  0  0  0  0
    2.0598   -2.0076   -1.1610 O   0  0  0  0  0  0  0  0  0  0  0  0
    1.4560   -4.4118    0.9207 C   0  0  0  0  0  0  0  0  0  0  0  0
    2.1528   -4.2578   -1.9805 H   0  0  0  0  0  0  0  0  0  0  0  0
   -0.2667   -4.1160   -0.3467 H   0  0  0  0  0  0  0  0  0  0  0  0
    2.5374   -4.2329    0.9160 H   0  0  0  0  0  0  0  0  0  0  0  0
    1.0390   -3.8932    1.7903 H   0  0  0  0  0  0  0  0  0  0  0  0
    1.2976   -5.4871    1.0566 H   0  0  0  0  0  0  0  0  0  0  0  0
    0.0755   -1.6529   -0.0105 N   0  0  0  0  0  0  0  0  0  0  0  0
    0.1113   -0.2132   -0.0391 C   0  0  2  0  0  0  0  0  0  0  0  0
   -0.2497    0.2820    1.3573 C   0  0  0  0  0  0  0  0  0  0  0  0
    0.2111    1.3140    1.8408 O   0  0  0  0  0  0  0  0  0  0  0  0
   -0.8533    0.3663   -1.0788 C   0  0  0  0  0  0  0  0  0  0  0  0
   -0.4329    0.0333   -2.5153 C   0  0  0  0  0  0  0  0  0  0  0  0
   -1.3966    0.6125   -3.5458 C   0  0  0  0  0  0  0  0  0  0  0  0
   -1.0055    0.2733   -4.9122 N   0  3  0  0  0  0  0  0  0  0  0  0
   -1.7694    0.6413   -6.0214 C   0  0  0  0  0  0  0  0  0  0  0  0
   -1.3355    0.2838   -7.2936 N   0  0  0  0  0  0  0  0  0  0  0  0
   -2.9541    1.3575   -5.8853 N   0  0  0  0  0  0  0  0  0  0  0  0
   -0.7323   -2.1024    0.4149 H   0  0  0  0  0  0  0  0  0  0  0  0
    1.1447    0.0743   -0.2643 H   0  0  0  0  0  0  0  0  0  0  0  0
   -0.9071    1.4551   -0.9599 H   0  0  0  0  0  0  0  0  0  0  0  0
   -1.8671   -0.0152   -0.8983 H   0  0  0  0  0  0  0  0  0  0  0  0
    0.5770    0.4181   -2.7013 H   0  0  0  0  0  0  0  0  0  0  0  0
   -0.3985   -1.0544   -2.6458 H   0  0  0  0  0  0  0  0  0  0  0  0
   -2.3985    0.2034   -3.3837 H   0  0  0  0  0  0  0  0  0  0  0  0
   -1.4446    1.7029   -3.4667 H   0  0  0  0  0  0  0  0  0  0  0  0
   -0.1472   -0.2503   -5.0746 H   0  0  0  0  0  0  0  0  0  0  0  0
   -1.8685    0.5365   -8.1223 H   0  0  0  0  0  0  0  0  0  0  0  0
   -0.4741   -0.2400   -7.4289 H   0  0  0  0  0  0  0  0  0  0  0  0
   -3.5140    1.6278   -6.6897 H   0  0  0  0  0  0  0  0  0  0  0  0
   -3.2961    1.6322   -4.9675 H   0  0  0  0  0  0  0  0  0  0  0  0
   -1.1068   -0.5891    2.0151 N   0  0  0  0  0  0  0  0  0  0  0  0
   -1.5604   -0.3726    3.3697 C   0  0  2  0  0  0  0  0  0  0  0  0
   -1.7512   -1.7341    4.0251 C   0  0  0  0  0  0  0  0  0  0  0  0
   -2.1361   -2.7265    3.4102 O   0  0  0  0  0  0  0  0  0  0  0  0
   -2.8515    0.4305    3.3991 C   0  0  0  0  0  0  0  0  0  0  0  0
   -1.4631   -1.4036    1.5237 H   0  0  0  0  0  0  0  0  0  0  0  0
   -0.7639    0.1738    3.8864 H   0  0  0  0  0  0  0  0  0  0  0  0
   -3.6613   -0.1010    2.8861 H   0  0  0  0  0  0  0  0  0  0  0  0
   -3.1786    0.6182    4.4271 H   0  0  0  0  0  0  0  0  0  0  0  0
   -2.7206    1.3972    2.9011 H   0  0  0  0  0  0  0  0  0  0  0  0
   -1.4824   -1.7003    5.3862 N   0  0  0  0  0  0  0  0  0  0  0  0
   -1.6314   -2.8562    6.2393 C   0  0  0  0  0  0  0  0  0  0  0  0
   -1.1297   -0.8446    5.8048 H   0  0  0  0  0  0  0  0  0  0  0  0
   -2.6392   -2.8598    6.6800 H   0  0  0  0  0  0  0  0  0  0  0  0
   -1.4877   -3.7709    5.6454 H   0  0  0  0  0  0  0  0  0  0  0  0
   -0.8804   -2.8185    7.0421 H   0  0  0  0  0  0  0  0  0  0  0  0
  1  3  1  0  0  0  0
  1  7  1  0  0  0  0
  1  2  2  0  0  0  0
 42 43  1  0  0  0  0
 43 51  1  0  0  0  0
 43 44  2  0  0  0  0
  8  9  1  0  0  0  0
  9 17  1  0  0  0  0
  9 10  2  0  0  0  0
 18 19  1  0  0  0  0
 19 41  1  0  0  0  0
 19 20  2  0  0  0  0
 25 26  1  0  0  0  0
 25 27  1  0  0  0  0
 24 25  2  0  0  0  0
 42 45  1  0  0  0  0
  8 11  1  0  0  0  0
 51 52  1  0  0  0  0
 21 22  1  0  0  0  0
 22 23  1  0  0  0  0
 18 21  1  0  0  0  0
 23 24  1  0  0  0  0
 41 42  1  0  0  0  0
  7  8  1  0  0  0  0
 17 18  1  0  0  0  0
  3  4  1  0  0  0  0
  3  5  1  0  0  0  0
  3  6  1  0  0  0  0
 45 48  1  0  0  0  0
 45 49  1  0  0  0  0
 45 50  1  0  0  0  0
 11 14  1  0  0  0  0
 11 15  1  0  0  0  0
 11 16  1  0  0  0  0
 52 54  1  0  0  0  0
 52 55  1  0  0  0  0
 52 56  1  0  0  0  0
 22 32  1  0  0  0  0
 22 33  1  0  0  0  0
 21 30  1  0  0  0  0
 21 31  1  0  0  0  0
 23 34  1  0  0  0  0
 23 35  1  0  0  0  0
 42 47  1  0  0  0  0
  8 13  1  0  0  0  0
 18 29  1  0  0  0  0
 26 37  1  0  0  0  0
 26 38  1  0  0  0  0
 27 39  1  0  0  0  0
 27 40  1  0  0  0  0
 51 53  1  0  0  0  0
  7 12  1  0  0  0  0
 41 46  1  0  0  0  0
 17 28  1  0  0  0  0
 24 36  1  0  0  0  0
M  CHG  1  24   1
M  END
$$$$

  -OEChem-05262214473D

 56 55  0     1  0  0  0  0  0999 V2000
    0.7735   -5.8042   -2.0022 C   0  0  0  0  0  0  0  0  0  0  0  0
   -0.2086   -6.3825   -1.5519 O   0  0  0  0  0  0  0  0  0  0  0  0
    1.4751   -6.3646   -3.1946 C   0  0  0  0  0  0  0  0  0  0  0  0
    2.2765   -7.0687   -2.9186 H   0  0  0  0  0  0  0  0  0  0  0  0
    0.7988   -6.9360   -3.8504 H   0  0  0  0  0  0  0  0  0  0  0  0
    1.9556   -5.6216   -3.8511 H   0  0  0  0  0  0  0  0  0  0  0  0
    1.3322   -4.6359   -1.5106 N   0  0  0  0  0  0  0  0  0  0  0  0
    0.8124   -3.9290   -0.3698 C   0  0  2  0  0  0  0  0  0  0  0  0
    1.0666   -2.4424   -0.5818 C   0  0  0  0  0  0  0  0  0  0  0  0
    2.0598   -2.0076   -1.1610 O   0  0  0  0  0  0  0  0  0  0  0  0
    1.4560   -4.4118    0.9207 C   0  0  0  0  0  0  0  0  0  0  0  0
    2.1528   -4.2578   -1.9805 H   0  0  0  0  0  0  0  0  0  0  0  0
   -0.2667   -4.1160   -0.3467 H   0  0  0  0  0  0  0  0  0  0  0  0
    2.5374   -4.2329    0.9160 H   0  0  0  0  0  0  0  0  0  0  0  0
    1.0390   -3.8932    1.7903 H   0  0  0  0  0  0  0  0  0  0  0  0
    1.2976   -5.4871    1.0566 H   0  0  0  0  0  0  0  0  0  0  0  0
    0.0755   -1.6529   -0.0105 N   0  0  0  0  0  0  0  0  0  0  0  0
    0.1113   -0.2132   -0.0391 C   0  0  2  0  0  0  0  0  0  0  0  0
   -0.2497    0.2820    1.3573 C   0  0  0  0  0  0  0  0  0  0  0  0
   -0.0140    1.4251    1.7433 O   0  0  0  0  0  0  0  0  0  0  0  0
   -0.8533    0.3663   -1.0788 C   0  0  0  0  0  0  0  0  0  0  0  0
   -0.4329    0.0333   -2.5153 C   0  0  0  0  0  0  0  0  0  0  0  0
   -1.3966    0.6125   -3.5458 C   0  0  0  0  0  0  0  0  0  0  0  0
   -1.0055    0.2733   -4.9122 N   0  3  0  0  0  0  0  0  0  0  0  0
   -1.7694    0.6413   -6.0214 C   0  0  0  0  0  0  0  0  0  0  0  0
   -1.3355    0.2838   -7.2936 N   0  0  0  0  0  0  0  0  0  0  0  0
   -2.9541    1.3575   -5.8853 N   0  0  0  0  0  0  0  0  0  0  0  0
   -0.7323   -2.1024    0.4149 H   0  0  0  0  0  0  0  0  0  0  0  0
    1.1447    0.0743   -0.2643 H   0  0  0  0  0  0  0  0  0  0  0  0
   -0.9071    1.4551   -0.9599 H   0  0  0  0  0  0  0  0  0  0  0  0
   -1.8671   -0.0152   -0.8983 H   0  0  0  0  0  0  0  0  0  0  0  0
    0.5770    0.4181   -2.7013 H   0  0  0  0  0  0  0  0  0  0  0  0
   -0.3985   -1.0544   -2.6458 H   0  0  0  0  0  0  0  0  0  0  0  0
   -2.3985    0.2034   -3.3837 H   0  0  0  0  0  0  0  0  0  0  0  0
   -1.4446    1.7029   -3.4667 H   0  0  0  0  0  0  0  0  0  0  0  0
   -0.1472   -0.2503   -5.0746 H   0  0  0  0  0  0  0  0  0  0  0  0
   -1.8685    0.5365   -8.1223 H   0  0  0  0  0  0  0  0  0  0  0  0
   -0.4741   -0.2400   -7.4289 H   0  0  0  0  0  0  0  0  0  0  0  0
   -3.5140    1.6278   -6.6897 H   0  0  0  0  0  0  0  0  0  0  0  0
   -3.2961    1.6322   -4.9675 H   0  0  0  0  0  0  0  0  0  0  0  0
   -0.8201   -0.7165    2.1344 N   0  0  0  0  0  0  0  0  0  0  0  0
   -1.2071   -0.5161    3.5119 C   0  0  2  0  0  0  0  0  0  0  0  0
   -1.0152   -1.8340    4.2508 C   0  0  0  0  0  0  0  0  0  0  0  0
   -1.1971   -2.9303    3.7253 O   0  0  0  0  0  0  0  0  0  0  0  0
   -2.6468   -0.0380    3.6182 C   0  0  0  0  0  0  0  0  0  0  0  0
   -1.0074   -1.6247    1.7200 H   0  0  0  0  0  0  0  0  0  0  0  0
   -0.5275    0.2372    3.9250 H   0  0  0  0  0  0  0  0  0  0  0  0
   -3.3426   -0.7797    3.2092 H   0  0  0  0  0  0  0  0  0  0  0  0
   -2.9296    0.1407    4.6609 H   0  0  0  0  0  0  0  0  0  0  0  0
   -2.7900    0.8944    3.0615 H   0  0  0  0  0  0  0  0  0  0  0  0
   -0.6589   -1.6410    5.5782 N   0  0  0  0  0  0  0  0  0  0  0  0
   -0.4607   -2.7357    6.4992 C   0  0  0  0  0  0  0  0  0  0  0  0
   -0.4905   -0.6989    5.9184 H   0  0  0  0  0  0  0  0  0  0  0  0
   -1.4015   -2.9440    7.0299 H   0  0  0  0  0  0  0  0  0  0  0  0
   -0.1480   -3.6313    5.9423 H   0  0  0  0  0  0  0  0  0  0  0  0
    0.3187   -2.4658    7.2271 H   0  0  0  0  0  0  0  0  0  0  0  0
  1  3  1  0  0  0  0
  1  7  1  0  0  0  0
  1  2  2  0  0  0  0
 42 43  1  0  0  0  0
 43 51  1  0  0  0  0
 43 44  2  0  0  0  0
  8  9  1  0  0  0  0
  9 17  1  0  0  0  0
  9 10  2  0  0  0  0
 18 19  1  0  0  0  0
 19 41  1  0  0  0  0
 19 20  2  0  0  0  0
 25 26  1  0  0  0  0
 25 27  1  0  0  0  0
 24 25  2  0  0  0  0
 42 45  1  0  0  0  0
  8 11  1  0  0  0  0
 51 52  1  0  0  0  0
 21 22  1  0  0  0  0
 22 23  1  0  0  0  0
 18 21  1  0  0  0  0
 23 24  1  0  0  0  0
 41 42  1  0  0  0  0
  7  8  1  0  0  0  0
 17 18  1  0  0  0  0
  3  4  1  0  0  0  0
  3  5  1  0  0  0  0
  3  6  1  0  0  0  0
 45 48  1  0  0  0  0
 45 49  1  0  0  0  0
 45 50  1  0  0  0  0
 11 14  1  0  0  0  0
 11 15  1  0  0  0  0
 11 16  1  0  0  0  0
 52 54  1  0  0  0  0
 52 55  1  0  0  0  0
 52 56  1  0  0  0  0
 22 32  1  0  0  0  0
 22 33  1  0  0  0  0
 21 30  1  0  0  0  0
 21 31  1  0  0  0  0
 23 34  1  0  0  0  0
 23 35  1  0  0  0  0
 42 47  1  0  0  0  0
  8 13  1  0  0  0  0
 18 29  1  0  0  0  0
 26 37  1  0  0  0  0
 26 38  1  0  0  0  0
 27 39  1  0  0  0  0
 27 40  1  0  0  0  0
 51 53  1  0  0  0  0
  7 12  1  0  0  0  0
 41 46  1  0  0  0  0
 17 28  1  0  0  0  0
 24 36  1  0  0  0  0
M  CHG  1  24   1
M  END
$$$$

  -OEChem-05262214473D

 56 55  0     1  0  0  0  0  0999 V2000
    0.7735   -5.8042   -2.0022 C   0  0  0  0  0  0  0  0  0  0  0  0
   -0.2086   -6.3825   -1.5519 O   0  0  0  0  0  0  0  0  0  0  0  0
    1.4751   -6.3646   -3.1946 C   0  0  0  0  0  0  0  0  0  0  0  0
    2.2765   -7.0687   -2.9186 H   0  0  0  0  0  0  0  0  0  0  0  0
    0.7988   -6.9360   -3.8504 H   0  0  0  0  0  0  0  0  0  0  0  0
    1.9556   -5.6216   -3.8511 H   0  0  0  0  0  0  0  0  0  0  0  0
    1.3322   -4.6359   -1.5106 N   0  0  0  0  0  0  0  0  0  0  0  0
    0.8124   -3.9290   -0.3698 C   0  0  2  0  0  0  0  0  0  0  0  0
    1.0666   -2.4424   -0.5818 C   0  0  0  0  0  0  0  0  0  0  0  0
    2.0598   -2.0076   -1.1610 O   0  0  0  0  0  0  0  0  0  0  0  0
    1.4560   -4.4118    0.9207 C   0  0  0  0  0  0  0  0  0  0  0  0
    2.1528   -4.2578   -1.9805 H   0  0  0  0  0  0  0  0  0  0  0  0
   -0.2667   -4.1160   -0.3467 H   0  0  0  0  0  0  0  0  0  0  0  0
    2.5374   -4.2329    0.9160 H   0  0  0  0  0  0  0  0  0  0  0  0
    1.0390   -3.8932    1.7903 H   0  0  0  0  0  0  0  0  0  0  0  0
    1.2976   -5.4871    1.0566 H   0  0  0  0  0  0  0  0  0  0  0  0
    0.0755   -1.6529   -0.0105 N   0  0  0  0  0  0  0  0  0  0  0  0
    0.1113   -0.2132   -0.0391 C   0  0  2  0  0  0  0  0  0  0  0  0
   -0.2497    0.2820    1.3573 C   0  0  0  0  0  0  0  0  0  0  0  0
   -0.2658    1.4731    1.6611 O   0  0  0  0  0  0  0  0  0  0  0  0
   -0.8533    0.3663   -1.0788 C   0  0  0  0  0  0  0  0  0  0  0  0
   -0.4329    0.0333   -2.5153 C   0  0  0  0  0  0  0  0  0  0  0  0
   -1.3966    0.6125   -3.5458 C   0  0  0  0  0  0  0  0  0  0  0  0
   -1.0055    0.2733   -4.9122 N   0  3  0  0  0  0  0  0  0  0  0  0
   -1.7694    0.6413   -6.0214 C   0  0  0  0  0  0  0  0  0  0  0  0
   -1.3355    0.2838   -7.2936 N   0  0  0  0  0  0  0  0  0  0  0  0
   -2.9541    1.3575   -5.8853 N   0  0  0  0  0  0  0  0  0  0  0  0
   -0.7323   -2.1024    0.4149 H   0  0  0  0  0  0  0  0  0  0  0  0
    1.1447    0.0743   -0.2643 H   0  0  0  0  0  0  0  0  0  0  0  0
   -0.9071    1.4551   -0.9599 H   0  0  0  0  0  0  0  0  0  0  0  0
   -1.8671   -0.0152   -0.8983 H   0  0  0  0  0  0  0  0  0  0  0  0
    0.5770    0.4181   -2.7013 H   0  0  0  0  0  0  0  0  0  0  0  0
   -0.3985   -1.0544   -2.6458 H   0  0  0  0  0  0  0  0  0  0  0  0
   -2.3985    0.2034   -3.3837 H   0  0  0  0  0  0  0  0  0  0  0  0
   -1.4446    1.7029   -3.4667 H   0  0  0  0  0  0  0  0  0  0  0  0
   -0.1472   -0.2503   -5.0746 H   0  0  0  0  0  0  0  0  0  0  0  0
   -1.8685    0.5365   -8.1223 H   0  0  0  0  0  0  0  0  0  0  0  0
   -0.4741   -0.2400   -7.4289 H   0  0  0  0  0  0  0  0  0  0  0  0
   -3.5140    1.6278   -6.6897 H   0  0  0  0  0  0  0  0  0  0  0  0
   -3.2961    1.6322   -4.9675 H   0  0  0  0  0  0  0  0  0  0  0  0
   -0.5029   -0.7642    2.2334 N   0  0  0  0  0  0  0  0  0  0  0  0
   -0.8199   -0.5623    3.6284 C   0  0  2  0  0  0  0  0  0  0  0  0
   -0.2617   -1.7423    4.4131 C   0  0  0  0  0  0  0  0  0  0  0  0
   -0.2154   -2.8853    3.9632 O   0  0  0  0  0  0  0  0  0  0  0  0
   -2.3197   -0.4286    3.8414 C   0  0  0  0  0  0  0  0  0  0  0  0
   -0.4984   -1.7182    1.8848 H   0  0  0  0  0  0  0  0  0  0  0  0
   -0.3109    0.3568    3.9386 H   0  0  0  0  0  0  0  0  0  0  0  0
   -2.8467   -1.3400    3.5362 H   0  0  0  0  0  0  0  0  0  0  0  0
   -2.5563   -0.2472    4.8950 H   0  0  0  0  0  0  0  0  0  0  0  0
   -2.7243    0.4020    3.2531 H   0  0  0  0  0  0  0  0  0  0  0  0
    0.1387   -1.3769    5.6907 N   0  0  0  0  0  0  0  0  0  0  0  0
    0.6634   -2.3260    6.6446 C   0  0  0  0  0  0  0  0  0  0  0  0
    0.1020   -0.3997    5.9655 H   0  0  0  0  0  0  0  0  0  0  0  0
   -0.1565   -2.7105    7.2690 H   0  0  0  0  0  0  0  0  0  0  0  0
    1.1380   -3.1607    6.1080 H   0  0  0  0  0  0  0  0  0  0  0  0
    1.4089   -1.8297    7.2833 H   0  0  0  0  0  0  0  0  0  0  0  0
  1  3  1  0  0  0  0
  1  7  1  0  0  0  0
  1  2  2  0  0  0  0
 42 43  1  0  0  0  0
 43 51  1  0  0  0  0
 43 44  2  0  0  0  0
  8  9  1  0  0  0  0
  9 17  1  0  0  0  0
  9 10  2  0  0  0  0
 18 19  1  0  0  0  0
 19 41  1  0  0  0  0
 19 20  2  0  0  0  0
 25 26  1  0  0  0  0
 25 27  1  0  0  0  0
 24 25  2  0  0  0  0
 42 45  1  0  0  0  0
  8 11  1  0  0  0  0
 51 52  1  0  0  0  0
 21 22  1  0  0  0  0
 22 23  1  0  0  0  0
 18 21  1  0  0  0  0
 23 24  1  0  0  0  0
 41 42  1  0  0  0  0
  7  8  1  0  0  0  0
 17 18  1  0  0  0  0
  3  4  1  0  0  0  0
  3  5  1  0  0  0  0
  3  6  1  0  0  0  0
 45 48  1  0  0  0  0
 45 49  1  0  0  0  0
 45 50  1  0  0  0  0
 11 14  1  0  0  0  0
 11 15  1  0  0  0  0
 11 16  1  0  0  0  0
 52 54  1  0  0  0  0
 52 55  1  0  0  0  0
 52 56  1  0  0  0  0
 22 32  1  0  0  0  0
 22 33  1  0  0  0  0
 21 30  1  0  0  0  0
 21 31  1  0  0  0  0
 23 34  1  0  0  0  0
 23 35  1  0  0  0  0
 42 47  1  0  0  0  0
  8 13  1  0  0  0  0
 18 29  1  0  0  0  0
 26 37  1  0  0  0  0
 26 38  1  0  0  0  0
 27 39  1  0  0  0  0
 27 40  1  0  0  0  0
 51 53  1  0  0  0  0
  7 12  1  0  0  0  0
 41 46  1  0  0  0  0
 17 28  1  0  0  0  0
 24 36  1  0  0  0  0
M  CHG  1  24   1
M  END
$$$$

  -OEChem-05262214473D

 56 55  0     1  0  0  0  0  0999 V2000
    0.7735   -5.8042   -2.0022 C   0  0  0  0  0  0  0  0  0  0  0  0
   -0.2086   -6.3825   -1.5519 O   0  0  0  0  0  0  0  0  0  0  0  0
    1.4751   -6.3646   -3.1946 C   0  0  0  0  0  0  0  0  0  0  0  0
    2.2765   -7.0687   -2.9186 H   0  0  0  0  0  0  0  0  0  0  0  0
    0.7988   -6.9360   -3.8504 H   0  0  0  0  0  0  0  0  0  0  0  0
    1.9556   -5.6216   -3.8511 H   0  0  0  0  0  0  0  0  0  0  0  0
    1.3322   -4.6359   -1.5106 N   0  0  0  0  0  0  0  0  0  0  0  0
    0.8124   -3.9290   -0.3698 C   0  0  2  0  0  0  0  0  0  0  0  0
    1.0666   -2.4424   -0.5818 C   0  0  0  0  0  0  0  0  0  0  0  0
    2.0598   -2.0076   -1.1610 O   0  0  0  0  0  0  0  0  0  0  0  0
    1.4560   -4.4118    0.9207 C   0  0  0  0  0  0  0  0  0  0  0  0
    2.1528   -4.2578   -1.9805 H   0  0  0  0  0  0  0  0  0  0  0  0
   -0.2667   -4.1160   -0.3467 H   0  0  0  0  0  0  0  0  0  0  0  0
    2.5374   -4.2329    0.9160 H   0  0  0  0  0  0  0  0  0  0  0  0
    1.0390   -3.8932    1.7903 H   0  0  0  0  0  0  0  0  0  0  0  0
    1.2976   -5.4871    1.0566 H   0  0  0  0  0  0  0  0  0  0  0  0
    0.0755   -1.6529   -0.0105 N   0  0  0  0  0  0  0  0  0  0  0  0
    0.1113   -0.2132   -0.0391 C   0  0  2  0  0  0  0  0  0  0  0  0
   -0.2497    0.2820    1.3573 C   0  0  0  0  0  0  0  0  0  0  0  0
   -0.5274    1.4547    1.6000 O   0  0  0  0  0  0  0  0  0  0  0  0
   -0.8533    0.3663   -1.0788 C   0  0  0  0  0  0  0  0  0  0  0  0
   -0.4329    0.0333   -2.5153 C   0  0  0  0  0  0  0  0  0  0  0  0
   -1.3966    0.6125   -3.5458 C   0  0  0  0  0  0  0  0  0  0  0  0
   -1.0055    0.2733   -4.9122 N   0  3  0  0  0  0  0  0  0  0  0  0
   -1.7694    0.6413   -6.0214 C   0  0  0  0  0  0  0  0  0  0  0  0
   -1.3355    0.2838   -7.2936 N   0  0  0  0  0  0  0  0  0  0  0  0
   -2.9541    1.3575   -5.8853 N   0  0  0  0  0  0  0  0  0  0  0  0
   -0.7323   -2.1024    0.4149 H   0  0  0  0  0  0  0  0  0  0  0  0
    1.1447    0.0743   -0.2643 H   0  0  0  0  0  0  0  0  0  0  0  0
   -0.9071    1.4551   -0.9599 H   0  0  0  0  0  0  0  0  0  0  0  0
   -1.8671   -0.0152   -0.8983 H   0  0  0  0  0  0  0  0  0  0  0  0
    0.5770    0.4181   -2.7013 H   0  0  0  0  0  0  0  0  0  0  0  0
   -0.3985   -1.0544   -2.6458 H   0  0  0  0  0  0  0  0  0  0  0  0
   -2.3985    0.2034   -3.3837 H   0  0  0  0  0  0  0  0  0  0  0  0
   -1.4446    1.7029   -3.4667 H   0  0  0  0  0  0  0  0  0  0  0  0
   -0.1472   -0.2503   -5.0746 H   0  0  0  0  0  0  0  0  0  0  0  0
   -1.8685    0.5365   -8.1223 H   0  0  0  0  0  0  0  0  0  0  0  0
   -0.4741   -0.2400   -7.4289 H   0  0  0  0  0  0  0  0  0  0  0  0
   -3.5140    1.6278   -6.6897 H   0  0  0  0  0  0  0  0  0  0  0  0
   -3.2961    1.6322   -4.9675 H   0  0  0  0  0  0  0  0  0  0  0  0
   -0.1769   -0.7291    2.3052 N   0  0  0  0  0  0  0  0  0  0  0  0
   -0.4251   -0.5080    3.7113 C   0  0  2  0  0  0  0  0  0  0  0  0
    0.4580   -1.4652    4.5009 C   0  0  0  0  0  0  0  0  0  0  0  0
    0.7422   -2.5946    4.1077 O   0  0  0  0  0  0  0  0  0  0  0  0
   -1.8924   -0.7147    4.0533 C   0  0  0  0  0  0  0  0  0  0  0  0
    0.0294   -1.6779    2.0069 H   0  0  0  0  0  0  0  0  0  0  0  0
   -0.1290    0.5245    3.9262 H   0  0  0  0  0  0  0  0  0  0  0  0
   -2.2074   -1.7436    3.8446 H   0  0  0  0  0  0  0  0  0  0  0  0
   -2.0840   -0.5190    5.1135 H   0  0  0  0  0  0  0  0  0  0  0  0
   -2.5282   -0.0462    3.4628 H   0  0  0  0  0  0  0  0  0  0  0  0
    0.8560   -0.9258    5.7162 N   0  0  0  0  0  0  0  0  0  0  0  0
    1.6643   -1.6549    6.6654 C   0  0  0  0  0  0  0  0  0  0  0  0
    0.6074    0.0326    5.9429 H   0  0  0  0  0  0  0  0  0  0  0  0
    1.0108   -2.1752    7.3810 H   0  0  0  0  0  0  0  0  0  0  0  0
    2.2825   -2.3913    6.1310 H   0  0  0  0  0  0  0  0  0  0  0  0
    2.3159   -0.9534    7.2070 H   0  0  0  0  0  0  0  0  0  0  0  0
  1  3  1  0  0  0  0
  1  7  1  0  0  0  0
  1  2  2  0  0  0  0
 42 43  1  0  0  0  0
 43 51  1  0  0  0  0
 43 44  2  0  0  0  0
  8  9  1  0  0  0  0
  9 17  1  0  0  0  0
  9 10  2  0  0  0  0
 18 19  1  0  0  0  0
 19 41  1  0  0  0  0
 19 20  2  0  0  0  0
 25 26  1  0  0  0  0
 25 27  1  0  0  0  0
 24 25  2  0  0  0  0
 42 45  1  0  0  0  0
  8 11  1  0  0  0  0
 51 52  1  0  0  0  0
 21 22  1  0  0  0  0
 22 23  1  0  0  0  0
 18 21  1  0  0  0  0
 23 24  1  0  0  0  0
 41 42  1  0  0  0  0
  7  8  1  0  0  0  0
 17 18  1  0  0  0  0
  3  4  1  0  0  0  0
  3  5  1  0  0  0  0
  3  6  1  0  0  0  0
 45 48  1  0  0  0  0
 45 49  1  0  0  0  0
 45 50  1  0  0  0  0
 11 14  1  0  0  0  0
 11 15  1  0  0  0  0
 11 16  1  0  0  0  0
 52 54  1  0  0  0  0
 52 55  1  0  0  0  0
 52 56  1  0  0  0  0
 22 32  1  0  0  0  0
 22 33  1  0  0  0  0
 21 30  1  0  0  0  0
 21 31  1  0  0  0  0
 23 34  1  0  0  0  0
 23 35  1  0  0  0  0
 42 47  1  0  0  0  0
  8 13  1  0  0  0  0
 18 29  1  0  0  0  0
 26 37  1  0  0  0  0
 26 38  1  0  0  0  0
 27 39  1  0  0  0  0
 27 40  1  0  0  0  0
 51 53  1  0  0  0  0
  7 12  1  0  0  0  0
 41 46  1  0  0  0  0
 17 28  1  0  0  0  0
 24 36  1  0  0  0  0
M  CHG  1  24   1
M  END
$$$$

  -OEChem-05262214473D

 56 55  0     1  0  0  0  0  0999 V2000
    0.7735   -5.8042   -2.0022 C   0  0  0  0  0  0  0  0  0  0  0  0
   -0.2086   -6.3825   -1.5519 O   0  0  0  0  0  0  0  0  0  0  0  0
    1.4751   -6.3646   -3.1946 C   0  0  0  0  0  0  0  0  0  0  0  0
    2.2765   -7.0687   -2.9186 H   0  0  0  0  0  0  0  0  0  0  0  0
    0.7988   -6.9360   -3.8504 H   0  0  0  0  0  0  0  0  0  0  0  0
    1.9556   -5.6216   -3.8511 H   0  0  0  0  0  0  0  0  0  0  0  0
    1.3322   -4.6359   -1.5106 N   0  0  0  0  0  0  0  0  0  0  0  0
    0.8124   -3.9290   -0.3698 C   0  0  2  0  0  0  0  0  0  0  0  0
    1.0666   -2.4424   -0.5818 C   0  0  0  0  0  0  0  0  0  0  0  0
    2.0598   -2.0076   -1.1610 O   0  0  0  0  0  0  0  0  0  0  0  0
    1.4560   -4.4118    0.9207 C   0  0  0  0  0  0  0  0  0  0  0  0
    2.1528   -4.2578   -1.9805 H   0  0  0  0  0  0  0  0  0  0  0  0
   -0.2667   -4.1160   -0.3467 H   0  0  0  0  0  0  0  0  0  0  0  0
    2.5374   -4.2329    0.9160 H   0  0  0  0  0  0  0  0  0  0  0  0
    1.0390   -3.8932    1.7903 H   0  0  0  0  0  0  0  0  0  0  0  0
    1.2976   -5.4871    1.0566 H   0  0  0  0  0  0  0  0  0  0  0  0
    0.0755   -1.6529   -0.0105 N   0  0  0  0  0  0  0  0  0  0  0  0
    0.1113   -0.2132   -0.0391 C   0  0  2  0  0  0  0  0  0  0  0  0
   -0.2497    0.2820    1.3573 C   0  0  0  0  0  0  0  0  0  0  0  0
   -0.7809    1.3712    1.5641 O   0  0  0  0  0  0  0  0  0  0  0  0
   -0.8533    0.3663   -1.0788 C   0  0  0  0  0  0  0  0  0  0  0  0
   -0.4329    0.0333   -2.5153 C   0  0  0  0  0  0  0  0  0  0  0  0
   -1.3966    0.6125   -3.5458 C   0  0  0  0  0  0  0  0  0  0  0  0
   -1.0055    0.2733   -4.9122 N   0  3  0  0  0  0  0  0  0  0  0  0
   -1.7694    0.6413   -6.0214 C   0  0  0  0  0  0  0  0  0  0  0  0
   -1.3355    0.2838   -7.2936 N   0  0  0  0  0  0  0  0  0  0  0  0
   -2.9541    1.3575   -5.8853 N   0  0  0  0  0  0  0  0  0  0  0  0
   -0.7323   -2.1024    0.4149 H   0  0  0  0  0  0  0  0  0  0  0  0
    1.1447    0.0743   -0.2643 H   0  0  0  0  0  0  0  0  0  0  0  0
   -0.9071    1.4551   -0.9599 H   0  0  0  0  0  0  0  0  0  0  0  0
   -1.8671   -0.0152   -0.8983 H   0  0  0  0  0  0  0  0  0  0  0  0
    0.5770    0.4181   -2.7013 H   0  0  0  0  0  0  0  0  0  0  0  0
   -0.3985   -1.0544   -2.6458 H   0  0  0  0  0  0  0  0  0  0  0  0
   -2.3985    0.2034   -3.3837 H   0  0  0  0  0  0  0  0  0  0  0  0
   -1.4446    1.7029   -3.4667 H   0  0  0  0  0  0  0  0  0  0  0  0
   -0.1472   -0.2503   -5.0746 H   0  0  0  0  0  0  0  0  0  0  0  0
   -1.8685    0.5365   -8.1223 H   0  0  0  0  0  0  0  0  0  0  0  0
   -0.4741   -0.2400   -7.4289 H   0  0  0  0  0  0  0  0  0  0  0  0
   -3.5140    1.6278   -6.6897 H   0  0  0  0  0  0  0  0  0  0  0  0
   -3.2961    1.6322   -4.9675 H   0  0  0  0  0  0  0  0  0  0  0  0
    0.1357   -0.6135    2.3451 N   0  0  0  0  0  0  0  0  0  0  0  0
   -0.0497   -0.3569    3.7548 C   0  0  2  0  0  0  0  0  0  0  0  0
    1.0949   -1.0216    4.5082 C   0  0  0  0  0  0  0  0  0  0  0  0
    1.6105   -2.0780    4.1490 O   0  0  0  0  0  0  0  0  0  0  0  0
   -1.3940   -0.8768    4.2397 C   0  0  0  0  0  0  0  0  0  0  0  0
    0.5398   -1.5063    2.0781 H   0  0  0  0  0  0  0  0  0  0  0  0
    0.0060    0.7289    3.8886 H   0  0  0  0  0  0  0  0  0  0  0  0
   -1.4684   -1.9631    4.1136 H   0  0  0  0  0  0  0  0  0  0  0  0
   -1.5451   -0.6563    5.3015 H   0  0  0  0  0  0  0  0  0  0  0  0
   -2.2148   -0.4199    3.6763 H   0  0  0  0  0  0  0  0  0  0  0  0
    1.4440   -0.3186    5.6528 N   0  0  0  0  0  0  0  0  0  0  0  0
    2.4739   -0.7682    6.5602 C   0  0  0  0  0  0  0  0  0  0  0  0
    0.9911    0.5686    5.8520 H   0  0  0  0  0  0  0  0  0  0  0  0
    2.0209   -1.3747    7.3582 H   0  0  0  0  0  0  0  0  0  0  0  0
    3.2076   -1.3754    6.0099 H   0  0  0  0  0  0  0  0  0  0  0  0
    2.9779    0.1033    7.0034 H   0  0  0  0  0  0  0  0  0  0  0  0
  1  3  1  0  0  0  0
  1  7  1  0  0  0  0
  1  2  2  0  0  0  0
 42 43  1  0  0  0  0
 43 51  1  0  0  0  0
 43 44  2  0  0  0  0
  8  9  1  0  0  0  0
  9 17  1  0  0  0  0
  9 10  2  0  0  0  0
 18 19  1  0  0  0  0
 19 41  1  0  0  0  0
 19 20  2  0  0  0  0
 25 26  1  0  0  0  0
 25 27  1  0  0  0  0
 24 25  2  0  0  0  0
 42 45  1  0  0  0  0
  8 11  1  0  0  0  0
 51 52  1  0  0  0  0
 21 22  1  0  0  0  0
 22 23  1  0  0  0  0
 18 21  1  0  0  0  0
 23 24  1  0  0  0  0
 41 42  1  0  0  0  0
  7  8  1  0  0  0  0
 17 18  1  0  0  0  0
  3  4  1  0  0  0  0
  3  5  1  0  0  0  0
  3  6  1  0  0  0  0
 45 48  1  0  0  0  0
 45 49  1  0  0  0  0
 45 50  1  0  0  0  0
 11 14  1  0  0  0  0
 11 15  1  0  0  0  0
 11 16  1  0  0  0  0
 52 54  1  0  0  0  0
 52 55  1  0  0  0  0
 52 56  1  0  0  0  0
 22 32  1  0  0  0  0
 22 33  1  0  0  0  0
 21 30  1  0  0  0  0
 21 31  1  0  0  0  0
 23 34  1  0  0  0  0
 23 35  1  0  0  0  0
 42 47  1  0  0  0  0
  8 13  1  0  0  0  0
 18 29  1  0  0  0  0
 26 37  1  0  0  0  0
 26 38  1  0  0  0  0
 27 39  1  0  0  0  0
 27 40  1  0  0  0  0
 51 53  1  0  0  0  0
  7 12  1  0  0  0  0
 41 46  1  0  0  0  0
 17 28  1  0  0  0  0
 24 36  1  0  0  0  0
M  CHG  1  24   1
M  END
$$$$

  -OEChem-05262214473D

 56 55  0     1  0  0  0  0  0999 V2000
    0.7735   -5.8042   -2.0022 C   0  0  0  0  0  0  0  0  0  0  0  0
   -0.2086   -6.3825   -1.5519 O   0  0  0  0  0  0  0  0  0  0  0  0
    1.4751   -6.3646   -3.1946 C   0  0  0  0  0  0  0  0  0  0  0  0
    2.2765   -7.0687   -2.9186 H   0  0  0  0  0  0  0  0  0  0  0  0
    0.7988   -6.9360   -3.8504 H   0  0  0  0  0  0  0  0  0  0  0  0
    1.9556   -5.6216   -3.8511 H   0  0  0  0  0  0  0  0  0  0  0  0
    1.3322   -4.6359   -1.5106 N   0  0  0  0  0  0  0  0  0  0  0  0
    0.8124   -3.9290   -0.3698 C   0  0  2  0  0  0  0  0  0  0  0  0
    1.0666   -2.4424   -0.5818 C   0  0  0  0  0  0  0  0  0  0  0  0
    2.0598   -2.0076   -1.1610 O   0  0  0  0  0  0  0  0  0  0  0  0
    1.4560   -4.4118    0.9207 C   0  0  0  0  0  0  0  0  0  0  0  0
    2.1528   -4.2578   -1.9805 H   0  0  0  0  0  0  0  0  0  0  0  0
   -0.2667   -4.1160   -0.3467 H   0  0  0  0  0  0  0  0  0  0  0  0
    2.5374   -4.2329    0.9160 H   0  0  0  0  0  0  0  0  0  0  0  0
    1.0390   -3.8932    1.7903 H   0  0  0  0  0  0  0  0  0  0  0  0
    1.2976   -5.4871    1.0566 H   0  0  0  0  0  0  0  0  0  0  0  0
    0.0755   -1.6529   -0.0105 N   0  0  0  0  0  0  0  0  0  0  0  0
    0.1113   -0.2132   -0.0391 C   0  0  2  0  0  0  0  0  0  0  0  0
   -0.2497    0.2820    1.3573 C   0  0  0  0  0  0  0  0  0  0  0  0
   -1.0089    1.2283    1.5558 O   0  0  0  0  0  0  0  0  0  0  0  0
   -0.8533    0.3663   -1.0788 C   0  0  0  0  0  0  0  0  0  0  0  0
   -0.4329    0.0333   -2.5153 C   0  0  0  0  0  0  0  0  0  0  0  0
   -1.3966    0.6125   -3.5458 C   0  0  0  0  0  0  0  0  0  0  0  0
   -1.0055    0.2733   -4.9122 N   0  3  0  0  0  0  0  0  0  0  0  0
   -1.7694    0.6413   -6.0214 C   0  0  0  0  0  0  0  0  0  0  0  0
   -1.3355    0.2838   -7.2936 N   0  0  0  0  0  0  0  0  0  0  0  0
   -2.9541    1.3575   -5.8853 N   0  0  0  0  0  0  0  0  0  0  0  0
   -0.7323   -2.1024    0.4149 H   0  0  0  0  0  0  0  0  0  0  0  0
    1.1447    0.0743   -0.2643 H   0  0  0  0  0  0  0  0  0  0  0  0
   -0.9071    1.4551   -0.9599 H   0  0  0  0  0  0  0  0  0  0  0  0
   -1.8671   -0.0152   -0.8983 H   0  0  0  0  0  0  0  0  0  0  0  0
    0.5770    0.4181   -2.7013 H   0  0  0  0  0  0  0  0  0  0  0  0
   -0.3985   -1.0544   -2.6458 H   0  0  0  0  0  0  0  0  0  0  0  0
   -2.3985    0.2034   -3.3837 H   0  0  0  0  0  0  0  0  0  0  0  0
   -1.4446    1.7029   -3.4667 H   0  0  0  0  0  0  0  0  0  0  0  0
   -0.1472   -0.2503   -5.0746 H   0  0  0  0  0  0  0  0  0  0  0  0
   -1.8685    0.5365   -8.1223 H   0  0  0  0  0  0  0  0  0  0  0  0
   -0.4741   -0.2400   -7.4289 H   0  0  0  0  0  0  0  0  0  0  0  0
   -3.5140    1.6278   -6.6897 H   0  0  0  0  0  0  0  0  0  0  0  0
   -3.2961    1.6322   -4.9675 H   0  0  0  0  0  0  0  0  0  0  0  0
    0.4136   -0.4253    2.3502 N   0  0  0  0  0  0  0  0  0  0  0  0
    0.2808   -0.1194    3.7559 C   0  0  2  0  0  0  0  0  0  0  0  0
    1.6056   -0.4417    4.4346 C   0  0  0  0  0  0  0  0  0  0  0  0
    2.3302   -1.3707    4.0842 O   0  0  0  0  0  0  0  0  0  0  0  0
   -0.8586   -0.9038    4.3877 C   0  0  0  0  0  0  0  0  0  0  0  0
    0.9982   -1.2153    2.0934 H   0  0  0  0  0  0  0  0  0  0  0  0
    0.0848    0.9560    3.8284 H   0  0  0  0  0  0  0  0  0  0  0  0
   -0.6799   -1.9834    4.3247 H   0  0  0  0  0  0  0  0  0  0  0  0
   -0.9762   -0.6496    5.4463 H   0  0  0  0  0  0  0  0  0  0  0  0
   -1.8056   -0.6934    3.8792 H   0  0  0  0  0  0  0  0  0  0  0  0
    1.8628    0.4035    5.5050 N   0  0  0  0  0  0  0  0  0  0  0  0
    3.0368    0.2737    6.3362 C   0  0  0  0  0  0  0  0  0  0  0  0
    1.2272    1.1716    5.6991 H   0  0  0  0  0  0  0  0  0  0  0  0
    2.8049   -0.3635    7.2023 H   0  0  0  0  0  0  0  0  0  0  0  0
    3.8503   -0.1823    5.7529 H   0  0  0  0  0  0  0  0  0  0  0  0
    3.3497    1.2685    6.6863 H   0  0  0  0  0  0  0  0  0  0  0  0
  1  3  1  0  0  0  0
  1  7  1  0  0  0  0
  1  2  2  0  0  0  0
 42 43  1  0  0  0  0
 43 51  1  0  0  0  0
 43 44  2  0  0  0  0
  8  9  1  0  0  0  0
  9 17  1  0  0  0  0
  9 10  2  0  0  0  0
 18 19  1  0  0  0  0
 19 41  1  0  0  0  0
 19 20  2  0  0  0  0
 25 26  1  0  0  0  0
 25 27  1  0  0  0  0
 24 25  2  0  0  0  0
 42 45  1  0  0  0  0
  8 11  1  0  0  0  0
 51 52  1  0  0  0  0
 21 22  1  0  0  0  0
 22 23  1  0  0  0  0
 18 21  1  0  0  0  0
 23 24  1  0  0  0  0
 41 42  1  0  0  0  0
  7  8  1  0  0  0  0
 17 18  1  0  0  0  0
  3  4  1  0  0  0  0
  3  5  1  0  0  0  0
  3  6  1  0  0  0  0
 45 48  1  0  0  0  0
 45 49  1  0  0  0  0
 45 50  1  0  0  0  0
 11 14  1  0  0  0  0
 11 15  1  0  0  0  0
 11 16  1  0  0  0  0
 52 54  1  0  0  0  0
 52 55  1  0  0  0  0
 52 56  1  0  0  0  0
 22 32  1  0  0  0  0
 22 33  1  0  0  0  0
 21 30  1  0  0  0  0
 21 31  1  0  0  0  0
 23 34  1  0  0  0  0
 23 35  1  0  0  0  0
 42 47  1  0  0  0  0
  8 13  1  0  0  0  0
 18 29  1  0  0  0  0
 26 37  1  0  0  0  0
 26 38  1  0  0  0  0
 27 39  1  0  0  0  0
 27 40  1  0  0  0  0
 51 53  1  0  0  0  0
  7 12  1  0  0  0  0
 41 46  1  0  0  0  0
 17 28  1  0  0  0  0
 24 36  1  0  0  0  0
M  CHG  1  24   1
M  END
$$$$

  -OEChem-05262214473D

 56 55  0     1  0  0  0  0  0999 V2000
    0.7735   -5.8042   -2.0022 C   0  0  0  0  0  0  0  0  0  0  0  0
   -0.2086   -6.3825   -1.5519 O   0  0  0  0  0  0  0  0  0  0  0  0
    1.4751   -6.3646   -3.1946 C   0  0  0  0  0  0  0  0  0  0  0  0
    2.2765   -7.0687   -2.9186 H   0  0  0  0  0  0  0  0  0  0  0  0
    0.7988   -6.9360   -3.8504 H   0  0  0  0  0  0  0  0  0  0  0  0
    1.9556   -5.6216   -3.8511 H   0  0  0  0  0  0  0  0  0  0  0  0
    1.3322   -4.6359   -1.5106 N   0  0  0  0  0  0  0  0  0  0  0  0
    0.8124   -3.9290   -0.3698 C   0  0  2  0  0  0  0  0  0  0  0  0
    1.0666   -2.4424   -0.5818 C   0  0  0  0  0  0  0  0  0  0  0  0
    2.0598   -2.0076   -1.1610 O   0  0  0  0  0  0  0  0  0  0  0  0
    1.4560   -4.4118    0.9207 C   0  0  0  0  0  0  0  0  0  0  0  0
    2.1528   -4.2578   -1.9805 H   0  0  0  0  0  0  0  0  0  0  0  0
   -0.2667   -4.1160   -0.3467 H   0  0  0  0  0  0  0  0  0  0  0  0
    2.5374   -4.2329    0.9160 H   0  0  0  0  0  0  0  0  0  0  0  0
    1.0390   -3.8932    1.7903 H   0  0  0  0  0  0  0  0  0  0  0  0
    1.2976   -5.4871    1.0566 H   0  0  0  0  0  0  0  0  0  0  0  0
    0.0755   -1.6529   -0.0105 N   0  0  0  0  0  0  0  0  0  0  0  0
    0.1113   -0.2132   -0.0391 C   0  0  2  0  0  0  0  0  0  0  0  0
   -0.2497    0.2820    1.3573 C   0  0  0  0  0  0  0  0  0  0  0  0
   -1.1960    1.0357    1.5757 O   0  0  0  0  0  0  0  0  0  0  0  0
   -0.8533    0.3663   -1.0788 C   0  0  0  0  0  0  0  0  0  0  0  0
   -0.4329    0.0333   -2.5153 C   0  0  0  0  0  0  0  0  0  0  0  0
   -1.3966    0.6125   -3.5458 C   0  0  0  0  0  0  0  0  0  0  0  0
   -1.0055    0.2733   -4.9122 N   0  3  0  0  0  0  0  0  0  0  0  0
   -1.7694    0.6413   -6.0214 C   0  0  0  0  0  0  0  0  0  0  0  0
   -1.3355    0.2838   -7.2936 N   0  0  0  0  0  0  0  0  0  0  0  0
   -2.9541    1.3575   -5.8853 N   0  0  0  0  0  0  0  0  0  0  0  0
   -0.7323   -2.1024    0.4149 H   0  0  0  0  0  0  0  0  0  0  0  0
    1.1447    0.0743   -0.2643 H   0  0  0  0  0  0  0  0  0  0  0  0
   -0.9071    1.4551   -0.9599 H   0  0  0  0  0  0  0  0  0  0  0  0
   -1.8671   -0.0152   -0.8983 H   0  0  0  0  0  0  0  0  0  0  0  0
    0.5770    0.4181   -2.7013 H   0  0  0  0  0  0  0  0  0  0  0  0
   -0.3985   -1.0544   -2.6458 H   0  0  0  0  0  0  0  0  0  0  0  0
   -2.3985    0.2034   -3.3837 H   0  0  0  0  0  0  0  0  0  0  0  0
   -1.4446    1.7029   -3.4667 H   0  0  0  0  0  0  0  0  0  0  0  0
   -0.1472   -0.2503   -5.0746 H   0  0  0  0  0  0  0  0  0  0  0  0
   -1.8685    0.5365   -8.1223 H   0  0  0  0  0  0  0  0  0  0  0  0
   -0.4741   -0.2400   -7.4289 H   0  0  0  0  0  0  0  0  0  0  0  0
   -3.5140    1.6278   -6.6897 H   0  0  0  0  0  0  0  0  0  0  0  0
   -3.2961    1.6322   -4.9675 H   0  0  0  0  0  0  0  0  0  0  0  0
    0.6379   -0.1774    2.3202 N   0  0  0  0  0  0  0  0  0  0  0  0
    0.5438    0.1885    3.7148 C   0  0  2  0  0  0  0  0  0  0  0  0
    1.9553    0.2350    4.2850 C   0  0  0  0  0  0  0  0  0  0  0  0
    2.8523   -0.5210    3.9178 O   0  0  0  0  0  0  0  0  0  0  0  0
   -0.3225   -0.7940    4.4874 C   0  0  0  0  0  0  0  0  0  0  0  0
    1.3733   -0.8246    2.0518 H   0  0  0  0  0  0  0  0  0  0  0  0
    0.1020    1.1903    3.7498 H   0  0  0  0  0  0  0  0  0  0  0  0
    0.1043   -1.8033    4.4635 H   0  0  0  0  0  0  0  0  0  0  0  0
   -0.4161   -0.4995    5.5379 H   0  0  0  0  0  0  0  0  0  0  0  0
   -1.3285   -0.8483    4.0574 H   0  0  0  0  0  0  0  0  0  0  0  0
    2.0838    1.1911    5.2828 N   0  0  0  0  0  0  0  0  0  0  0  0
    3.3148    1.3998    6.0087 C   0  0  0  0  0  0  0  0  0  0  0  0
    1.2994    1.8007    5.4947 H   0  0  0  0  0  0  0  0  0  0  0  0
    3.3095    0.7895    6.9238 H   0  0  0  0  0  0  0  0  0  0  0  0
    4.1667    1.1067    5.3775 H   0  0  0  0  0  0  0  0  0  0  0  0
    3.4062    2.4626    6.2774 H   0  0  0  0  0  0  0  0  0  0  0  0
  1  3  1  0  0  0  0
  1  7  1  0  0  0  0
  1  2  2  0  0  0  0
 42 43  1  0  0  0  0
 43 51  1  0  0  0  0
 43 44  2  0  0  0  0
  8  9  1  0  0  0  0
  9 17  1  0  0  0  0
  9 10  2  0  0  0  0
 18 19  1  0  0  0  0
 19 41  1  0  0  0  0
 19 20  2  0  0  0  0
 25 26  1  0  0  0  0
 25 27  1  0  0  0  0
 24 25  2  0  0  0  0
 42 45  1  0  0  0  0
  8 11  1  0  0  0  0
 51 52  1  0  0  0  0
 21 22  1  0  0  0  0
 22 23  1  0  0  0  0
 18 21  1  0  0  0  0
 23 24  1  0  0  0  0
 41 42  1  0  0  0  0
  7  8  1  0  0  0  0
 17 18  1  0  0  0  0
  3  4  1  0  0  0  0
  3  5  1  0  0  0  0
  3  6  1  0  0  0  0
 45 48  1  0  0  0  0
 45 49  1  0  0  0  0
 45 50  1  0  0  0  0
 11 14  1  0  0  0  0
 11 15  1  0  0  0  0
 11 16  1  0  0  0  0
 52 54  1  0  0  0  0
 52 55  1  0  0  0  0
 52 56  1  0  0  0  0
 22 32  1  0  0  0  0
 22 33  1  0  0  0  0
 21 30  1  0  0  0  0
 21 31  1  0  0  0  0
 23 34  1  0  0  0  0
 23 35  1  0  0  0  0
 42 47  1  0  0  0  0
  8 13  1  0  0  0  0
 18 29  1  0  0  0  0
 26 37  1  0  0  0  0
 26 38  1  0  0  0  0
 27 39  1  0  0  0  0
 27 40  1  0  0  0  0
 51 53  1  0  0  0  0
  7 12  1  0  0  0  0
 41 46  1  0  0  0  0
 17 28  1  0  0  0  0
 24 36  1  0  0  0  0
M  CHG  1  24   1
M  END
$$$$

  -OEChem-05262214473D

 56 55  0     1  0  0  0  0  0999 V2000
    0.7735   -5.8042   -2.0022 C   0  0  0  0  0  0  0  0  0  0  0  0
   -0.2086   -6.3825   -1.5519 O   0  0  0  0  0  0  0  0  0  0  0  0
    1.4751   -6.3646   -3.1946 C   0  0  0  0  0  0  0  0  0  0  0  0
    2.2765   -7.0687   -2.9186 H   0  0  0  0  0  0  0  0  0  0  0  0
    0.7988   -6.9360   -3.8504 H   0  0  0  0  0  0  0  0  0  0  0  0
    1.9556   -5.6216   -3.8511 H   0  0  0  0  0  0  0  0  0  0  0  0
    1.3322   -4.6359   -1.5106 N   0  0  0  0  0  0  0  0  0  0  0  0
    0.8124   -3.9290   -0.3698 C   0  0  2  0  0  0  0  0  0  0  0  0
    1.0666   -2.4424   -0.5818 C   0  0  0  0  0  0  0  0  0  0  0  0
    2.0598   -2.0076   -1.1610 O   0  0  0  0  0  0  0  0  0  0  0  0
    1.4560   -4.4118    0.9207 C   0  0  0  0  0  0  0  0  0  0  0  0
    2.1528   -4.2578   -1.9805 H   0  0  0  0  0  0  0  0  0  0  0  0
   -0.2667   -4.1160   -0.3467 H   0  0  0  0  0  0  0  0  0  0  0  0
    2.5374   -4.2329    0.9160 H   0  0  0  0  0  0  0  0  0  0  0  0
    1.0390   -3.8932    1.7903 H   0  0  0  0  0  0  0  0  0  0  0  0
    1.2976   -5.4871    1.0566 H   0  0  0  0  0  0  0  0  0  0  0  0
    0.0755   -1.6529   -0.0105 N   0  0  0  0  0  0  0  0  0  0  0  0
    0.1113   -0.2132   -0.0391 C   0  0  2  0  0  0  0  0  0  0  0  0
   -0.2497    0.2820    1.3573 C   0  0  0  0  0  0  0  0  0  0  0  0
   -1.3294    0.8065    1.6225 O   0  0  0  0  0  0  0  0  0  0  0  0
   -0.8533    0.3663   -1.0788 C   0  0  0  0  0  0  0  0  0  0  0  0
   -0.4329    0.0333   -2.5153 C   0  0  0  0  0  0  0  0  0  0  0  0
   -1.3966    0.6125   -3.5458 C   0  0  0  0  0  0  0  0  0  0  0  0
   -1.0055    0.2733   -4.9122 N   0  3  0  0  0  0  0  0  0  0  0  0
   -1.7694    0.6413   -6.0214 C   0  0  0  0  0  0  0  0  0  0  0  0
   -1.3355    0.2838   -7.2936 N   0  0  0  0  0  0  0  0  0  0  0  0
   -2.9541    1.3575   -5.8853 N   0  0  0  0  0  0  0  0  0  0  0  0
   -0.7323   -2.1024    0.4149 H   0  0  0  0  0  0  0  0  0  0  0  0
    1.1447    0.0743   -0.2643 H   0  0  0  0  0  0  0  0  0  0  0  0
   -0.9071    1.4551   -0.9599 H   0  0  0  0  0  0  0  0  0  0  0  0
   -1.8671   -0.0152   -0.8983 H   0  0  0  0  0  0  0  0  0  0  0  0
    0.5770    0.4181   -2.7013 H   0  0  0  0  0  0  0  0  0  0  0  0
   -0.3985   -1.0544   -2.6458 H   0  0  0  0  0  0  0  0  0  0  0  0
   -2.3985    0.2034   -3.3837 H   0  0  0  0  0  0  0  0  0  0  0  0
   -1.4446    1.7029   -3.4667 H   0  0  0  0  0  0  0  0  0  0  0  0
   -0.1472   -0.2503   -5.0746 H   0  0  0  0  0  0  0  0  0  0  0  0
   -1.8685    0.5365   -8.1223 H   0  0  0  0  0  0  0  0  0  0  0  0
   -0.4741   -0.2400   -7.4289 H   0  0  0  0  0  0  0  0  0  0  0  0
   -3.5140    1.6278   -6.6897 H   0  0  0  0  0  0  0  0  0  0  0  0
   -3.2961    1.6322   -4.9675 H   0  0  0  0  0  0  0  0  0  0  0  0
    0.7933    0.1134    2.2573 N   0  0  0  0  0  0  0  0  0  0  0  0
    0.7215    0.5457    3.6340 C   0  0  2  0  0  0  0  0  0  0  0  0
    2.1201    0.9623    4.0697 C   0  0  0  0  0  0  0  0  0  0  0  0
    3.1413    0.4134    3.6611 O   0  0  0  0  0  0  0  0  0  0  0  0
    0.1777   -0.5547    4.5318 C   0  0  0  0  0  0  0  0  0  0  0  0
    1.6395   -0.3609    1.9562 H   0  0  0  0  0  0  0  0  0  0  0  0
    0.0565    1.4159    3.6580 H   0  0  0  0  0  0  0  0  0  0  0  0
    0.8307   -1.4349    4.5207 H   0  0  0  0  0  0  0  0  0  0  0  0
    0.0970   -0.2161    5.5700 H   0  0  0  0  0  0  0  0  0  0  0  0
   -0.8159   -0.8738    4.1990 H   0  0  0  0  0  0  0  0  0  0  0  0
    2.0919    1.9906    5.0013 N   0  0  0  0  0  0  0  0  0  0  0  0
    3.2890    2.5334    5.6000 C   0  0  0  0  0  0  0  0  0  0  0  0
    1.2029    2.4130    5.2526 H   0  0  0  0  0  0  0  0  0  0  0  0
    3.5002    2.0058    6.5418 H   0  0  0  0  0  0  0  0  0  0  0  0
    4.1353    2.4037    4.9094 H   0  0  0  0  0  0  0  0  0  0  0  0
    3.1433    3.6043    5.8045 H   0  0  0  0  0  0  0  0  0  0  0  0
  1  3  1  0  0  0  0
  1  7  1  0  0  0  0
  1  2  2  0  0  0  0
 42 43  1  0  0  0  0
 43 51  1  0  0  0  0
 43 44  2  0  0  0  0
  8  9  1  0  0  0  0
  9 17  1  0  0  0  0
  9 10  2  0  0  0  0
 18 19  1  0  0  0  0
 19 41  1  0  0  0  0
 19 20  2  0  0  0  0
 25 26  1  0  0  0  0
 25 27  1  0  0  0  0
 24 25  2  0  0  0  0
 42 45  1  0  0  0  0
  8 11  1  0  0  0  0
 51 52  1  0  0  0  0
 21 22  1  0  0  0  0
 22 23  1  0  0  0  0
 18 21  1  0  0  0  0
 23 24  1  0  0  0  0
 41 42  1  0  0  0  0
  7  8  1  0  0  0  0
 17 18  1  0  0  0  0
  3  4  1  0  0  0  0
  3  5  1  0  0  0  0
  3  6  1  0  0  0  0
 45 48  1  0  0  0  0
 45 49  1  0  0  0  0
 45 50  1  0  0  0  0
 11 14  1  0  0  0  0
 11 15  1  0  0  0  0
 11 16  1  0  0  0  0
 52 54  1  0  0  0  0
 52 55  1  0  0  0  0
 52 56  1  0  0  0  0
 22 32  1  0  0  0  0
 22 33  1  0  0  0  0
 21 30  1  0  0  0  0
 21 31  1  0  0  0  0
 23 34  1  0  0  0  0
 23 35  1  0  0  0  0
 42 47  1  0  0  0  0
  8 13  1  0  0  0  0
 18 29  1  0  0  0  0
 26 37  1  0  0  0  0
 26 38  1  0  0  0  0
 27 39  1  0  0  0  0
 27 40  1  0  0  0  0
 51 53  1  0  0  0  0
  7 12  1  0  0  0  0
 41 46  1  0  0  0  0
 17 28  1  0  0  0  0
 24 36  1  0  0  0  0
M  CHG  1  24   1
M  END
$$$$

  -OEChem-05262214473D

 56 55  0     1  0  0  0  0  0999 V2000
    0.7735   -5.8042   -2.0022 C   0  0  0  0  0  0  0  0  0  0  0  0
   -0.2086   -6.3825   -1.5519 O   0  0  0  0  0  0  0  0  0  0  0  0
    1.4751   -6.3646   -3.1946 C   0  0  0  0  0  0  0  0  0  0  0  0
    2.2765   -7.0687   -2.9186 H   0  0  0  0  0  0  0  0  0  0  0  0
    0.7988   -6.9360   -3.8504 H   0  0  0  0  0  0  0  0  0  0  0  0
    1.9556   -5.6216   -3.8511 H   0  0  0  0  0  0  0  0  0  0  0  0
    1.3322   -4.6359   -1.5106 N   0  0  0  0  0  0  0  0  0  0  0  0
    0.8124   -3.9290   -0.3698 C   0  0  2  0  0  0  0  0  0  0  0  0
    1.0666   -2.4424   -0.5818 C   0  0  0  0  0  0  0  0  0  0  0  0
    2.0598   -2.0076   -1.1610 O   0  0  0  0  0  0  0  0  0  0  0  0
    1.4560   -4.4118    0.9207 C   0  0  0  0  0  0  0  0  0  0  0  0
    2.1528   -4.2578   -1.9805 H   0  0  0  0  0  0  0  0  0  0  0  0
   -0.2667   -4.1160   -0.3467 H   0  0  0  0  0  0  0  0  0  0  0  0
    2.5374   -4.2329    0.9160 H   0  0  0  0  0  0  0  0  0  0  0  0
    1.0390   -3.8932    1.7903 H   0  0  0  0  0  0  0  0  0  0  0  0
    1.2976   -5.4871    1.0566 H   0  0  0  0  0  0  0  0  0  0  0  0
    0.0755   -1.6529   -0.0105 N   0  0  0  0  0  0  0  0  0  0  0  0
    0.1113   -0.2132   -0.0391 C   0  0  2  0  0  0  0  0  0  0  0  0
   -0.2497    0.2820    1.3573 C   0  0  0  0  0  0  0  0  0  0  0  0
   -1.4000    0.5564    1.6930 O   0  0  0  0  0  0  0  0  0  0  0  0
   -0.8533    0.3663   -1.0788 C   0  0  0  0  0  0  0  0  0  0  0  0
   -0.4329    0.0333   -2.5153 C   0  0  0  0  0  0  0  0  0  0  0  0
   -1.3966    0.6125   -3.5458 C   0  0  0  0  0  0  0  0  0  0  0  0
   -1.0055    0.2733   -4.9122 N   0  3  0  0  0  0  0  0  0  0  0  0
   -1.7694    0.6413   -6.0214 C   0  0  0  0  0  0  0  0  0  0  0  0
   -1.3355    0.2838   -7.2936 N   0  0  0  0  0  0  0  0  0  0  0  0
   -2.9541    1.3575   -5.8853 N   0  0  0  0  0  0  0  0  0  0  0  0
   -0.7323   -2.1024    0.4149 H   0  0  0  0  0  0  0  0  0  0  0  0
    1.1447    0.0743   -0.2643 H   0  0  0  0  0  0  0  0  0  0  0  0
   -0.9071    1.4551   -0.9599 H   0  0  0  0  0  0  0  0  0  0  0  0
   -1.8671   -0.0152   -0.8983 H   0  0  0  0  0  0  0  0  0  0  0  0
    0.5770    0.4181   -2.7013 H   0  0  0  0  0  0  0  0  0  0  0  0
   -0.3985   -1.0544   -2.6458 H   0  0  0  0  0  0  0  0  0  0  0  0
   -2.3985    0.2034   -3.3837 H   0  0  0  0  0  0  0  0  0  0  0  0
   -1.4446    1.7029   -3.4667 H   0  0  0  0  0  0  0  0  0  0  0  0
   -0.1472   -0.2503   -5.0746 H   0  0  0  0  0  0  0  0  0  0  0  0
   -1.8685    0.5365   -8.1223 H   0  0  0  0  0  0  0  0  0  0  0  0
   -0.4741   -0.2400   -7.4289 H   0  0  0  0  0  0  0  0  0  0  0  0
   -3.5140    1.6278   -6.6897 H   0  0  0  0  0  0  0  0  0  0  0  0
   -3.2961    1.6322   -4.9675 H   0  0  0  0  0  0  0  0  0  0  0  0
    0.8692    0.4273    2.1655 N   0  0  0  0  0  0  0  0  0  0  0  0
    0.8016    0.9279    3.5192 C   0  0  2  0  0  0  0  0  0  0  0  0
    2.0888    1.6907    3.8033 C   0  0  0  0  0  0  0  0  0  0  0  0
    3.1774    1.3687    3.3316 O   0  0  0  0  0  0  0  0  0  0  0  0
    0.6078   -0.2023    4.5181 C   0  0  0  0  0  0  0  0  0  0  0  0
    1.7787    0.1443    1.8130 H   0  0  0  0  0  0  0  0  0  0  0  0
   -0.0487    1.6174    3.5593 H   0  0  0  0  0  0  0  0  0  0  0  0
    1.4499   -0.9035    4.4923 H   0  0  0  0  0  0  0  0  0  0  0  0
    0.5282    0.1812    5.5406 H   0  0  0  0  0  0  0  0  0  0  0  0
   -0.3029   -0.7683    4.2943 H   0  0  0  0  0  0  0  0  0  0  0  0
    1.8865    2.7476    4.6798 N   0  0  0  0  0  0  0  0  0  0  0  0
    2.9610    3.5971    5.1379 C   0  0  0  0  0  0  0  0  0  0  0  0
    0.9442    2.9667    4.9893 H   0  0  0  0  0  0  0  0  0  0  0  0
    3.3641    3.2023    6.0822 H   0  0  0  0  0  0  0  0  0  0  0  0
    3.7582    3.6204    4.3803 H   0  0  0  0  0  0  0  0  0  0  0  0
    2.5791    4.6159    5.2998 H   0  0  0  0  0  0  0  0  0  0  0  0
  1  3  1  0  0  0  0
  1  7  1  0  0  0  0
  1  2  2  0  0  0  0
 42 43  1  0  0  0  0
 43 51  1  0  0  0  0
 43 44  2  0  0  0  0
  8  9  1  0  0  0  0
  9 17  1  0  0  0  0
  9 10  2  0  0  0  0
 18 19  1  0  0  0  0
 19 41  1  0  0  0  0
 19 20  2  0  0  0  0
 25 26  1  0  0  0  0
 25 27  1  0  0  0  0
 24 25  2  0  0  0  0
 42 45  1  0  0  0  0
  8 11  1  0  0  0  0
 51 52  1  0  0  0  0
 21 22  1  0  0  0  0
 22 23  1  0  0  0  0
 18 21  1  0  0  0  0
 23 24  1  0  0  0  0
 41 42  1  0  0  0  0
  7  8  1  0  0  0  0
 17 18  1  0  0  0  0
  3  4  1  0  0  0  0
  3  5  1  0  0  0  0
  3  6  1  0  0  0  0
 45 48  1  0  0  0  0
 45 49  1  0  0  0  0
 45 50  1  0  0  0  0
 11 14  1  0  0  0  0
 11 15  1  0  0  0  0
 11 16  1  0  0  0  0
 52 54  1  0  0  0  0
 52 55  1  0  0  0  0
 52 56  1  0  0  0  0
 22 32  1  0  0  0  0
 22 33  1  0  0  0  0
 21 30  1  0  0  0  0
 21 31  1  0  0  0  0
 23 34  1  0  0  0  0
 23 35  1  0  0  0  0
 42 47  1  0  0  0  0
  8 13  1  0  0  0  0
 18 29  1  0  0  0  0
 26 37  1  0  0  0  0
 26 38  1  0  0  0  0
 27 39  1  0  0  0  0
 27 40  1  0  0  0  0
 51 53  1  0  0  0  0
  7 12  1  0  0  0  0
 41 46  1  0  0  0  0
 17 28  1  0  0  0  0
 24 36  1  0  0  0  0
M  CHG  1  24   1
M  END
$$$$

  -OEChem-05262214473D

 56 55  0     1  0  0  0  0  0999 V2000
    0.7735   -5.8042   -2.0022 C   0  0  0  0  0  0  0  0  0  0  0  0
   -0.2086   -6.3825   -1.5519 O   0  0  0  0  0  0  0  0  0  0  0  0
    1.4751   -6.3646   -3.1946 C   0  0  0  0  0  0  0  0  0  0  0  0
    2.2765   -7.0687   -2.9186 H   0  0  0  0  0  0  0  0  0  0  0  0
    0.7988   -6.9360   -3.8504 H   0  0  0  0  0  0  0  0  0  0  0  0
    1.9556   -5.6216   -3.8511 H   0  0  0  0  0  0  0  0  0  0  0  0
    1.3322   -4.6359   -1.5106 N   0  0  0  0  0  0  0  0  0  0  0  0
    0.8124   -3.9290   -0.3698 C   0  0  2  0  0  0  0  0  0  0  0  0
    1.0666   -2.4424   -0.5818 C   0  0  0  0  0  0  0  0  0  0  0  0
    2.0598   -2.0076   -1.1610 O   0  0  0  0  0  0  0  0  0  0  0  0
    1.4560   -4.4118    0.9207 C   0  0  0  0  0  0  0  0  0  0  0  0
    2.1528   -4.2578   -1.9805 H   0  0  0  0  0  0  0  0  0  0  0  0
   -0.2667   -4.1160   -0.3467 H   0  0  0  0  0  0  0  0  0  0  0  0
    2.5374   -4.2329    0.9160 H   0  0  0  0  0  0  0  0  0  0  0  0
    1.0390   -3.8932    1.7903 H   0  0  0  0  0  0  0  0  0  0  0  0
    1.2976   -5.4871    1.0566 H   0  0  0  0  0  0  0  0  0  0  0  0
    0.0755   -1.6529   -0.0105 N   0  0  0  0  0  0  0  0  0  0  0  0
    0.1113   -0.2132   -0.0391 C   0  0  2  0  0  0  0  0  0  0  0  0
   -0.2497    0.2820    1.3573 C   0  0  0  0  0  0  0  0  0  0  0  0
   -1.4030    0.3024    1.7823 O   0  0  0  0  0  0  0  0  0  0  0  0
   -0.8533    0.3663   -1.0788 C   0  0  0  0  0  0  0  0  0  0  0  0
   -0.4329    0.0333   -2.5153 C   0  0  0  0  0  0  0  0  0  0  0  0
   -1.3966    0.6125   -3.5458 C   0  0  0  0  0  0  0  0  0  0  0  0
   -1.0055    0.2733   -4.9122 N   0  3  0  0  0  0  0  0  0  0  0  0
   -1.7694    0.6413   -6.0214 C   0  0  0  0  0  0  0  0  0  0  0  0
   -1.3355    0.2838   -7.2936 N   0  0  0  0  0  0  0  0  0  0  0  0
   -2.9541    1.3575   -5.8853 N   0  0  0  0  0  0  0  0  0  0  0  0
   -0.7323   -2.1024    0.4149 H   0  0  0  0  0  0  0  0  0  0  0  0
    1.1447    0.0743   -0.2643 H   0  0  0  0  0  0  0  0  0  0  0  0
   -0.9071    1.4551   -0.9599 H   0  0  0  0  0  0  0  0  0  0  0  0
   -1.8671   -0.0152   -0.8983 H   0  0  0  0  0  0  0  0  0  0  0  0
    0.5770    0.4181   -2.7013 H   0  0  0  0  0  0  0  0  0  0  0  0
   -0.3985   -1.0544   -2.6458 H   0  0  0  0  0  0  0  0  0  0  0  0
   -2.3985    0.2034   -3.3837 H   0  0  0  0  0  0  0  0  0  0  0  0
   -1.4446    1.7029   -3.4667 H   0  0  0  0  0  0  0  0  0  0  0  0
   -0.1472   -0.2503   -5.0746 H   0  0  0  0  0  0  0  0  0  0  0  0
   -1.8685    0.5365   -8.1223 H   0  0  0  0  0  0  0  0  0  0  0  0
   -0.4741   -0.2400   -7.4289 H   0  0  0  0  0  0  0  0  0  0  0  0
   -3.5140    1.6278   -6.6897 H   0  0  0  0  0  0  0  0  0  0  0  0
   -3.2961    1.6322   -4.9675 H   0  0  0  0  0  0  0  0  0  0  0  0
    0.8603    0.7428    2.0514 N   0  0  0  0  0  0  0  0  0  0  0  0
    0.7788    1.3090    3.3781 C   0  0  2  0  0  0  0  0  0  0  0  0
    1.8636    2.3705    3.5039 C   0  0  0  0  0  0  0  0  0  0  0  0
    2.9581    2.2798    2.9518 O   0  0  0  0  0  0  0  0  0  0  0  0
    0.9386    0.2392    4.4470 C   0  0  0  0  0  0  0  0  0  0  0  0
    1.7814    0.6564    1.6320 H   0  0  0  0  0  0  0  0  0  0  0  0
   -0.2063    1.7811    3.4605 H   0  0  0  0  0  0  0  0  0  0  0  0
    1.9197   -0.2451    4.3803 H   0  0  0  0  0  0  0  0  0  0  0  0
    0.8481    0.6654    5.4516 H   0  0  0  0  0  0  0  0  0  0  0  0
    0.1757   -0.5390    4.3367 H   0  0  0  0  0  0  0  0  0  0  0  0
    1.4818    3.4104    4.3400 N   0  0  0  0  0  0  0  0  0  0  0  0
    2.3532    4.5185    4.6539 C   0  0  0  0  0  0  0  0  0  0  0  0
    0.5410    3.4240    4.7228 H   0  0  0  0  0  0  0  0  0  0  0  0
    2.9103    4.2977    5.5763 H   0  0  0  0  0  0  0  0  0  0  0  0
    3.0611    4.6739    3.8264 H   0  0  0  0  0  0  0  0  0  0  0  0
    1.7519    5.4284    4.7978 H   0  0  0  0  0  0  0  0  0  0  0  0
  1  3  1  0  0  0  0
  1  7  1  0  0  0  0
  1  2  2  0  0  0  0
 42 43  1  0  0  0  0
 43 51  1  0  0  0  0
 43 44  2  0  0  0  0
  8  9  1  0  0  0  0
  9 17  1  0  0  0  0
  9 10  2  0  0  0  0
 18 19  1  0  0  0  0
 19 41  1  0  0  0  0
 19 20  2  0  0  0  0
 25 26  1  0  0  0  0
 25 27  1  0  0  0  0
 24 25  2  0  0  0  0
 42 45  1  0  0  0  0
  8 11  1  0  0  0  0
 51 52  1  0  0  0  0
 21 22  1  0  0  0  0
 22 23  1  0  0  0  0
 18 21  1  0  0  0  0
 23 24  1  0  0  0  0
 41 42  1  0  0  0  0
  7  8  1  0  0  0  0
 17 18  1  0  0  0  0
  3  4  1  0  0  0  0
  3  5  1  0  0  0  0
  3  6  1  0  0  0  0
 45 48  1  0  0  0  0
 45 49  1  0  0  0  0
 45 50  1  0  0  0  0
 11 14  1  0  0  0  0
 11 15  1  0  0  0  0
 11 16  1  0  0  0  0
 52 54  1  0  0  0  0
 52 55  1  0  0  0  0
 52 56  1  0  0  0  0
 22 32  1  0  0  0  0
 22 33  1  0  0  0  0
 21 30  1  0  0  0  0
 21 31  1  0  0  0  0
 23 34  1  0  0  0  0
 23 35  1  0  0  0  0
 42 47  1  0  0  0  0
  8 13  1  0  0  0  0
 18 29  1  0  0  0  0
 26 37  1  0  0  0  0
 26 38  1  0  0  0  0
 27 39  1  0  0  0  0
 27 40  1  0  0  0  0
 51 53  1  0  0  0  0
  7 12  1  0  0  0  0
 41 46  1  0  0  0  0
 17 28  1  0  0  0  0
 24 36  1  0  0  0  0
M  CHG  1  24   1
M  END
$$$$

  -OEChem-05262214473D

 56 55  0     1  0  0  0  0  0999 V2000
    0.7735   -5.8042   -2.0022 C   0  0  0  0  0  0  0  0  0  0  0  0
   -0.2086   -6.3825   -1.5519 O   0  0  0  0  0  0  0  0  0  0  0  0
    1.4751   -6.3646   -3.1946 C   0  0  0  0  0  0  0  0  0  0  0  0
    2.2765   -7.0687   -2.9186 H   0  0  0  0  0  0  0  0  0  0  0  0
    0.7988   -6.9360   -3.8504 H   0  0  0  0  0  0  0  0  0  0  0  0
    1.9556   -5.6216   -3.8511 H   0  0  0  0  0  0  0  0  0  0  0  0
    1.3322   -4.6359   -1.5106 N   0  0  0  0  0  0  0  0  0  0  0  0
    0.8124   -3.9290   -0.3698 C   0  0  2  0  0  0  0  0  0  0  0  0
    1.0666   -2.4424   -0.5818 C   0  0  0  0  0  0  0  0  0  0  0  0
    2.0598   -2.0076   -1.1610 O   0  0  0  0  0  0  0  0  0  0  0  0
    1.4560   -4.4118    0.9207 C   0  0  0  0  0  0  0  0  0  0  0  0
    2.1528   -4.2578   -1.9805 H   0  0  0  0  0  0  0  0  0  0  0  0
   -0.2667   -4.1160   -0.3467 H   0  0  0  0  0  0  0  0  0  0  0  0
    2.5374   -4.2329    0.9160 H   0  0  0  0  0  0  0  0  0  0  0  0
    1.0390   -3.8932    1.7903 H   0  0  0  0  0  0  0  0  0  0  0  0
    1.2976   -5.4871    1.0566 H   0  0  0  0  0  0  0  0  0  0  0  0
    0.0755   -1.6529   -0.0105 N   0  0  0  0  0  0  0  0  0  0  0  0
    0.1113   -0.2132   -0.0391 C   0  0  2  0  0  0  0  0  0  0  0  0
   -0.2497    0.2820    1.3573 C   0  0  0  0  0  0  0  0  0  0  0  0
   -1.3382    0.0619    1.8843 O   0  0  0  0  0  0  0  0  0  0  0  0
   -0.8533    0.3663   -1.0788 C   0  0  0  0  0  0  0  0  0  0  0  0
   -0.4329    0.0333   -2.5153 C   0  0  0  0  0  0  0  0  0  0  0  0
   -1.3966    0.6125   -3.5458 C   0  0  0  0  0  0  0  0  0  0  0  0
   -1.0055    0.2733   -4.9122 N   0  3  0  0  0  0  0  0  0  0  0  0
   -1.7694    0.6413   -6.0214 C   0  0  0  0  0  0  0  0  0  0  0  0
   -1.3355    0.2838   -7.2936 N   0  0  0  0  0  0  0  0  0  0  0  0
   -2.9541    1.3575   -5.8853 N   0  0  0  0  0  0  0  0  0  0  0  0
   -0.7323   -2.1024    0.4149 H   0  0  0  0  0  0  0  0  0  0  0  0
    1.1447    0.0743   -0.2643 H   0  0  0  0  0  0  0  0  0  0  0  0
   -0.9071    1.4551   -0.9599 H   0  0  0  0  0  0  0  0  0  0  0  0
   -1.8671   -0.0152   -0.8983 H   0  0  0  0  0  0  0  0  0  0  0  0
    0.5770    0.4181   -2.7013 H   0  0  0  0  0  0  0  0  0  0  0  0
   -0.3985   -1.0544   -2.6458 H   0  0  0  0  0  0  0  0  0  0  0  0
   -2.3985    0.2034   -3.3837 H   0  0  0  0  0  0  0  0  0  0  0  0
   -1.4446    1.7029   -3.4667 H   0  0  0  0  0  0  0  0  0  0  0  0
   -0.1472   -0.2503   -5.0746 H   0  0  0  0  0  0  0  0  0  0  0  0
   -1.8685    0.5365   -8.1223 H   0  0  0  0  0  0  0  0  0  0  0  0
   -0.4741   -0.2400   -7.4289 H   0  0  0  0  0  0  0  0  0  0  0  0
   -3.5140    1.6278   -6.6897 H   0  0  0  0  0  0  0  0  0  0  0  0
   -3.2961    1.6322   -4.9675 H   0  0  0  0  0  0  0  0  0  0  0  0
    0.7674    1.0385    1.9225 N   0  0  0  0  0  0  0  0  0  0  0  0
    0.6546    1.6631    3.2204 C   0  0  2  0  0  0  0  0  0  0  0  0
    1.4598    2.9555    3.1920 C   0  0  0  0  0  0  0  0  0  0  0  0
    2.4985    3.0846    2.5475 O   0  0  0  0  0  0  0  0  0  0  0  0
    1.1476    0.7396    4.3235 C   0  0  0  0  0  0  0  0  0  0  0  0
    1.6475    1.1407    1.4256 H   0  0  0  0  0  0  0  0  0  0  0  0
   -0.4056    1.8958    3.3683 H   0  0  0  0  0  0  0  0  0  0  0  0
    2.2080    0.4953    4.1922 H   0  0  0  0  0  0  0  0  0  0  0  0
    1.0348    1.2034    5.3091 H   0  0  0  0  0  0  0  0  0  0  0  0
    0.5872   -0.2015    4.3234 H   0  0  0  0  0  0  0  0  0  0  0  0
    0.9052    3.9338    4.0053 N   0  0  0  0  0  0  0  0  0  0  0  0
    1.5071    5.2349    4.1811 C   0  0  0  0  0  0  0  0  0  0  0  0
    0.0207    3.7539    4.4713 H   0  0  0  0  0  0  0  0  0  0  0  0
    2.1699    5.2173    5.0588 H   0  0  0  0  0  0  0  0  0  0  0  0
    2.0916    5.4924    3.2855 H   0  0  0  0  0  0  0  0  0  0  0  0
    0.7182    5.9863    4.3326 H   0  0  0  0  0  0  0  0  0  0  0  0
  1  3  1  0  0  0  0
  1  7  1  0  0  0  0
  1  2  2  0  0  0  0
 42 43  1  0  0  0  0
 43 51  1  0  0  0  0
 43 44  2  0  0  0  0
  8  9  1  0  0  0  0
  9 17  1  0  0  0  0
  9 10  2  0  0  0  0
 18 19  1  0  0  0  0
 19 41  1  0  0  0  0
 19 20  2  0  0  0  0
 25 26  1  0  0  0  0
 25 27  1  0  0  0  0
 24 25  2  0  0  0  0
 42 45  1  0  0  0  0
  8 11  1  0  0  0  0
 51 52  1  0  0  0  0
 21 22  1  0  0  0  0
 22 23  1  0  0  0  0
 18 21  1  0  0  0  0
 23 24  1  0  0  0  0
 41 42  1  0  0  0  0
  7  8  1  0  0  0  0
 17 18  1  0  0  0  0
  3  4  1  0  0  0  0
  3  5  1  0  0  0  0
  3  6  1  0  0  0  0
 45 48  1  0  0  0  0
 45 49  1  0  0  0  0
 45 50  1  0  0  0  0
 11 14  1  0  0  0  0
 11 15  1  0  0  0  0
 11 16  1  0  0  0  0
 52 54  1  0  0  0  0
 52 55  1  0  0  0  0
 52 56  1  0  0  0  0
 22 32  1  0  0  0  0
 22 33  1  0  0  0  0
 21 30  1  0  0  0  0
 21 31  1  0  0  0  0
 23 34  1  0  0  0  0
 23 35  1  0  0  0  0
 42 47  1  0  0  0  0
  8 13  1  0  0  0  0
 18 29  1  0  0  0  0
 26 37  1  0  0  0  0
 26 38  1  0  0  0  0
 27 39  1  0  0  0  0
 27 40  1  0  0  0  0
 51 53  1  0  0  0  0
  7 12  1  0  0  0  0
 41 46  1  0  0  0  0
 17 28  1  0  0  0  0
 24 36  1  0  0  0  0
M  CHG  1  24   1
M  END
$$$$

  -OEChem-05262214473D

 56 55  0     1  0  0  0  0  0999 V2000
    0.7735   -5.8042   -2.0022 C   0  0  0  0  0  0  0  0  0  0  0  0
   -0.2086   -6.3825   -1.5519 O   0  0  0  0  0  0  0  0  0  0  0  0
    1.4751   -6.3646   -3.1946 C   0  0  0  0  0  0  0  0  0  0  0  0
    2.2765   -7.0687   -2.9186 H   0  0  0  0  0  0  0  0  0  0  0  0
    0.7988   -6.9360   -3.8504 H   0  0  0  0  0  0  0  0  0  0  0  0
    1.9556   -5.6216   -3.8511 H   0  0  0  0  0  0  0  0  0  0  0  0
    1.3322   -4.6359   -1.5106 N   0  0  0  0  0  0  0  0  0  0  0  0
    0.8124   -3.9290   -0.3698 C   0  0  2  0  0  0  0  0  0  0  0  0
    1.0666   -2.4424   -0.5818 C   0  0  0  0  0  0  0  0  0  0  0  0
    2.0598   -2.0076   -1.1610 O   0  0  0  0  0  0  0  0  0  0  0  0
    1.4560   -4.4118    0.9207 C   0  0  0  0  0  0  0  0  0  0  0  0
    2.1528   -4.2578   -1.9805 H   0  0  0  0  0  0  0  0  0  0  0  0
   -0.2667   -4.1160   -0.3467 H   0  0  0  0  0  0  0  0  0  0  0  0
    2.5374   -4.2329    0.9160 H   0  0  0  0  0  0  0  0  0  0  0  0
    1.0390   -3.8932    1.7903 H   0  0  0  0  0  0  0  0  0  0  0  0
    1.2976   -5.4871    1.0566 H   0  0  0  0  0  0  0  0  0  0  0  0
    0.0755   -1.6529   -0.0105 N   0  0  0  0  0  0  0  0  0  0  0  0
    0.1113   -0.2132   -0.0391 C   0  0  2  0  0  0  0  0  0  0  0  0
   -0.2497    0.2820    1.3573 C   0  0  0  0  0  0  0  0  0  0  0  0
   -1.2101   -0.1489    1.9922 O   0  0  0  0  0  0  0  0  0  0  0  0
   -0.8533    0.3663   -1.0788 C   0  0  0  0  0  0  0  0  0  0  0  0
   -0.4329    0.0333   -2.5153 C   0  0  0  0  0  0  0  0  0  0  0  0
   -1.3966    0.6125   -3.5458 C   0  0  0  0  0  0  0  0  0  0  0  0
   -1.0055    0.2733   -4.9122 N   0  3  0  0  0  0  0  0  0  0  0  0
   -1.7694    0.6413   -6.0214 C   0  0  0  0  0  0  0  0  0  0  0  0
   -1.3355    0.2838   -7.2936 N   0  0  0  0  0  0  0  0  0  0  0  0
   -2.9541    1.3575   -5.8853 N   0  0  0  0  0  0  0  0  0  0  0  0
   -0.7323   -2.1024    0.4149 H   0  0  0  0  0  0  0  0  0  0  0  0
    1.1447    0.0743   -0.2643 H   0  0  0  0  0  0  0  0  0  0  0  0
   -0.9071    1.4551   -0.9599 H   0  0  0  0  0  0  0  0  0  0  0  0
   -1.8671   -0.0152   -0.8983 H   0  0  0  0  0  0  0  0  0  0  0  0
    0.5770    0.4181   -2.7013 H   0  0  0  0  0  0  0  0  0  0  0  0
   -0.3985   -1.0544   -2.6458 H   0  0  0  0  0  0  0  0  0  0  0  0
   -2.3985    0.2034   -3.3837 H   0  0  0  0  0  0  0  0  0  0  0  0
   -1.4446    1.7029   -3.4667 H   0  0  0  0  0  0  0  0  0  0  0  0
   -0.1472   -0.2503   -5.0746 H   0  0  0  0  0  0  0  0  0  0  0  0
   -1.8685    0.5365   -8.1223 H   0  0  0  0  0  0  0  0  0  0  0  0
   -0.4741   -0.2400   -7.4289 H   0  0  0  0  0  0  0  0  0  0  0  0
   -3.5140    1.6278   -6.6897 H   0  0  0  0  0  0  0  0  0  0  0  0
   -3.2961    1.6322   -4.9675 H   0  0  0  0  0  0  0  0  0  0  0  0
    0.5968    1.2942    1.7876 N   0  0  0  0  0  0  0  0  0  0  0  0
    0.4374    1.9660    3.0568 C   0  0  2  0  0  0  0  0  0  0  0  0
    0.9049    3.4057    2.8889 C   0  0  0  0  0  0  0  0  0  0  0  0
    1.8298    3.7283    2.1463 O   0  0  0  0  0  0  0  0  0  0  0  0
    1.2204    1.2650    4.1560 C   0  0  0  0  0  0  0  0  0  0  0  0
    1.3859    1.5641    1.2079 H   0  0  0  0  0  0  0  0  0  0  0  0
   -0.6331    1.9537    3.2889 H   0  0  0  0  0  0  0  0  0  0  0  0
    2.2952    1.2673    3.9410 H   0  0  0  0  0  0  0  0  0  0  0  0
    1.0757    1.7586    5.1227 H   0  0  0  0  0  0  0  0  0  0  0  0
    0.9036    0.2212    4.2553 H   0  0  0  0  0  0  0  0  0  0  0  0
    0.1960    4.2823    3.6983 N   0  0  0  0  0  0  0  0  0  0  0  0
    0.4803    5.6973    3.7515 C   0  0  0  0  0  0  0  0  0  0  0  0
   -0.5811    3.9339    4.2519 H   0  0  0  0  0  0  0  0  0  0  0  0
    1.1934    5.8983    4.5647 H   0  0  0  0  0  0  0  0  0  0  0  0
    0.9156    6.0200    2.7943 H   0  0  0  0  0  0  0  0  0  0  0  0
   -0.4517    6.2518    3.9359 H   0  0  0  0  0  0  0  0  0  0  0  0
  1  3  1  0  0  0  0
  1  7  1  0  0  0  0
  1  2  2  0  0  0  0
 42 43  1  0  0  0  0
 43 51  1  0  0  0  0
 43 44  2  0  0  0  0
  8  9  1  0  0  0  0
  9 17  1  0  0  0  0
  9 10  2  0  0  0  0
 18 19  1  0  0  0  0
 19 41  1  0  0  0  0
 19 20  2  0  0  0  0
 25 26  1  0  0  0  0
 25 27  1  0  0  0  0
 24 25  2  0  0  0  0
 42 45  1  0  0  0  0
  8 11  1  0  0  0  0
 51 52  1  0  0  0  0
 21 22  1  0  0  0  0
 22 23  1  0  0  0  0
 18 21  1  0  0  0  0
 23 24  1  0  0  0  0
 41 42  1  0  0  0  0
  7  8  1  0  0  0  0
 17 18  1  0  0  0  0
  3  4  1  0  0  0  0
  3  5  1  0  0  0  0
  3  6  1  0  0  0  0
 45 48  1  0  0  0  0
 45 49  1  0  0  0  0
 45 50  1  0  0  0  0
 11 14  1  0  0  0  0
 11 15  1  0  0  0  0
 11 16  1  0  0  0  0
 52 54  1  0  0  0  0
 52 55  1  0  0  0  0
 52 56  1  0  0  0  0
 22 32  1  0  0  0  0
 22 33  1  0  0  0  0
 21 30  1  0  0  0  0
 21 31  1  0  0  0  0
 23 34  1  0  0  0  0
 23 35  1  0  0  0  0
 42 47  1  0  0  0  0
  8 13  1  0  0  0  0
 18 29  1  0  0  0  0
 26 37  1  0  0  0  0
 26 38  1  0  0  0  0
 27 39  1  0  0  0  0
 27 40  1  0  0  0  0
 51 53  1  0  0  0  0
  7 12  1  0  0  0  0
 41 46  1  0  0  0  0
 17 28  1  0  0  0  0
 24 36  1  0  0  0  0
M  CHG  1  24   1
M  END
$$$$

  -OEChem-05262214473D

 56 55  0     1  0  0  0  0  0999 V2000
    0.7735   -5.8042   -2.0022 C   0  0  0  0  0  0  0  0  0  0  0  0
   -0.2086   -6.3825   -1.5519 O   0  0  0  0  0  0  0  0  0  0  0  0
    1.4751   -6.3646   -3.1946 C   0  0  0  0  0  0  0  0  0  0  0  0
    2.2765   -7.0687   -2.9186 H   0  0  0  0  0  0  0  0  0  0  0  0
    0.7988   -6.9360   -3.8504 H   0  0  0  0  0  0  0  0  0  0  0  0
    1.9556   -5.6216   -3.8511 H   0  0  0  0  0  0  0  0  0  0  0  0
    1.3322   -4.6359   -1.5106 N   0  0  0  0  0  0  0  0  0  0  0  0
    0.8124   -3.9290   -0.3698 C   0  0  2  0  0  0  0  0  0  0  0  0
    1.0666   -2.4424   -0.5818 C   0  0  0  0  0  0  0  0  0  0  0  0
    2.0598   -2.0076   -1.1610 O   0  0  0  0  0  0  0  0  0  0  0  0
    1.4560   -4.4118    0.9207 C   0  0  0  0  0  0  0  0  0  0  0  0
    2.1528   -4.2578   -1.9805 H   0  0  0  0  0  0  0  0  0  0  0  0
   -0.2667   -4.1160   -0.3467 H   0  0  0  0  0  0  0  0  0  0  0  0
    2.5374   -4.2329    0.9160 H   0  0  0  0  0  0  0  0  0  0  0  0
    1.0390   -3.8932    1.7903 H   0  0  0  0  0  0  0  0  0  0  0  0
    1.2976   -5.4871    1.0566 H   0  0  0  0  0  0  0  0  0  0  0  0
    0.0755   -1.6529   -0.0105 N   0  0  0  0  0  0  0  0  0  0  0  0
    0.1113   -0.2132   -0.0391 C   0  0  2  0  0  0  0  0  0  0  0  0
   -0.2497    0.2820    1.3573 C   0  0  0  0  0  0  0  0  0  0  0  0
   -1.0272   -0.3155    2.0986 O   0  0  0  0  0  0  0  0  0  0  0  0
   -0.8533    0.3663   -1.0788 C   0  0  0  0  0  0  0  0  0  0  0  0
   -0.4329    0.0333   -2.5153 C   0  0  0  0  0  0  0  0  0  0  0  0
   -1.3966    0.6125   -3.5458 C   0  0  0  0  0  0  0  0  0  0  0  0
   -1.0055    0.2733   -4.9122 N   0  3  0  0  0  0  0  0  0  0  0  0
   -1.7694    0.6413   -6.0214 C   0  0  0  0  0  0  0  0  0  0  0  0
   -1.3355    0.2838   -7.2936 N   0  0  0  0  0  0  0  0  0  0  0  0
   -2.9541    1.3575   -5.8853 N   0  0  0  0  0  0  0  0  0  0  0  0
   -0.7323   -2.1024    0.4149 H   0  0  0  0  0  0  0  0  0  0  0  0
    1.1447    0.0743   -0.2643 H   0  0  0  0  0  0  0  0  0  0  0  0
   -0.9071    1.4551   -0.9599 H   0  0  0  0  0  0  0  0  0  0  0  0
   -1.8671   -0.0152   -0.8983 H   0  0  0  0  0  0  0  0  0  0  0  0
    0.5770    0.4181   -2.7013 H   0  0  0  0  0  0  0  0  0  0  0  0
   -0.3985   -1.0544   -2.6458 H   0  0  0  0  0  0  0  0  0  0  0  0
   -2.3985    0.2034   -3.3837 H   0  0  0  0  0  0  0  0  0  0  0  0
   -1.4446    1.7029   -3.4667 H   0  0  0  0  0  0  0  0  0  0  0  0
   -0.1472   -0.2503   -5.0746 H   0  0  0  0  0  0  0  0  0  0  0  0
   -1.8685    0.5365   -8.1223 H   0  0  0  0  0  0  0  0  0  0  0  0
   -0.4741   -0.2400   -7.4289 H   0  0  0  0  0  0  0  0  0  0  0  0
   -3.5140    1.6278   -6.6897 H   0  0  0  0  0  0  0  0  0  0  0  0
   -3.2961    1.6322   -4.9675 H   0  0  0  0  0  0  0  0  0  0  0  0
    0.3600    1.4925    1.6561 N   0  0  0  0  0  0  0  0  0  0  0  0
    0.1421    2.1971    2.8985 C   0  0  2  0  0  0  0  0  0  0  0  0
    0.2367    3.6905    2.6151 C   0  0  0  0  0  0  0  0  0  0  0  0
    0.9977    4.1670    1.7755 O   0  0  0  0  0  0  0  0  0  0  0  0
    1.1522    1.7795    3.9559 C   0  0  0  0  0  0  0  0  0  0  0  0
    1.0147    1.8977    0.9935 H   0  0  0  0  0  0  0  0  0  0  0  0
   -0.8732    1.9508    3.2279 H   0  0  0  0  0  0  0  0  0  0  0  0
    2.1754    2.0182    3.6436 H   0  0  0  0  0  0  0  0  0  0  0  0
    0.9680    2.2931    4.9053 H   0  0  0  0  0  0  0  0  0  0  0  0
    1.1032    0.7003    4.1370 H   0  0  0  0  0  0  0  0  0  0  0  0
   -0.5974    4.4320    3.4401 N   0  0  0  0  0  0  0  0  0  0  0  0
   -0.6572    5.8744    3.3946 C   0  0  0  0  0  0  0  0  0  0  0  0
   -1.2236    3.9516    4.0794 H   0  0  0  0  0  0  0  0  0  0  0  0
    0.0471    6.2944    4.1278 H   0  0  0  0  0  0  0  0  0  0  0  0
   -0.3866    6.2209    2.3863 H   0  0  0  0  0  0  0  0  0  0  0  0
   -1.6779    6.2066    3.6349 H   0  0  0  0  0  0  0  0  0  0  0  0
  1  3  1  0  0  0  0
  1  7  1  0  0  0  0
  1  2  2  0  0  0  0
 42 43  1  0  0  0  0
 43 51  1  0  0  0  0
 43 44  2  0  0  0  0
  8  9  1  0  0  0  0
  9 17  1  0  0  0  0
  9 10  2  0  0  0  0
 18 19  1  0  0  0  0
 19 41  1  0  0  0  0
 19 20  2  0  0  0  0
 25 26  1  0  0  0  0
 25 27  1  0  0  0  0
 24 25  2  0  0  0  0
 42 45  1  0  0  0  0
  8 11  1  0  0  0  0
 51 52  1  0  0  0  0
 21 22  1  0  0  0  0
 22 23  1  0  0  0  0
 18 21  1  0  0  0  0
 23 24  1  0  0  0  0
 41 42  1  0  0  0  0
  7  8  1  0  0  0  0
 17 18  1  0  0  0  0
  3  4  1  0  0  0  0
  3  5  1  0  0  0  0
  3  6  1  0  0  0  0
 45 48  1  0  0  0  0
 45 49  1  0  0  0  0
 45 50  1  0  0  0  0
 11 14  1  0  0  0  0
 11 15  1  0  0  0  0
 11 16  1  0  0  0  0
 52 54  1  0  0  0  0
 52 55  1  0  0  0  0
 52 56  1  0  0  0  0
 22 32  1  0  0  0  0
 22 33  1  0  0  0  0
 21 30  1  0  0  0  0
 21 31  1  0  0  0  0
 23 34  1  0  0  0  0
 23 35  1  0  0  0  0
 42 47  1  0  0  0  0
  8 13  1  0  0  0  0
 18 29  1  0  0  0  0
 26 37  1  0  0  0  0
 26 38  1  0  0  0  0
 27 39  1  0  0  0  0
 27 40  1  0  0  0  0
 51 53  1  0  0  0  0
  7 12  1  0  0  0  0
 41 46  1  0  0  0  0
 17 28  1  0  0  0  0
 24 36  1  0  0  0  0
M  CHG  1  24   1
M  END
$$$$

  -OEChem-05262214473D

 56 55  0     1  0  0  0  0  0999 V2000
    0.7735   -5.8042   -2.0022 C   0  0  0  0  0  0  0  0  0  0  0  0
   -0.2086   -6.3825   -1.5519 O   0  0  0  0  0  0  0  0  0  0  0  0
    1.4751   -6.3646   -3.1946 C   0  0  0  0  0  0  0  0  0  0  0  0
    2.2765   -7.0687   -2.9186 H   0  0  0  0  0  0  0  0  0  0  0  0
    0.7988   -6.9360   -3.8504 H   0  0  0  0  0  0  0  0  0  0  0  0
    1.9556   -5.6216   -3.8511 H   0  0  0  0  0  0  0  0  0  0  0  0
    1.3322   -4.6359   -1.5106 N   0  0  0  0  0  0  0  0  0  0  0  0
    0.8124   -3.9290   -0.3698 C   0  0  2  0  0  0  0  0  0  0  0  0
    1.0666   -2.4424   -0.5818 C   0  0  0  0  0  0  0  0  0  0  0  0
    2.0598   -2.0076   -1.1610 O   0  0  0  0  0  0  0  0  0  0  0  0
    1.4560   -4.4118    0.9207 C   0  0  0  0  0  0  0  0  0  0  0  0
    2.1528   -4.2578   -1.9805 H   0  0  0  0  0  0  0  0  0  0  0  0
   -0.2667   -4.1160   -0.3467 H   0  0  0  0  0  0  0  0  0  0  0  0
    2.5374   -4.2329    0.9160 H   0  0  0  0  0  0  0  0  0  0  0  0
    1.0390   -3.8932    1.7903 H   0  0  0  0  0  0  0  0  0  0  0  0
    1.2976   -5.4871    1.0566 H   0  0  0  0  0  0  0  0  0  0  0  0
    0.0755   -1.6529   -0.0105 N   0  0  0  0  0  0  0  0  0  0  0  0
    0.1113   -0.2132   -0.0391 C   0  0  2  0  0  0  0  0  0  0  0  0
   -0.2497    0.2820    1.3573 C   0  0  0  0  0  0  0  0  0  0  0  0
   -0.8022   -0.4266    2.1962 O   0  0  0  0  0  0  0  0  0  0  0  0
   -0.8533    0.3663   -1.0788 C   0  0  0  0  0  0  0  0  0  0  0  0
   -0.4329    0.0333   -2.5153 C   0  0  0  0  0  0  0  0  0  0  0  0
   -1.3966    0.6125   -3.5458 C   0  0  0  0  0  0  0  0  0  0  0  0
   -1.0055    0.2733   -4.9122 N   0  3  0  0  0  0  0  0  0  0  0  0
   -1.7694    0.6413   -6.0214 C   0  0  0  0  0  0  0  0  0  0  0  0
   -1.3355    0.2838   -7.2936 N   0  0  0  0  0  0  0  0  0  0  0  0
   -2.9541    1.3575   -5.8853 N   0  0  0  0  0  0  0  0  0  0  0  0
   -0.7323   -2.1024    0.4149 H   0  0  0  0  0  0  0  0  0  0  0  0
    1.1447    0.0743   -0.2643 H   0  0  0  0  0  0  0  0  0  0  0  0
   -0.9071    1.4551   -0.9599 H   0  0  0  0  0  0  0  0  0  0  0  0
   -1.8671   -0.0152   -0.8983 H   0  0  0  0  0  0  0  0  0  0  0  0
    0.5770    0.4181   -2.7013 H   0  0  0  0  0  0  0  0  0  0  0  0
   -0.3985   -1.0544   -2.6458 H   0  0  0  0  0  0  0  0  0  0  0  0
   -2.3985    0.2034   -3.3837 H   0  0  0  0  0  0  0  0  0  0  0  0
   -1.4446    1.7029   -3.4667 H   0  0  0  0  0  0  0  0  0  0  0  0
   -0.1472   -0.2503   -5.0746 H   0  0  0  0  0  0  0  0  0  0  0  0
   -1.8685    0.5365   -8.1223 H   0  0  0  0  0  0  0  0  0  0  0  0
   -0.4741   -0.2400   -7.4289 H   0  0  0  0  0  0  0  0  0  0  0  0
   -3.5140    1.6278   -6.6897 H   0  0  0  0  0  0  0  0  0  0  0  0
   -3.2961    1.6322   -4.9675 H   0  0  0  0  0  0  0  0  0  0  0  0
    0.0733    1.6198    1.5368 N   0  0  0  0  0  0  0  0  0  0  0  0
   -0.2112    2.3406    2.7562 C   0  0  2  0  0  0  0  0  0  0  0  0
   -0.4992    3.7904    2.3894 C   0  0  0  0  0  0  0  0  0  0  0  0
    0.0587    4.3708    1.4605 O   0  0  0  0  0  0  0  0  0  0  0  0
    0.9475    2.2480    3.7368 C   0  0  0  0  0  0  0  0  0  0  0  0
    0.5590    2.1188    0.7973 H   0  0  0  0  0  0  0  0  0  0  0  0
   -1.1096    1.8874    3.1892 H   0  0  0  0  0  0  0  0  0  0  0  0
    1.8566    2.6970    3.3205 H   0  0  0  0  0  0  0  0  0  0  0  0
    0.7190    2.7706    4.6715 H   0  0  0  0  0  0  0  0  0  0  0  0
    1.1726    1.2031    3.9766 H   0  0  0  0  0  0  0  0  0  0  0  0
   -1.4209    4.3728    3.2481 N   0  0  0  0  0  0  0  0  0  0  0  0
   -1.8279    5.7539    3.1347 C   0  0  0  0  0  0  0  0  0  0  0  0
   -1.8628    3.8059    3.9658 H   0  0  0  0  0  0  0  0  0  0  0  0
   -1.1907    6.3785    3.7779 H   0  0  0  0  0  0  0  0  0  0  0  0
   -1.7263    6.0813    2.0894 H   0  0  0  0  0  0  0  0  0  0  0  0
   -2.8770    5.8540    3.4499 H   0  0  0  0  0  0  0  0  0  0  0  0
  1  3  1  0  0  0  0
  1  7  1  0  0  0  0
  1  2  2  0  0  0  0
 42 43  1  0  0  0  0
 43 51  1  0  0  0  0
 43 44  2  0  0  0  0
  8  9  1  0  0  0  0
  9 17  1  0  0  0  0
  9 10  2  0  0  0  0
 18 19  1  0  0  0  0
 19 41  1  0  0  0  0
 19 20  2  0  0  0  0
 25 26  1  0  0  0  0
 25 27  1  0  0  0  0
 24 25  2  0  0  0  0
 42 45  1  0  0  0  0
  8 11  1  0  0  0  0
 51 52  1  0  0  0  0
 21 22  1  0  0  0  0
 22 23  1  0  0  0  0
 18 21  1  0  0  0  0
 23 24  1  0  0  0  0
 41 42  1  0  0  0  0
  7  8  1  0  0  0  0
 17 18  1  0  0  0  0
  3  4  1  0  0  0  0
  3  5  1  0  0  0  0
  3  6  1  0  0  0  0
 45 48  1  0  0  0  0
 45 49  1  0  0  0  0
 45 50  1  0  0  0  0
 11 14  1  0  0  0  0
 11 15  1  0  0  0  0
 11 16  1  0  0  0  0
 52 54  1  0  0  0  0
 52 55  1  0  0  0  0
 52 56  1  0  0  0  0
 22 32  1  0  0  0  0
 22 33  1  0  0  0  0
 21 30  1  0  0  0  0
 21 31  1  0  0  0  0
 23 34  1  0  0  0  0
 23 35  1  0  0  0  0
 42 47  1  0  0  0  0
  8 13  1  0  0  0  0
 18 29  1  0  0  0  0
 26 37  1  0  0  0  0
 26 38  1  0  0  0  0
 27 39  1  0  0  0  0
 27 40  1  0  0  0  0
 51 53  1  0  0  0  0
  7 12  1  0  0  0  0
 41 46  1  0  0  0  0
 17 28  1  0  0  0  0
 24 36  1  0  0  0  0
M  CHG  1  24   1
M  END
$$$$

  -OEChem-05262214473D

 56 55  0     1  0  0  0  0  0999 V2000
    0.7735   -5.8042   -2.0022 C   0  0  0  0  0  0  0  0  0  0  0  0
   -0.2086   -6.3825   -1.5519 O   0  0  0  0  0  0  0  0  0  0  0  0
    1.4751   -6.3646   -3.1946 C   0  0  0  0  0  0  0  0  0  0  0  0
    2.2765   -7.0687   -2.9186 H   0  0  0  0  0  0  0  0  0  0  0  0
    0.7988   -6.9360   -3.8504 H   0  0  0  0  0  0  0  0  0  0  0  0
    1.9556   -5.6216   -3.8511 H   0  0  0  0  0  0  0  0  0  0  0  0
    1.3322   -4.6359   -1.5106 N   0  0  0  0  0  0  0  0  0  0  0  0
    0.8124   -3.9290   -0.3698 C   0  0  2  0  0  0  0  0  0  0  0  0
    1.0666   -2.4424   -0.5818 C   0  0  0  0  0  0  0  0  0  0  0  0
    2.0598   -2.0076   -1.1610 O   0  0  0  0  0  0  0  0  0  0  0  0
    1.4560   -4.4118    0.9207 C   0  0  0  0  0  0  0  0  0  0  0  0
    2.1528   -4.2578   -1.9805 H   0  0  0  0  0  0  0  0  0  0  0  0
   -0.2667   -4.1160   -0.3467 H   0  0  0  0  0  0  0  0  0  0  0  0
    2.5374   -4.2329    0.9160 H   0  0  0  0  0  0  0  0  0  0  0  0
    1.0390   -3.8932    1.7903 H   0  0  0  0  0  0  0  0  0  0  0  0
    1.2976   -5.4871    1.0566 H   0  0  0  0  0  0  0  0  0  0  0  0
    0.0755   -1.6529   -0.0105 N   0  0  0  0  0  0  0  0  0  0  0  0
    0.1113   -0.2132   -0.0391 C   0  0  2  0  0  0  0  0  0  0  0  0
    0.1268    0.2736    1.4060 C   0  0  0  0  0  0  0  0  0  0  0  0
    0.0701   -0.4882    2.3691 O   0  0  0  0  0  0  0  0  0  0  0  0
   -1.0859    0.3778   -0.7905 C   0  0  0  0  0  0  0  0  0  0  0  0
   -1.0534    0.0533   -2.2887 C   0  0  0  0  0  0  0  0  0  0  0  0
   -2.2474    0.6440   -3.0315 C   0  0  0  0  0  0  0  0  0  0  0  0
   -2.2251    0.3128   -4.4545 N   0  3  0  0  0  0  0  0  0  0  0  0
   -3.2476    0.6919   -5.3262 C   0  0  0  0  0  0  0  0  0  0  0  0
   -3.1597    0.3416   -6.6693 N   0  0  0  0  0  0  0  0  0  0  0  0
   -4.3525    1.4122   -4.8841 N   0  0  0  0  0  0  0  0  0  0  0  0
   -0.7323   -2.1024    0.4149 H   0  0  0  0  0  0  0  0  0  0  0  0
    1.0530    0.0715   -0.5223 H   0  0  0  0  0  0  0  0  0  0  0  0
   -1.1006    1.4660   -0.6555 H   0  0  0  0  0  0  0  0  0  0  0  0
   -2.0208   -0.0006   -0.3561 H   0  0  0  0  0  0  0  0  0  0  0  0
   -0.1237    0.4350   -2.7274 H   0  0  0  0  0  0  0  0  0  0  0  0
   -1.0605   -1.0336   -2.4300 H   0  0  0  0  0  0  0  0  0  0  0  0
   -3.1757    0.2380   -2.6180 H   0  0  0  0  0  0  0  0  0  0  0  0
   -2.2667    1.7339   -2.9364 H   0  0  0  0  0  0  0  0  0  0  0  0
   -1.4411   -0.2133   -4.8364 H   0  0  0  0  0  0  0  0  0  0  0  0
   -3.8874    0.6025   -7.3305 H   0  0  0  0  0  0  0  0  0  0  0  0
   -2.3659   -0.1848   -7.0258 H   0  0  0  0  0  0  0  0  0  0  0  0
   -5.0998    1.6907   -5.5147 H   0  0  0  0  0  0  0  0  0  0  0  0
   -4.4439    1.6819   -3.9075 H   0  0  0  0  0  0  0  0  0  0  0  0
    0.1615    1.6585    1.4903 N   0  0  0  0  0  0  0  0  0  0  0  0
    0.1343    2.3707    2.7471 C   0  0  2  0  0  0  0  0  0  0  0  0
   -0.5966    3.6883    2.5253 C   0  0  0  0  0  0  0  0  0  0  0  0
   -0.5342    4.3212    1.4734 O   0  0  0  0  0  0  0  0  0  0  0  0
    1.5392    2.6110    3.2775 C   0  0  0  0  0  0  0  0  0  0  0  0
    0.2403    2.2077    0.6395 H   0  0  0  0  0  0  0  0  0  0  0  0
   -0.4338    1.7510    3.4495 H   0  0  0  0  0  0  0  0  0  0  0  0
    2.1235    3.2301    2.5871 H   0  0  0  0  0  0  0  0  0  0  0  0
    1.5158    3.1254    4.2438 H   0  0  0  0  0  0  0  0  0  0  0  0
    2.0737    1.6639    3.4082 H   0  0  0  0  0  0  0  0  0  0  0  0
   -1.2920    4.0959    3.6551 N   0  0  0  0  0  0  0  0  0  0  0  0
   -2.0310    5.3356    3.7107 C   0  0  0  0  0  0  0  0  0  0  0  0
   -1.3218    3.4894    4.4694 H   0  0  0  0  0  0  0  0  0  0  0  0
   -1.3852    6.1303    4.1126 H   0  0  0  0  0  0  0  0  0  0  0  0
   -2.3632    5.6100    2.6986 H   0  0  0  0  0  0  0  0  0  0  0  0
   -2.9077    5.2107    4.3632 H   0  0  0  0  0  0  0  0  0  0  0  0
  1  3  1  0  0  0  0
  1  7  1  0  0  0  0
  1  2  2  0  0  0  0
 42 43  1  0  0  0  0
 43 51  1  0  0  0  0
 43 44  2  0  0  0  0
  8  9  1  0  0  0  0
  9 17  1  0  0  0  0
  9 10  2  0  0  0  0
 18 19  1  0  0  0  0
 19 41  1  0  0  0  0
 19 20  2  0  0  0  0
 25 26  1  0  0  0  0
 25 27  1  0  0  0  0
 24 25  2  0  0  0  0
 42 45  1  0  0  0  0
  8 11  1  0  0  0  0
 51 52  1  0  0  0  0
 21 22  1  0  0  0  0
 22 23  1  0  0  0  0
 18 21  1  0  0  0  0
 23 24  1  0  0  0  0
 41 42  1  0  0  0  0
  7  8  1  0  0  0  0
 17 18  1  0  0  0  0
  3  4  1  0  0  0  0
  3  5  1  0  0  0  0
  3  6  1  0  0  0  0
 45 48  1  0  0  0  0
 45 49  1  0  0  0  0
 45 50  1  0  0  0  0
 11 14  1  0  0  0  0
 11 15  1  0  0  0  0
 11 16  1  0  0  0  0
 52 54  1  0  0  0  0
 52 55  1  0  0  0  0
 52 56  1  0  0  0  0
 22 32  1  0  0  0  0
 22 33  1  0  0  0  0
 21 30  1  0  0  0  0
 21 31  1  0  0  0  0
 23 34  1  0  0  0  0
 23 35  1  0  0  0  0
 42 47  1  0  0  0  0
  8 13  1  0  0  0  0
 18 29  1  0  0  0  0
 26 37  1  0  0  0  0
 26 38  1  0  0  0  0
 27 39  1  0  0  0  0
 27 40  1  0  0  0  0
 51 53  1  0  0  0  0
  7 12  1  0  0  0  0
 41 46  1  0  0  0  0
 17 28  1  0  0  0  0
 24 36  1  0  0  0  0
M  CHG  1  24   1
M  END
$$$$

  -OEChem-05262214473D

 56 55  0     1  0  0  0  0  0999 V2000
    0.7735   -5.8042   -2.0022 C   0  0  0  0  0  0  0  0  0  0  0  0
   -0.2086   -6.3825   -1.5519 O   0  0  0  0  0  0  0  0  0  0  0  0
    1.4751   -6.3646   -3.1946 C   0  0  0  0  0  0  0  0  0  0  0  0
    2.2765   -7.0687   -2.9186 H   0  0  0  0  0  0  0  0  0  0  0  0
    0.7988   -6.9360   -3.8504 H   0  0  0  0  0  0  0  0  0  0  0  0
    1.9556   -5.6216   -3.8511 H   0  0  0  0  0  0  0  0  0  0  0  0
    1.3322   -4.6359   -1.5106 N   0  0  0  0  0  0  0  0  0  0  0  0
    0.8124   -3.9290   -0.3698 C   0  0  2  0  0  0  0  0  0  0  0  0
    1.0666   -2.4424   -0.5818 C   0  0  0  0  0  0  0  0  0  0  0  0
    2.0598   -2.0076   -1.1610 O   0  0  0  0  0  0  0  0  0  0  0  0
    1.4560   -4.4118    0.9207 C   0  0  0  0  0  0  0  0  0  0  0  0
    2.1528   -4.2578   -1.9805 H   0  0  0  0  0  0  0  0  0  0  0  0
   -0.2667   -4.1160   -0.3467 H   0  0  0  0  0  0  0  0  0  0  0  0
    2.5374   -4.2329    0.9160 H   0  0  0  0  0  0  0  0  0  0  0  0
    1.0390   -3.8932    1.7903 H   0  0  0  0  0  0  0  0  0  0  0  0
    1.2976   -5.4871    1.0566 H   0  0  0  0  0  0  0  0  0  0  0  0
    0.0755   -1.6529   -0.0105 N   0  0  0  0  0  0  0  0  0  0  0  0
    0.1113   -0.2132   -0.0391 C   0  0  2  0  0  0  0  0  0  0  0  0
    0.1268    0.2736    1.4060 C   0  0  0  0  0  0  0  0  0  0  0  0
    0.3387   -0.4714    2.3605 O   0  0  0  0  0  0  0  0  0  0  0  0
   -1.0859    0.3778   -0.7905 C   0  0  0  0  0  0  0  0  0  0  0  0
   -1.0534    0.0533   -2.2887 C   0  0  0  0  0  0  0  0  0  0  0  0
   -2.2474    0.6440   -3.0315 C   0  0  0  0  0  0  0  0  0  0  0  0
   -2.2251    0.3128   -4.4545 N   0  3  0  0  0  0  0  0  0  0  0  0
   -3.2476    0.6919   -5.3262 C   0  0  0  0  0  0  0  0  0  0  0  0
   -3.1597    0.3416   -6.6693 N   0  0  0  0  0  0  0  0  0  0  0  0
   -4.3525    1.4122   -4.8841 N   0  0  0  0  0  0  0  0  0  0  0  0
   -0.7323   -2.1024    0.4149 H   0  0  0  0  0  0  0  0  0  0  0  0
    1.0530    0.0715   -0.5223 H   0  0  0  0  0  0  0  0  0  0  0  0
   -1.1006    1.4660   -0.6555 H   0  0  0  0  0  0  0  0  0  0  0  0
   -2.0208   -0.0006   -0.3561 H   0  0  0  0  0  0  0  0  0  0  0  0
   -0.1237    0.4350   -2.7274 H   0  0  0  0  0  0  0  0  0  0  0  0
   -1.0605   -1.0336   -2.4300 H   0  0  0  0  0  0  0  0  0  0  0  0
   -3.1757    0.2380   -2.6180 H   0  0  0  0  0  0  0  0  0  0  0  0
   -2.2667    1.7339   -2.9364 H   0  0  0  0  0  0  0  0  0  0  0  0
   -1.4411   -0.2133   -4.8364 H   0  0  0  0  0  0  0  0  0  0  0  0
   -3.8874    0.6025   -7.3305 H   0  0  0  0  0  0  0  0  0  0  0  0
   -2.3659   -0.1848   -7.0258 H   0  0  0  0  0  0  0  0  0  0  0  0
   -5.0998    1.6907   -5.5147 H   0  0  0  0  0  0  0  0  0  0  0  0
   -4.4439    1.6819   -3.9075 H   0  0  0  0  0  0  0  0  0  0  0  0
   -0.1722    1.6253    1.5050 N   0  0  0  0  0  0  0  0  0  0  0  0
   -0.2688    2.3186    2.7689 C   0  0  2  0  0  0  0  0  0  0  0  0
   -1.3162    3.4149    2.6251 C   0  0  0  0  0  0  0  0  0  0  0  0
   -1.4984    4.0356    1.5799 O   0  0  0  0  0  0  0  0  0  0  0  0
    1.0733    2.9004    3.1849 C   0  0  0  0  0  0  0  0  0  0  0  0
   -0.3013    2.1705    0.6578 H   0  0  0  0  0  0  0  0  0  0  0  0
   -0.6073    1.5839    3.5076 H   0  0  0  0  0  0  0  0  0  0  0  0
    1.4286    3.6387    2.4568 H   0  0  0  0  0  0  0  0  0  0  0  0
    1.0048    3.4008    4.1565 H   0  0  0  0  0  0  0  0  0  0  0  0
    1.8326    2.1145    3.2589 H   0  0  0  0  0  0  0  0  0  0  0  0
   -1.9941    3.6481    3.8135 N   0  0  0  0  0  0  0  0  0  0  0  0
   -3.0072    4.6690    3.9457 C   0  0  0  0  0  0  0  0  0  0  0  0
   -1.8067    3.0591    4.6195 H   0  0  0  0  0  0  0  0  0  0  0  0
   -2.5450    5.6009    4.3033 H   0  0  0  0  0  0  0  0  0  0  0  0
   -3.4794    4.8456    2.9680 H   0  0  0  0  0  0  0  0  0  0  0  0
   -3.7694    4.3378    4.6665 H   0  0  0  0  0  0  0  0  0  0  0  0
  1  3  1  0  0  0  0
  1  7  1  0  0  0  0
  1  2  2  0  0  0  0
 42 43  1  0  0  0  0
 43 51  1  0  0  0  0
 43 44  2  0  0  0  0
  8  9  1  0  0  0  0
  9 17  1  0  0  0  0
  9 10  2  0  0  0  0
 18 19  1  0  0  0  0
 19 41  1  0  0  0  0
 19 20  2  0  0  0  0
 25 26  1  0  0  0  0
 25 27  1  0  0  0  0
 24 25  2  0  0  0  0
 42 45  1  0  0  0  0
  8 11  1  0  0  0  0
 51 52  1  0  0  0  0
 21 22  1  0  0  0  0
 22 23  1  0  0  0  0
 18 21  1  0  0  0  0
 23 24  1  0  0  0  0
 41 42  1  0  0  0  0
  7  8  1  0  0  0  0
 17 18  1  0  0  0  0
  3  4  1  0  0  0  0
  3  5  1  0  0  0  0
  3  6  1  0  0  0  0
 45 48  1  0  0  0  0
 45 49  1  0  0  0  0
 45 50  1  0  0  0  0
 11 14  1  0  0  0  0
 11 15  1  0  0  0  0
 11 16  1  0  0  0  0
 52 54  1  0  0  0  0
 52 55  1  0  0  0  0
 52 56  1  0  0  0  0
 22 32  1  0  0  0  0
 22 33  1  0  0  0  0
 21 30  1  0  0  0  0
 21 31  1  0  0  0  0
 23 34  1  0  0  0  0
 23 35  1  0  0  0  0
 42 47  1  0  0  0  0
  8 13  1  0  0  0  0
 18 29  1  0  0  0  0
 26 37  1  0  0  0  0
 26 38  1  0  0  0  0
 27 39  1  0  0  0  0
 27 40  1  0  0  0  0
 51 53  1  0  0  0  0
  7 12  1  0  0  0  0
 41 46  1  0  0  0  0
 17 28  1  0  0  0  0
 24 36  1  0  0  0  0
M  CHG  1  24   1
M  END
$$$$

  -OEChem-05262214473D

 56 55  0     1  0  0  0  0  0999 V2000
    0.7735   -5.8042   -2.0022 C   0  0  0  0  0  0  0  0  0  0  0  0
   -0.2086   -6.3825   -1.5519 O   0  0  0  0  0  0  0  0  0  0  0  0
    1.4751   -6.3646   -3.1946 C   0  0  0  0  0  0  0  0  0  0  0  0
    2.2765   -7.0687   -2.9186 H   0  0  0  0  0  0  0  0  0  0  0  0
    0.7988   -6.9360   -3.8504 H   0  0  0  0  0  0  0  0  0  0  0  0
    1.9556   -5.6216   -3.8511 H   0  0  0  0  0  0  0  0  0  0  0  0
    1.3322   -4.6359   -1.5106 N   0  0  0  0  0  0  0  0  0  0  0  0
    0.8124   -3.9290   -0.3698 C   0  0  2  0  0  0  0  0  0  0  0  0
    1.0666   -2.4424   -0.5818 C   0  0  0  0  0  0  0  0  0  0  0  0
    2.0598   -2.0076   -1.1610 O   0  0  0  0  0  0  0  0  0  0  0  0
    1.4560   -4.4118    0.9207 C   0  0  0  0  0  0  0  0  0  0  0  0
    2.1528   -4.2578   -1.9805 H   0  0  0  0  0  0  0  0  0  0  0  0
   -0.2667   -4.1160   -0.3467 H   0  0  0  0  0  0  0  0  0  0  0  0
    2.5374   -4.2329    0.9160 H   0  0  0  0  0  0  0  0  0  0  0  0
    1.0390   -3.8932    1.7903 H   0  0  0  0  0  0  0  0  0  0  0  0
    1.2976   -5.4871    1.0566 H   0  0  0  0  0  0  0  0  0  0  0  0
    0.0755   -1.6529   -0.0105 N   0  0  0  0  0  0  0  0  0  0  0  0
    0.1113   -0.2132   -0.0391 C   0  0  2  0  0  0  0  0  0  0  0  0
    0.1268    0.2736    1.4060 C   0  0  0  0  0  0  0  0  0  0  0  0
    0.5933   -0.3893    2.3302 O   0  0  0  0  0  0  0  0  0  0  0  0
   -1.0859    0.3778   -0.7905 C   0  0  0  0  0  0  0  0  0  0  0  0
   -1.0534    0.0533   -2.2887 C   0  0  0  0  0  0  0  0  0  0  0  0
   -2.2474    0.6440   -3.0315 C   0  0  0  0  0  0  0  0  0  0  0  0
   -2.2251    0.3128   -4.4545 N   0  3  0  0  0  0  0  0  0  0  0  0
   -3.2476    0.6919   -5.3262 C   0  0  0  0  0  0  0  0  0  0  0  0
   -3.1597    0.3416   -6.6693 N   0  0  0  0  0  0  0  0  0  0  0  0
   -4.3525    1.4122   -4.8841 N   0  0  0  0  0  0  0  0  0  0  0  0
   -0.7323   -2.1024    0.4149 H   0  0  0  0  0  0  0  0  0  0  0  0
    1.0530    0.0715   -0.5223 H   0  0  0  0  0  0  0  0  0  0  0  0
   -1.1006    1.4660   -0.6555 H   0  0  0  0  0  0  0  0  0  0  0  0
   -2.0208   -0.0006   -0.3561 H   0  0  0  0  0  0  0  0  0  0  0  0
   -0.1237    0.4350   -2.7274 H   0  0  0  0  0  0  0  0  0  0  0  0
   -1.0605   -1.0336   -2.4300 H   0  0  0  0  0  0  0  0  0  0  0  0
   -3.1757    0.2380   -2.6180 H   0  0  0  0  0  0  0  0  0  0  0  0
   -2.2667    1.7339   -2.9364 H   0  0  0  0  0  0  0  0  0  0  0  0
   -1.4411   -0.2133   -4.8364 H   0  0  0  0  0  0  0  0  0  0  0  0
   -3.8874    0.6025   -7.3305 H   0  0  0  0  0  0  0  0  0  0  0  0
   -2.3659   -0.1848   -7.0258 H   0  0  0  0  0  0  0  0  0  0  0  0
   -5.0998    1.6907   -5.5147 H   0  0  0  0  0  0  0  0  0  0  0  0
   -4.4439    1.6819   -3.9075 H   0  0  0  0  0  0  0  0  0  0  0  0
   -0.4852    1.5114    1.5468 N   0  0  0  0  0  0  0  0  0  0  0  0
   -0.6436    2.1695    2.8232 C   0  0  2  0  0  0  0  0  0  0  0  0
   -1.9360    2.9741    2.7802 C   0  0  0  0  0  0  0  0  0  0  0  0
   -2.3508    3.5231    1.7616 O   0  0  0  0  0  0  0  0  0  0  0  0
    0.5446    3.0660    3.1348 C   0  0  0  0  0  0  0  0  0  0  0  0
   -0.8138    2.0017    0.7201 H   0  0  0  0  0  0  0  0  0  0  0  0
   -0.7292    1.3799    3.5776 H   0  0  0  0  0  0  0  0  0  0  0  0
    0.6465    3.8632    2.3895 H   0  0  0  0  0  0  0  0  0  0  0  0
    0.4364    3.5418    4.1151 H   0  0  0  0  0  0  0  0  0  0  0  0
    1.4769    2.4910    3.1359 H   0  0  0  0  0  0  0  0  0  0  0  0
   -2.5494    3.0430    4.0233 N   0  0  0  0  0  0  0  0  0  0  0  0
   -3.7673    3.7850    4.2516 C   0  0  0  0  0  0  0  0  0  0  0  0
   -2.1571    2.5242    4.8035 H   0  0  0  0  0  0  0  0  0  0  0  0
   -3.5196    4.8046    4.5819 H   0  0  0  0  0  0  0  0  0  0  0  0
   -4.3478    3.8329    3.3185 H   0  0  0  0  0  0  0  0  0  0  0  0
   -4.3625    3.2825    5.0283 H   0  0  0  0  0  0  0  0  0  0  0  0
  1  3  1  0  0  0  0
  1  7  1  0  0  0  0
  1  2  2  0  0  0  0
 42 43  1  0  0  0  0
 43 51  1  0  0  0  0
 43 44  2  0  0  0  0
  8  9  1  0  0  0  0
  9 17  1  0  0  0  0
  9 10  2  0  0  0  0
 18 19  1  0  0  0  0
 19 41  1  0  0  0  0
 19 20  2  0  0  0  0
 25 26  1  0  0  0  0
 25 27  1  0  0  0  0
 24 25  2  0  0  0  0
 42 45  1  0  0  0  0
  8 11  1  0  0  0  0
 51 52  1  0  0  0  0
 21 22  1  0  0  0  0
 22 23  1  0  0  0  0
 18 21  1  0  0  0  0
 23 24  1  0  0  0  0
 41 42  1  0  0  0  0
  7  8  1  0  0  0  0
 17 18  1  0  0  0  0
  3  4  1  0  0  0  0
  3  5  1  0  0  0  0
  3  6  1  0  0  0  0
 45 48  1  0  0  0  0
 45 49  1  0  0  0  0
 45 50  1  0  0  0  0
 11 14  1  0  0  0  0
 11 15  1  0  0  0  0
 11 16  1  0  0  0  0
 52 54  1  0  0  0  0
 52 55  1  0  0  0  0
 52 56  1  0  0  0  0
 22 32  1  0  0  0  0
 22 33  1  0  0  0  0
 21 30  1  0  0  0  0
 21 31  1  0  0  0  0
 23 34  1  0  0  0  0
 23 35  1  0  0  0  0
 42 47  1  0  0  0  0
  8 13  1  0  0  0  0
 18 29  1  0  0  0  0
 26 37  1  0  0  0  0
 26 38  1  0  0  0  0
 27 39  1  0  0  0  0
 27 40  1  0  0  0  0
 51 53  1  0  0  0  0
  7 12  1  0  0  0  0
 41 46  1  0  0  0  0
 17 28  1  0  0  0  0
 24 36  1  0  0  0  0
M  CHG  1  24   1
M  END
$$$$

  -OEChem-05262214473D

 56 55  0     1  0  0  0  0  0999 V2000
    0.7735   -5.8042   -2.0022 C   0  0  0  0  0  0  0  0  0  0  0  0
   -0.2086   -6.3825   -1.5519 O   0  0  0  0  0  0  0  0  0  0  0  0
    1.4751   -6.3646   -3.1946 C   0  0  0  0  0  0  0  0  0  0  0  0
    2.2765   -7.0687   -2.9186 H   0  0  0  0  0  0  0  0  0  0  0  0
    0.7988   -6.9360   -3.8504 H   0  0  0  0  0  0  0  0  0  0  0  0
    1.9556   -5.6216   -3.8511 H   0  0  0  0  0  0  0  0  0  0  0  0
    1.3322   -4.6359   -1.5106 N   0  0  0  0  0  0  0  0  0  0  0  0
    0.8124   -3.9290   -0.3698 C   0  0  2  0  0  0  0  0  0  0  0  0
    1.0666   -2.4424   -0.5818 C   0  0  0  0  0  0  0  0  0  0  0  0
    2.0598   -2.0076   -1.1610 O   0  0  0  0  0  0  0  0  0  0  0  0
    1.4560   -4.4118    0.9207 C   0  0  0  0  0  0  0  0  0  0  0  0
    2.1528   -4.2578   -1.9805 H   0  0  0  0  0  0  0  0  0  0  0  0
   -0.2667   -4.1160   -0.3467 H   0  0  0  0  0  0  0  0  0  0  0  0
    2.5374   -4.2329    0.9160 H   0  0  0  0  0  0  0  0  0  0  0  0
    1.0390   -3.8932    1.7903 H   0  0  0  0  0  0  0  0  0  0  0  0
    1.2976   -5.4871    1.0566 H   0  0  0  0  0  0  0  0  0  0  0  0
    0.0755   -1.6529   -0.0105 N   0  0  0  0  0  0  0  0  0  0  0  0
    0.1113   -0.2132   -0.0391 C   0  0  2  0  0  0  0  0  0  0  0  0
    0.1268    0.2736    1.4060 C   0  0  0  0  0  0  0  0  0  0  0  0
    0.8166   -0.2474    2.2800 O   0  0  0  0  0  0  0  0  0  0  0  0
   -1.0859    0.3778   -0.7905 C   0  0  0  0  0  0  0  0  0  0  0  0
   -1.0534    0.0533   -2.2887 C   0  0  0  0  0  0  0  0  0  0  0  0
   -2.2474    0.6440   -3.0315 C   0  0  0  0  0  0  0  0  0  0  0  0
   -2.2251    0.3128   -4.4545 N   0  3  0  0  0  0  0  0  0  0  0  0
   -3.2476    0.6919   -5.3262 C   0  0  0  0  0  0  0  0  0  0  0  0
   -3.1597    0.3416   -6.6693 N   0  0  0  0  0  0  0  0  0  0  0  0
   -4.3525    1.4122   -4.8841 N   0  0  0  0  0  0  0  0  0  0  0  0
   -0.7323   -2.1024    0.4149 H   0  0  0  0  0  0  0  0  0  0  0  0
    1.0530    0.0715   -0.5223 H   0  0  0  0  0  0  0  0  0  0  0  0
   -1.1006    1.4660   -0.6555 H   0  0  0  0  0  0  0  0  0  0  0  0
   -2.0208   -0.0006   -0.3561 H   0  0  0  0  0  0  0  0  0  0  0  0
   -0.1237    0.4350   -2.7274 H   0  0  0  0  0  0  0  0  0  0  0  0
   -1.0605   -1.0336   -2.4300 H   0  0  0  0  0  0  0  0  0  0  0  0
   -3.1757    0.2380   -2.6180 H   0  0  0  0  0  0  0  0  0  0  0  0
   -2.2667    1.7339   -2.9364 H   0  0  0  0  0  0  0  0  0  0  0  0
   -1.4411   -0.2133   -4.8364 H   0  0  0  0  0  0  0  0  0  0  0  0
   -3.8874    0.6025   -7.3305 H   0  0  0  0  0  0  0  0  0  0  0  0
   -2.3659   -0.1848   -7.0258 H   0  0  0  0  0  0  0  0  0  0  0  0
   -5.0998    1.6907   -5.5147 H   0  0  0  0  0  0  0  0  0  0  0  0
   -4.4439    1.6819   -3.9075 H   0  0  0  0  0  0  0  0  0  0  0  0
   -0.7561    1.3244    1.6126 N   0  0  0  0  0  0  0  0  0  0  0  0
   -0.9646    1.9334    2.9061 C   0  0  2  0  0  0  0  0  0  0  0  0
   -2.4138    2.3959    2.9801 C   0  0  0  0  0  0  0  0  0  0  0  0
   -3.0335    2.8185    2.0063 O   0  0  0  0  0  0  0  0  0  0  0  0
   -0.0107    3.0964    3.1305 C   0  0  0  0  0  0  0  0  0  0  0  0
   -1.2623    1.7127    0.8223 H   0  0  0  0  0  0  0  0  0  0  0  0
   -0.7911    1.1527    3.6548 H   0  0  0  0  0  0  0  0  0  0  0  0
   -0.1696    3.8885    2.3897 H   0  0  0  0  0  0  0  0  0  0  0  0
   -0.1506    3.5386    4.1224 H   0  0  0  0  0  0  0  0  0  0  0  0
    1.0309    2.7677    3.0474 H   0  0  0  0  0  0  0  0  0  0  0  0
   -2.9200    2.3217    4.2702 N   0  0  0  0  0  0  0  0  0  0  0  0
   -4.2594    2.7440    4.6076 C   0  0  0  0  0  0  0  0  0  0  0  0
   -2.3492    1.9211    5.0087 H   0  0  0  0  0  0  0  0  0  0  0  0
   -4.2427    3.7957    4.9296 H   0  0  0  0  0  0  0  0  0  0  0  0
   -4.9092    2.6408    3.7261 H   0  0  0  0  0  0  0  0  0  0  0  0
   -4.6467    2.1168    5.4241 H   0  0  0  0  0  0  0  0  0  0  0  0
  1  3  1  0  0  0  0
  1  7  1  0  0  0  0
  1  2  2  0  0  0  0
 42 43  1  0  0  0  0
 43 51  1  0  0  0  0
 43 44  2  0  0  0  0
  8  9  1  0  0  0  0
  9 17  1  0  0  0  0
  9 10  2  0  0  0  0
 18 19  1  0  0  0  0
 19 41  1  0  0  0  0
 19 20  2  0  0  0  0
 25 26  1  0  0  0  0
 25 27  1  0  0  0  0
 24 25  2  0  0  0  0
 42 45  1  0  0  0  0
  8 11  1  0  0  0  0
 51 52  1  0  0  0  0
 21 22  1  0  0  0  0
 22 23  1  0  0  0  0
 18 21  1  0  0  0  0
 23 24  1  0  0  0  0
 41 42  1  0  0  0  0
  7  8  1  0  0  0  0
 17 18  1  0  0  0  0
  3  4  1  0  0  0  0
  3  5  1  0  0  0  0
  3  6  1  0  0  0  0
 45 48  1  0  0  0  0
 45 49  1  0  0  0  0
 45 50  1  0  0  0  0
 11 14  1  0  0  0  0
 11 15  1  0  0  0  0
 11 16  1  0  0  0  0
 52 54  1  0  0  0  0
 52 55  1  0  0  0  0
 52 56  1  0  0  0  0
 22 32  1  0  0  0  0
 22 33  1  0  0  0  0
 21 30  1  0  0  0  0
 21 31  1  0  0  0  0
 23 34  1  0  0  0  0
 23 35  1  0  0  0  0
 42 47  1  0  0  0  0
  8 13  1  0  0  0  0
 18 29  1  0  0  0  0
 26 37  1  0  0  0  0
 26 38  1  0  0  0  0
 27 39  1  0  0  0  0
 27 40  1  0  0  0  0
 51 53  1  0  0  0  0
  7 12  1  0  0  0  0
 41 46  1  0  0  0  0
 17 28  1  0  0  0  0
 24 36  1  0  0  0  0
M  CHG  1  24   1
M  END
$$$$

  -OEChem-05262214473D

 56 55  0     1  0  0  0  0  0999 V2000
    0.7735   -5.8042   -2.0022 C   0  0  0  0  0  0  0  0  0  0  0  0
   -0.2086   -6.3825   -1.5519 O   0  0  0  0  0  0  0  0  0  0  0  0
    1.4751   -6.3646   -3.1946 C   0  0  0  0  0  0  0  0  0  0  0  0
    2.2765   -7.0687   -2.9186 H   0  0  0  0  0  0  0  0  0  0  0  0
    0.7988   -6.9360   -3.8504 H   0  0  0  0  0  0  0  0  0  0  0  0
    1.9556   -5.6216   -3.8511 H   0  0  0  0  0  0  0  0  0  0  0  0
    1.3322   -4.6359   -1.5106 N   0  0  0  0  0  0  0  0  0  0  0  0
    0.8124   -3.9290   -0.3698 C   0  0  2  0  0  0  0  0  0  0  0  0
    1.0666   -2.4424   -0.5818 C   0  0  0  0  0  0  0  0  0  0  0  0
    2.0598   -2.0076   -1.1610 O   0  0  0  0  0  0  0  0  0  0  0  0
    1.4560   -4.4118    0.9207 C   0  0  0  0  0  0  0  0  0  0  0  0
    2.1528   -4.2578   -1.9805 H   0  0  0  0  0  0  0  0  0  0  0  0
   -0.2667   -4.1160   -0.3467 H   0  0  0  0  0  0  0  0  0  0  0  0
    2.5374   -4.2329    0.9160 H   0  0  0  0  0  0  0  0  0  0  0  0
    1.0390   -3.8932    1.7903 H   0  0  0  0  0  0  0  0  0  0  0  0
    1.2976   -5.4871    1.0566 H   0  0  0  0  0  0  0  0  0  0  0  0
    0.0755   -1.6529   -0.0105 N   0  0  0  0  0  0  0  0  0  0  0  0
    0.1113   -0.2132   -0.0391 C   0  0  2  0  0  0  0  0  0  0  0  0
    0.1268    0.2736    1.4060 C   0  0  0  0  0  0  0  0  0  0  0  0
    0.9933   -0.0555    2.2134 O   0  0  0  0  0  0  0  0  0  0  0  0
   -1.0859    0.3778   -0.7905 C   0  0  0  0  0  0  0  0  0  0  0  0
   -1.0534    0.0533   -2.2887 C   0  0  0  0  0  0  0  0  0  0  0  0
   -2.2474    0.6440   -3.0315 C   0  0  0  0  0  0  0  0  0  0  0  0
   -2.2251    0.3128   -4.4545 N   0  3  0  0  0  0  0  0  0  0  0  0
   -3.2476    0.6919   -5.3262 C   0  0  0  0  0  0  0  0  0  0  0  0
   -3.1597    0.3416   -6.6693 N   0  0  0  0  0  0  0  0  0  0  0  0
   -4.3525    1.4122   -4.8841 N   0  0  0  0  0  0  0  0  0  0  0  0
   -0.7323   -2.1024    0.4149 H   0  0  0  0  0  0  0  0  0  0  0  0
    1.0530    0.0715   -0.5223 H   0  0  0  0  0  0  0  0  0  0  0  0
   -1.1006    1.4660   -0.6555 H   0  0  0  0  0  0  0  0  0  0  0  0
   -2.0208   -0.0006   -0.3561 H   0  0  0  0  0  0  0  0  0  0  0  0
   -0.1237    0.4350   -2.7274 H   0  0  0  0  0  0  0  0  0  0  0  0
   -1.0605   -1.0336   -2.4300 H   0  0  0  0  0  0  0  0  0  0  0  0
   -3.1757    0.2380   -2.6180 H   0  0  0  0  0  0  0  0  0  0  0  0
   -2.2667    1.7339   -2.9364 H   0  0  0  0  0  0  0  0  0  0  0  0
   -1.4411   -0.2133   -4.8364 H   0  0  0  0  0  0  0  0  0  0  0  0
   -3.8874    0.6025   -7.3305 H   0  0  0  0  0  0  0  0  0  0  0  0
   -2.3659   -0.1848   -7.0258 H   0  0  0  0  0  0  0  0  0  0  0  0
   -5.0998    1.6907   -5.5147 H   0  0  0  0  0  0  0  0  0  0  0  0
   -4.4439    1.6819   -3.9075 H   0  0  0  0  0  0  0  0  0  0  0  0
   -0.9665    1.0773    1.6981 N   0  0  0  0  0  0  0  0  0  0  0  0
   -1.2098    1.6263    3.0122 C   0  0  2  0  0  0  0  0  0  0  0  0
   -2.7169    1.7197    3.2112 C   0  0  0  0  0  0  0  0  0  0  0  0
   -3.4999    1.9698    2.2972 O   0  0  0  0  0  0  0  0  0  0  0  0
   -0.5550    2.9895    3.1723 C   0  0  0  0  0  0  0  0  0  0  0  0
   -1.6162    1.3234    0.9572 H   0  0  0  0  0  0  0  0  0  0  0  0
   -0.7888    0.9179    3.7339 H   0  0  0  0  0  0  0  0  0  0  0  0
   -0.9641    3.7127    2.4574 H   0  0  0  0  0  0  0  0  0  0  0  0
   -0.7162    3.3915    4.1780 H   0  0  0  0  0  0  0  0  0  0  0  0
    0.5248    2.9259    2.9995 H   0  0  0  0  0  0  0  0  0  0  0  0
   -3.0807    1.5335    4.5375 N   0  0  0  0  0  0  0  0  0  0  0  0
   -4.4500    1.6168    4.9894 C   0  0  0  0  0  0  0  0  0  0  0  0
   -2.3699    1.2909    5.2213 H   0  0  0  0  0  0  0  0  0  0  0  0
   -4.6649    2.6429    5.3224 H   0  0  0  0  0  0  0  0  0  0  0  0
   -5.1255    1.3505    4.1631 H   0  0  0  0  0  0  0  0  0  0  0  0
   -4.6026    0.9201    5.8268 H   0  0  0  0  0  0  0  0  0  0  0  0
  1  3  1  0  0  0  0
  1  7  1  0  0  0  0
  1  2  2  0  0  0  0
 42 43  1  0  0  0  0
 43 51  1  0  0  0  0
 43 44  2  0  0  0  0
  8  9  1  0  0  0  0
  9 17  1  0  0  0  0
  9 10  2  0  0  0  0
 18 19  1  0  0  0  0
 19 41  1  0  0  0  0
 19 20  2  0  0  0  0
 25 26  1  0  0  0  0
 25 27  1  0  0  0  0
 24 25  2  0  0  0  0
 42 45  1  0  0  0  0
  8 11  1  0  0  0  0
 51 52  1  0  0  0  0
 21 22  1  0  0  0  0
 22 23  1  0  0  0  0
 18 21  1  0  0  0  0
 23 24  1  0  0  0  0
 41 42  1  0  0  0  0
  7  8  1  0  0  0  0
 17 18  1  0  0  0  0
  3  4  1  0  0  0  0
  3  5  1  0  0  0  0
  3  6  1  0  0  0  0
 45 48  1  0  0  0  0
 45 49  1  0  0  0  0
 45 50  1  0  0  0  0
 11 14  1  0  0  0  0
 11 15  1  0  0  0  0
 11 16  1  0  0  0  0
 52 54  1  0  0  0  0
 52 55  1  0  0  0  0
 52 56  1  0  0  0  0
 22 32  1  0  0  0  0
 22 33  1  0  0  0  0
 21 30  1  0  0  0  0
 21 31  1  0  0  0  0
 23 34  1  0  0  0  0
 23 35  1  0  0  0  0
 42 47  1  0  0  0  0
  8 13  1  0  0  0  0
 18 29  1  0  0  0  0
 26 37  1  0  0  0  0
 26 38  1  0  0  0  0
 27 39  1  0  0  0  0
 27 40  1  0  0  0  0
 51 53  1  0  0  0  0
  7 12  1  0  0  0  0
 41 46  1  0  0  0  0
 17 28  1  0  0  0  0
 24 36  1  0  0  0  0
M  CHG  1  24   1
M  END
$$$$

  -OEChem-05262214473D

 56 55  0     1  0  0  0  0  0999 V2000
    0.7735   -5.8042   -2.0022 C   0  0  0  0  0  0  0  0  0  0  0  0
   -0.2086   -6.3825   -1.5519 O   0  0  0  0  0  0  0  0  0  0  0  0
    1.4751   -6.3646   -3.1946 C   0  0  0  0  0  0  0  0  0  0  0  0
    2.2765   -7.0687   -2.9186 H   0  0  0  0  0  0  0  0  0  0  0  0
    0.7988   -6.9360   -3.8504 H   0  0  0  0  0  0  0  0  0  0  0  0
    1.9556   -5.6216   -3.8511 H   0  0  0  0  0  0  0  0  0  0  0  0
    1.3322   -4.6359   -1.5106 N   0  0  0  0  0  0  0  0  0  0  0  0
    0.8124   -3.9290   -0.3698 C   0  0  2  0  0  0  0  0  0  0  0  0
    1.0666   -2.4424   -0.5818 C   0  0  0  0  0  0  0  0  0  0  0  0
    2.0598   -2.0076   -1.1610 O   0  0  0  0  0  0  0  0  0  0  0  0
    1.4560   -4.4118    0.9207 C   0  0  0  0  0  0  0  0  0  0  0  0
    2.1528   -4.2578   -1.9805 H   0  0  0  0  0  0  0  0  0  0  0  0
   -0.2667   -4.1160   -0.3467 H   0  0  0  0  0  0  0  0  0  0  0  0
    2.5374   -4.2329    0.9160 H   0  0  0  0  0  0  0  0  0  0  0  0
    1.0390   -3.8932    1.7903 H   0  0  0  0  0  0  0  0  0  0  0  0
    1.2976   -5.4871    1.0566 H   0  0  0  0  0  0  0  0  0  0  0  0
    0.0755   -1.6529   -0.0105 N   0  0  0  0  0  0  0  0  0  0  0  0
    0.1113   -0.2132   -0.0391 C   0  0  2  0  0  0  0  0  0  0  0  0
    0.1268    0.2736    1.4060 C   0  0  0  0  0  0  0  0  0  0  0  0
    1.1114    0.1735    2.1350 O   0  0  0  0  0  0  0  0  0  0  0  0
   -1.0859    0.3778   -0.7905 C   0  0  0  0  0  0  0  0  0  0  0  0
   -1.0534    0.0533   -2.2887 C   0  0  0  0  0  0  0  0  0  0  0  0
   -2.2474    0.6440   -3.0315 C   0  0  0  0  0  0  0  0  0  0  0  0
   -2.2251    0.3128   -4.4545 N   0  3  0  0  0  0  0  0  0  0  0  0
   -3.2476    0.6919   -5.3262 C   0  0  0  0  0  0  0  0  0  0  0  0
   -3.1597    0.3416   -6.6693 N   0  0  0  0  0  0  0  0  0  0  0  0
   -4.3525    1.4122   -4.8841 N   0  0  0  0  0  0  0  0  0  0  0  0
   -0.7323   -2.1024    0.4149 H   0  0  0  0  0  0  0  0  0  0  0  0
    1.0530    0.0715   -0.5223 H   0  0  0  0  0  0  0  0  0  0  0  0
   -1.1006    1.4660   -0.6555 H   0  0  0  0  0  0  0  0  0  0  0  0
   -2.0208   -0.0006   -0.3561 H   0  0  0  0  0  0  0  0  0  0  0  0
   -0.1237    0.4350   -2.7274 H   0  0  0  0  0  0  0  0  0  0  0  0
   -1.0605   -1.0336   -2.4300 H   0  0  0  0  0  0  0  0  0  0  0  0
   -3.1757    0.2380   -2.6180 H   0  0  0  0  0  0  0  0  0  0  0  0
   -2.2667    1.7339   -2.9364 H   0  0  0  0  0  0  0  0  0  0  0  0
   -1.4411   -0.2133   -4.8364 H   0  0  0  0  0  0  0  0  0  0  0  0
   -3.8874    0.6025   -7.3305 H   0  0  0  0  0  0  0  0  0  0  0  0
   -2.3659   -0.1848   -7.0258 H   0  0  0  0  0  0  0  0  0  0  0  0
   -5.0998    1.6907   -5.5147 H   0  0  0  0  0  0  0  0  0  0  0  0
   -4.4439    1.6819   -3.9075 H   0  0  0  0  0  0  0  0  0  0  0  0
   -1.1020    0.7867    1.7975 N   0  0  0  0  0  0  0  0  0  0  0  0
   -1.3627    1.2693    3.1341 C   0  0  2  0  0  0  0  0  0  0  0  0
   -2.8247    0.9916    3.4576 C   0  0  0  0  0  0  0  0  0  0  0  0
   -3.7183    1.0348    2.6145 O   0  0  0  0  0  0  0  0  0  0  0  0
   -1.0510    2.7527    3.2573 C   0  0  0  0  0  0  0  0  0  0  0  0
   -1.8514    0.8601    1.1158 H   0  0  0  0  0  0  0  0  0  0  0  0
   -0.7224    0.6915    3.8095 H   0  0  0  0  0  0  0  0  0  0  0  0
   -1.6828    3.3479    2.5880 H   0  0  0  0  0  0  0  0  0  0  0  0
   -1.2219    3.1106    4.2780 H   0  0  0  0  0  0  0  0  0  0  0  0
   -0.0068    2.9546    2.9955 H   0  0  0  0  0  0  0  0  0  0  0  0
   -3.0205    0.7320    4.8069 N   0  0  0  0  0  0  0  0  0  0  0  0
   -4.3260    0.4803    5.3710 C   0  0  0  0  0  0  0  0  0  0  0  0
   -2.2177    0.6765    5.4266 H   0  0  0  0  0  0  0  0  0  0  0  0
   -4.7576    1.4248    5.7338 H   0  0  0  0  0  0  0  0  0  0  0  0
   -4.9818    0.0500    4.5997 H   0  0  0  0  0  0  0  0  0  0  0  0
   -4.2332   -0.2262    6.2090 H   0  0  0  0  0  0  0  0  0  0  0  0
  1  3  1  0  0  0  0
  1  7  1  0  0  0  0
  1  2  2  0  0  0  0
 42 43  1  0  0  0  0
 43 51  1  0  0  0  0
 43 44  2  0  0  0  0
  8  9  1  0  0  0  0
  9 17  1  0  0  0  0
  9 10  2  0  0  0  0
 18 19  1  0  0  0  0
 19 41  1  0  0  0  0
 19 20  2  0  0  0  0
 25 26  1  0  0  0  0
 25 27  1  0  0  0  0
 24 25  2  0  0  0  0
 42 45  1  0  0  0  0
  8 11  1  0  0  0  0
 51 52  1  0  0  0  0
 21 22  1  0  0  0  0
 22 23  1  0  0  0  0
 18 21  1  0  0  0  0
 23 24  1  0  0  0  0
 41 42  1  0  0  0  0
  7  8  1  0  0  0  0
 17 18  1  0  0  0  0
  3  4  1  0  0  0  0
  3  5  1  0  0  0  0
  3  6  1  0  0  0  0
 45 48  1  0  0  0  0
 45 49  1  0  0  0  0
 45 50  1  0  0  0  0
 11 14  1  0  0  0  0
 11 15  1  0  0  0  0
 11 16  1  0  0  0  0
 52 54  1  0  0  0  0
 52 55  1  0  0  0  0
 52 56  1  0  0  0  0
 22 32  1  0  0  0  0
 22 33  1  0  0  0  0
 21 30  1  0  0  0  0
 21 31  1  0  0  0  0
 23 34  1  0  0  0  0
 23 35  1  0  0  0  0
 42 47  1  0  0  0  0
  8 13  1  0  0  0  0
 18 29  1  0  0  0  0
 26 37  1  0  0  0  0
 26 38  1  0  0  0  0
 27 39  1  0  0  0  0
 27 40  1  0  0  0  0
 51 53  1  0  0  0  0
  7 12  1  0  0  0  0
 41 46  1  0  0  0  0
 17 28  1  0  0  0  0
 24 36  1  0  0  0  0
M  CHG  1  24   1
M  END
$$$$

  -OEChem-05262214473D

 56 55  0     1  0  0  0  0  0999 V2000
    0.7735   -5.8042   -2.0022 C   0  0  0  0  0  0  0  0  0  0  0  0
   -0.2086   -6.3825   -1.5519 O   0  0  0  0  0  0  0  0  0  0  0  0
    1.4751   -6.3646   -3.1946 C   0  0  0  0  0  0  0  0  0  0  0  0
    2.2765   -7.0687   -2.9186 H   0  0  0  0  0  0  0  0  0  0  0  0
    0.7988   -6.9360   -3.8504 H   0  0  0  0  0  0  0  0  0  0  0  0
    1.9556   -5.6216   -3.8511 H   0  0  0  0  0  0  0  0  0  0  0  0
    1.3322   -4.6359   -1.5106 N   0  0  0  0  0  0  0  0  0  0  0  0
    0.8124   -3.9290   -0.3698 C   0  0  2  0  0  0  0  0  0  0  0  0
    1.0666   -2.4424   -0.5818 C   0  0  0  0  0  0  0  0  0  0  0  0
    2.0598   -2.0076   -1.1610 O   0  0  0  0  0  0  0  0  0  0  0  0
    1.4560   -4.4118    0.9207 C   0  0  0  0  0  0  0  0  0  0  0  0
    2.1528   -4.2578   -1.9805 H   0  0  0  0  0  0  0  0  0  0  0  0
   -0.2667   -4.1160   -0.3467 H   0  0  0  0  0  0  0  0  0  0  0  0
    2.5374   -4.2329    0.9160 H   0  0  0  0  0  0  0  0  0  0  0  0
    1.0390   -3.8932    1.7903 H   0  0  0  0  0  0  0  0  0  0  0  0
    1.2976   -5.4871    1.0566 H   0  0  0  0  0  0  0  0  0  0  0  0
    0.0755   -1.6529   -0.0105 N   0  0  0  0  0  0  0  0  0  0  0  0
    0.1113   -0.2132   -0.0391 C   0  0  2  0  0  0  0  0  0  0  0  0
    0.1268    0.2736    1.4060 C   0  0  0  0  0  0  0  0  0  0  0  0
    1.1629    0.4237    2.0502 O   0  0  0  0  0  0  0  0  0  0  0  0
   -1.0859    0.3778   -0.7905 C   0  0  0  0  0  0  0  0  0  0  0  0
   -1.0534    0.0533   -2.2887 C   0  0  0  0  0  0  0  0  0  0  0  0
   -2.2474    0.6440   -3.0315 C   0  0  0  0  0  0  0  0  0  0  0  0
   -2.2251    0.3128   -4.4545 N   0  3  0  0  0  0  0  0  0  0  0  0
   -3.2476    0.6919   -5.3262 C   0  0  0  0  0  0  0  0  0  0  0  0
   -3.1597    0.3416   -6.6693 N   0  0  0  0  0  0  0  0  0  0  0  0
   -4.3525    1.4122   -4.8841 N   0  0  0  0  0  0  0  0  0  0  0  0
   -0.7323   -2.1024    0.4149 H   0  0  0  0  0  0  0  0  0  0  0  0
    1.0530    0.0715   -0.5223 H   0  0  0  0  0  0  0  0  0  0  0  0
   -1.1006    1.4660   -0.6555 H   0  0  0  0  0  0  0  0  0  0  0  0
   -2.0208   -0.0006   -0.3561 H   0  0  0  0  0  0  0  0  0  0  0  0
   -0.1237    0.4350   -2.7274 H   0  0  0  0  0  0  0  0  0  0  0  0
   -1.0605   -1.0336   -2.4300 H   0  0  0  0  0  0  0  0  0  0  0  0
   -3.1757    0.2380   -2.6180 H   0  0  0  0  0  0  0  0  0  0  0  0
   -2.2667    1.7339   -2.9364 H   0  0  0  0  0  0  0  0  0  0  0  0
   -1.4411   -0.2133   -4.8364 H   0  0  0  0  0  0  0  0  0  0  0  0
   -3.8874    0.6025   -7.3305 H   0  0  0  0  0  0  0  0  0  0  0  0
   -2.3659   -0.1848   -7.0258 H   0  0  0  0  0  0  0  0  0  0  0  0
   -5.0998    1.6907   -5.5147 H   0  0  0  0  0  0  0  0  0  0  0  0
   -4.4439    1.6819   -3.9075 H   0  0  0  0  0  0  0  0  0  0  0  0
   -1.1534    0.4725    1.9039 N   0  0  0  0  0  0  0  0  0  0  0  0
   -1.4127    0.8867    3.2635 C   0  0  2  0  0  0  0  0  0  0  0  0
   -2.7300    0.2612    3.7027 C   0  0  0  0  0  0  0  0  0  0  0  0
   -3.6736    0.0774    2.9366 O   0  0  0  0  0  0  0  0  0  0  0  0
   -1.4651    2.4021    3.3799 C   0  0  0  0  0  0  0  0  0  0  0  0
   -1.9518    0.3546    1.2872 H   0  0  0  0  0  0  0  0  0  0  0  0
   -0.5965    0.4888    3.8764 H   0  0  0  0  0  0  0  0  0  0  0  0
   -2.2768    2.8189    2.7725 H   0  0  0  0  0  0  0  0  0  0  0  0
   -1.6332    2.7149    4.4157 H   0  0  0  0  0  0  0  0  0  0  0  0
   -0.5276    2.8521    3.0356 H   0  0  0  0  0  0  0  0  0  0  0  0
   -2.7435   -0.0281    5.0600 N   0  0  0  0  0  0  0  0  0  0  0  0
   -3.8961   -0.5881    5.7263 C   0  0  0  0  0  0  0  0  0  0  0  0
   -1.9030    0.1198    5.6108 H   0  0  0  0  0  0  0  0  0  0  0  0
   -4.5144    0.2244    6.1356 H   0  0  0  0  0  0  0  0  0  0  0  0
   -4.4880   -1.1720    5.0062 H   0  0  0  0  0  0  0  0  0  0  0  0
   -3.5637   -1.2437    6.5447 H   0  0  0  0  0  0  0  0  0  0  0  0
  1  3  1  0  0  0  0
  1  7  1  0  0  0  0
  1  2  2  0  0  0  0
 42 43  1  0  0  0  0
 43 51  1  0  0  0  0
 43 44  2  0  0  0  0
  8  9  1  0  0  0  0
  9 17  1  0  0  0  0
  9 10  2  0  0  0  0
 18 19  1  0  0  0  0
 19 41  1  0  0  0  0
 19 20  2  0  0  0  0
 25 26  1  0  0  0  0
 25 27  1  0  0  0  0
 24 25  2  0  0  0  0
 42 45  1  0  0  0  0
  8 11  1  0  0  0  0
 51 52  1  0  0  0  0
 21 22  1  0  0  0  0
 22 23  1  0  0  0  0
 18 21  1  0  0  0  0
 23 24  1  0  0  0  0
 41 42  1  0  0  0  0
  7  8  1  0  0  0  0
 17 18  1  0  0  0  0
  3  4  1  0  0  0  0
  3  5  1  0  0  0  0
  3  6  1  0  0  0  0
 45 48  1  0  0  0  0
 45 49  1  0  0  0  0
 45 50  1  0  0  0  0
 11 14  1  0  0  0  0
 11 15  1  0  0  0  0
 11 16  1  0  0  0  0
 52 54  1  0  0  0  0
 52 55  1  0  0  0  0
 52 56  1  0  0  0  0
 22 32  1  0  0  0  0
 22 33  1  0  0  0  0
 21 30  1  0  0  0  0
 21 31  1  0  0  0  0
 23 34  1  0  0  0  0
 23 35  1  0  0  0  0
 42 47  1  0  0  0  0
  8 13  1  0  0  0  0
 18 29  1  0  0  0  0
 26 37  1  0  0  0  0
 26 38  1  0  0  0  0
 27 39  1  0  0  0  0
 27 40  1  0  0  0  0
 51 53  1  0  0  0  0
  7 12  1  0  0  0  0
 41 46  1  0  0  0  0
 17 28  1  0  0  0  0
 24 36  1  0  0  0  0
M  CHG  1  24   1
M  END
$$$$

  -OEChem-05262214473D

 56 55  0     1  0  0  0  0  0999 V2000
    0.7735   -5.8042   -2.0022 C   0  0  0  0  0  0  0  0  0  0  0  0
   -0.2086   -6.3825   -1.5519 O   0  0  0  0  0  0  0  0  0  0  0  0
    1.4751   -6.3646   -3.1946 C   0  0  0  0  0  0  0  0  0  0  0  0
    2.2765   -7.0687   -2.9186 H   0  0  0  0  0  0  0  0  0  0  0  0
    0.7988   -6.9360   -3.8504 H   0  0  0  0  0  0  0  0  0  0  0  0
    1.9556   -5.6216   -3.8511 H   0  0  0  0  0  0  0  0  0  0  0  0
    1.3322   -4.6359   -1.5106 N   0  0  0  0  0  0  0  0  0  0  0  0
    0.8124   -3.9290   -0.3698 C   0  0  2  0  0  0  0  0  0  0  0  0
    1.0666   -2.4424   -0.5818 C   0  0  0  0  0  0  0  0  0  0  0  0
    2.0598   -2.0076   -1.1610 O   0  0  0  0  0  0  0  0  0  0  0  0
    1.4560   -4.4118    0.9207 C   0  0  0  0  0  0  0  0  0  0  0  0
    2.1528   -4.2578   -1.9805 H   0  0  0  0  0  0  0  0  0  0  0  0
   -0.2667   -4.1160   -0.3467 H   0  0  0  0  0  0  0  0  0  0  0  0
    2.5374   -4.2329    0.9160 H   0  0  0  0  0  0  0  0  0  0  0  0
    1.0390   -3.8932    1.7903 H   0  0  0  0  0  0  0  0  0  0  0  0
    1.2976   -5.4871    1.0566 H   0  0  0  0  0  0  0  0  0  0  0  0
    0.0755   -1.6529   -0.0105 N   0  0  0  0  0  0  0  0  0  0  0  0
    0.1113   -0.2132   -0.0391 C   0  0  2  0  0  0  0  0  0  0  0  0
    0.1268    0.2736    1.4060 C   0  0  0  0  0  0  0  0  0  0  0  0
    1.1443    0.6783    1.9646 O   0  0  0  0  0  0  0  0  0  0  0  0
   -1.0859    0.3778   -0.7905 C   0  0  0  0  0  0  0  0  0  0  0  0
   -1.0534    0.0533   -2.2887 C   0  0  0  0  0  0  0  0  0  0  0  0
   -2.2474    0.6440   -3.0315 C   0  0  0  0  0  0  0  0  0  0  0  0
   -2.2251    0.3128   -4.4545 N   0  3  0  0  0  0  0  0  0  0  0  0
   -3.2476    0.6919   -5.3262 C   0  0  0  0  0  0  0  0  0  0  0  0
   -3.1597    0.3416   -6.6693 N   0  0  0  0  0  0  0  0  0  0  0  0
   -4.3525    1.4122   -4.8841 N   0  0  0  0  0  0  0  0  0  0  0  0
   -0.7323   -2.1024    0.4149 H   0  0  0  0  0  0  0  0  0  0  0  0
    1.0530    0.0715   -0.5223 H   0  0  0  0  0  0  0  0  0  0  0  0
   -1.1006    1.4660   -0.6555 H   0  0  0  0  0  0  0  0  0  0  0  0
   -2.0208   -0.0006   -0.3561 H   0  0  0  0  0  0  0  0  0  0  0  0
   -0.1237    0.4350   -2.7274 H   0  0  0  0  0  0  0  0  0  0  0  0
   -1.0605   -1.0336   -2.4300 H   0  0  0  0  0  0  0  0  0  0  0  0
   -3.1757    0.2380   -2.6180 H   0  0  0  0  0  0  0  0  0  0  0  0
   -2.2667    1.7339   -2.9364 H   0  0  0  0  0  0  0  0  0  0  0  0
   -1.4411   -0.2133   -4.8364 H   0  0  0  0  0  0  0  0  0  0  0  0
   -3.8874    0.6025   -7.3305 H   0  0  0  0  0  0  0  0  0  0  0  0
   -2.3659   -0.1848   -7.0258 H   0  0  0  0  0  0  0  0  0  0  0  0
   -5.0998    1.6907   -5.5147 H   0  0  0  0  0  0  0  0  0  0  0  0
   -4.4439    1.6819   -3.9075 H   0  0  0  0  0  0  0  0  0  0  0  0
   -1.1173    0.1561    2.0101 N   0  0  0  0  0  0  0  0  0  0  0  0
   -1.3564    0.5045    3.3917 C   0  0  2  0  0  0  0  0  0  0  0  0
   -2.4391   -0.4218    3.9297 C   0  0  0  0  0  0  0  0  0  0  0  0
   -3.3690   -0.8373    3.2415 O   0  0  0  0  0  0  0  0  0  0  0  0
   -1.7689    1.9616    3.5315 C   0  0  0  0  0  0  0  0  0  0  0  0
   -1.9107   -0.1589    1.4597 H   0  0  0  0  0  0  0  0  0  0  0  0
   -0.4197    0.3238    3.9302 H   0  0  0  0  0  0  0  0  0  0  0  0
   -2.7055    2.1618    2.9985 H   0  0  0  0  0  0  0  0  0  0  0  0
   -1.9220    2.2316    4.5816 H   0  0  0  0  0  0  0  0  0  0  0  0
   -1.0023    2.6251    3.1171 H   0  0  0  0  0  0  0  0  0  0  0  0
   -2.2687   -0.6950    5.2796 N   0  0  0  0  0  0  0  0  0  0  0  0
   -3.1893   -1.5156    6.0313 C   0  0  0  0  0  0  0  0  0  0  0  0
   -1.4474   -0.3412    5.7613 H   0  0  0  0  0  0  0  0  0  0  0  0
   -3.9518   -0.8765    6.5005 H   0  0  0  0  0  0  0  0  0  0  0  0
   -3.6777   -2.2324    5.3548 H   0  0  0  0  0  0  0  0  0  0  0  0
   -2.6397   -2.0633    6.8110 H   0  0  0  0  0  0  0  0  0  0  0  0
  1  3  1  0  0  0  0
  1  7  1  0  0  0  0
  1  2  2  0  0  0  0
 42 43  1  0  0  0  0
 43 51  1  0  0  0  0
 43 44  2  0  0  0  0
  8  9  1  0  0  0  0
  9 17  1  0  0  0  0
  9 10  2  0  0  0  0
 18 19  1  0  0  0  0
 19 41  1  0  0  0  0
 19 20  2  0  0  0  0
 25 26  1  0  0  0  0
 25 27  1  0  0  0  0
 24 25  2  0  0  0  0
 42 45  1  0  0  0  0
  8 11  1  0  0  0  0
 51 52  1  0  0  0  0
 21 22  1  0  0  0  0
 22 23  1  0  0  0  0
 18 21  1  0  0  0  0
 23 24  1  0  0  0  0
 41 42  1  0  0  0  0
  7  8  1  0  0  0  0
 17 18  1  0  0  0  0
  3  4  1  0  0  0  0
  3  5  1  0  0  0  0
  3  6  1  0  0  0  0
 45 48  1  0  0  0  0
 45 49  1  0  0  0  0
 45 50  1  0  0  0  0
 11 14  1  0  0  0  0
 11 15  1  0  0  0  0
 11 16  1  0  0  0  0
 52 54  1  0  0  0  0
 52 55  1  0  0  0  0
 52 56  1  0  0  0  0
 22 32  1  0  0  0  0
 22 33  1  0  0  0  0
 21 30  1  0  0  0  0
 21 31  1  0  0  0  0
 23 34  1  0  0  0  0
 23 35  1  0  0  0  0
 42 47  1  0  0  0  0
  8 13  1  0  0  0  0
 18 29  1  0  0  0  0
 26 37  1  0  0  0  0
 26 38  1  0  0  0  0
 27 39  1  0  0  0  0
 27 40  1  0  0  0  0
 51 53  1  0  0  0  0
  7 12  1  0  0  0  0
 41 46  1  0  0  0  0
 17 28  1  0  0  0  0
 24 36  1  0  0  0  0
M  CHG  1  24   1
M  END
$$$$

  -OEChem-05262214473D

 56 55  0     1  0  0  0  0  0999 V2000
    0.7735   -5.8042   -2.0022 C   0  0  0  0  0  0  0  0  0  0  0  0
   -0.2086   -6.3825   -1.5519 O   0  0  0  0  0  0  0  0  0  0  0  0
    1.4751   -6.3646   -3.1946 C   0  0  0  0  0  0  0  0  0  0  0  0
    2.2765   -7.0687   -2.9186 H   0  0  0  0  0  0  0  0  0  0  0  0
    0.7988   -6.9360   -3.8504 H   0  0  0  0  0  0  0  0  0  0  0  0
    1.9556   -5.6216   -3.8511 H   0  0  0  0  0  0  0  0  0  0  0  0
    1.3322   -4.6359   -1.5106 N   0  0  0  0  0  0  0  0  0  0  0  0
    0.8124   -3.9290   -0.3698 C   0  0  2  0  0  0  0  0  0  0  0  0
    1.0666   -2.4424   -0.5818 C   0  0  0  0  0  0  0  0  0  0  0  0
    2.0598   -2.0076   -1.1610 O   0  0  0  0  0  0  0  0  0  0  0  0
    1.4560   -4.4118    0.9207 C   0  0  0  0  0  0  0  0  0  0  0  0
    2.1528   -4.2578   -1.9805 H   0  0  0  0  0  0  0  0  0  0  0  0
   -0.2667   -4.1160   -0.3467 H   0  0  0  0  0  0  0  0  0  0  0  0
    2.5374   -4.2329    0.9160 H   0  0  0  0  0  0  0  0  0  0  0  0
    1.0390   -3.8932    1.7903 H   0  0  0  0  0  0  0  0  0  0  0  0
    1.2976   -5.4871    1.0566 H   0  0  0  0  0  0  0  0  0  0  0  0
    0.0755   -1.6529   -0.0105 N   0  0  0  0  0  0  0  0  0  0  0  0
    0.1113   -0.2132   -0.0391 C   0  0  2  0  0  0  0  0  0  0  0  0
    0.1268    0.2736    1.4060 C   0  0  0  0  0  0  0  0  0  0  0  0
    1.0567    0.9199    1.8841 O   0  0  0  0  0  0  0  0  0  0  0  0
   -1.0859    0.3778   -0.7905 C   0  0  0  0  0  0  0  0  0  0  0  0
   -1.0534    0.0533   -2.2887 C   0  0  0  0  0  0  0  0  0  0  0  0
   -2.2474    0.6440   -3.0315 C   0  0  0  0  0  0  0  0  0  0  0  0
   -2.2251    0.3128   -4.4545 N   0  3  0  0  0  0  0  0  0  0  0  0
   -3.2476    0.6919   -5.3262 C   0  0  0  0  0  0  0  0  0  0  0  0
   -3.1597    0.3416   -6.6693 N   0  0  0  0  0  0  0  0  0  0  0  0
   -4.3525    1.4122   -4.8841 N   0  0  0  0  0  0  0  0  0  0  0  0
   -0.7323   -2.1024    0.4149 H   0  0  0  0  0  0  0  0  0  0  0  0
    1.0530    0.0715   -0.5223 H   0  0  0  0  0  0  0  0  0  0  0  0
   -1.1006    1.4660   -0.6555 H   0  0  0  0  0  0  0  0  0  0  0  0
   -2.0208   -0.0006   -0.3561 H   0  0  0  0  0  0  0  0  0  0  0  0
   -0.1237    0.4350   -2.7274 H   0  0  0  0  0  0  0  0  0  0  0  0
   -1.0605   -1.0336   -2.4300 H   0  0  0  0  0  0  0  0  0  0  0  0
   -3.1757    0.2380   -2.6180 H   0  0  0  0  0  0  0  0  0  0  0  0
   -2.2667    1.7339   -2.9364 H   0  0  0  0  0  0  0  0  0  0  0  0
   -1.4411   -0.2133   -4.8364 H   0  0  0  0  0  0  0  0  0  0  0  0
   -3.8874    0.6025   -7.3305 H   0  0  0  0  0  0  0  0  0  0  0  0
   -2.3659   -0.1848   -7.0258 H   0  0  0  0  0  0  0  0  0  0  0  0
   -5.0998    1.6907   -5.5147 H   0  0  0  0  0  0  0  0  0  0  0  0
   -4.4439    1.6819   -3.9075 H   0  0  0  0  0  0  0  0  0  0  0  0
   -0.9959   -0.1409    2.1089 N   0  0  0  0  0  0  0  0  0  0  0  0
   -1.1978    0.1488    3.5099 C   0  0  2  0  0  0  0  0  0  0  0  0
   -1.9718   -1.0106    4.1231 C   0  0  0  0  0  0  0  0  0  0  0  0
   -2.8253   -1.6470    3.5085 O   0  0  0  0  0  0  0  0  0  0  0  0
   -1.9418    1.4611    3.7020 C   0  0  0  0  0  0  0  0  0  0  0  0
   -1.7308   -0.6451    1.6216 H   0  0  0  0  0  0  0  0  0  0  0  0
   -0.2040    0.2076    3.9670 H   0  0  0  0  0  0  0  0  0  0  0  0
   -2.9398    1.4213    3.2504 H   0  0  0  0  0  0  0  0  0  0  0  0
   -2.0688    1.6934    4.7645 H   0  0  0  0  0  0  0  0  0  0  0  0
   -1.3983    2.2893    3.2345 H   0  0  0  0  0  0  0  0  0  0  0  0
   -1.6282   -1.2234    5.4508 N   0  0  0  0  0  0  0  0  0  0  0  0
   -2.2540   -2.2389    6.2650 C   0  0  0  0  0  0  0  0  0  0  0  0
   -0.8817   -0.6751    5.8677 H   0  0  0  0  0  0  0  0  0  0  0  0
   -3.1083   -1.8029    6.8036 H   0  0  0  0  0  0  0  0  0  0  0  0
   -2.6062   -3.0589    5.6218 H   0  0  0  0  0  0  0  0  0  0  0  0
   -1.5242   -2.6290    6.9897 H   0  0  0  0  0  0  0  0  0  0  0  0
  1  3  1  0  0  0  0
  1  7  1  0  0  0  0
  1  2  2  0  0  0  0
 42 43  1  0  0  0  0
 43 51  1  0  0  0  0
 43 44  2  0  0  0  0
  8  9  1  0  0  0  0
  9 17  1  0  0  0  0
  9 10  2  0  0  0  0
 18 19  1  0  0  0  0
 19 41  1  0  0  0  0
 19 20  2  0  0  0  0
 25 26  1  0  0  0  0
 25 27  1  0  0  0  0
 24 25  2  0  0  0  0
 42 45  1  0  0  0  0
  8 11  1  0  0  0  0
 51 52  1  0  0  0  0
 21 22  1  0  0  0  0
 22 23  1  0  0  0  0
 18 21  1  0  0  0  0
 23 24  1  0  0  0  0
 41 42  1  0  0  0  0
  7  8  1  0  0  0  0
 17 18  1  0  0  0  0
  3  4  1  0  0  0  0
  3  5  1  0  0  0  0
  3  6  1  0  0  0  0
 45 48  1  0  0  0  0
 45 49  1  0  0  0  0
 45 50  1  0  0  0  0
 11 14  1  0  0  0  0
 11 15  1  0  0  0  0
 11 16  1  0  0  0  0
 52 54  1  0  0  0  0
 52 55  1  0  0  0  0
 52 56  1  0  0  0  0
 22 32  1  0  0  0  0
 22 33  1  0  0  0  0
 21 30  1  0  0  0  0
 21 31  1  0  0  0  0
 23 34  1  0  0  0  0
 23 35  1  0  0  0  0
 42 47  1  0  0  0  0
  8 13  1  0  0  0  0
 18 29  1  0  0  0  0
 26 37  1  0  0  0  0
 26 38  1  0  0  0  0
 27 39  1  0  0  0  0
 27 40  1  0  0  0  0
 51 53  1  0  0  0  0
  7 12  1  0  0  0  0
 41 46  1  0  0  0  0
 17 28  1  0  0  0  0
 24 36  1  0  0  0  0
M  CHG  1  24   1
M  END
$$$$

  -OEChem-05262214473D

 56 55  0     1  0  0  0  0  0999 V2000
    0.7735   -5.8042   -2.0022 C   0  0  0  0  0  0  0  0  0  0  0  0
   -0.2086   -6.3825   -1.5519 O   0  0  0  0  0  0  0  0  0  0  0  0
    1.4751   -6.3646   -3.1946 C   0  0  0  0  0  0  0  0  0  0  0  0
    2.2765   -7.0687   -2.9186 H   0  0  0  0  0  0  0  0  0  0  0  0
    0.7988   -6.9360   -3.8504 H   0  0  0  0  0  0  0  0  0  0  0  0
    1.9556   -5.6216   -3.8511 H   0  0  0  0  0  0  0  0  0  0  0  0
    1.3322   -4.6359   -1.5106 N   0  0  0  0  0  0  0  0  0  0  0  0
    0.8124   -3.9290   -0.3698 C   0  0  2  0  0  0  0  0  0  0  0  0
    1.0666   -2.4424   -0.5818 C   0  0  0  0  0  0  0  0  0  0  0  0
    2.0598   -2.0076   -1.1610 O   0  0  0  0  0  0  0  0  0  0  0  0
    1.4560   -4.4118    0.9207 C   0  0  0  0  0  0  0  0  0  0  0  0
    2.1528   -4.2578   -1.9805 H   0  0  0  0  0  0  0  0  0  0  0  0
   -0.2667   -4.1160   -0.3467 H   0  0  0  0  0  0  0  0  0  0  0  0
    2.5374   -4.2329    0.9160 H   0  0  0  0  0  0  0  0  0  0  0  0
    1.0390   -3.8932    1.7903 H   0  0  0  0  0  0  0  0  0  0  0  0
    1.2976   -5.4871    1.0566 H   0  0  0  0  0  0  0  0  0  0  0  0
    0.0755   -1.6529   -0.0105 N   0  0  0  0  0  0  0  0  0  0  0  0
    0.1113   -0.2132   -0.0391 C   0  0  2  0  0  0  0  0  0  0  0  0
    0.1268    0.2736    1.4060 C   0  0  0  0  0  0  0  0  0  0  0  0
    0.9062    1.1320    1.8143 O   0  0  0  0  0  0  0  0  0  0  0  0
   -1.0859    0.3778   -0.7905 C   0  0  0  0  0  0  0  0  0  0  0  0
   -1.0534    0.0533   -2.2887 C   0  0  0  0  0  0  0  0  0  0  0  0
   -2.2474    0.6440   -3.0315 C   0  0  0  0  0  0  0  0  0  0  0  0
   -2.2251    0.3128   -4.4545 N   0  3  0  0  0  0  0  0  0  0  0  0
   -3.2476    0.6919   -5.3262 C   0  0  0  0  0  0  0  0  0  0  0  0
   -3.1597    0.3416   -6.6693 N   0  0  0  0  0  0  0  0  0  0  0  0
   -4.3525    1.4122   -4.8841 N   0  0  0  0  0  0  0  0  0  0  0  0
   -0.7323   -2.1024    0.4149 H   0  0  0  0  0  0  0  0  0  0  0  0
    1.0530    0.0715   -0.5223 H   0  0  0  0  0  0  0  0  0  0  0  0
   -1.1006    1.4660   -0.6555 H   0  0  0  0  0  0  0  0  0  0  0  0
   -2.0208   -0.0006   -0.3561 H   0  0  0  0  0  0  0  0  0  0  0  0
   -0.1237    0.4350   -2.7274 H   0  0  0  0  0  0  0  0  0  0  0  0
   -1.0605   -1.0336   -2.4300 H   0  0  0  0  0  0  0  0  0  0  0  0
   -3.1757    0.2380   -2.6180 H   0  0  0  0  0  0  0  0  0  0  0  0
   -2.2667    1.7339   -2.9364 H   0  0  0  0  0  0  0  0  0  0  0  0
   -1.4411   -0.2133   -4.8364 H   0  0  0  0  0  0  0  0  0  0  0  0
   -3.8874    0.6025   -7.3305 H   0  0  0  0  0  0  0  0  0  0  0  0
   -2.3659   -0.1848   -7.0258 H   0  0  0  0  0  0  0  0  0  0  0  0
   -5.0998    1.6907   -5.5147 H   0  0  0  0  0  0  0  0  0  0  0  0
   -4.4439    1.6819   -3.9075 H   0  0  0  0  0  0  0  0  0  0  0  0
   -0.7978   -0.3983    2.1935 N   0  0  0  0  0  0  0  0  0  0  0  0
   -0.9475   -0.1562    3.6099 C   0  0  2  0  0  0  0  0  0  0  0  0
   -1.3601   -1.4654    4.2697 C   0  0  0  0  0  0  0  0  0  0  0  0
   -2.0795   -2.2964    3.7193 O   0  0  0  0  0  0  0  0  0  0  0  0
   -1.9720    0.9349    3.8796 C   0  0  0  0  0  0  0  0  0  0  0  0
   -1.4244   -1.0712    1.7619 H   0  0  0  0  0  0  0  0  0  0  0  0
    0.0359    0.1481    3.9845 H   0  0  0  0  0  0  0  0  0  0  0  0
   -2.9636    0.6479    3.5112 H   0  0  0  0  0  0  0  0  0  0  0  0
   -2.0634    1.1370    4.9519 H   0  0  0  0  0  0  0  0  0  0  0  0
   -1.6888    1.8675    3.3797 H   0  0  0  0  0  0  0  0  0  0  0  0
   -0.8659   -1.5770    5.5618 N   0  0  0  0  0  0  0  0  0  0  0  0
   -1.1539   -2.7089    6.4116 C   0  0  0  0  0  0  0  0  0  0  0  0
   -0.2447   -0.8592    5.9230 H   0  0  0  0  0  0  0  0  0  0  0  0
   -2.0412   -2.4916    7.0243 H   0  0  0  0  0  0  0  0  0  0  0  0
   -1.3464   -3.5950    5.7890 H   0  0  0  0  0  0  0  0  0  0  0  0
   -0.2932   -2.9023    7.0686 H   0  0  0  0  0  0  0  0  0  0  0  0
  1  3  1  0  0  0  0
  1  7  1  0  0  0  0
  1  2  2  0  0  0  0
 42 43  1  0  0  0  0
 43 51  1  0  0  0  0
 43 44  2  0  0  0  0
  8  9  1  0  0  0  0
  9 17  1  0  0  0  0
  9 10  2  0  0  0  0
 18 19  1  0  0  0  0
 19 41  1  0  0  0  0
 19 20  2  0  0  0  0
 25 26  1  0  0  0  0
 25 27  1  0  0  0  0
 24 25  2  0  0  0  0
 42 45  1  0  0  0  0
  8 11  1  0  0  0  0
 51 52  1  0  0  0  0
 21 22  1  0  0  0  0
 22 23  1  0  0  0  0
 18 21  1  0  0  0  0
 23 24  1  0  0  0  0
 41 42  1  0  0  0  0
  7  8  1  0  0  0  0
 17 18  1  0  0  0  0
  3  4  1  0  0  0  0
  3  5  1  0  0  0  0
  3  6  1  0  0  0  0
 45 48  1  0  0  0  0
 45 49  1  0  0  0  0
 45 50  1  0  0  0  0
 11 14  1  0  0  0  0
 11 15  1  0  0  0  0
 11 16  1  0  0  0  0
 52 54  1  0  0  0  0
 52 55  1  0  0  0  0
 52 56  1  0  0  0  0
 22 32  1  0  0  0  0
 22 33  1  0  0  0  0
 21 30  1  0  0  0  0
 21 31  1  0  0  0  0
 23 34  1  0  0  0  0
 23 35  1  0  0  0  0
 42 47  1  0  0  0  0
  8 13  1  0  0  0  0
 18 29  1  0  0  0  0
 26 37  1  0  0  0  0
 26 38  1  0  0  0  0
 27 39  1  0  0  0  0
 27 40  1  0  0  0  0
 51 53  1  0  0  0  0
  7 12  1  0  0  0  0
 41 46  1  0  0  0  0
 17 28  1  0  0  0  0
 24 36  1  0  0  0  0
M  CHG  1  24   1
M  END
$$$$

  -OEChem-05262214473D

 56 55  0     1  0  0  0  0  0999 V2000
    0.7735   -5.8042   -2.0022 C   0  0  0  0  0  0  0  0  0  0  0  0
   -0.2086   -6.3825   -1.5519 O   0  0  0  0  0  0  0  0  0  0  0  0
    1.4751   -6.3646   -3.1946 C   0  0  0  0  0  0  0  0  0  0  0  0
    2.2765   -7.0687   -2.9186 H   0  0  0  0  0  0  0  0  0  0  0  0
    0.7988   -6.9360   -3.8504 H   0  0  0  0  0  0  0  0  0  0  0  0
    1.9556   -5.6216   -3.8511 H   0  0  0  0  0  0  0  0  0  0  0  0
    1.3322   -4.6359   -1.5106 N   0  0  0  0  0  0  0  0  0  0  0  0
    0.8124   -3.9290   -0.3698 C   0  0  2  0  0  0  0  0  0  0  0  0
    1.0666   -2.4424   -0.5818 C   0  0  0  0  0  0  0  0  0  0  0  0
    2.0598   -2.0076   -1.1610 O   0  0  0  0  0  0  0  0  0  0  0  0
    1.4560   -4.4118    0.9207 C   0  0  0  0  0  0  0  0  0  0  0  0
    2.1528   -4.2578   -1.9805 H   0  0  0  0  0  0  0  0  0  0  0  0
   -0.2667   -4.1160   -0.3467 H   0  0  0  0  0  0  0  0  0  0  0  0
    2.5374   -4.2329    0.9160 H   0  0  0  0  0  0  0  0  0  0  0  0
    1.0390   -3.8932    1.7903 H   0  0  0  0  0  0  0  0  0  0  0  0
    1.2976   -5.4871    1.0566 H   0  0  0  0  0  0  0  0  0  0  0  0
    0.0755   -1.6529   -0.0105 N   0  0  0  0  0  0  0  0  0  0  0  0
    0.1113   -0.2132   -0.0391 C   0  0  2  0  0  0  0  0  0  0  0  0
    0.1268    0.2736    1.4060 C   0  0  0  0  0  0  0  0  0  0  0  0
    0.7031    1.3001    1.7598 O   0  0  0  0  0  0  0  0  0  0  0  0
   -1.0859    0.3778   -0.7905 C   0  0  0  0  0  0  0  0  0  0  0  0
   -1.0534    0.0533   -2.2887 C   0  0  0  0  0  0  0  0  0  0  0  0
   -2.2474    0.6440   -3.0315 C   0  0  0  0  0  0  0  0  0  0  0  0
   -2.2251    0.3128   -4.4545 N   0  3  0  0  0  0  0  0  0  0  0  0
   -3.2476    0.6919   -5.3262 C   0  0  0  0  0  0  0  0  0  0  0  0
   -3.1597    0.3416   -6.6693 N   0  0  0  0  0  0  0  0  0  0  0  0
   -4.3525    1.4122   -4.8841 N   0  0  0  0  0  0  0  0  0  0  0  0
   -0.7323   -2.1024    0.4149 H   0  0  0  0  0  0  0  0  0  0  0  0
    1.0530    0.0715   -0.5223 H   0  0  0  0  0  0  0  0  0  0  0  0
   -1.1006    1.4660   -0.6555 H   0  0  0  0  0  0  0  0  0  0  0  0
   -2.0208   -0.0006   -0.3561 H   0  0  0  0  0  0  0  0  0  0  0  0
   -0.1237    0.4350   -2.7274 H   0  0  0  0  0  0  0  0  0  0  0  0
   -1.0605   -1.0336   -2.4300 H   0  0  0  0  0  0  0  0  0  0  0  0
   -3.1757    0.2380   -2.6180 H   0  0  0  0  0  0  0  0  0  0  0  0
   -2.2667    1.7339   -2.9364 H   0  0  0  0  0  0  0  0  0  0  0  0
   -1.4411   -0.2133   -4.8364 H   0  0  0  0  0  0  0  0  0  0  0  0
   -3.8874    0.6025   -7.3305 H   0  0  0  0  0  0  0  0  0  0  0  0
   -2.3659   -0.1848   -7.0258 H   0  0  0  0  0  0  0  0  0  0  0  0
   -5.0998    1.6907   -5.5147 H   0  0  0  0  0  0  0  0  0  0  0  0
   -4.4439    1.6819   -3.9075 H   0  0  0  0  0  0  0  0  0  0  0  0
   -0.5362   -0.5985    2.2581 N   0  0  0  0  0  0  0  0  0  0  0  0
   -0.6227   -0.3897    3.6851 C   0  0  2  0  0  0  0  0  0  0  0  0
   -0.6456   -1.7549    4.3597 C   0  0  0  0  0  0  0  0  0  0  0  0
   -1.1824   -2.7413    3.8597 O   0  0  0  0  0  0  0  0  0  0  0  0
   -1.8574    0.4187    4.0523 C   0  0  0  0  0  0  0  0  0  0  0  0
   -1.0124   -1.4079    1.8710 H   0  0  0  0  0  0  0  0  0  0  0  0
    0.2837    0.1495    3.9814 H   0  0  0  0  0  0  0  0  0  0  0  0
   -2.7755   -0.1056    3.7631 H   0  0  0  0  0  0  0  0  0  0  0  0
   -1.9063    0.6005    5.1310 H   0  0  0  0  0  0  0  0  0  0  0  0
   -1.8540    1.3884    3.5428 H   0  0  0  0  0  0  0  0  0  0  0  0
   -0.0337   -1.7320    5.6052 N   0  0  0  0  0  0  0  0  0  0  0  0
    0.0361   -2.8933    6.4610 C   0  0  0  0  0  0  0  0  0  0  0  0
    0.4204   -0.8809    5.9232 H   0  0  0  0  0  0  0  0  0  0  0  0
   -0.8234   -2.8957    7.1475 H   0  0  0  0  0  0  0  0  0  0  0  0
    0.0158   -3.8044    5.8450 H   0  0  0  0  0  0  0  0  0  0  0  0
    0.9695   -2.8646    7.0425 H   0  0  0  0  0  0  0  0  0  0  0  0
  1  3  1  0  0  0  0
  1  7  1  0  0  0  0
  1  2  2  0  0  0  0
 42 43  1  0  0  0  0
 43 51  1  0  0  0  0
 43 44  2  0  0  0  0
  8  9  1  0  0  0  0
  9 17  1  0  0  0  0
  9 10  2  0  0  0  0
 18 19  1  0  0  0  0
 19 41  1  0  0  0  0
 19 20  2  0  0  0  0
 25 26  1  0  0  0  0
 25 27  1  0  0  0  0
 24 25  2  0  0  0  0
 42 45  1  0  0  0  0
  8 11  1  0  0  0  0
 51 52  1  0  0  0  0
 21 22  1  0  0  0  0
 22 23  1  0  0  0  0
 18 21  1  0  0  0  0
 23 24  1  0  0  0  0
 41 42  1  0  0  0  0
  7  8  1  0  0  0  0
 17 18  1  0  0  0  0
  3  4  1  0  0  0  0
  3  5  1  0  0  0  0
  3  6  1  0  0  0  0
 45 48  1  0  0  0  0
 45 49  1  0  0  0  0
 45 50  1  0  0  0  0
 11 14  1  0  0  0  0
 11 15  1  0  0  0  0
 11 16  1  0  0  0  0
 52 54  1  0  0  0  0
 52 55  1  0  0  0  0
 52 56  1  0  0  0  0
 22 32  1  0  0  0  0
 22 33  1  0  0  0  0
 21 30  1  0  0  0  0
 21 31  1  0  0  0  0
 23 34  1  0  0  0  0
 23 35  1  0  0  0  0
 42 47  1  0  0  0  0
  8 13  1  0  0  0  0
 18 29  1  0  0  0  0
 26 37  1  0  0  0  0
 26 38  1  0  0  0  0
 27 39  1  0  0  0  0
 27 40  1  0  0  0  0
 51 53  1  0  0  0  0
  7 12  1  0  0  0  0
 41 46  1  0  0  0  0
 17 28  1  0  0  0  0
 24 36  1  0  0  0  0
M  CHG  1  24   1
M  END
$$$$

  -OEChem-05262214473D

 56 55  0     1  0  0  0  0  0999 V2000
    0.7735   -5.8042   -2.0022 C   0  0  0  0  0  0  0  0  0  0  0  0
   -0.2086   -6.3825   -1.5519 O   0  0  0  0  0  0  0  0  0  0  0  0
    1.4751   -6.3646   -3.1946 C   0  0  0  0  0  0  0  0  0  0  0  0
    2.2765   -7.0687   -2.9186 H   0  0  0  0  0  0  0  0  0  0  0  0
    0.7988   -6.9360   -3.8504 H   0  0  0  0  0  0  0  0  0  0  0  0
    1.9556   -5.6216   -3.8511 H   0  0  0  0  0  0  0  0  0  0  0  0
    1.3322   -4.6359   -1.5106 N   0  0  0  0  0  0  0  0  0  0  0  0
    0.8124   -3.9290   -0.3698 C   0  0  2  0  0  0  0  0  0  0  0  0
    1.0666   -2.4424   -0.5818 C   0  0  0  0  0  0  0  0  0  0  0  0
    2.0598   -2.0076   -1.1610 O   0  0  0  0  0  0  0  0  0  0  0  0
    1.4560   -4.4118    0.9207 C   0  0  0  0  0  0  0  0  0  0  0  0
    2.1528   -4.2578   -1.9805 H   0  0  0  0  0  0  0  0  0  0  0  0
   -0.2667   -4.1160   -0.3467 H   0  0  0  0  0  0  0  0  0  0  0  0
    2.5374   -4.2329    0.9160 H   0  0  0  0  0  0  0  0  0  0  0  0
    1.0390   -3.8932    1.7903 H   0  0  0  0  0  0  0  0  0  0  0  0
    1.2976   -5.4871    1.0566 H   0  0  0  0  0  0  0  0  0  0  0  0
    0.0755   -1.6529   -0.0105 N   0  0  0  0  0  0  0  0  0  0  0  0
    0.1113   -0.2132   -0.0391 C   0  0  2  0  0  0  0  0  0  0  0  0
    0.1268    0.2736    1.4060 C   0  0  0  0  0  0  0  0  0  0  0  0
    0.4612    1.4129    1.7244 O   0  0  0  0  0  0  0  0  0  0  0  0
   -1.0859    0.3778   -0.7905 C   0  0  0  0  0  0  0  0  0  0  0  0
   -1.0534    0.0533   -2.2887 C   0  0  0  0  0  0  0  0  0  0  0  0
   -2.2474    0.6440   -3.0315 C   0  0  0  0  0  0  0  0  0  0  0  0
   -2.2251    0.3128   -4.4545 N   0  3  0  0  0  0  0  0  0  0  0  0
   -3.2476    0.6919   -5.3262 C   0  0  0  0  0  0  0  0  0  0  0  0
   -3.1597    0.3416   -6.6693 N   0  0  0  0  0  0  0  0  0  0  0  0
   -4.3525    1.4122   -4.8841 N   0  0  0  0  0  0  0  0  0  0  0  0
   -0.7323   -2.1024    0.4149 H   0  0  0  0  0  0  0  0  0  0  0  0
    1.0530    0.0715   -0.5223 H   0  0  0  0  0  0  0  0  0  0  0  0
   -1.1006    1.4660   -0.6555 H   0  0  0  0  0  0  0  0  0  0  0  0
   -2.0208   -0.0006   -0.3561 H   0  0  0  0  0  0  0  0  0  0  0  0
   -0.1237    0.4350   -2.7274 H   0  0  0  0  0  0  0  0  0  0  0  0
   -1.0605   -1.0336   -2.4300 H   0  0  0  0  0  0  0  0  0  0  0  0
   -3.1757    0.2380   -2.6180 H   0  0  0  0  0  0  0  0  0  0  0  0
   -2.2667    1.7339   -2.9364 H   0  0  0  0  0  0  0  0  0  0  0  0
   -1.4411   -0.2133   -4.8364 H   0  0  0  0  0  0  0  0  0  0  0  0
   -3.8874    0.6025   -7.3305 H   0  0  0  0  0  0  0  0  0  0  0  0
   -2.3659   -0.1848   -7.0258 H   0  0  0  0  0  0  0  0  0  0  0  0
   -5.0998    1.6907   -5.5147 H   0  0  0  0  0  0  0  0  0  0  0  0
   -4.4439    1.6819   -3.9075 H   0  0  0  0  0  0  0  0  0  0  0  0
   -0.2292   -0.7279    2.2985 N   0  0  0  0  0  0  0  0  0  0  0  0
   -0.2455   -0.5357    3.7303 C   0  0  2  0  0  0  0  0  0  0  0  0
    0.1231   -1.8597    4.3868 C   0  0  0  0  0  0  0  0  0  0  0  0
   -0.1951   -2.9514    3.9199 O   0  0  0  0  0  0  0  0  0  0  0  0
   -1.6058   -0.0522    4.2082 C   0  0  0  0  0  0  0  0  0  0  0  0
   -0.5228   -1.6324    1.9414 H   0  0  0  0  0  0  0  0  0  0  0  0
    0.5224    0.2117    3.9579 H   0  0  0  0  0  0  0  0  0  0  0  0
   -2.3881   -0.7880    3.9889 H   0  0  0  0  0  0  0  0  0  0  0  0
   -1.6082    0.1203    5.2896 H   0  0  0  0  0  0  0  0  0  0  0  0
   -1.8825    0.8847    3.7128 H   0  0  0  0  0  0  0  0  0  0  0  0
    0.8118   -1.6777    5.5778 N   0  0  0  0  0  0  0  0  0  0  0  0
    1.2349   -2.7797    6.4100 C   0  0  0  0  0  0  0  0  0  0  0  0
    1.0682   -0.7387    5.8684 H   0  0  0  0  0  0  0  0  0  0  0  0
    0.4622   -2.9877    7.1647 H   0  0  0  0  0  0  0  0  0  0  0  0
    1.3876   -3.6727    5.7860 H   0  0  0  0  0  0  0  0  0  0  0  0
    2.1777   -2.5184    6.9129 H   0  0  0  0  0  0  0  0  0  0  0  0
  1  3  1  0  0  0  0
  1  7  1  0  0  0  0
  1  2  2  0  0  0  0
 42 43  1  0  0  0  0
 43 51  1  0  0  0  0
 43 44  2  0  0  0  0
  8  9  1  0  0  0  0
  9 17  1  0  0  0  0
  9 10  2  0  0  0  0
 18 19  1  0  0  0  0
 19 41  1  0  0  0  0
 19 20  2  0  0  0  0
 25 26  1  0  0  0  0
 25 27  1  0  0  0  0
 24 25  2  0  0  0  0
 42 45  1  0  0  0  0
  8 11  1  0  0  0  0
 51 52  1  0  0  0  0
 21 22  1  0  0  0  0
 22 23  1  0  0  0  0
 18 21  1  0  0  0  0
 23 24  1  0  0  0  0
 41 42  1  0  0  0  0
  7  8  1  0  0  0  0
 17 18  1  0  0  0  0
  3  4  1  0  0  0  0
  3  5  1  0  0  0  0
  3  6  1  0  0  0  0
 45 48  1  0  0  0  0
 45 49  1  0  0  0  0
 45 50  1  0  0  0  0
 11 14  1  0  0  0  0
 11 15  1  0  0  0  0
 11 16  1  0  0  0  0
 52 54  1  0  0  0  0
 52 55  1  0  0  0  0
 52 56  1  0  0  0  0
 22 32  1  0  0  0  0
 22 33  1  0  0  0  0
 21 30  1  0  0  0  0
 21 31  1  0  0  0  0
 23 34  1  0  0  0  0
 23 35  1  0  0  0  0
 42 47  1  0  0  0  0
  8 13  1  0  0  0  0
 18 29  1  0  0  0  0
 26 37  1  0  0  0  0
 26 38  1  0  0  0  0
 27 39  1  0  0  0  0
 27 40  1  0  0  0  0
 51 53  1  0  0  0  0
  7 12  1  0  0  0  0
 41 46  1  0  0  0  0
 17 28  1  0  0  0  0
 24 36  1  0  0  0  0
M  CHG  1  24   1
M  END
$$$$

  -OEChem-05262214473D

 56 55  0     1  0  0  0  0  0999 V2000
    0.7735   -5.8042   -2.0022 C   0  0  0  0  0  0  0  0  0  0  0  0
   -0.2086   -6.3825   -1.5519 O   0  0  0  0  0  0  0  0  0  0  0  0
    1.4751   -6.3646   -3.1946 C   0  0  0  0  0  0  0  0  0  0  0  0
    2.2765   -7.0687   -2.9186 H   0  0  0  0  0  0  0  0  0  0  0  0
    0.7988   -6.9360   -3.8504 H   0  0  0  0  0  0  0  0  0  0  0  0
    1.9556   -5.6216   -3.8511 H   0  0  0  0  0  0  0  0  0  0  0  0
    1.3322   -4.6359   -1.5106 N   0  0  0  0  0  0  0  0  0  0  0  0
    0.8124   -3.9290   -0.3698 C   0  0  2  0  0  0  0  0  0  0  0  0
    1.0666   -2.4424   -0.5818 C   0  0  0  0  0  0  0  0  0  0  0  0
    2.0598   -2.0076   -1.1610 O   0  0  0  0  0  0  0  0  0  0  0  0
    1.4560   -4.4118    0.9207 C   0  0  0  0  0  0  0  0  0  0  0  0
    2.1528   -4.2578   -1.9805 H   0  0  0  0  0  0  0  0  0  0  0  0
   -0.2667   -4.1160   -0.3467 H   0  0  0  0  0  0  0  0  0  0  0  0
    2.5374   -4.2329    0.9160 H   0  0  0  0  0  0  0  0  0  0  0  0
    1.0390   -3.8932    1.7903 H   0  0  0  0  0  0  0  0  0  0  0  0
    1.2976   -5.4871    1.0566 H   0  0  0  0  0  0  0  0  0  0  0  0
    0.0755   -1.6529   -0.0105 N   0  0  0  0  0  0  0  0  0  0  0  0
    0.1113   -0.2132   -0.0391 C   0  0  2  0  0  0  0  0  0  0  0  0
    0.1268    0.2736    1.4060 C   0  0  0  0  0  0  0  0  0  0  0  0
    0.1969    1.4625    1.7105 O   0  0  0  0  0  0  0  0  0  0  0  0
   -1.0859    0.3778   -0.7905 C   0  0  0  0  0  0  0  0  0  0  0  0
   -1.0534    0.0533   -2.2887 C   0  0  0  0  0  0  0  0  0  0  0  0
   -2.2474    0.6440   -3.0315 C   0  0  0  0  0  0  0  0  0  0  0  0
   -2.2251    0.3128   -4.4545 N   0  3  0  0  0  0  0  0  0  0  0  0
   -3.2476    0.6919   -5.3262 C   0  0  0  0  0  0  0  0  0  0  0  0
   -3.1597    0.3416   -6.6693 N   0  0  0  0  0  0  0  0  0  0  0  0
   -4.3525    1.4122   -4.8841 N   0  0  0  0  0  0  0  0  0  0  0  0
   -0.7323   -2.1024    0.4149 H   0  0  0  0  0  0  0  0  0  0  0  0
    1.0530    0.0715   -0.5223 H   0  0  0  0  0  0  0  0  0  0  0  0
   -1.1006    1.4660   -0.6555 H   0  0  0  0  0  0  0  0  0  0  0  0
   -2.0208   -0.0006   -0.3561 H   0  0  0  0  0  0  0  0  0  0  0  0
   -0.1237    0.4350   -2.7274 H   0  0  0  0  0  0  0  0  0  0  0  0
   -1.0605   -1.0336   -2.4300 H   0  0  0  0  0  0  0  0  0  0  0  0
   -3.1757    0.2380   -2.6180 H   0  0  0  0  0  0  0  0  0  0  0  0
   -2.2667    1.7339   -2.9364 H   0  0  0  0  0  0  0  0  0  0  0  0
   -1.4411   -0.2133   -4.8364 H   0  0  0  0  0  0  0  0  0  0  0  0
   -3.8874    0.6025   -7.3305 H   0  0  0  0  0  0  0  0  0  0  0  0
   -2.3659   -0.1848   -7.0258 H   0  0  0  0  0  0  0  0  0  0  0  0
   -5.0998    1.6907   -5.5147 H   0  0  0  0  0  0  0  0  0  0  0  0
   -4.4439    1.6819   -3.9075 H   0  0  0  0  0  0  0  0  0  0  0  0
    0.1025   -0.7777    2.3117 N   0  0  0  0  0  0  0  0  0  0  0  0
    0.1584   -0.5844    3.7424 C   0  0  2  0  0  0  0  0  0  0  0  0
    0.8935   -1.7723    4.3491 C   0  0  0  0  0  0  0  0  0  0  0  0
    0.8150   -2.9123    3.8960 O   0  0  0  0  0  0  0  0  0  0  0  0
   -1.2344   -0.4458    4.3369 C   0  0  0  0  0  0  0  0  0  0  0  0
    0.0110   -1.7293    1.9683 H   0  0  0  0  0  0  0  0  0  0  0  0
    0.7358    0.3303    3.9157 H   0  0  0  0  0  0  0  0  0  0  0  0
   -1.8279   -1.3527    4.1732 H   0  0  0  0  0  0  0  0  0  0  0  0
   -1.1893   -0.2709    5.4169 H   0  0  0  0  0  0  0  0  0  0  0  0
   -1.7725    0.3908    3.8781 H   0  0  0  0  0  0  0  0  0  0  0  0
    1.6129   -1.4178    5.4817 N   0  0  0  0  0  0  0  0  0  0  0  0
    2.3608   -2.3759    6.2619 C   0  0  0  0  0  0  0  0  0  0  0  0
    1.6544   -0.4424    5.7623 H   0  0  0  0  0  0  0  0  0  0  0  0
    1.7280   -2.7613    7.0750 H   0  0  0  0  0  0  0  0  0  0  0  0
    2.6754   -3.2088    5.6160 H   0  0  0  0  0  0  0  0  0  0  0  0
    3.2491   -1.8873    6.6889 H   0  0  0  0  0  0  0  0  0  0  0  0
  1  3  1  0  0  0  0
  1  7  1  0  0  0  0
  1  2  2  0  0  0  0
 42 43  1  0  0  0  0
 43 51  1  0  0  0  0
 43 44  2  0  0  0  0
  8  9  1  0  0  0  0
  9 17  1  0  0  0  0
  9 10  2  0  0  0  0
 18 19  1  0  0  0  0
 19 41  1  0  0  0  0
 19 20  2  0  0  0  0
 25 26  1  0  0  0  0
 25 27  1  0  0  0  0
 24 25  2  0  0  0  0
 42 45  1  0  0  0  0
  8 11  1  0  0  0  0
 51 52  1  0  0  0  0
 21 22  1  0  0  0  0
 22 23  1  0  0  0  0
 18 21  1  0  0  0  0
 23 24  1  0  0  0  0
 41 42  1  0  0  0  0
  7  8  1  0  0  0  0
 17 18  1  0  0  0  0
  3  4  1  0  0  0  0
  3  5  1  0  0  0  0
  3  6  1  0  0  0  0
 45 48  1  0  0  0  0
 45 49  1  0  0  0  0
 45 50  1  0  0  0  0
 11 14  1  0  0  0  0
 11 15  1  0  0  0  0
 11 16  1  0  0  0  0
 52 54  1  0  0  0  0
 52 55  1  0  0  0  0
 52 56  1  0  0  0  0
 22 32  1  0  0  0  0
 22 33  1  0  0  0  0
 21 30  1  0  0  0  0
 21 31  1  0  0  0  0
 23 34  1  0  0  0  0
 23 35  1  0  0  0  0
 42 47  1  0  0  0  0
  8 13  1  0  0  0  0
 18 29  1  0  0  0  0
 26 37  1  0  0  0  0
 26 38  1  0  0  0  0
 27 39  1  0  0  0  0
 27 40  1  0  0  0  0
 51 53  1  0  0  0  0
  7 12  1  0  0  0  0
 41 46  1  0  0  0  0
 17 28  1  0  0  0  0
 24 36  1  0  0  0  0
M  CHG  1  24   1
M  END
$$$$

  -OEChem-05262214473D

 56 55  0     1  0  0  0  0  0999 V2000
    0.7735   -5.8042   -2.0022 C   0  0  0  0  0  0  0  0  0  0  0  0
   -0.2086   -6.3825   -1.5519 O   0  0  0  0  0  0  0  0  0  0  0  0
    1.4751   -6.3646   -3.1946 C   0  0  0  0  0  0  0  0  0  0  0  0
    2.2765   -7.0687   -2.9186 H   0  0  0  0  0  0  0  0  0  0  0  0
    0.7988   -6.9360   -3.8504 H   0  0  0  0  0  0  0  0  0  0  0  0
    1.9556   -5.6216   -3.8511 H   0  0  0  0  0  0  0  0  0  0  0  0
    1.3322   -4.6359   -1.5106 N   0  0  0  0  0  0  0  0  0  0  0  0
    0.8124   -3.9290   -0.3698 C   0  0  2  0  0  0  0  0  0  0  0  0
    1.0666   -2.4424   -0.5818 C   0  0  0  0  0  0  0  0  0  0  0  0
    2.0598   -2.0076   -1.1610 O   0  0  0  0  0  0  0  0  0  0  0  0
    1.4560   -4.4118    0.9207 C   0  0  0  0  0  0  0  0  0  0  0  0
    2.1528   -4.2578   -1.9805 H   0  0  0  0  0  0  0  0  0  0  0  0
   -0.2667   -4.1160   -0.3467 H   0  0  0  0  0  0  0  0  0  0  0  0
    2.5374   -4.2329    0.9160 H   0  0  0  0  0  0  0  0  0  0  0  0
    1.0390   -3.8932    1.7903 H   0  0  0  0  0  0  0  0  0  0  0  0
    1.2976   -5.4871    1.0566 H   0  0  0  0  0  0  0  0  0  0  0  0
    0.0755   -1.6529   -0.0105 N   0  0  0  0  0  0  0  0  0  0  0  0
    0.1113   -0.2132   -0.0391 C   0  0  2  0  0  0  0  0  0  0  0  0
    0.1268    0.2736    1.4060 C   0  0  0  0  0  0  0  0  0  0  0  0
   -0.0717    1.4457    1.7190 O   0  0  0  0  0  0  0  0  0  0  0  0
   -1.0859    0.3778   -0.7905 C   0  0  0  0  0  0  0  0  0  0  0  0
   -1.0534    0.0533   -2.2887 C   0  0  0  0  0  0  0  0  0  0  0  0
   -2.2474    0.6440   -3.0315 C   0  0  0  0  0  0  0  0  0  0  0  0
   -2.2251    0.3128   -4.4545 N   0  3  0  0  0  0  0  0  0  0  0  0
   -3.2476    0.6919   -5.3262 C   0  0  0  0  0  0  0  0  0  0  0  0
   -3.1597    0.3416   -6.6693 N   0  0  0  0  0  0  0  0  0  0  0  0
   -4.3525    1.4122   -4.8841 N   0  0  0  0  0  0  0  0  0  0  0  0
   -0.7323   -2.1024    0.4149 H   0  0  0  0  0  0  0  0  0  0  0  0
    1.0530    0.0715   -0.5223 H   0  0  0  0  0  0  0  0  0  0  0  0
   -1.1006    1.4660   -0.6555 H   0  0  0  0  0  0  0  0  0  0  0  0
   -2.0208   -0.0006   -0.3561 H   0  0  0  0  0  0  0  0  0  0  0  0
   -0.1237    0.4350   -2.7274 H   0  0  0  0  0  0  0  0  0  0  0  0
   -1.0605   -1.0336   -2.4300 H   0  0  0  0  0  0  0  0  0  0  0  0
   -3.1757    0.2380   -2.6180 H   0  0  0  0  0  0  0  0  0  0  0  0
   -2.2667    1.7339   -2.9364 H   0  0  0  0  0  0  0  0  0  0  0  0
   -1.4411   -0.2133   -4.8364 H   0  0  0  0  0  0  0  0  0  0  0  0
   -3.8874    0.6025   -7.3305 H   0  0  0  0  0  0  0  0  0  0  0  0
   -2.3659   -0.1848   -7.0258 H   0  0  0  0  0  0  0  0  0  0  0  0
   -5.0998    1.6907   -5.5147 H   0  0  0  0  0  0  0  0  0  0  0  0
   -4.4439    1.6819   -3.9075 H   0  0  0  0  0  0  0  0  0  0  0  0
    0.4362   -0.7445    2.2970 N   0  0  0  0  0  0  0  0  0  0  0  0
    0.5615   -0.5324    3.7206 C   0  0  2  0  0  0  0  0  0  0  0  0
    1.6130   -1.4990    4.2494 C   0  0  0  0  0  0  0  0  0  0  0  0
    1.7791   -2.6268    3.7895 O   0  0  0  0  0  0  0  0  0  0  0  0
   -0.7686   -0.7352    4.4294 C   0  0  0  0  0  0  0  0  0  0  0  0
    0.5526   -1.6921    1.9500 H   0  0  0  0  0  0  0  0  0  0  0  0
    0.9094    0.4973    3.8575 H   0  0  0  0  0  0  0  0  0  0  0  0
   -1.1330   -1.7613    4.3034 H   0  0  0  0  0  0  0  0  0  0  0  0
   -0.6783   -0.5463    5.5042 H   0  0  0  0  0  0  0  0  0  0  0  0
   -1.5314   -0.0598    4.0273 H   0  0  0  0  0  0  0  0  0  0  0  0
    2.3151   -0.9700    5.3234 N   0  0  0  0  0  0  0  0  0  0  0  0
    3.3371   -1.7093    6.0269 C   0  0  0  0  0  0  0  0  0  0  0  0
    2.1393   -0.0122    5.6122 H   0  0  0  0  0  0  0  0  0  0  0  0
    2.8878   -2.2319    6.8842 H   0  0  0  0  0  0  0  0  0  0  0  0
    3.7915   -2.4445    5.3466 H   0  0  0  0  0  0  0  0  0  0  0  0
    4.1107   -1.0144    6.3856 H   0  0  0  0  0  0  0  0  0  0  0  0
  1  3  1  0  0  0  0
  1  7  1  0  0  0  0
  1  2  2  0  0  0  0
 42 43  1  0  0  0  0
 43 51  1  0  0  0  0
 43 44  2  0  0  0  0
  8  9  1  0  0  0  0
  9 17  1  0  0  0  0
  9 10  2  0  0  0  0
 18 19  1  0  0  0  0
 19 41  1  0  0  0  0
 19 20  2  0  0  0  0
 25 26  1  0  0  0  0
 25 27  1  0  0  0  0
 24 25  2  0  0  0  0
 42 45  1  0  0  0  0
  8 11  1  0  0  0  0
 51 52  1  0  0  0  0
 21 22  1  0  0  0  0
 22 23  1  0  0  0  0
 18 21  1  0  0  0  0
 23 24  1  0  0  0  0
 41 42  1  0  0  0  0
  7  8  1  0  0  0  0
 17 18  1  0  0  0  0
  3  4  1  0  0  0  0
  3  5  1  0  0  0  0
  3  6  1  0  0  0  0
 45 48  1  0  0  0  0
 45 49  1  0  0  0  0
 45 50  1  0  0  0  0
 11 14  1  0  0  0  0
 11 15  1  0  0  0  0
 11 16  1  0  0  0  0
 52 54  1  0  0  0  0
 52 55  1  0  0  0  0
 52 56  1  0  0  0  0
 22 32  1  0  0  0  0
 22 33  1  0  0  0  0
 21 30  1  0  0  0  0
 21 31  1  0  0  0  0
 23 34  1  0  0  0  0
 23 35  1  0  0  0  0
 42 47  1  0  0  0  0
  8 13  1  0  0  0  0
 18 29  1  0  0  0  0
 26 37  1  0  0  0  0
 26 38  1  0  0  0  0
 27 39  1  0  0  0  0
 27 40  1  0  0  0  0
 51 53  1  0  0  0  0
  7 12  1  0  0  0  0
 41 46  1  0  0  0  0
 17 28  1  0  0  0  0
 24 36  1  0  0  0  0
M  CHG  1  24   1
M  END
$$$$

  -OEChem-05262214473D

 56 55  0     1  0  0  0  0  0999 V2000
    0.7735   -5.8042   -2.0022 C   0  0  0  0  0  0  0  0  0  0  0  0
   -0.2086   -6.3825   -1.5519 O   0  0  0  0  0  0  0  0  0  0  0  0
    1.4751   -6.3646   -3.1946 C   0  0  0  0  0  0  0  0  0  0  0  0
    2.2765   -7.0687   -2.9186 H   0  0  0  0  0  0  0  0  0  0  0  0
    0.7988   -6.9360   -3.8504 H   0  0  0  0  0  0  0  0  0  0  0  0
    1.9556   -5.6216   -3.8511 H   0  0  0  0  0  0  0  0  0  0  0  0
    1.3322   -4.6359   -1.5106 N   0  0  0  0  0  0  0  0  0  0  0  0
    0.8124   -3.9290   -0.3698 C   0  0  2  0  0  0  0  0  0  0  0  0
    1.0666   -2.4424   -0.5818 C   0  0  0  0  0  0  0  0  0  0  0  0
    2.0598   -2.0076   -1.1610 O   0  0  0  0  0  0  0  0  0  0  0  0
    1.4560   -4.4118    0.9207 C   0  0  0  0  0  0  0  0  0  0  0  0
    2.1528   -4.2578   -1.9805 H   0  0  0  0  0  0  0  0  0  0  0  0
   -0.2667   -4.1160   -0.3467 H   0  0  0  0  0  0  0  0  0  0  0  0
    2.5374   -4.2329    0.9160 H   0  0  0  0  0  0  0  0  0  0  0  0
    1.0390   -3.8932    1.7903 H   0  0  0  0  0  0  0  0  0  0  0  0
    1.2976   -5.4871    1.0566 H   0  0  0  0  0  0  0  0  0  0  0  0
    0.0755   -1.6529   -0.0105 N   0  0  0  0  0  0  0  0  0  0  0  0
    0.1113   -0.2132   -0.0391 C   0  0  2  0  0  0  0  0  0  0  0  0
    0.1268    0.2736    1.4060 C   0  0  0  0  0  0  0  0  0  0  0  0
   -0.3263    1.3636    1.7494 O   0  0  0  0  0  0  0  0  0  0  0  0
   -1.0859    0.3778   -0.7905 C   0  0  0  0  0  0  0  0  0  0  0  0
   -1.0534    0.0533   -2.2887 C   0  0  0  0  0  0  0  0  0  0  0  0
   -2.2474    0.6440   -3.0315 C   0  0  0  0  0  0  0  0  0  0  0  0
   -2.2251    0.3128   -4.4545 N   0  3  0  0  0  0  0  0  0  0  0  0
   -3.2476    0.6919   -5.3262 C   0  0  0  0  0  0  0  0  0  0  0  0
   -3.1597    0.3416   -6.6693 N   0  0  0  0  0  0  0  0  0  0  0  0
   -4.3525    1.4122   -4.8841 N   0  0  0  0  0  0  0  0  0  0  0  0
   -0.7323   -2.1024    0.4149 H   0  0  0  0  0  0  0  0  0  0  0  0
    1.0530    0.0715   -0.5223 H   0  0  0  0  0  0  0  0  0  0  0  0
   -1.1006    1.4660   -0.6555 H   0  0  0  0  0  0  0  0  0  0  0  0
   -2.0208   -0.0006   -0.3561 H   0  0  0  0  0  0  0  0  0  0  0  0
   -0.1237    0.4350   -2.7274 H   0  0  0  0  0  0  0  0  0  0  0  0
   -1.0605   -1.0336   -2.4300 H   0  0  0  0  0  0  0  0  0  0  0  0
   -3.1757    0.2380   -2.6180 H   0  0  0  0  0  0  0  0  0  0  0  0
   -2.2667    1.7339   -2.9364 H   0  0  0  0  0  0  0  0  0  0  0  0
   -1.4411   -0.2133   -4.8364 H   0  0  0  0  0  0  0  0  0  0  0  0
   -3.8874    0.6025   -7.3305 H   0  0  0  0  0  0  0  0  0  0  0  0
   -2.3659   -0.1848   -7.0258 H   0  0  0  0  0  0  0  0  0  0  0  0
   -5.0998    1.6907   -5.5147 H   0  0  0  0  0  0  0  0  0  0  0  0
   -4.4439    1.6819   -3.9075 H   0  0  0  0  0  0  0  0  0  0  0  0
    0.7492   -0.6306    2.2552 N   0  0  0  0  0  0  0  0  0  0  0  0
    0.9363   -0.3833    3.6664 C   0  0  2  0  0  0  0  0  0  0  0  0
    2.2328   -1.0581    4.0942 C   0  0  0  0  0  0  0  0  0  0  0  0
    2.6316   -2.1143    3.6077 O   0  0  0  0  0  0  0  0  0  0  0  0
   -0.2399   -0.9008    4.4796 C   0  0  0  0  0  0  0  0  0  0  0  0
    1.0652   -1.5232    1.8877 H   0  0  0  0  0  0  0  0  0  0  0  0
    1.0312    0.7013    3.7875 H   0  0  0  0  0  0  0  0  0  0  0  0
   -0.3509   -1.9858    4.3707 H   0  0  0  0  0  0  0  0  0  0  0  0
   -0.1099   -0.6872    5.5456 H   0  0  0  0  0  0  0  0  0  0  0  0
   -1.1757   -0.4363    4.1504 H   0  0  0  0  0  0  0  0  0  0  0  0
    2.8703   -0.3649    5.1136 N   0  0  0  0  0  0  0  0  0  0  0  0
    4.0971   -0.8253    5.7210 C   0  0  0  0  0  0  0  0  0  0  0  0
    2.4897    0.5228    5.4282 H   0  0  0  0  0  0  0  0  0  0  0  0
    3.8624   -1.4356    6.6056 H   0  0  0  0  0  0  0  0  0  0  0  0
    4.6599   -1.4318    4.9961 H   0  0  0  0  0  0  0  0  0  0  0  0
    4.7038    0.0408    6.0238 H   0  0  0  0  0  0  0  0  0  0  0  0
  1  3  1  0  0  0  0
  1  7  1  0  0  0  0
  1  2  2  0  0  0  0
 42 43  1  0  0  0  0
 43 51  1  0  0  0  0
 43 44  2  0  0  0  0
  8  9  1  0  0  0  0
  9 17  1  0  0  0  0
  9 10  2  0  0  0  0
 18 19  1  0  0  0  0
 19 41  1  0  0  0  0
 19 20  2  0  0  0  0
 25 26  1  0  0  0  0
 25 27  1  0  0  0  0
 24 25  2  0  0  0  0
 42 45  1  0  0  0  0
  8 11  1  0  0  0  0
 51 52  1  0  0  0  0
 21 22  1  0  0  0  0
 22 23  1  0  0  0  0
 18 21  1  0  0  0  0
 23 24  1  0  0  0  0
 41 42  1  0  0  0  0
  7  8  1  0  0  0  0
 17 18  1  0  0  0  0
  3  4  1  0  0  0  0
  3  5  1  0  0  0  0
  3  6  1  0  0  0  0
 45 48  1  0  0  0  0
 45 49  1  0  0  0  0
 45 50  1  0  0  0  0
 11 14  1  0  0  0  0
 11 15  1  0  0  0  0
 11 16  1  0  0  0  0
 52 54  1  0  0  0  0
 52 55  1  0  0  0  0
 52 56  1  0  0  0  0
 22 32  1  0  0  0  0
 22 33  1  0  0  0  0
 21 30  1  0  0  0  0
 21 31  1  0  0  0  0
 23 34  1  0  0  0  0
 23 35  1  0  0  0  0
 42 47  1  0  0  0  0
  8 13  1  0  0  0  0
 18 29  1  0  0  0  0
 26 37  1  0  0  0  0
 26 38  1  0  0  0  0
 27 39  1  0  0  0  0
 27 40  1  0  0  0  0
 51 53  1  0  0  0  0
  7 12  1  0  0  0  0
 41 46  1  0  0  0  0
 17 28  1  0  0  0  0
 24 36  1  0  0  0  0
M  CHG  1  24   1
M  END
$$$$

  -OEChem-05262214473D

 56 55  0     1  0  0  0  0  0999 V2000
    0.7735   -5.8042   -2.0022 C   0  0  0  0  0  0  0  0  0  0  0  0
   -0.2086   -6.3825   -1.5519 O   0  0  0  0  0  0  0  0  0  0  0  0
    1.4751   -6.3646   -3.1946 C   0  0  0  0  0  0  0  0  0  0  0  0
    2.2765   -7.0687   -2.9186 H   0  0  0  0  0  0  0  0  0  0  0  0
    0.7988   -6.9360   -3.8504 H   0  0  0  0  0  0  0  0  0  0  0  0
    1.9556   -5.6216   -3.8511 H   0  0  0  0  0  0  0  0  0  0  0  0
    1.3322   -4.6359   -1.5106 N   0  0  0  0  0  0  0  0  0  0  0  0
    0.8124   -3.9290   -0.3698 C   0  0  2  0  0  0  0  0  0  0  0  0
    1.0666   -2.4424   -0.5818 C   0  0  0  0  0  0  0  0  0  0  0  0
    2.0598   -2.0076   -1.1610 O   0  0  0  0  0  0  0  0  0  0  0  0
    1.4560   -4.4118    0.9207 C   0  0  0  0  0  0  0  0  0  0  0  0
    2.1528   -4.2578   -1.9805 H   0  0  0  0  0  0  0  0  0  0  0  0
   -0.2667   -4.1160   -0.3467 H   0  0  0  0  0  0  0  0  0  0  0  0
    2.5374   -4.2329    0.9160 H   0  0  0  0  0  0  0  0  0  0  0  0
    1.0390   -3.8932    1.7903 H   0  0  0  0  0  0  0  0  0  0  0  0
    1.2976   -5.4871    1.0566 H   0  0  0  0  0  0  0  0  0  0  0  0
    0.0755   -1.6529   -0.0105 N   0  0  0  0  0  0  0  0  0  0  0  0
    0.1113   -0.2132   -0.0391 C   0  0  2  0  0  0  0  0  0  0  0  0
    0.1268    0.2736    1.4060 C   0  0  0  0  0  0  0  0  0  0  0  0
   -0.5496    1.2217    1.7996 O   0  0  0  0  0  0  0  0  0  0  0  0
   -1.0859    0.3778   -0.7905 C   0  0  0  0  0  0  0  0  0  0  0  0
   -1.0534    0.0533   -2.2887 C   0  0  0  0  0  0  0  0  0  0  0  0
   -2.2474    0.6440   -3.0315 C   0  0  0  0  0  0  0  0  0  0  0  0
   -2.2251    0.3128   -4.4545 N   0  3  0  0  0  0  0  0  0  0  0  0
   -3.2476    0.6919   -5.3262 C   0  0  0  0  0  0  0  0  0  0  0  0
   -3.1597    0.3416   -6.6693 N   0  0  0  0  0  0  0  0  0  0  0  0
   -4.3525    1.4122   -4.8841 N   0  0  0  0  0  0  0  0  0  0  0  0
   -0.7323   -2.1024    0.4149 H   0  0  0  0  0  0  0  0  0  0  0  0
    1.0530    0.0715   -0.5223 H   0  0  0  0  0  0  0  0  0  0  0  0
   -1.1006    1.4660   -0.6555 H   0  0  0  0  0  0  0  0  0  0  0  0
   -2.0208   -0.0006   -0.3561 H   0  0  0  0  0  0  0  0  0  0  0  0
   -0.1237    0.4350   -2.7274 H   0  0  0  0  0  0  0  0  0  0  0  0
   -1.0605   -1.0336   -2.4300 H   0  0  0  0  0  0  0  0  0  0  0  0
   -3.1757    0.2380   -2.6180 H   0  0  0  0  0  0  0  0  0  0  0  0
   -2.2667    1.7339   -2.9364 H   0  0  0  0  0  0  0  0  0  0  0  0
   -1.4411   -0.2133   -4.8364 H   0  0  0  0  0  0  0  0  0  0  0  0
   -3.8874    0.6025   -7.3305 H   0  0  0  0  0  0  0  0  0  0  0  0
   -2.3659   -0.1848   -7.0258 H   0  0  0  0  0  0  0  0  0  0  0  0
   -5.0998    1.6907   -5.5147 H   0  0  0  0  0  0  0  0  0  0  0  0
   -4.4439    1.6819   -3.9075 H   0  0  0  0  0  0  0  0  0  0  0  0
    1.0201   -0.4437    2.1894 N   0  0  0  0  0  0  0  0  0  0  0  0
    1.2573   -0.1471    3.5834 C   0  0  2  0  0  0  0  0  0  0  0  0
    2.7106   -0.4799    3.8944 C   0  0  0  0  0  0  0  0  0  0  0  0
    3.3143   -1.4096    3.3631 O   0  0  0  0  0  0  0  0  0  0  0  0
    0.3154   -0.9312    4.4839 C   0  0  0  0  0  0  0  0  0  0  0  0
    1.5136   -1.2343    1.7855 H   0  0  0  0  0  0  0  0  0  0  0  0
    1.0931    0.9285    3.7103 H   0  0  0  0  0  0  0  0  0  0  0  0
    0.4652   -2.0111    4.3705 H   0  0  0  0  0  0  0  0  0  0  0  0
    0.4771   -0.6840    5.5383 H   0  0  0  0  0  0  0  0  0  0  0  0
   -0.7297   -0.7131    4.2389 H   0  0  0  0  0  0  0  0  0  0  0  0
    3.2410    0.3564    4.8667 N   0  0  0  0  0  0  0  0  0  0  0  0
    4.5892    0.2157    5.3650 C   0  0  0  0  0  0  0  0  0  0  0  0
    2.6818    1.1259    5.2230 H   0  0  0  0  0  0  0  0  0  0  0  0
    4.5855   -0.4267    6.2580 H   0  0  0  0  0  0  0  0  0  0  0  0
    5.2214   -0.2397    4.5885 H   0  0  0  0  0  0  0  0  0  0  0  0
    4.9880    1.2066    5.6280 H   0  0  0  0  0  0  0  0  0  0  0  0
  1  3  1  0  0  0  0
  1  7  1  0  0  0  0
  1  2  2  0  0  0  0
 42 43  1  0  0  0  0
 43 51  1  0  0  0  0
 43 44  2  0  0  0  0
  8  9  1  0  0  0  0
  9 17  1  0  0  0  0
  9 10  2  0  0  0  0
 18 19  1  0  0  0  0
 19 41  1  0  0  0  0
 19 20  2  0  0  0  0
 25 26  1  0  0  0  0
 25 27  1  0  0  0  0
 24 25  2  0  0  0  0
 42 45  1  0  0  0  0
  8 11  1  0  0  0  0
 51 52  1  0  0  0  0
 21 22  1  0  0  0  0
 22 23  1  0  0  0  0
 18 21  1  0  0  0  0
 23 24  1  0  0  0  0
 41 42  1  0  0  0  0
  7  8  1  0  0  0  0
 17 18  1  0  0  0  0
  3  4  1  0  0  0  0
  3  5  1  0  0  0  0
  3  6  1  0  0  0  0
 45 48  1  0  0  0  0
 45 49  1  0  0  0  0
 45 50  1  0  0  0  0
 11 14  1  0  0  0  0
 11 15  1  0  0  0  0
 11 16  1  0  0  0  0
 52 54  1  0  0  0  0
 52 55  1  0  0  0  0
 52 56  1  0  0  0  0
 22 32  1  0  0  0  0
 22 33  1  0  0  0  0
 21 30  1  0  0  0  0
 21 31  1  0  0  0  0
 23 34  1  0  0  0  0
 23 35  1  0  0  0  0
 42 47  1  0  0  0  0
  8 13  1  0  0  0  0
 18 29  1  0  0  0  0
 26 37  1  0  0  0  0
 26 38  1  0  0  0  0
 27 39  1  0  0  0  0
 27 40  1  0  0  0  0
 51 53  1  0  0  0  0
  7 12  1  0  0  0  0
 41 46  1  0  0  0  0
 17 28  1  0  0  0  0
 24 36  1  0  0  0  0
M  CHG  1  24   1
M  END
$$$$

  -OEChem-05262214473D

 56 55  0     1  0  0  0  0  0999 V2000
    0.7735   -5.8042   -2.0022 C   0  0  0  0  0  0  0  0  0  0  0  0
   -0.2086   -6.3825   -1.5519 O   0  0  0  0  0  0  0  0  0  0  0  0
    1.4751   -6.3646   -3.1946 C   0  0  0  0  0  0  0  0  0  0  0  0
    2.2765   -7.0687   -2.9186 H   0  0  0  0  0  0  0  0  0  0  0  0
    0.7988   -6.9360   -3.8504 H   0  0  0  0  0  0  0  0  0  0  0  0
    1.9556   -5.6216   -3.8511 H   0  0  0  0  0  0  0  0  0  0  0  0
    1.3322   -4.6359   -1.5106 N   0  0  0  0  0  0  0  0  0  0  0  0
    0.8124   -3.9290   -0.3698 C   0  0  2  0  0  0  0  0  0  0  0  0
    1.0666   -2.4424   -0.5818 C   0  0  0  0  0  0  0  0  0  0  0  0
    2.0598   -2.0076   -1.1610 O   0  0  0  0  0  0  0  0  0  0  0  0
    1.4560   -4.4118    0.9207 C   0  0  0  0  0  0  0  0  0  0  0  0
    2.1528   -4.2578   -1.9805 H   0  0  0  0  0  0  0  0  0  0  0  0
   -0.2667   -4.1160   -0.3467 H   0  0  0  0  0  0  0  0  0  0  0  0
    2.5374   -4.2329    0.9160 H   0  0  0  0  0  0  0  0  0  0  0  0
    1.0390   -3.8932    1.7903 H   0  0  0  0  0  0  0  0  0  0  0  0
    1.2976   -5.4871    1.0566 H   0  0  0  0  0  0  0  0  0  0  0  0
    0.0755   -1.6529   -0.0105 N   0  0  0  0  0  0  0  0  0  0  0  0
    0.1113   -0.2132   -0.0391 C   0  0  2  0  0  0  0  0  0  0  0  0
    0.1268    0.2736    1.4060 C   0  0  0  0  0  0  0  0  0  0  0  0
   -0.7263    1.0298    1.8662 O   0  0  0  0  0  0  0  0  0  0  0  0
   -1.0859    0.3778   -0.7905 C   0  0  0  0  0  0  0  0  0  0  0  0
   -1.0534    0.0533   -2.2887 C   0  0  0  0  0  0  0  0  0  0  0  0
   -2.2474    0.6440   -3.0315 C   0  0  0  0  0  0  0  0  0  0  0  0
   -2.2251    0.3128   -4.4545 N   0  3  0  0  0  0  0  0  0  0  0  0
   -3.2476    0.6919   -5.3262 C   0  0  0  0  0  0  0  0  0  0  0  0
   -3.1597    0.3416   -6.6693 N   0  0  0  0  0  0  0  0  0  0  0  0
   -4.3525    1.4122   -4.8841 N   0  0  0  0  0  0  0  0  0  0  0  0
   -0.7323   -2.1024    0.4149 H   0  0  0  0  0  0  0  0  0  0  0  0
    1.0530    0.0715   -0.5223 H   0  0  0  0  0  0  0  0  0  0  0  0
   -1.1006    1.4660   -0.6555 H   0  0  0  0  0  0  0  0  0  0  0  0
   -2.0208   -0.0006   -0.3561 H   0  0  0  0  0  0  0  0  0  0  0  0
   -0.1237    0.4350   -2.7274 H   0  0  0  0  0  0  0  0  0  0  0  0
   -1.0605   -1.0336   -2.4300 H   0  0  0  0  0  0  0  0  0  0  0  0
   -3.1757    0.2380   -2.6180 H   0  0  0  0  0  0  0  0  0  0  0  0
   -2.2667    1.7339   -2.9364 H   0  0  0  0  0  0  0  0  0  0  0  0
   -1.4411   -0.2133   -4.8364 H   0  0  0  0  0  0  0  0  0  0  0  0
   -3.8874    0.6025   -7.3305 H   0  0  0  0  0  0  0  0  0  0  0  0
   -2.3659   -0.1848   -7.0258 H   0  0  0  0  0  0  0  0  0  0  0  0
   -5.0998    1.6907   -5.5147 H   0  0  0  0  0  0  0  0  0  0  0  0
   -4.4439    1.6819   -3.9075 H   0  0  0  0  0  0  0  0  0  0  0  0
    1.2305   -0.1965    2.1038 N   0  0  0  0  0  0  0  0  0  0  0  0
    1.5025    0.1599    3.4773 C   0  0  2  0  0  0  0  0  0  0  0  0
    3.0137    0.1963    3.6633 C   0  0  0  0  0  0  0  0  0  0  0  0
    3.7807   -0.5609    3.0722 O   0  0  0  0  0  0  0  0  0  0  0  0
    0.8597   -0.8243    4.4421 C   0  0  0  0  0  0  0  0  0  0  0  0
    1.8675   -0.8449    1.6506 H   0  0  0  0  0  0  0  0  0  0  0  0
    1.0908    1.1633    3.6312 H   0  0  0  0  0  0  0  0  0  0  0  0
    1.2597   -1.8353    4.3028 H   0  0  0  0  0  0  0  0  0  0  0  0
    1.0427   -0.5369    5.4827 H   0  0  0  0  0  0  0  0  0  0  0  0
   -0.2236   -0.8712    4.2867 H   0  0  0  0  0  0  0  0  0  0  0  0
    3.4016    1.1446    4.5994 N   0  0  0  0  0  0  0  0  0  0  0  0
    4.7798    1.3429    4.9833 C   0  0  0  0  0  0  0  0  0  0  0  0
    2.7025    1.7561    5.0105 H   0  0  0  0  0  0  0  0  0  0  0  0
    5.0077    0.7261    5.8651 H   0  0  0  0  0  0  0  0  0  0  0  0
    5.4377    1.0506    4.1515 H   0  0  0  0  0  0  0  0  0  0  0  0
    4.9439    2.4033    5.2253 H   0  0  0  0  0  0  0  0  0  0  0  0
  1  3  1  0  0  0  0
  1  7  1  0  0  0  0
  1  2  2  0  0  0  0
 42 43  1  0  0  0  0
 43 51  1  0  0  0  0
 43 44  2  0  0  0  0
  8  9  1  0  0  0  0
  9 17  1  0  0  0  0
  9 10  2  0  0  0  0
 18 19  1  0  0  0  0
 19 41  1  0  0  0  0
 19 20  2  0  0  0  0
 25 26  1  0  0  0  0
 25 27  1  0  0  0  0
 24 25  2  0  0  0  0
 42 45  1  0  0  0  0
  8 11  1  0  0  0  0
 51 52  1  0  0  0  0
 21 22  1  0  0  0  0
 22 23  1  0  0  0  0
 18 21  1  0  0  0  0
 23 24  1  0  0  0  0
 41 42  1  0  0  0  0
  7  8  1  0  0  0  0
 17 18  1  0  0  0  0
  3  4  1  0  0  0  0
  3  5  1  0  0  0  0
  3  6  1  0  0  0  0
 45 48  1  0  0  0  0
 45 49  1  0  0  0  0
 45 50  1  0  0  0  0
 11 14  1  0  0  0  0
 11 15  1  0  0  0  0
 11 16  1  0  0  0  0
 52 54  1  0  0  0  0
 52 55  1  0  0  0  0
 52 56  1  0  0  0  0
 22 32  1  0  0  0  0
 22 33  1  0  0  0  0
 21 30  1  0  0  0  0
 21 31  1  0  0  0  0
 23 34  1  0  0  0  0
 23 35  1  0  0  0  0
 42 47  1  0  0  0  0
  8 13  1  0  0  0  0
 18 29  1  0  0  0  0
 26 37  1  0  0  0  0
 26 38  1  0  0  0  0
 27 39  1  0  0  0  0
 27 40  1  0  0  0  0
 51 53  1  0  0  0  0
  7 12  1  0  0  0  0
 41 46  1  0  0  0  0
 17 28  1  0  0  0  0
 24 36  1  0  0  0  0
M  CHG  1  24   1
M  END
$$$$

  -OEChem-05262214473D

 56 55  0     1  0  0  0  0  0999 V2000
    0.7735   -5.8042   -2.0022 C   0  0  0  0  0  0  0  0  0  0  0  0
   -0.2086   -6.3825   -1.5519 O   0  0  0  0  0  0  0  0  0  0  0  0
    1.4751   -6.3646   -3.1946 C   0  0  0  0  0  0  0  0  0  0  0  0
    2.2765   -7.0687   -2.9186 H   0  0  0  0  0  0  0  0  0  0  0  0
    0.7988   -6.9360   -3.8504 H   0  0  0  0  0  0  0  0  0  0  0  0
    1.9556   -5.6216   -3.8511 H   0  0  0  0  0  0  0  0  0  0  0  0
    1.3322   -4.6359   -1.5106 N   0  0  0  0  0  0  0  0  0  0  0  0
    0.8124   -3.9290   -0.3698 C   0  0  2  0  0  0  0  0  0  0  0  0
    1.0666   -2.4424   -0.5818 C   0  0  0  0  0  0  0  0  0  0  0  0
    2.0598   -2.0076   -1.1610 O   0  0  0  0  0  0  0  0  0  0  0  0
    1.4560   -4.4118    0.9207 C   0  0  0  0  0  0  0  0  0  0  0  0
    2.1528   -4.2578   -1.9805 H   0  0  0  0  0  0  0  0  0  0  0  0
   -0.2667   -4.1160   -0.3467 H   0  0  0  0  0  0  0  0  0  0  0  0
    2.5374   -4.2329    0.9160 H   0  0  0  0  0  0  0  0  0  0  0  0
    1.0390   -3.8932    1.7903 H   0  0  0  0  0  0  0  0  0  0  0  0
    1.2976   -5.4871    1.0566 H   0  0  0  0  0  0  0  0  0  0  0  0
    0.0755   -1.6529   -0.0105 N   0  0  0  0  0  0  0  0  0  0  0  0
    0.1113   -0.2132   -0.0391 C   0  0  2  0  0  0  0  0  0  0  0  0
    0.1268    0.2736    1.4060 C   0  0  0  0  0  0  0  0  0  0  0  0
   -0.8444    0.8009    1.9445 O   0  0  0  0  0  0  0  0  0  0  0  0
   -1.0859    0.3778   -0.7905 C   0  0  0  0  0  0  0  0  0  0  0  0
   -1.0534    0.0533   -2.2887 C   0  0  0  0  0  0  0  0  0  0  0  0
   -2.2474    0.6440   -3.0315 C   0  0  0  0  0  0  0  0  0  0  0  0
   -2.2251    0.3128   -4.4545 N   0  3  0  0  0  0  0  0  0  0  0  0
   -3.2476    0.6919   -5.3262 C   0  0  0  0  0  0  0  0  0  0  0  0
   -3.1597    0.3416   -6.6693 N   0  0  0  0  0  0  0  0  0  0  0  0
   -4.3525    1.4122   -4.8841 N   0  0  0  0  0  0  0  0  0  0  0  0
   -0.7323   -2.1024    0.4149 H   0  0  0  0  0  0  0  0  0  0  0  0
    1.0530    0.0715   -0.5223 H   0  0  0  0  0  0  0  0  0  0  0  0
   -1.1006    1.4660   -0.6555 H   0  0  0  0  0  0  0  0  0  0  0  0
   -2.0208   -0.0006   -0.3561 H   0  0  0  0  0  0  0  0  0  0  0  0
   -0.1237    0.4350   -2.7274 H   0  0  0  0  0  0  0  0  0  0  0  0
   -1.0605   -1.0336   -2.4300 H   0  0  0  0  0  0  0  0  0  0  0  0
   -3.1757    0.2380   -2.6180 H   0  0  0  0  0  0  0  0  0  0  0  0
   -2.2667    1.7339   -2.9364 H   0  0  0  0  0  0  0  0  0  0  0  0
   -1.4411   -0.2133   -4.8364 H   0  0  0  0  0  0  0  0  0  0  0  0
   -3.8874    0.6025   -7.3305 H   0  0  0  0  0  0  0  0  0  0  0  0
   -2.3659   -0.1848   -7.0258 H   0  0  0  0  0  0  0  0  0  0  0  0
   -5.0998    1.6907   -5.5147 H   0  0  0  0  0  0  0  0  0  0  0  0
   -4.4439    1.6819   -3.9075 H   0  0  0  0  0  0  0  0  0  0  0  0
    1.3660    0.0941    2.0045 N   0  0  0  0  0  0  0  0  0  0  0  0
    1.6554    0.5169    3.3554 C   0  0  2  0  0  0  0  0  0  0  0  0
    3.1216    0.9244    3.4169 C   0  0  0  0  0  0  0  0  0  0  0  0
    3.9990    0.3740    2.7549 O   0  0  0  0  0  0  0  0  0  0  0  0
    1.3557   -0.5875    4.3570 C   0  0  0  0  0  0  0  0  0  0  0  0
    2.1027   -0.3817    1.4920 H   0  0  0  0  0  0  0  0  0  0  0  0
    1.0245    1.3897    3.5556 H   0  0  0  0  0  0  0  0  0  0  0  0
    1.9784   -1.4705    4.1722 H   0  0  0  0  0  0  0  0  0  0  0  0
    1.5484   -0.2560    5.3827 H   0  0  0  0  0  0  0  0  0  0  0  0
    0.3080   -0.9000    4.2908 H   0  0  0  0  0  0  0  0  0  0  0  0
    3.3414    1.9461    4.3300 N   0  0  0  0  0  0  0  0  0  0  0  0
    4.6559    2.4794    4.6017 C   0  0  0  0  0  0  0  0  0  0  0  0
    2.5503    2.3705    4.8051 H   0  0  0  0  0  0  0  0  0  0  0  0
    5.1004    1.9442    5.4537 H   0  0  0  0  0  0  0  0  0  0  0  0
    5.2940    2.3511    3.7149 H   0  0  0  0  0  0  0  0  0  0  0  0
    4.5746    3.5495    4.8431 H   0  0  0  0  0  0  0  0  0  0  0  0
  1  3  1  0  0  0  0
  1  7  1  0  0  0  0
  1  2  2  0  0  0  0
 42 43  1  0  0  0  0
 43 51  1  0  0  0  0
 43 44  2  0  0  0  0
  8  9  1  0  0  0  0
  9 17  1  0  0  0  0
  9 10  2  0  0  0  0
 18 19  1  0  0  0  0
 19 41  1  0  0  0  0
 19 20  2  0  0  0  0
 25 26  1  0  0  0  0
 25 27  1  0  0  0  0
 24 25  2  0  0  0  0
 42 45  1  0  0  0  0
  8 11  1  0  0  0  0
 51 52  1  0  0  0  0
 21 22  1  0  0  0  0
 22 23  1  0  0  0  0
 18 21  1  0  0  0  0
 23 24  1  0  0  0  0
 41 42  1  0  0  0  0
  7  8  1  0  0  0  0
 17 18  1  0  0  0  0
  3  4  1  0  0  0  0
  3  5  1  0  0  0  0
  3  6  1  0  0  0  0
 45 48  1  0  0  0  0
 45 49  1  0  0  0  0
 45 50  1  0  0  0  0
 11 14  1  0  0  0  0
 11 15  1  0  0  0  0
 11 16  1  0  0  0  0
 52 54  1  0  0  0  0
 52 55  1  0  0  0  0
 52 56  1  0  0  0  0
 22 32  1  0  0  0  0
 22 33  1  0  0  0  0
 21 30  1  0  0  0  0
 21 31  1  0  0  0  0
 23 34  1  0  0  0  0
 23 35  1  0  0  0  0
 42 47  1  0  0  0  0
  8 13  1  0  0  0  0
 18 29  1  0  0  0  0
 26 37  1  0  0  0  0
 26 38  1  0  0  0  0
 27 39  1  0  0  0  0
 27 40  1  0  0  0  0
 51 53  1  0  0  0  0
  7 12  1  0  0  0  0
 41 46  1  0  0  0  0
 17 28  1  0  0  0  0
 24 36  1  0  0  0  0
M  CHG  1  24   1
M  END
$$$$

  -OEChem-05262214473D

 56 55  0     1  0  0  0  0  0999 V2000
    0.7735   -5.8042   -2.0022 C   0  0  0  0  0  0  0  0  0  0  0  0
   -0.2086   -6.3825   -1.5519 O   0  0  0  0  0  0  0  0  0  0  0  0
    1.4751   -6.3646   -3.1946 C   0  0  0  0  0  0  0  0  0  0  0  0
    2.2765   -7.0687   -2.9186 H   0  0  0  0  0  0  0  0  0  0  0  0
    0.7988   -6.9360   -3.8504 H   0  0  0  0  0  0  0  0  0  0  0  0
    1.9556   -5.6216   -3.8511 H   0  0  0  0  0  0  0  0  0  0  0  0
    1.3322   -4.6359   -1.5106 N   0  0  0  0  0  0  0  0  0  0  0  0
    0.8124   -3.9290   -0.3698 C   0  0  2  0  0  0  0  0  0  0  0  0
    1.0666   -2.4424   -0.5818 C   0  0  0  0  0  0  0  0  0  0  0  0
    2.0598   -2.0076   -1.1610 O   0  0  0  0  0  0  0  0  0  0  0  0
    1.4560   -4.4118    0.9207 C   0  0  0  0  0  0  0  0  0  0  0  0
    2.1528   -4.2578   -1.9805 H   0  0  0  0  0  0  0  0  0  0  0  0
   -0.2667   -4.1160   -0.3467 H   0  0  0  0  0  0  0  0  0  0  0  0
    2.5374   -4.2329    0.9160 H   0  0  0  0  0  0  0  0  0  0  0  0
    1.0390   -3.8932    1.7903 H   0  0  0  0  0  0  0  0  0  0  0  0
    1.2976   -5.4871    1.0566 H   0  0  0  0  0  0  0  0  0  0  0  0
    0.0755   -1.6529   -0.0105 N   0  0  0  0  0  0  0  0  0  0  0  0
    0.1113   -0.2132   -0.0391 C   0  0  2  0  0  0  0  0  0  0  0  0
    0.1268    0.2736    1.4060 C   0  0  0  0  0  0  0  0  0  0  0  0
   -0.8959    0.5506    2.0294 O   0  0  0  0  0  0  0  0  0  0  0  0
   -1.0859    0.3778   -0.7905 C   0  0  0  0  0  0  0  0  0  0  0  0
   -1.0534    0.0533   -2.2887 C   0  0  0  0  0  0  0  0  0  0  0  0
   -2.2474    0.6440   -3.0315 C   0  0  0  0  0  0  0  0  0  0  0  0
   -2.2251    0.3128   -4.4545 N   0  3  0  0  0  0  0  0  0  0  0  0
   -3.2476    0.6919   -5.3262 C   0  0  0  0  0  0  0  0  0  0  0  0
   -3.1597    0.3416   -6.6693 N   0  0  0  0  0  0  0  0  0  0  0  0
   -4.3525    1.4122   -4.8841 N   0  0  0  0  0  0  0  0  0  0  0  0
   -0.7323   -2.1024    0.4149 H   0  0  0  0  0  0  0  0  0  0  0  0
    1.0530    0.0715   -0.5223 H   0  0  0  0  0  0  0  0  0  0  0  0
   -1.1006    1.4660   -0.6555 H   0  0  0  0  0  0  0  0  0  0  0  0
   -2.0208   -0.0006   -0.3561 H   0  0  0  0  0  0  0  0  0  0  0  0
   -0.1237    0.4350   -2.7274 H   0  0  0  0  0  0  0  0  0  0  0  0
   -1.0605   -1.0336   -2.4300 H   0  0  0  0  0  0  0  0  0  0  0  0
   -3.1757    0.2380   -2.6180 H   0  0  0  0  0  0  0  0  0  0  0  0
   -2.2667    1.7339   -2.9364 H   0  0  0  0  0  0  0  0  0  0  0  0
   -1.4411   -0.2133   -4.8364 H   0  0  0  0  0  0  0  0  0  0  0  0
   -3.8874    0.6025   -7.3305 H   0  0  0  0  0  0  0  0  0  0  0  0
   -2.3659   -0.1848   -7.0258 H   0  0  0  0  0  0  0  0  0  0  0  0
   -5.0998    1.6907   -5.5147 H   0  0  0  0  0  0  0  0  0  0  0  0
   -4.4439    1.6819   -3.9075 H   0  0  0  0  0  0  0  0  0  0  0  0
    1.4175    0.4083    1.8981 N   0  0  0  0  0  0  0  0  0  0  0  0
    1.7054    0.8995    3.2260 C   0  0  2  0  0  0  0  0  0  0  0  0
    3.0268    1.6548    3.1718 C   0  0  0  0  0  0  0  0  0  0  0  0
    3.9544    1.3315    2.4328 O   0  0  0  0  0  0  0  0  0  0  0  0
    1.7698   -0.2369    4.2345 C   0  0  0  0  0  0  0  0  0  0  0  0
    2.2032    0.1239    1.3206 H   0  0  0  0  0  0  0  0  0  0  0  0
    0.8986    1.5924    3.4887 H   0  0  0  0  0  0  0  0  0  0  0  0
    2.5724   -0.9415    3.9877 H   0  0  0  0  0  0  0  0  0  0  0  0
    1.9597    0.1396    5.2450 H   0  0  0  0  0  0  0  0  0  0  0  0
    0.8288   -0.7974    4.2506 H   0  0  0  0  0  0  0  0  0  0  0  0
    3.0645    2.7062    4.0769 N   0  0  0  0  0  0  0  0  0  0  0  0
    4.2259    3.5478    4.2463 C   0  0  0  0  0  0  0  0  0  0  0  0
    2.2356    2.9272    4.6209 H   0  0  0  0  0  0  0  0  0  0  0  0
    4.8572    3.1446    5.0519 H   0  0  0  0  0  0  0  0  0  0  0  0
    4.8002    3.5732    3.3085 H   0  0  0  0  0  0  0  0  0  0  0  0
    3.9050    4.5671    4.5074 H   0  0  0  0  0  0  0  0  0  0  0  0
  1  3  1  0  0  0  0
  1  7  1  0  0  0  0
  1  2  2  0  0  0  0
 42 43  1  0  0  0  0
 43 51  1  0  0  0  0
 43 44  2  0  0  0  0
  8  9  1  0  0  0  0
  9 17  1  0  0  0  0
  9 10  2  0  0  0  0
 18 19  1  0  0  0  0
 19 41  1  0  0  0  0
 19 20  2  0  0  0  0
 25 26  1  0  0  0  0
 25 27  1  0  0  0  0
 24 25  2  0  0  0  0
 42 45  1  0  0  0  0
  8 11  1  0  0  0  0
 51 52  1  0  0  0  0
 21 22  1  0  0  0  0
 22 23  1  0  0  0  0
 18 21  1  0  0  0  0
 23 24  1  0  0  0  0
 41 42  1  0  0  0  0
  7  8  1  0  0  0  0
 17 18  1  0  0  0  0
  3  4  1  0  0  0  0
  3  5  1  0  0  0  0
  3  6  1  0  0  0  0
 45 48  1  0  0  0  0
 45 49  1  0  0  0  0
 45 50  1  0  0  0  0
 11 14  1  0  0  0  0
 11 15  1  0  0  0  0
 11 16  1  0  0  0  0
 52 54  1  0  0  0  0
 52 55  1  0  0  0  0
 52 56  1  0  0  0  0
 22 32  1  0  0  0  0
 22 33  1  0  0  0  0
 21 30  1  0  0  0  0
 21 31  1  0  0  0  0
 23 34  1  0  0  0  0
 23 35  1  0  0  0  0
 42 47  1  0  0  0  0
  8 13  1  0  0  0  0
 18 29  1  0  0  0  0
 26 37  1  0  0  0  0
 26 38  1  0  0  0  0
 27 39  1  0  0  0  0
 27 40  1  0  0  0  0
 51 53  1  0  0  0  0
  7 12  1  0  0  0  0
 41 46  1  0  0  0  0
 17 28  1  0  0  0  0
 24 36  1  0  0  0  0
M  CHG  1  24   1
M  END
$$$$

  -OEChem-05262214473D

 56 55  0     1  0  0  0  0  0999 V2000
    0.7735   -5.8042   -2.0022 C   0  0  0  0  0  0  0  0  0  0  0  0
   -0.2086   -6.3825   -1.5519 O   0  0  0  0  0  0  0  0  0  0  0  0
    1.4751   -6.3646   -3.1946 C   0  0  0  0  0  0  0  0  0  0  0  0
    2.2765   -7.0687   -2.9186 H   0  0  0  0  0  0  0  0  0  0  0  0
    0.7988   -6.9360   -3.8504 H   0  0  0  0  0  0  0  0  0  0  0  0
    1.9556   -5.6216   -3.8511 H   0  0  0  0  0  0  0  0  0  0  0  0
    1.3322   -4.6359   -1.5106 N   0  0  0  0  0  0  0  0  0  0  0  0
    0.8124   -3.9290   -0.3698 C   0  0  2  0  0  0  0  0  0  0  0  0
    1.0666   -2.4424   -0.5818 C   0  0  0  0  0  0  0  0  0  0  0  0
    2.0598   -2.0076   -1.1610 O   0  0  0  0  0  0  0  0  0  0  0  0
    1.4560   -4.4118    0.9207 C   0  0  0  0  0  0  0  0  0  0  0  0
    2.1528   -4.2578   -1.9805 H   0  0  0  0  0  0  0  0  0  0  0  0
   -0.2667   -4.1160   -0.3467 H   0  0  0  0  0  0  0  0  0  0  0  0
    2.5374   -4.2329    0.9160 H   0  0  0  0  0  0  0  0  0  0  0  0
    1.0390   -3.8932    1.7903 H   0  0  0  0  0  0  0  0  0  0  0  0
    1.2976   -5.4871    1.0566 H   0  0  0  0  0  0  0  0  0  0  0  0
    0.0755   -1.6529   -0.0105 N   0  0  0  0  0  0  0  0  0  0  0  0
    0.1113   -0.2132   -0.0391 C   0  0  2  0  0  0  0  0  0  0  0  0
    0.1268    0.2736    1.4060 C   0  0  0  0  0  0  0  0  0  0  0  0
   -0.8772    0.2960    2.1150 O   0  0  0  0  0  0  0  0  0  0  0  0
   -1.0859    0.3778   -0.7905 C   0  0  0  0  0  0  0  0  0  0  0  0
   -1.0534    0.0533   -2.2887 C   0  0  0  0  0  0  0  0  0  0  0  0
   -2.2474    0.6440   -3.0315 C   0  0  0  0  0  0  0  0  0  0  0  0
   -2.2251    0.3128   -4.4545 N   0  3  0  0  0  0  0  0  0  0  0  0
   -3.2476    0.6919   -5.3262 C   0  0  0  0  0  0  0  0  0  0  0  0
   -3.1597    0.3416   -6.6693 N   0  0  0  0  0  0  0  0  0  0  0  0
   -4.3525    1.4122   -4.8841 N   0  0  0  0  0  0  0  0  0  0  0  0
   -0.7323   -2.1024    0.4149 H   0  0  0  0  0  0  0  0  0  0  0  0
    1.0530    0.0715   -0.5223 H   0  0  0  0  0  0  0  0  0  0  0  0
   -1.1006    1.4660   -0.6555 H   0  0  0  0  0  0  0  0  0  0  0  0
   -2.0208   -0.0006   -0.3561 H   0  0  0  0  0  0  0  0  0  0  0  0
   -0.1237    0.4350   -2.7274 H   0  0  0  0  0  0  0  0  0  0  0  0
   -1.0605   -1.0336   -2.4300 H   0  0  0  0  0  0  0  0  0  0  0  0
   -3.1757    0.2380   -2.6180 H   0  0  0  0  0  0  0  0  0  0  0  0
   -2.2667    1.7339   -2.9364 H   0  0  0  0  0  0  0  0  0  0  0  0
   -1.4411   -0.2133   -4.8364 H   0  0  0  0  0  0  0  0  0  0  0  0
   -3.8874    0.6025   -7.3305 H   0  0  0  0  0  0  0  0  0  0  0  0
   -2.3659   -0.1848   -7.0258 H   0  0  0  0  0  0  0  0  0  0  0  0
   -5.0998    1.6907   -5.5147 H   0  0  0  0  0  0  0  0  0  0  0  0
   -4.4439    1.6819   -3.9075 H   0  0  0  0  0  0  0  0  0  0  0  0
    1.3813    0.7247    1.7919 N   0  0  0  0  0  0  0  0  0  0  0  0
    1.6491    1.2817    3.0978 C   0  0  2  0  0  0  0  0  0  0  0  0
    2.7359    2.3377    2.9448 C   0  0  0  0  0  0  0  0  0  0  0  0
    3.6498    2.2462    2.1278 O   0  0  0  0  0  0  0  0  0  0  0  0
    2.0736    0.2036    4.0828 C   0  0  0  0  0  0  0  0  0  0  0  0
    2.1621    0.6373    1.1481 H   0  0  0  0  0  0  0  0  0  0  0  0
    0.7218    1.7574    3.4350 H   0  0  0  0  0  0  0  0  0  0  0  0
    3.0011   -0.2844    3.7617 H   0  0  0  0  0  0  0  0  0  0  0  0
    2.2486    0.6230    5.0791 H   0  0  0  0  0  0  0  0  0  0  0  0
    1.3035   -0.5705    4.1691 H   0  0  0  0  0  0  0  0  0  0  0  0
    2.5896    3.3732    3.8572 N   0  0  0  0  0  0  0  0  0  0  0  0
    3.5192    4.4753    3.9414 C   0  0  0  0  0  0  0  0  0  0  0  0
    1.7800    3.3881    4.4705 H   0  0  0  0  0  0  0  0  0  0  0  0
    4.2946    4.2455    4.6870 H   0  0  0  0  0  0  0  0  0  0  0  0
    3.9899    4.6335    2.9599 H   0  0  0  0  0  0  0  0  0  0  0  0
    2.9810    5.3866    4.2411 H   0  0  0  0  0  0  0  0  0  0  0  0
  1  3  1  0  0  0  0
  1  7  1  0  0  0  0
  1  2  2  0  0  0  0
 42 43  1  0  0  0  0
 43 51  1  0  0  0  0
 43 44  2  0  0  0  0
  8  9  1  0  0  0  0
  9 17  1  0  0  0  0
  9 10  2  0  0  0  0
 18 19  1  0  0  0  0
 19 41  1  0  0  0  0
 19 20  2  0  0  0  0
 25 26  1  0  0  0  0
 25 27  1  0  0  0  0
 24 25  2  0  0  0  0
 42 45  1  0  0  0  0
  8 11  1  0  0  0  0
 51 52  1  0  0  0  0
 21 22  1  0  0  0  0
 22 23  1  0  0  0  0
 18 21  1  0  0  0  0
 23 24  1  0  0  0  0
 41 42  1  0  0  0  0
  7  8  1  0  0  0  0
 17 18  1  0  0  0  0
  3  4  1  0  0  0  0
  3  5  1  0  0  0  0
  3  6  1  0  0  0  0
 45 48  1  0  0  0  0
 45 49  1  0  0  0  0
 45 50  1  0  0  0  0
 11 14  1  0  0  0  0
 11 15  1  0  0  0  0
 11 16  1  0  0  0  0
 52 54  1  0  0  0  0
 52 55  1  0  0  0  0
 52 56  1  0  0  0  0
 22 32  1  0  0  0  0
 22 33  1  0  0  0  0
 21 30  1  0  0  0  0
 21 31  1  0  0  0  0
 23 34  1  0  0  0  0
 23 35  1  0  0  0  0
 42 47  1  0  0  0  0
  8 13  1  0  0  0  0
 18 29  1  0  0  0  0
 26 37  1  0  0  0  0
 26 38  1  0  0  0  0
 27 39  1  0  0  0  0
 27 40  1  0  0  0  0
 51 53  1  0  0  0  0
  7 12  1  0  0  0  0
 41 46  1  0  0  0  0
 17 28  1  0  0  0  0
 24 36  1  0  0  0  0
M  CHG  1  24   1
M  END
$$$$

  -OEChem-05262214473D

 56 55  0     1  0  0  0  0  0999 V2000
    0.7735   -5.8042   -2.0022 C   0  0  0  0  0  0  0  0  0  0  0  0
   -0.2086   -6.3825   -1.5519 O   0  0  0  0  0  0  0  0  0  0  0  0
    1.4751   -6.3646   -3.1946 C   0  0  0  0  0  0  0  0  0  0  0  0
    2.2765   -7.0687   -2.9186 H   0  0  0  0  0  0  0  0  0  0  0  0
    0.7988   -6.9360   -3.8504 H   0  0  0  0  0  0  0  0  0  0  0  0
    1.9556   -5.6216   -3.8511 H   0  0  0  0  0  0  0  0  0  0  0  0
    1.3322   -4.6359   -1.5106 N   0  0  0  0  0  0  0  0  0  0  0  0
    0.8124   -3.9290   -0.3698 C   0  0  2  0  0  0  0  0  0  0  0  0
    1.0666   -2.4424   -0.5818 C   0  0  0  0  0  0  0  0  0  0  0  0
    2.0598   -2.0076   -1.1610 O   0  0  0  0  0  0  0  0  0  0  0  0
    1.4560   -4.4118    0.9207 C   0  0  0  0  0  0  0  0  0  0  0  0
    2.1528   -4.2578   -1.9805 H   0  0  0  0  0  0  0  0  0  0  0  0
   -0.2667   -4.1160   -0.3467 H   0  0  0  0  0  0  0  0  0  0  0  0
    2.5374   -4.2329    0.9160 H   0  0  0  0  0  0  0  0  0  0  0  0
    1.0390   -3.8932    1.7903 H   0  0  0  0  0  0  0  0  0  0  0  0
    1.2976   -5.4871    1.0566 H   0  0  0  0  0  0  0  0  0  0  0  0
    0.0755   -1.6529   -0.0105 N   0  0  0  0  0  0  0  0  0  0  0  0
    0.1113   -0.2132   -0.0391 C   0  0  2  0  0  0  0  0  0  0  0  0
    0.1268    0.2736    1.4060 C   0  0  0  0  0  0  0  0  0  0  0  0
   -0.7897    0.0544    2.1954 O   0  0  0  0  0  0  0  0  0  0  0  0
   -1.0859    0.3778   -0.7905 C   0  0  0  0  0  0  0  0  0  0  0  0
   -1.0534    0.0533   -2.2887 C   0  0  0  0  0  0  0  0  0  0  0  0
   -2.2474    0.6440   -3.0315 C   0  0  0  0  0  0  0  0  0  0  0  0
   -2.2251    0.3128   -4.4545 N   0  3  0  0  0  0  0  0  0  0  0  0
   -3.2476    0.6919   -5.3262 C   0  0  0  0  0  0  0  0  0  0  0  0
   -3.1597    0.3416   -6.6693 N   0  0  0  0  0  0  0  0  0  0  0  0
   -4.3525    1.4122   -4.8841 N   0  0  0  0  0  0  0  0  0  0  0  0
   -0.7323   -2.1024    0.4149 H   0  0  0  0  0  0  0  0  0  0  0  0
    1.0530    0.0715   -0.5223 H   0  0  0  0  0  0  0  0  0  0  0  0
   -1.1006    1.4660   -0.6555 H   0  0  0  0  0  0  0  0  0  0  0  0
   -2.0208   -0.0006   -0.3561 H   0  0  0  0  0  0  0  0  0  0  0  0
   -0.1237    0.4350   -2.7274 H   0  0  0  0  0  0  0  0  0  0  0  0
   -1.0605   -1.0336   -2.4300 H   0  0  0  0  0  0  0  0  0  0  0  0
   -3.1757    0.2380   -2.6180 H   0  0  0  0  0  0  0  0  0  0  0  0
   -2.2667    1.7339   -2.9364 H   0  0  0  0  0  0  0  0  0  0  0  0
   -1.4411   -0.2133   -4.8364 H   0  0  0  0  0  0  0  0  0  0  0  0
   -3.8874    0.6025   -7.3305 H   0  0  0  0  0  0  0  0  0  0  0  0
   -2.3659   -0.1848   -7.0258 H   0  0  0  0  0  0  0  0  0  0  0  0
   -5.0998    1.6907   -5.5147 H   0  0  0  0  0  0  0  0  0  0  0  0
   -4.4439    1.6819   -3.9075 H   0  0  0  0  0  0  0  0  0  0  0  0
    1.2600    1.0217    1.6931 N   0  0  0  0  0  0  0  0  0  0  0  0
    1.4905    1.6374    2.9797 C   0  0  2  0  0  0  0  0  0  0  0  0
    2.2687    2.9266    2.7514 C   0  0  0  0  0  0  0  0  0  0  0  0
    3.1061    3.0558    1.8609 O   0  0  0  0  0  0  0  0  0  0  0  0
    2.2465    0.7041    3.9124 C   0  0  0  0  0  0  0  0  0  0  0  0
    1.9822    1.1236    0.9862 H   0  0  0  0  0  0  0  0  0  0  0  0
    0.5060    1.8736    3.3981 H   0  0  0  0  0  0  0  0  0  0  0  0
    3.2354    0.4561    3.5098 H   0  0  0  0  0  0  0  0  0  0  0  0
    2.3953    1.1612    4.8962 H   0  0  0  0  0  0  0  0  0  0  0  0
    1.6995   -0.2347    4.0518 H   0  0  0  0  0  0  0  0  0  0  0  0
    1.9492    3.9015    3.6861 N   0  0  0  0  0  0  0  0  0  0  0  0
    2.5839    5.1986    3.7077 C   0  0  0  0  0  0  0  0  0  0  0  0
    1.2143    3.7221    4.3640 H   0  0  0  0  0  0  0  0  0  0  0  0
    3.4511    5.1719    4.3839 H   0  0  0  0  0  0  0  0  0  0  0  0
    2.9183    5.4600    2.6928 H   0  0  0  0  0  0  0  0  0  0  0  0
    1.8655    5.9524    4.0625 H   0  0  0  0  0  0  0  0  0  0  0  0
  1  3  1  0  0  0  0
  1  7  1  0  0  0  0
  1  2  2  0  0  0  0
 42 43  1  0  0  0  0
 43 51  1  0  0  0  0
 43 44  2  0  0  0  0
  8  9  1  0  0  0  0
  9 17  1  0  0  0  0
  9 10  2  0  0  0  0
 18 19  1  0  0  0  0
 19 41  1  0  0  0  0
 19 20  2  0  0  0  0
 25 26  1  0  0  0  0
 25 27  1  0  0  0  0
 24 25  2  0  0  0  0
 42 45  1  0  0  0  0
  8 11  1  0  0  0  0
 51 52  1  0  0  0  0
 21 22  1  0  0  0  0
 22 23  1  0  0  0  0
 18 21  1  0  0  0  0
 23 24  1  0  0  0  0
 41 42  1  0  0  0  0
  7  8  1  0  0  0  0
 17 18  1  0  0  0  0
  3  4  1  0  0  0  0
  3  5  1  0  0  0  0
  3  6  1  0  0  0  0
 45 48  1  0  0  0  0
 45 49  1  0  0  0  0
 45 50  1  0  0  0  0
 11 14  1  0  0  0  0
 11 15  1  0  0  0  0
 11 16  1  0  0  0  0
 52 54  1  0  0  0  0
 52 55  1  0  0  0  0
 52 56  1  0  0  0  0
 22 32  1  0  0  0  0
 22 33  1  0  0  0  0
 21 30  1  0  0  0  0
 21 31  1  0  0  0  0
 23 34  1  0  0  0  0
 23 35  1  0  0  0  0
 42 47  1  0  0  0  0
  8 13  1  0  0  0  0
 18 29  1  0  0  0  0
 26 37  1  0  0  0  0
 26 38  1  0  0  0  0
 27 39  1  0  0  0  0
 27 40  1  0  0  0  0
 51 53  1  0  0  0  0
  7 12  1  0  0  0  0
 41 46  1  0  0  0  0
 17 28  1  0  0  0  0
 24 36  1  0  0  0  0
M  CHG  1  24   1
M  END
$$$$

  -OEChem-05262214473D

 56 55  0     1  0  0  0  0  0999 V2000
    0.7735   -5.8042   -2.0022 C   0  0  0  0  0  0  0  0  0  0  0  0
   -0.2086   -6.3825   -1.5519 O   0  0  0  0  0  0  0  0  0  0  0  0
    1.4751   -6.3646   -3.1946 C   0  0  0  0  0  0  0  0  0  0  0  0
    2.2765   -7.0687   -2.9186 H   0  0  0  0  0  0  0  0  0  0  0  0
    0.7988   -6.9360   -3.8504 H   0  0  0  0  0  0  0  0  0  0  0  0
    1.9556   -5.6216   -3.8511 H   0  0  0  0  0  0  0  0  0  0  0  0
    1.3322   -4.6359   -1.5106 N   0  0  0  0  0  0  0  0  0  0  0  0
    0.8124   -3.9290   -0.3698 C   0  0  2  0  0  0  0  0  0  0  0  0
    1.0666   -2.4424   -0.5818 C   0  0  0  0  0  0  0  0  0  0  0  0
    2.0598   -2.0076   -1.1610 O   0  0  0  0  0  0  0  0  0  0  0  0
    1.4560   -4.4118    0.9207 C   0  0  0  0  0  0  0  0  0  0  0  0
    2.1528   -4.2578   -1.9805 H   0  0  0  0  0  0  0  0  0  0  0  0
   -0.2667   -4.1160   -0.3467 H   0  0  0  0  0  0  0  0  0  0  0  0
    2.5374   -4.2329    0.9160 H   0  0  0  0  0  0  0  0  0  0  0  0
    1.0390   -3.8932    1.7903 H   0  0  0  0  0  0  0  0  0  0  0  0
    1.2976   -5.4871    1.0566 H   0  0  0  0  0  0  0  0  0  0  0  0
    0.0755   -1.6529   -0.0105 N   0  0  0  0  0  0  0  0  0  0  0  0
    0.1113   -0.2132   -0.0391 C   0  0  2  0  0  0  0  0  0  0  0  0
    0.1268    0.2736    1.4060 C   0  0  0  0  0  0  0  0  0  0  0  0
   -0.6392   -0.1577    2.2653 O   0  0  0  0  0  0  0  0  0  0  0  0
   -1.0859    0.3778   -0.7905 C   0  0  0  0  0  0  0  0  0  0  0  0
   -1.0534    0.0533   -2.2887 C   0  0  0  0  0  0  0  0  0  0  0  0
   -2.2474    0.6440   -3.0315 C   0  0  0  0  0  0  0  0  0  0  0  0
   -2.2251    0.3128   -4.4545 N   0  3  0  0  0  0  0  0  0  0  0  0
   -3.2476    0.6919   -5.3262 C   0  0  0  0  0  0  0  0  0  0  0  0
   -3.1597    0.3416   -6.6693 N   0  0  0  0  0  0  0  0  0  0  0  0
   -4.3525    1.4122   -4.8841 N   0  0  0  0  0  0  0  0  0  0  0  0
   -0.7323   -2.1024    0.4149 H   0  0  0  0  0  0  0  0  0  0  0  0
    1.0530    0.0715   -0.5223 H   0  0  0  0  0  0  0  0  0  0  0  0
   -1.1006    1.4660   -0.6555 H   0  0  0  0  0  0  0  0  0  0  0  0
   -2.0208   -0.0006   -0.3561 H   0  0  0  0  0  0  0  0  0  0  0  0
   -0.1237    0.4350   -2.7274 H   0  0  0  0  0  0  0  0  0  0  0  0
   -1.0605   -1.0336   -2.4300 H   0  0  0  0  0  0  0  0  0  0  0  0
   -3.1757    0.2380   -2.6180 H   0  0  0  0  0  0  0  0  0  0  0  0
   -2.2667    1.7339   -2.9364 H   0  0  0  0  0  0  0  0  0  0  0  0
   -1.4411   -0.2133   -4.8364 H   0  0  0  0  0  0  0  0  0  0  0  0
   -3.8874    0.6025   -7.3305 H   0  0  0  0  0  0  0  0  0  0  0  0
   -2.3659   -0.1848   -7.0258 H   0  0  0  0  0  0  0  0  0  0  0  0
   -5.0998    1.6907   -5.5147 H   0  0  0  0  0  0  0  0  0  0  0  0
   -4.4439    1.6819   -3.9075 H   0  0  0  0  0  0  0  0  0  0  0  0
    1.0618    1.2791    1.6085 N   0  0  0  0  0  0  0  0  0  0  0  0
    1.2402    1.9424    2.8796 C   0  0  2  0  0  0  0  0  0  0  0  0
    1.6569    3.3813    2.6047 C   0  0  0  0  0  0  0  0  0  0  0  0
    2.3603    3.7052    1.6500 O   0  0  0  0  0  0  0  0  0  0  0  0
    2.2767    1.2303    3.7348 C   0  0  0  0  0  0  0  0  0  0  0  0
    1.6757    1.5496    0.8459 H   0  0  0  0  0  0  0  0  0  0  0  0
    0.2661    1.9331    3.3807 H   0  0  0  0  0  0  0  0  0  0  0  0
    3.2592    1.2295    3.2490 H   0  0  0  0  0  0  0  0  0  0  0  0
    2.3900    1.7176    4.7088 H   0  0  0  0  0  0  0  0  0  0  0  0
    1.9900    0.1872    3.9066 H   0  0  0  0  0  0  0  0  0  0  0  0
    1.1869    4.2552    3.5750 N   0  0  0  0  0  0  0  0  0  0  0  0
    1.4837    5.6686    3.5611 C   0  0  0  0  0  0  0  0  0  0  0  0
    0.5773    3.9062    4.3088 H   0  0  0  0  0  0  0  0  0  0  0  0
    2.3840    5.8606    4.1632 H   0  0  0  0  0  0  0  0  0  0  0  0
    1.6585    5.9962    2.5256 H   0  0  0  0  0  0  0  0  0  0  0  0
    0.6345    6.2257    3.9835 H   0  0  0  0  0  0  0  0  0  0  0  0
  1  3  1  0  0  0  0
  1  7  1  0  0  0  0
  1  2  2  0  0  0  0
 42 43  1  0  0  0  0
 43 51  1  0  0  0  0
 43 44  2  0  0  0  0
  8  9  1  0  0  0  0
  9 17  1  0  0  0  0
  9 10  2  0  0  0  0
 18 19  1  0  0  0  0
 19 41  1  0  0  0  0
 19 20  2  0  0  0  0
 25 26  1  0  0  0  0
 25 27  1  0  0  0  0
 24 25  2  0  0  0  0
 42 45  1  0  0  0  0
  8 11  1  0  0  0  0
 51 52  1  0  0  0  0
 21 22  1  0  0  0  0
 22 23  1  0  0  0  0
 18 21  1  0  0  0  0
 23 24  1  0  0  0  0
 41 42  1  0  0  0  0
  7  8  1  0  0  0  0
 17 18  1  0  0  0  0
  3  4  1  0  0  0  0
  3  5  1  0  0  0  0
  3  6  1  0  0  0  0
 45 48  1  0  0  0  0
 45 49  1  0  0  0  0
 45 50  1  0  0  0  0
 11 14  1  0  0  0  0
 11 15  1  0  0  0  0
 11 16  1  0  0  0  0
 52 54  1  0  0  0  0
 52 55  1  0  0  0  0
 52 56  1  0  0  0  0
 22 32  1  0  0  0  0
 22 33  1  0  0  0  0
 21 30  1  0  0  0  0
 21 31  1  0  0  0  0
 23 34  1  0  0  0  0
 23 35  1  0  0  0  0
 42 47  1  0  0  0  0
  8 13  1  0  0  0  0
 18 29  1  0  0  0  0
 26 37  1  0  0  0  0
 26 38  1  0  0  0  0
 27 39  1  0  0  0  0
 27 40  1  0  0  0  0
 51 53  1  0  0  0  0
  7 12  1  0  0  0  0
 41 46  1  0  0  0  0
 17 28  1  0  0  0  0
 24 36  1  0  0  0  0
M  CHG  1  24   1
M  END
$$$$

  -OEChem-05262214473D

 56 55  0     1  0  0  0  0  0999 V2000
    0.7735   -5.8042   -2.0022 C   0  0  0  0  0  0  0  0  0  0  0  0
   -0.2086   -6.3825   -1.5519 O   0  0  0  0  0  0  0  0  0  0  0  0
    1.4751   -6.3646   -3.1946 C   0  0  0  0  0  0  0  0  0  0  0  0
    2.2765   -7.0687   -2.9186 H   0  0  0  0  0  0  0  0  0  0  0  0
    0.7988   -6.9360   -3.8504 H   0  0  0  0  0  0  0  0  0  0  0  0
    1.9556   -5.6216   -3.8511 H   0  0  0  0  0  0  0  0  0  0  0  0
    1.3322   -4.6359   -1.5106 N   0  0  0  0  0  0  0  0  0  0  0  0
    0.8124   -3.9290   -0.3698 C   0  0  2  0  0  0  0  0  0  0  0  0
    1.0666   -2.4424   -0.5818 C   0  0  0  0  0  0  0  0  0  0  0  0
    2.0598   -2.0076   -1.1610 O   0  0  0  0  0  0  0  0  0  0  0  0
    1.4560   -4.4118    0.9207 C   0  0  0  0  0  0  0  0  0  0  0  0
    2.1528   -4.2578   -1.9805 H   0  0  0  0  0  0  0  0  0  0  0  0
   -0.2667   -4.1160   -0.3467 H   0  0  0  0  0  0  0  0  0  0  0  0
    2.5374   -4.2329    0.9160 H   0  0  0  0  0  0  0  0  0  0  0  0
    1.0390   -3.8932    1.7903 H   0  0  0  0  0  0  0  0  0  0  0  0
    1.2976   -5.4871    1.0566 H   0  0  0  0  0  0  0  0  0  0  0  0
    0.0755   -1.6529   -0.0105 N   0  0  0  0  0  0  0  0  0  0  0  0
    0.1113   -0.2132   -0.0391 C   0  0  2  0  0  0  0  0  0  0  0  0
    0.1268    0.2736    1.4060 C   0  0  0  0  0  0  0  0  0  0  0  0
   -0.4361   -0.3258    2.3198 O   0  0  0  0  0  0  0  0  0  0  0  0
   -1.0859    0.3778   -0.7905 C   0  0  0  0  0  0  0  0  0  0  0  0
   -1.0534    0.0533   -2.2887 C   0  0  0  0  0  0  0  0  0  0  0  0
   -2.2474    0.6440   -3.0315 C   0  0  0  0  0  0  0  0  0  0  0  0
   -2.2251    0.3128   -4.4545 N   0  3  0  0  0  0  0  0  0  0  0  0
   -3.2476    0.6919   -5.3262 C   0  0  0  0  0  0  0  0  0  0  0  0
   -3.1597    0.3416   -6.6693 N   0  0  0  0  0  0  0  0  0  0  0  0
   -4.3525    1.4122   -4.8841 N   0  0  0  0  0  0  0  0  0  0  0  0
   -0.7323   -2.1024    0.4149 H   0  0  0  0  0  0  0  0  0  0  0  0
    1.0530    0.0715   -0.5223 H   0  0  0  0  0  0  0  0  0  0  0  0
   -1.1006    1.4660   -0.6555 H   0  0  0  0  0  0  0  0  0  0  0  0
   -2.0208   -0.0006   -0.3561 H   0  0  0  0  0  0  0  0  0  0  0  0
   -0.1237    0.4350   -2.7274 H   0  0  0  0  0  0  0  0  0  0  0  0
   -1.0605   -1.0336   -2.4300 H   0  0  0  0  0  0  0  0  0  0  0  0
   -3.1757    0.2380   -2.6180 H   0  0  0  0  0  0  0  0  0  0  0  0
   -2.2667    1.7339   -2.9364 H   0  0  0  0  0  0  0  0  0  0  0  0
   -1.4411   -0.2133   -4.8364 H   0  0  0  0  0  0  0  0  0  0  0  0
   -3.8874    0.6025   -7.3305 H   0  0  0  0  0  0  0  0  0  0  0  0
   -2.3659   -0.1848   -7.0258 H   0  0  0  0  0  0  0  0  0  0  0  0
   -5.0998    1.6907   -5.5147 H   0  0  0  0  0  0  0  0  0  0  0  0
   -4.4439    1.6819   -3.9075 H   0  0  0  0  0  0  0  0  0  0  0  0
    0.8003    1.4793    1.5439 N   0  0  0  0  0  0  0  0  0  0  0  0
    0.9154    2.1759    2.8044 C   0  0  2  0  0  0  0  0  0  0  0  0
    0.9424    3.6709    2.5148 C   0  0  0  0  0  0  0  0  0  0  0  0
    1.4631    4.1501    1.5097 O   0  0  0  0  0  0  0  0  0  0  0  0
    2.1621    1.7465    3.5621 C   0  0  0  0  0  0  0  0  0  0  0  0
    1.2637    1.8864    0.7369 H   0  0  0  0  0  0  0  0  0  0  0  0
    0.0184    1.9317    3.3838 H   0  0  0  0  0  0  0  0  0  0  0  0
    3.0711    1.9830    2.9971 H   0  0  0  0  0  0  0  0  0  0  0  0
    2.2328    2.2541    4.5297 H   0  0  0  0  0  0  0  0  0  0  0  0
    2.1552    0.6662    3.7434 H   0  0  0  0  0  0  0  0  0  0  0  0
    0.3546    4.4101    3.5317 N   0  0  0  0  0  0  0  0  0  0  0  0
    0.2937    5.8530    3.5116 C   0  0  0  0  0  0  0  0  0  0  0  0
   -0.0878    3.9279    4.3085 H   0  0  0  0  0  0  0  0  0  0  0  0
    1.1662    6.2647    4.0401 H   0  0  0  0  0  0  0  0  0  0  0  0
    0.2964    6.2055    2.4696 H   0  0  0  0  0  0  0  0  0  0  0  0
   -0.6281    6.1879    4.0097 H   0  0  0  0  0  0  0  0  0  0  0  0
  1  3  1  0  0  0  0
  1  7  1  0  0  0  0
  1  2  2  0  0  0  0
 42 43  1  0  0  0  0
 43 51  1  0  0  0  0
 43 44  2  0  0  0  0
  8  9  1  0  0  0  0
  9 17  1  0  0  0  0
  9 10  2  0  0  0  0
 18 19  1  0  0  0  0
 19 41  1  0  0  0  0
 19 20  2  0  0  0  0
 25 26  1  0  0  0  0
 25 27  1  0  0  0  0
 24 25  2  0  0  0  0
 42 45  1  0  0  0  0
  8 11  1  0  0  0  0
 51 52  1  0  0  0  0
 21 22  1  0  0  0  0
 22 23  1  0  0  0  0
 18 21  1  0  0  0  0
 23 24  1  0  0  0  0
 41 42  1  0  0  0  0
  7  8  1  0  0  0  0
 17 18  1  0  0  0  0
  3  4  1  0  0  0  0
  3  5  1  0  0  0  0
  3  6  1  0  0  0  0
 45 48  1  0  0  0  0
 45 49  1  0  0  0  0
 45 50  1  0  0  0  0
 11 14  1  0  0  0  0
 11 15  1  0  0  0  0
 11 16  1  0  0  0  0
 52 54  1  0  0  0  0
 52 55  1  0  0  0  0
 52 56  1  0  0  0  0
 22 32  1  0  0  0  0
 22 33  1  0  0  0  0
 21 30  1  0  0  0  0
 21 31  1  0  0  0  0
 23 34  1  0  0  0  0
 23 35  1  0  0  0  0
 42 47  1  0  0  0  0
  8 13  1  0  0  0  0
 18 29  1  0  0  0  0
 26 37  1  0  0  0  0
 26 38  1  0  0  0  0
 27 39  1  0  0  0  0
 27 40  1  0  0  0  0
 51 53  1  0  0  0  0
  7 12  1  0  0  0  0
 41 46  1  0  0  0  0
 17 28  1  0  0  0  0
 24 36  1  0  0  0  0
M  CHG  1  24   1
M  END
$$$$

  -OEChem-05262214473D

 56 55  0     1  0  0  0  0  0999 V2000
    0.7735   -5.8042   -2.0022 C   0  0  0  0  0  0  0  0  0  0  0  0
   -0.2086   -6.3825   -1.5519 O   0  0  0  0  0  0  0  0  0  0  0  0
    1.4751   -6.3646   -3.1946 C   0  0  0  0  0  0  0  0  0  0  0  0
    2.2765   -7.0687   -2.9186 H   0  0  0  0  0  0  0  0  0  0  0  0
    0.7988   -6.9360   -3.8504 H   0  0  0  0  0  0  0  0  0  0  0  0
    1.9556   -5.6216   -3.8511 H   0  0  0  0  0  0  0  0  0  0  0  0
    1.3322   -4.6359   -1.5106 N   0  0  0  0  0  0  0  0  0  0  0  0
    0.8124   -3.9290   -0.3698 C   0  0  2  0  0  0  0  0  0  0  0  0
    1.0666   -2.4424   -0.5818 C   0  0  0  0  0  0  0  0  0  0  0  0
    2.0598   -2.0076   -1.1610 O   0  0  0  0  0  0  0  0  0  0  0  0
    1.4560   -4.4118    0.9207 C   0  0  0  0  0  0  0  0  0  0  0  0
    2.1528   -4.2578   -1.9805 H   0  0  0  0  0  0  0  0  0  0  0  0
   -0.2667   -4.1160   -0.3467 H   0  0  0  0  0  0  0  0  0  0  0  0
    2.5374   -4.2329    0.9160 H   0  0  0  0  0  0  0  0  0  0  0  0
    1.0390   -3.8932    1.7903 H   0  0  0  0  0  0  0  0  0  0  0  0
    1.2976   -5.4871    1.0566 H   0  0  0  0  0  0  0  0  0  0  0  0
    0.0755   -1.6529   -0.0105 N   0  0  0  0  0  0  0  0  0  0  0  0
    0.1113   -0.2132   -0.0391 C   0  0  2  0  0  0  0  0  0  0  0  0
    0.1268    0.2736    1.4060 C   0  0  0  0  0  0  0  0  0  0  0  0
   -0.1942   -0.4386    2.3552 O   0  0  0  0  0  0  0  0  0  0  0  0
   -1.0859    0.3778   -0.7905 C   0  0  0  0  0  0  0  0  0  0  0  0
   -1.0534    0.0533   -2.2887 C   0  0  0  0  0  0  0  0  0  0  0  0
   -2.2474    0.6440   -3.0315 C   0  0  0  0  0  0  0  0  0  0  0  0
   -2.2251    0.3128   -4.4545 N   0  3  0  0  0  0  0  0  0  0  0  0
   -3.2476    0.6919   -5.3262 C   0  0  0  0  0  0  0  0  0  0  0  0
   -3.1597    0.3416   -6.6693 N   0  0  0  0  0  0  0  0  0  0  0  0
   -4.3525    1.4122   -4.8841 N   0  0  0  0  0  0  0  0  0  0  0  0
   -0.7323   -2.1024    0.4149 H   0  0  0  0  0  0  0  0  0  0  0  0
    1.0530    0.0715   -0.5223 H   0  0  0  0  0  0  0  0  0  0  0  0
   -1.1006    1.4660   -0.6555 H   0  0  0  0  0  0  0  0  0  0  0  0
   -2.0208   -0.0006   -0.3561 H   0  0  0  0  0  0  0  0  0  0  0  0
   -0.1237    0.4350   -2.7274 H   0  0  0  0  0  0  0  0  0  0  0  0
   -1.0605   -1.0336   -2.4300 H   0  0  0  0  0  0  0  0  0  0  0  0
   -3.1757    0.2380   -2.6180 H   0  0  0  0  0  0  0  0  0  0  0  0
   -2.2667    1.7339   -2.9364 H   0  0  0  0  0  0  0  0  0  0  0  0
   -1.4411   -0.2133   -4.8364 H   0  0  0  0  0  0  0  0  0  0  0  0
   -3.8874    0.6025   -7.3305 H   0  0  0  0  0  0  0  0  0  0  0  0
   -2.3659   -0.1848   -7.0258 H   0  0  0  0  0  0  0  0  0  0  0  0
   -5.0998    1.6907   -5.5147 H   0  0  0  0  0  0  0  0  0  0  0  0
   -4.4439    1.6819   -3.9075 H   0  0  0  0  0  0  0  0  0  0  0  0
    0.4932    1.6087    1.5035 N   0  0  0  0  0  0  0  0  0  0  0  0
    0.5382    2.3220    2.7592 C   0  0  2  0  0  0  0  0  0  0  0  0
    0.1737    3.7756    2.4877 C   0  0  0  0  0  0  0  0  0  0  0  0
    0.4759    4.3602    1.4495 O   0  0  0  0  0  0  0  0  0  0  0  0
    1.9105    2.2174    3.4061 C   0  0  0  0  0  0  0  0  0  0  0  0
    0.7741    2.1108    0.6664 H   0  0  0  0  0  0  0  0  0  0  0  0
   -0.2203    1.8696    3.4073 H   0  0  0  0  0  0  0  0  0  0  0  0
    2.6837    2.6654    2.7713 H   0  0  0  0  0  0  0  0  0  0  0  0
    1.9347    2.7343    4.3711 H   0  0  0  0  0  0  0  0  0  0  0  0
    2.1837    1.1699    3.5734 H   0  0  0  0  0  0  0  0  0  0  0  0
   -0.4909    4.3558    3.5590 N   0  0  0  0  0  0  0  0  0  0  0  0
   -0.9051    5.7394    3.5627 C   0  0  0  0  0  0  0  0  0  0  0  0
   -0.7355    3.7857    4.3633 H   0  0  0  0  0  0  0  0  0  0  0  0
   -0.1194    6.3567    4.0228 H   0  0  0  0  0  0  0  0  0  0  0  0
   -1.0754    6.0738    2.5286 H   0  0  0  0  0  0  0  0  0  0  0  0
   -1.8363    5.8418    4.1392 H   0  0  0  0  0  0  0  0  0  0  0  0
  1  3  1  0  0  0  0
  1  7  1  0  0  0  0
  1  2  2  0  0  0  0
 42 43  1  0  0  0  0
 43 51  1  0  0  0  0
 43 44  2  0  0  0  0
  8  9  1  0  0  0  0
  9 17  1  0  0  0  0
  9 10  2  0  0  0  0
 18 19  1  0  0  0  0
 19 41  1  0  0  0  0
 19 20  2  0  0  0  0
 25 26  1  0  0  0  0
 25 27  1  0  0  0  0
 24 25  2  0  0  0  0
 42 45  1  0  0  0  0
  8 11  1  0  0  0  0
 51 52  1  0  0  0  0
 21 22  1  0  0  0  0
 22 23  1  0  0  0  0
 18 21  1  0  0  0  0
 23 24  1  0  0  0  0
 41 42  1  0  0  0  0
  7  8  1  0  0  0  0
 17 18  1  0  0  0  0
  3  4  1  0  0  0  0
  3  5  1  0  0  0  0
  3  6  1  0  0  0  0
 45 48  1  0  0  0  0
 45 49  1  0  0  0  0
 45 50  1  0  0  0  0
 11 14  1  0  0  0  0
 11 15  1  0  0  0  0
 11 16  1  0  0  0  0
 52 54  1  0  0  0  0
 52 55  1  0  0  0  0
 52 56  1  0  0  0  0
 22 32  1  0  0  0  0
 22 33  1  0  0  0  0
 21 30  1  0  0  0  0
 21 31  1  0  0  0  0
 23 34  1  0  0  0  0
 23 35  1  0  0  0  0
 42 47  1  0  0  0  0
  8 13  1  0  0  0  0
 18 29  1  0  0  0  0
 26 37  1  0  0  0  0
 26 38  1  0  0  0  0
 27 39  1  0  0  0  0
 27 40  1  0  0  0  0
 51 53  1  0  0  0  0
  7 12  1  0  0  0  0
 41 46  1  0  0  0  0
 17 28  1  0  0  0  0
 24 36  1  0  0  0  0
M  CHG  1  24   1
M  END
$$$$

  -OEChem-05262214473D

 56 55  0     1  0  0  0  0  0999 V2000
    0.7735   -5.8042   -2.0022 C   0  0  0  0  0  0  0  0  0  0  0  0
   -0.2086   -6.3825   -1.5519 O   0  0  0  0  0  0  0  0  0  0  0  0
    1.4751   -6.3646   -3.1946 C   0  0  0  0  0  0  0  0  0  0  0  0
    2.2765   -7.0687   -2.9186 H   0  0  0  0  0  0  0  0  0  0  0  0
    0.7988   -6.9360   -3.8504 H   0  0  0  0  0  0  0  0  0  0  0  0
    1.9556   -5.6216   -3.8511 H   0  0  0  0  0  0  0  0  0  0  0  0
    1.3322   -4.6359   -1.5106 N   0  0  0  0  0  0  0  0  0  0  0  0
    0.8124   -3.9290   -0.3698 C   0  0  2  0  0  0  0  0  0  0  0  0
    1.0666   -2.4424   -0.5818 C   0  0  0  0  0  0  0  0  0  0  0  0
    2.0598   -2.0076   -1.1610 O   0  0  0  0  0  0  0  0  0  0  0  0
    1.4560   -4.4118    0.9207 C   0  0  0  0  0  0  0  0  0  0  0  0
    2.1528   -4.2578   -1.9805 H   0  0  0  0  0  0  0  0  0  0  0  0
   -0.2667   -4.1160   -0.3467 H   0  0  0  0  0  0  0  0  0  0  0  0
    2.5374   -4.2329    0.9160 H   0  0  0  0  0  0  0  0  0  0  0  0
    1.0390   -3.8932    1.7903 H   0  0  0  0  0  0  0  0  0  0  0  0
    1.2976   -5.4871    1.0566 H   0  0  0  0  0  0  0  0  0  0  0  0
    0.0755   -1.6529   -0.0105 N   0  0  0  0  0  0  0  0  0  0  0  0
    0.1113   -0.2132   -0.0391 C   0  0  2  0  0  0  0  0  0  0  0  0
    0.5030    0.2632    1.3556 C   0  0  0  0  0  0  0  0  0  0  0  0
    0.6928   -0.5052    2.2961 O   0  0  0  0  0  0  0  0  0  0  0  0
   -1.2360    0.3883   -0.4517 C   0  0  0  0  0  0  0  0  0  0  0  0
   -1.5941    0.0743   -1.9092 C   0  0  0  0  0  0  0  0  0  0  0  0
   -2.9359    0.6754   -2.3144 C   0  0  0  0  0  0  0  0  0  0  0  0
   -3.2845    0.3543   -3.6966 N   0  3  0  0  0  0  0  0  0  0  0  0
   -4.4954    0.7440   -4.2719 C   0  0  0  0  0  0  0  0  0  0  0  0
   -4.7601    0.4029   -5.5940 N   0  0  0  0  0  0  0  0  0  0  0  0
   -5.4440    1.4659   -3.5549 N   0  0  0  0  0  0  0  0  0  0  0  0
   -0.7323   -2.1024    0.4149 H   0  0  0  0  0  0  0  0  0  0  0  0
    0.8977    0.0708   -0.7478 H   0  0  0  0  0  0  0  0  0  0  0  0
   -1.2087    1.4756   -0.3112 H   0  0  0  0  0  0  0  0  0  0  0  0
   -2.0289    0.0109    0.2075 H   0  0  0  0  0  0  0  0  0  0  0  0
   -0.8072    0.4552   -2.5713 H   0  0  0  0  0  0  0  0  0  0  0  0
   -1.6439   -1.0115   -2.0501 H   0  0  0  0  0  0  0  0  0  0  0  0
   -3.7281    0.2705   -1.6772 H   0  0  0  0  0  0  0  0  0  0  0  0
   -2.9235    1.7647   -2.2112 H   0  0  0  0  0  0  0  0  0  0  0  0
   -2.6292   -0.1724   -4.2714 H   0  0  0  0  0  0  0  0  0  0  0  0
   -5.6324    0.6716   -6.0430 H   0  0  0  0  0  0  0  0  0  0  0  0
   -4.0886   -0.1244   -6.1468 H   0  0  0  0  0  0  0  0  0  0  0  0
   -6.3273    1.7521   -3.9691 H   0  0  0  0  0  0  0  0  0  0  0  0
   -5.2780    1.7290   -2.5863 H   0  0  0  0  0  0  0  0  0  0  0  0
    0.5666    1.6474    1.4360 N   0  0  0  0  0  0  0  0  0  0  0  0
    0.8697    2.3506    2.6612 C   0  0  2  0  0  0  0  0  0  0  0  0
    0.1142    3.6729    2.6437 C   0  0  0  0  0  0  0  0  0  0  0  0
   -0.0938    4.3130    1.6150 O   0  0  0  0  0  0  0  0  0  0  0  0
    2.3654    2.5811    2.8114 C   0  0  0  0  0  0  0  0  0  0  0  0
    0.4260    2.2023    0.5970 H   0  0  0  0  0  0  0  0  0  0  0  0
    0.4990    1.7284    3.4830 H   0  0  0  0  0  0  0  0  0  0  0  0
    2.7549    3.2027    1.9969 H   0  0  0  0  0  0  0  0  0  0  0  0
    2.5959    3.0888    3.7538 H   0  0  0  0  0  0  0  0  0  0  0  0
    2.9099    1.6308    2.7939 H   0  0  0  0  0  0  0  0  0  0  0  0
   -0.2628    4.0755    3.9172 N   0  0  0  0  0  0  0  0  0  0  0  0
   -0.9548    5.3179    4.1692 C   0  0  0  0  0  0  0  0  0  0  0  0
   -0.0846    3.4633    4.7080 H   0  0  0  0  0  0  0  0  0  0  0  0
   -0.2223    6.1069    4.3949 H   0  0  0  0  0  0  0  0  0  0  0  0
   -1.5359    5.6009    3.2792 H   0  0  0  0  0  0  0  0  0  0  0  0
   -1.6336    5.1922    5.0256 H   0  0  0  0  0  0  0  0  0  0  0  0
  1  3  1  0  0  0  0
  1  7  1  0  0  0  0
  1  2  2  0  0  0  0
 42 43  1  0  0  0  0
 43 51  1  0  0  0  0
 43 44  2  0  0  0  0
  8  9  1  0  0  0  0
  9 17  1  0  0  0  0
  9 10  2  0  0  0  0
 18 19  1  0  0  0  0
 19 41  1  0  0  0  0
 19 20  2  0  0  0  0
 25 26  1  0  0  0  0
 25 27  1  0  0  0  0
 24 25  2  0  0  0  0
 42 45  1  0  0  0  0
  8 11  1  0  0  0  0
 51 52  1  0  0  0  0
 21 22  1  0  0  0  0
 22 23  1  0  0  0  0
 18 21  1  0  0  0  0
 23 24  1  0  0  0  0
 41 42  1  0  0  0  0
  7  8  1  0  0  0  0
 17 18  1  0  0  0  0
  3  4  1  0  0  0  0
  3  5  1  0  0  0  0
  3  6  1  0  0  0  0
 45 48  1  0  0  0  0
 45 49  1  0  0  0  0
 45 50  1  0  0  0  0
 11 14  1  0  0  0  0
 11 15  1  0  0  0  0
 11 16  1  0  0  0  0
 52 54  1  0  0  0  0
 52 55  1  0  0  0  0
 52 56  1  0  0  0  0
 22 32  1  0  0  0  0
 22 33  1  0  0  0  0
 21 30  1  0  0  0  0
 21 31  1  0  0  0  0
 23 34  1  0  0  0  0
 23 35  1  0  0  0  0
 42 47  1  0  0  0  0
  8 13  1  0  0  0  0
 18 29  1  0  0  0  0
 26 37  1  0  0  0  0
 26 38  1  0  0  0  0
 27 39  1  0  0  0  0
 27 40  1  0  0  0  0
 51 53  1  0  0  0  0
  7 12  1  0  0  0  0
 41 46  1  0  0  0  0
 17 28  1  0  0  0  0
 24 36  1  0  0  0  0
M  CHG  1  24   1
M  END
$$$$

  -OEChem-05262214473D

 56 55  0     1  0  0  0  0  0999 V2000
    0.7735   -5.8042   -2.0022 C   0  0  0  0  0  0  0  0  0  0  0  0
   -0.2086   -6.3825   -1.5519 O   0  0  0  0  0  0  0  0  0  0  0  0
    1.4751   -6.3646   -3.1946 C   0  0  0  0  0  0  0  0  0  0  0  0
    2.2765   -7.0687   -2.9186 H   0  0  0  0  0  0  0  0  0  0  0  0
    0.7988   -6.9360   -3.8504 H   0  0  0  0  0  0  0  0  0  0  0  0
    1.9556   -5.6216   -3.8511 H   0  0  0  0  0  0  0  0  0  0  0  0
    1.3322   -4.6359   -1.5106 N   0  0  0  0  0  0  0  0  0  0  0  0
    0.8124   -3.9290   -0.3698 C   0  0  2  0  0  0  0  0  0  0  0  0
    1.0666   -2.4424   -0.5818 C   0  0  0  0  0  0  0  0  0  0  0  0
    2.0598   -2.0076   -1.1610 O   0  0  0  0  0  0  0  0  0  0  0  0
    1.4560   -4.4118    0.9207 C   0  0  0  0  0  0  0  0  0  0  0  0
    2.1528   -4.2578   -1.9805 H   0  0  0  0  0  0  0  0  0  0  0  0
   -0.2667   -4.1160   -0.3467 H   0  0  0  0  0  0  0  0  0  0  0  0
    2.5374   -4.2329    0.9160 H   0  0  0  0  0  0  0  0  0  0  0  0
    1.0390   -3.8932    1.7903 H   0  0  0  0  0  0  0  0  0  0  0  0
    1.2976   -5.4871    1.0566 H   0  0  0  0  0  0  0  0  0  0  0  0
    0.0755   -1.6529   -0.0105 N   0  0  0  0  0  0  0  0  0  0  0  0
    0.1113   -0.2132   -0.0391 C   0  0  2  0  0  0  0  0  0  0  0  0
    0.5030    0.2632    1.3556 C   0  0  0  0  0  0  0  0  0  0  0  0
    0.9501   -0.4895    2.2185 O   0  0  0  0  0  0  0  0  0  0  0  0
   -1.2360    0.3883   -0.4517 C   0  0  0  0  0  0  0  0  0  0  0  0
   -1.5941    0.0743   -1.9092 C   0  0  0  0  0  0  0  0  0  0  0  0
   -2.9359    0.6754   -2.3144 C   0  0  0  0  0  0  0  0  0  0  0  0
   -3.2845    0.3543   -3.6966 N   0  3  0  0  0  0  0  0  0  0  0  0
   -4.4954    0.7440   -4.2719 C   0  0  0  0  0  0  0  0  0  0  0  0
   -4.7601    0.4029   -5.5940 N   0  0  0  0  0  0  0  0  0  0  0  0
   -5.4440    1.4659   -3.5549 N   0  0  0  0  0  0  0  0  0  0  0  0
   -0.7323   -2.1024    0.4149 H   0  0  0  0  0  0  0  0  0  0  0  0
    0.8977    0.0708   -0.7478 H   0  0  0  0  0  0  0  0  0  0  0  0
   -1.2087    1.4756   -0.3112 H   0  0  0  0  0  0  0  0  0  0  0  0
   -2.0289    0.0109    0.2075 H   0  0  0  0  0  0  0  0  0  0  0  0
   -0.8072    0.4552   -2.5713 H   0  0  0  0  0  0  0  0  0  0  0  0
   -1.6439   -1.0115   -2.0501 H   0  0  0  0  0  0  0  0  0  0  0  0
   -3.7281    0.2705   -1.6772 H   0  0  0  0  0  0  0  0  0  0  0  0
   -2.9235    1.7647   -2.2112 H   0  0  0  0  0  0  0  0  0  0  0  0
   -2.6292   -0.1724   -4.2714 H   0  0  0  0  0  0  0  0  0  0  0  0
   -5.6324    0.6716   -6.0430 H   0  0  0  0  0  0  0  0  0  0  0  0
   -4.0886   -0.1244   -6.1468 H   0  0  0  0  0  0  0  0  0  0  0  0
   -6.3273    1.7521   -3.9691 H   0  0  0  0  0  0  0  0  0  0  0  0
   -5.2780    1.7290   -2.5863 H   0  0  0  0  0  0  0  0  0  0  0  0
    0.2479    1.6155    1.5364 N   0  0  0  0  0  0  0  0  0  0  0  0
    0.4857    2.3002    2.7862 C   0  0  2  0  0  0  0  0  0  0  0  0
   -0.5567    3.4019    2.9246 C   0  0  0  0  0  0  0  0  0  0  0  0
   -0.9993    4.0309    1.9657 O   0  0  0  0  0  0  0  0  0  0  0  0
    1.8932    2.8732    2.8442 C   0  0  0  0  0  0  0  0  0  0  0  0
   -0.0927    2.1672    0.7546 H   0  0  0  0  0  0  0  0  0  0  0  0
    0.3454    1.5617    3.5831 H   0  0  0  0  0  0  0  0  0  0  0  0
    2.0525    3.6151    2.0532 H   0  0  0  0  0  0  0  0  0  0  0  0
    2.0813    3.3670    3.8033 H   0  0  0  0  0  0  0  0  0  0  0  0
    2.6411    2.0835    2.7147 H   0  0  0  0  0  0  0  0  0  0  0  0
   -0.9027    3.6296    4.2492 N   0  0  0  0  0  0  0  0  0  0  0  0
   -1.8410    4.6538    4.6449 C   0  0  0  0  0  0  0  0  0  0  0  0
   -0.5167    3.0341    4.9760 H   0  0  0  0  0  0  0  0  0  0  0  0
   -1.2964    5.5812    4.8761 H   0  0  0  0  0  0  0  0  0  0  0  0
   -2.5489    4.8395    3.8237 H   0  0  0  0  0  0  0  0  0  0  0  0
   -2.3927    4.3208    5.5364 H   0  0  0  0  0  0  0  0  0  0  0  0
  1  3  1  0  0  0  0
  1  7  1  0  0  0  0
  1  2  2  0  0  0  0
 42 43  1  0  0  0  0
 43 51  1  0  0  0  0
 43 44  2  0  0  0  0
  8  9  1  0  0  0  0
  9 17  1  0  0  0  0
  9 10  2  0  0  0  0
 18 19  1  0  0  0  0
 19 41  1  0  0  0  0
 19 20  2  0  0  0  0
 25 26  1  0  0  0  0
 25 27  1  0  0  0  0
 24 25  2  0  0  0  0
 42 45  1  0  0  0  0
  8 11  1  0  0  0  0
 51 52  1  0  0  0  0
 21 22  1  0  0  0  0
 22 23  1  0  0  0  0
 18 21  1  0  0  0  0
 23 24  1  0  0  0  0
 41 42  1  0  0  0  0
  7  8  1  0  0  0  0
 17 18  1  0  0  0  0
  3  4  1  0  0  0  0
  3  5  1  0  0  0  0
  3  6  1  0  0  0  0
 45 48  1  0  0  0  0
 45 49  1  0  0  0  0
 45 50  1  0  0  0  0
 11 14  1  0  0  0  0
 11 15  1  0  0  0  0
 11 16  1  0  0  0  0
 52 54  1  0  0  0  0
 52 55  1  0  0  0  0
 52 56  1  0  0  0  0
 22 32  1  0  0  0  0
 22 33  1  0  0  0  0
 21 30  1  0  0  0  0
 21 31  1  0  0  0  0
 23 34  1  0  0  0  0
 23 35  1  0  0  0  0
 42 47  1  0  0  0  0
  8 13  1  0  0  0  0
 18 29  1  0  0  0  0
 26 37  1  0  0  0  0
 26 38  1  0  0  0  0
 27 39  1  0  0  0  0
 27 40  1  0  0  0  0
 51 53  1  0  0  0  0
  7 12  1  0  0  0  0
 41 46  1  0  0  0  0
 17 28  1  0  0  0  0
 24 36  1  0  0  0  0
M  CHG  1  24   1
M  END
$$$$

  -OEChem-05262214473D

 56 55  0     1  0  0  0  0  0999 V2000
    0.7735   -5.8042   -2.0022 C   0  0  0  0  0  0  0  0  0  0  0  0
   -0.2086   -6.3825   -1.5519 O   0  0  0  0  0  0  0  0  0  0  0  0
    1.4751   -6.3646   -3.1946 C   0  0  0  0  0  0  0  0  0  0  0  0
    2.2765   -7.0687   -2.9186 H   0  0  0  0  0  0  0  0  0  0  0  0
    0.7988   -6.9360   -3.8504 H   0  0  0  0  0  0  0  0  0  0  0  0
    1.9556   -5.6216   -3.8511 H   0  0  0  0  0  0  0  0  0  0  0  0
    1.3322   -4.6359   -1.5106 N   0  0  0  0  0  0  0  0  0  0  0  0
    0.8124   -3.9290   -0.3698 C   0  0  2  0  0  0  0  0  0  0  0  0
    1.0666   -2.4424   -0.5818 C   0  0  0  0  0  0  0  0  0  0  0  0
    2.0598   -2.0076   -1.1610 O   0  0  0  0  0  0  0  0  0  0  0  0
    1.4560   -4.4118    0.9207 C   0  0  0  0  0  0  0  0  0  0  0  0
    2.1528   -4.2578   -1.9805 H   0  0  0  0  0  0  0  0  0  0  0  0
   -0.2667   -4.1160   -0.3467 H   0  0  0  0  0  0  0  0  0  0  0  0
    2.5374   -4.2329    0.9160 H   0  0  0  0  0  0  0  0  0  0  0  0
    1.0390   -3.8932    1.7903 H   0  0  0  0  0  0  0  0  0  0  0  0
    1.2976   -5.4871    1.0566 H   0  0  0  0  0  0  0  0  0  0  0  0
    0.0755   -1.6529   -0.0105 N   0  0  0  0  0  0  0  0  0  0  0  0
    0.1113   -0.2132   -0.0391 C   0  0  2  0  0  0  0  0  0  0  0  0
    0.5030    0.2632    1.3556 C   0  0  0  0  0  0  0  0  0  0  0  0
    1.1887   -0.4082    2.1238 O   0  0  0  0  0  0  0  0  0  0  0  0
   -1.2360    0.3883   -0.4517 C   0  0  0  0  0  0  0  0  0  0  0  0
   -1.5941    0.0743   -1.9092 C   0  0  0  0  0  0  0  0  0  0  0  0
   -2.9359    0.6754   -2.3144 C   0  0  0  0  0  0  0  0  0  0  0  0
   -3.2845    0.3543   -3.6966 N   0  3  0  0  0  0  0  0  0  0  0  0
   -4.4954    0.7440   -4.2719 C   0  0  0  0  0  0  0  0  0  0  0  0
   -4.7601    0.4029   -5.5940 N   0  0  0  0  0  0  0  0  0  0  0  0
   -5.4440    1.4659   -3.5549 N   0  0  0  0  0  0  0  0  0  0  0  0
   -0.7323   -2.1024    0.4149 H   0  0  0  0  0  0  0  0  0  0  0  0
    0.8977    0.0708   -0.7478 H   0  0  0  0  0  0  0  0  0  0  0  0
   -1.2087    1.4756   -0.3112 H   0  0  0  0  0  0  0  0  0  0  0  0
   -2.0289    0.0109    0.2075 H   0  0  0  0  0  0  0  0  0  0  0  0
   -0.8072    0.4552   -2.5713 H   0  0  0  0  0  0  0  0  0  0  0  0
   -1.6439   -1.0115   -2.0501 H   0  0  0  0  0  0  0  0  0  0  0  0
   -3.7281    0.2705   -1.6772 H   0  0  0  0  0  0  0  0  0  0  0  0
   -2.9235    1.7647   -2.2112 H   0  0  0  0  0  0  0  0  0  0  0  0
   -2.6292   -0.1724   -4.2714 H   0  0  0  0  0  0  0  0  0  0  0  0
   -5.6324    0.6716   -6.0430 H   0  0  0  0  0  0  0  0  0  0  0  0
   -4.0886   -0.1244   -6.1468 H   0  0  0  0  0  0  0  0  0  0  0  0
   -6.3273    1.7521   -3.9691 H   0  0  0  0  0  0  0  0  0  0  0  0
   -5.2780    1.7290   -2.5863 H   0  0  0  0  0  0  0  0  0  0  0  0
   -0.0443    1.5026    1.6570 N   0  0  0  0  0  0  0  0  0  0  0  0
    0.1368    2.1523    2.9347 C   0  0  2  0  0  0  0  0  0  0  0  0
   -1.1179    2.9627    3.2323 C   0  0  0  0  0  0  0  0  0  0  0  0
   -1.7788    3.5207    2.3588 O   0  0  0  0  0  0  0  0  0  0  0  0
    1.3706    3.0414    2.9335 C   0  0  0  0  0  0  0  0  0  0  0  0
   -0.5726    2.0002    0.9464 H   0  0  0  0  0  0  0  0  0  0  0  0
    0.2445    1.3577    3.6811 H   0  0  0  0  0  0  0  0  0  0  0  0
    1.2809    3.8435    2.1919 H   0  0  0  0  0  0  0  0  0  0  0  0
    1.5224    3.5106    3.9111 H   0  0  0  0  0  0  0  0  0  0  0  0
    2.2679    2.4624    2.6900 H   0  0  0  0  0  0  0  0  0  0  0  0
   -1.3885    3.0254    4.5920 N   0  0  0  0  0  0  0  0  0  0  0  0
   -2.5013    3.7710    5.1320 C   0  0  0  0  0  0  0  0  0  0  0  0
   -0.8108    2.4994    5.2412 H   0  0  0  0  0  0  0  0  0  0  0  0
   -2.1705    4.7871    5.3928 H   0  0  0  0  0  0  0  0  0  0  0  0
   -3.3031    3.8280    4.3811 H   0  0  0  0  0  0  0  0  0  0  0  0
   -2.8784    3.2656    6.0333 H   0  0  0  0  0  0  0  0  0  0  0  0
  1  3  1  0  0  0  0
  1  7  1  0  0  0  0
  1  2  2  0  0  0  0
 42 43  1  0  0  0  0
 43 51  1  0  0  0  0
 43 44  2  0  0  0  0
  8  9  1  0  0  0  0
  9 17  1  0  0  0  0
  9 10  2  0  0  0  0
 18 19  1  0  0  0  0
 19 41  1  0  0  0  0
 19 20  2  0  0  0  0
 25 26  1  0  0  0  0
 25 27  1  0  0  0  0
 24 25  2  0  0  0  0
 42 45  1  0  0  0  0
  8 11  1  0  0  0  0
 51 52  1  0  0  0  0
 21 22  1  0  0  0  0
 22 23  1  0  0  0  0
 18 21  1  0  0  0  0
 23 24  1  0  0  0  0
 41 42  1  0  0  0  0
  7  8  1  0  0  0  0
 17 18  1  0  0  0  0
  3  4  1  0  0  0  0
  3  5  1  0  0  0  0
  3  6  1  0  0  0  0
 45 48  1  0  0  0  0
 45 49  1  0  0  0  0
 45 50  1  0  0  0  0
 11 14  1  0  0  0  0
 11 15  1  0  0  0  0
 11 16  1  0  0  0  0
 52 54  1  0  0  0  0
 52 55  1  0  0  0  0
 52 56  1  0  0  0  0
 22 32  1  0  0  0  0
 22 33  1  0  0  0  0
 21 30  1  0  0  0  0
 21 31  1  0  0  0  0
 23 34  1  0  0  0  0
 23 35  1  0  0  0  0
 42 47  1  0  0  0  0
  8 13  1  0  0  0  0
 18 29  1  0  0  0  0
 26 37  1  0  0  0  0
 26 38  1  0  0  0  0
 27 39  1  0  0  0  0
 27 40  1  0  0  0  0
 51 53  1  0  0  0  0
  7 12  1  0  0  0  0
 41 46  1  0  0  0  0
 17 28  1  0  0  0  0
 24 36  1  0  0  0  0
M  CHG  1  24   1
M  END
$$$$

  -OEChem-05262214473D

 56 55  0     1  0  0  0  0  0999 V2000
    0.7735   -5.8042   -2.0022 C   0  0  0  0  0  0  0  0  0  0  0  0
   -0.2086   -6.3825   -1.5519 O   0  0  0  0  0  0  0  0  0  0  0  0
    1.4751   -6.3646   -3.1946 C   0  0  0  0  0  0  0  0  0  0  0  0
    2.2765   -7.0687   -2.9186 H   0  0  0  0  0  0  0  0  0  0  0  0
    0.7988   -6.9360   -3.8504 H   0  0  0  0  0  0  0  0  0  0  0  0
    1.9556   -5.6216   -3.8511 H   0  0  0  0  0  0  0  0  0  0  0  0
    1.3322   -4.6359   -1.5106 N   0  0  0  0  0  0  0  0  0  0  0  0
    0.8124   -3.9290   -0.3698 C   0  0  2  0  0  0  0  0  0  0  0  0
    1.0666   -2.4424   -0.5818 C   0  0  0  0  0  0  0  0  0  0  0  0
    2.0598   -2.0076   -1.1610 O   0  0  0  0  0  0  0  0  0  0  0  0
    1.4560   -4.4118    0.9207 C   0  0  0  0  0  0  0  0  0  0  0  0
    2.1528   -4.2578   -1.9805 H   0  0  0  0  0  0  0  0  0  0  0  0
   -0.2667   -4.1160   -0.3467 H   0  0  0  0  0  0  0  0  0  0  0  0
    2.5374   -4.2329    0.9160 H   0  0  0  0  0  0  0  0  0  0  0  0
    1.0390   -3.8932    1.7903 H   0  0  0  0  0  0  0  0  0  0  0  0
    1.2976   -5.4871    1.0566 H   0  0  0  0  0  0  0  0  0  0  0  0
    0.0755   -1.6529   -0.0105 N   0  0  0  0  0  0  0  0  0  0  0  0
    0.1113   -0.2132   -0.0391 C   0  0  2  0  0  0  0  0  0  0  0  0
    0.5030    0.2632    1.3556 C   0  0  0  0  0  0  0  0  0  0  0  0
    1.3922   -0.2669    2.0183 O   0  0  0  0  0  0  0  0  0  0  0  0
   -1.2360    0.3883   -0.4517 C   0  0  0  0  0  0  0  0  0  0  0  0
   -1.5941    0.0743   -1.9092 C   0  0  0  0  0  0  0  0  0  0  0  0
   -2.9359    0.6754   -2.3144 C   0  0  0  0  0  0  0  0  0  0  0  0
   -3.2845    0.3543   -3.6966 N   0  3  0  0  0  0  0  0  0  0  0  0
   -4.4954    0.7440   -4.2719 C   0  0  0  0  0  0  0  0  0  0  0  0
   -4.7601    0.4029   -5.5940 N   0  0  0  0  0  0  0  0  0  0  0  0
   -5.4440    1.4659   -3.5549 N   0  0  0  0  0  0  0  0  0  0  0  0
   -0.7323   -2.1024    0.4149 H   0  0  0  0  0  0  0  0  0  0  0  0
    0.8977    0.0708   -0.7478 H   0  0  0  0  0  0  0  0  0  0  0  0
   -1.2087    1.4756   -0.3112 H   0  0  0  0  0  0  0  0  0  0  0  0
   -2.0289    0.0109    0.2075 H   0  0  0  0  0  0  0  0  0  0  0  0
   -0.8072    0.4552   -2.5713 H   0  0  0  0  0  0  0  0  0  0  0  0
   -1.6439   -1.0115   -2.0501 H   0  0  0  0  0  0  0  0  0  0  0  0
   -3.7281    0.2705   -1.6772 H   0  0  0  0  0  0  0  0  0  0  0  0
   -2.9235    1.7647   -2.2112 H   0  0  0  0  0  0  0  0  0  0  0  0
   -2.6292   -0.1724   -4.2714 H   0  0  0  0  0  0  0  0  0  0  0  0
   -5.6324    0.6716   -6.0430 H   0  0  0  0  0  0  0  0  0  0  0  0
   -4.0886   -0.1244   -6.1468 H   0  0  0  0  0  0  0  0  0  0  0  0
   -6.3273    1.7521   -3.9691 H   0  0  0  0  0  0  0  0  0  0  0  0
   -5.2780    1.7290   -2.5863 H   0  0  0  0  0  0  0  0  0  0  0  0
   -0.2901    1.3164    1.7896 N   0  0  0  0  0  0  0  0  0  0  0  0
   -0.1532    1.9169    3.0966 C   0  0  2  0  0  0  0  0  0  0  0  0
   -1.5311    2.3851    3.5456 C   0  0  0  0  0  0  0  0  0  0  0  0
   -2.3792    2.8173    2.7677 O   0  0  0  0  0  0  0  0  0  0  0  0
    0.8332    3.0742    3.0732 C   0  0  0  0  0  0  0  0  0  0  0  0
   -0.9812    1.7124    1.1594 H   0  0  0  0  0  0  0  0  0  0  0  0
    0.2034    1.1302    3.7704 H   0  0  0  0  0  0  0  0  0  0  0  0
    0.4928    3.8723    2.4033 H   0  0  0  0  0  0  0  0  0  0  0  0
    0.9573    3.5099    4.0701 H   0  0  0  0  0  0  0  0  0  0  0  0
    1.8158    2.7417    2.7216 H   0  0  0  0  0  0  0  0  0  0  0  0
   -1.6869    2.3040    4.9223 N   0  0  0  0  0  0  0  0  0  0  0  0
   -2.8908    2.7296    5.5971 C   0  0  0  0  0  0  0  0  0  0  0  0
   -0.9469    1.8956    5.4857 H   0  0  0  0  0  0  0  0  0  0  0  0
   -2.7851    3.7789    5.9099 H   0  0  0  0  0  0  0  0  0  0  0  0
   -3.7472    2.6355    4.9132 H   0  0  0  0  0  0  0  0  0  0  0  0
   -3.0575    2.0983    6.4824 H   0  0  0  0  0  0  0  0  0  0  0  0
  1  3  1  0  0  0  0
  1  7  1  0  0  0  0
  1  2  2  0  0  0  0
 42 43  1  0  0  0  0
 43 51  1  0  0  0  0
 43 44  2  0  0  0  0
  8  9  1  0  0  0  0
  9 17  1  0  0  0  0
  9 10  2  0  0  0  0
 18 19  1  0  0  0  0
 19 41  1  0  0  0  0
 19 20  2  0  0  0  0
 25 26  1  0  0  0  0
 25 27  1  0  0  0  0
 24 25  2  0  0  0  0
 42 45  1  0  0  0  0
  8 11  1  0  0  0  0
 51 52  1  0  0  0  0
 21 22  1  0  0  0  0
 22 23  1  0  0  0  0
 18 21  1  0  0  0  0
 23 24  1  0  0  0  0
 41 42  1  0  0  0  0
  7  8  1  0  0  0  0
 17 18  1  0  0  0  0
  3  4  1  0  0  0  0
  3  5  1  0  0  0  0
  3  6  1  0  0  0  0
 45 48  1  0  0  0  0
 45 49  1  0  0  0  0
 45 50  1  0  0  0  0
 11 14  1  0  0  0  0
 11 15  1  0  0  0  0
 11 16  1  0  0  0  0
 52 54  1  0  0  0  0
 52 55  1  0  0  0  0
 52 56  1  0  0  0  0
 22 32  1  0  0  0  0
 22 33  1  0  0  0  0
 21 30  1  0  0  0  0
 21 31  1  0  0  0  0
 23 34  1  0  0  0  0
 23 35  1  0  0  0  0
 42 47  1  0  0  0  0
  8 13  1  0  0  0  0
 18 29  1  0  0  0  0
 26 37  1  0  0  0  0
 26 38  1  0  0  0  0
 27 39  1  0  0  0  0
 27 40  1  0  0  0  0
 51 53  1  0  0  0  0
  7 12  1  0  0  0  0
 41 46  1  0  0  0  0
 17 28  1  0  0  0  0
 24 36  1  0  0  0  0
M  CHG  1  24   1
M  END
$$$$

  -OEChem-05262214473D

 56 55  0     1  0  0  0  0  0999 V2000
    0.7735   -5.8042   -2.0022 C   0  0  0  0  0  0  0  0  0  0  0  0
   -0.2086   -6.3825   -1.5519 O   0  0  0  0  0  0  0  0  0  0  0  0
    1.4751   -6.3646   -3.1946 C   0  0  0  0  0  0  0  0  0  0  0  0
    2.2765   -7.0687   -2.9186 H   0  0  0  0  0  0  0  0  0  0  0  0
    0.7988   -6.9360   -3.8504 H   0  0  0  0  0  0  0  0  0  0  0  0
    1.9556   -5.6216   -3.8511 H   0  0  0  0  0  0  0  0  0  0  0  0
    1.3322   -4.6359   -1.5106 N   0  0  0  0  0  0  0  0  0  0  0  0
    0.8124   -3.9290   -0.3698 C   0  0  2  0  0  0  0  0  0  0  0  0
    1.0666   -2.4424   -0.5818 C   0  0  0  0  0  0  0  0  0  0  0  0
    2.0598   -2.0076   -1.1610 O   0  0  0  0  0  0  0  0  0  0  0  0
    1.4560   -4.4118    0.9207 C   0  0  0  0  0  0  0  0  0  0  0  0
    2.1528   -4.2578   -1.9805 H   0  0  0  0  0  0  0  0  0  0  0  0
   -0.2667   -4.1160   -0.3467 H   0  0  0  0  0  0  0  0  0  0  0  0
    2.5374   -4.2329    0.9160 H   0  0  0  0  0  0  0  0  0  0  0  0
    1.0390   -3.8932    1.7903 H   0  0  0  0  0  0  0  0  0  0  0  0
    1.2976   -5.4871    1.0566 H   0  0  0  0  0  0  0  0  0  0  0  0
    0.0755   -1.6529   -0.0105 N   0  0  0  0  0  0  0  0  0  0  0  0
    0.1113   -0.2132   -0.0391 C   0  0  2  0  0  0  0  0  0  0  0  0
    0.5030    0.2632    1.3556 C   0  0  0  0  0  0  0  0  0  0  0  0
    1.5469   -0.0753    1.9095 O   0  0  0  0  0  0  0  0  0  0  0  0
   -1.2360    0.3883   -0.4517 C   0  0  0  0  0  0  0  0  0  0  0  0
   -1.5941    0.0743   -1.9092 C   0  0  0  0  0  0  0  0  0  0  0  0
   -2.9359    0.6754   -2.3144 C   0  0  0  0  0  0  0  0  0  0  0  0
   -3.2845    0.3543   -3.6966 N   0  3  0  0  0  0  0  0  0  0  0  0
   -4.4954    0.7440   -4.2719 C   0  0  0  0  0  0  0  0  0  0  0  0
   -4.7601    0.4029   -5.5940 N   0  0  0  0  0  0  0  0  0  0  0  0
   -5.4440    1.4659   -3.5549 N   0  0  0  0  0  0  0  0  0  0  0  0
   -0.7323   -2.1024    0.4149 H   0  0  0  0  0  0  0  0  0  0  0  0
    0.8977    0.0708   -0.7478 H   0  0  0  0  0  0  0  0  0  0  0  0
   -1.2087    1.4756   -0.3112 H   0  0  0  0  0  0  0  0  0  0  0  0
   -2.0289    0.0109    0.2075 H   0  0  0  0  0  0  0  0  0  0  0  0
   -0.8072    0.4552   -2.5713 H   0  0  0  0  0  0  0  0  0  0  0  0
   -1.6439   -1.0115   -2.0501 H   0  0  0  0  0  0  0  0  0  0  0  0
   -3.7281    0.2705   -1.6772 H   0  0  0  0  0  0  0  0  0  0  0  0
   -2.9235    1.7647   -2.2112 H   0  0  0  0  0  0  0  0  0  0  0  0
   -2.6292   -0.1724   -4.2714 H   0  0  0  0  0  0  0  0  0  0  0  0
   -5.6324    0.6716   -6.0430 H   0  0  0  0  0  0  0  0  0  0  0  0
   -4.0886   -0.1244   -6.1468 H   0  0  0  0  0  0  0  0  0  0  0  0
   -6.3273    1.7521   -3.9691 H   0  0  0  0  0  0  0  0  0  0  0  0
   -5.2780    1.7290   -2.5863 H   0  0  0  0  0  0  0  0  0  0  0  0
   -0.4726    1.0695    1.9252 N   0  0  0  0  0  0  0  0  0  0  0  0
   -0.3645    1.6102    3.2607 C   0  0  2  0  0  0  0  0  0  0  0  0
   -1.7682    1.7086    3.8433 C   0  0  0  0  0  0  0  0  0  0  0  0
   -2.7595    1.9686    3.1645 O   0  0  0  0  0  0  0  0  0  0  0  0
    0.3176    2.9694    3.2537 C   0  0  0  0  0  0  0  0  0  0  0  0
   -1.2904    1.3236    1.3791 H   0  0  0  0  0  0  0  0  0  0  0  0
    0.2247    0.8949    3.8448 H   0  0  0  0  0  0  0  0  0  0  0  0
   -0.2582    3.6994    2.6732 H   0  0  0  0  0  0  0  0  0  0  0  0
    0.4244    3.3649    4.2692 H   0  0  0  0  0  0  0  0  0  0  0  0
    1.3155    2.9023    2.8072 H   0  0  0  0  0  0  0  0  0  0  0  0
   -1.7777    1.5145    5.2175 N   0  0  0  0  0  0  0  0  0  0  0  0
   -2.9829    1.6005    6.0087 C   0  0  0  0  0  0  0  0  0  0  0  0
   -0.9156    1.2640    5.6927 H   0  0  0  0  0  0  0  0  0  0  0  0
   -3.0983    2.6251    6.3919 H   0  0  0  0  0  0  0  0  0  0  0  0
   -3.8508    1.3430    5.3838 H   0  0  0  0  0  0  0  0  0  0  0  0
   -2.9179    0.8985    6.8531 H   0  0  0  0  0  0  0  0  0  0  0  0
  1  3  1  0  0  0  0
  1  7  1  0  0  0  0
  1  2  2  0  0  0  0
 42 43  1  0  0  0  0
 43 51  1  0  0  0  0
 43 44  2  0  0  0  0
  8  9  1  0  0  0  0
  9 17  1  0  0  0  0
  9 10  2  0  0  0  0
 18 19  1  0  0  0  0
 19 41  1  0  0  0  0
 19 20  2  0  0  0  0
 25 26  1  0  0  0  0
 25 27  1  0  0  0  0
 24 25  2  0  0  0  0
 42 45  1  0  0  0  0
  8 11  1  0  0  0  0
 51 52  1  0  0  0  0
 21 22  1  0  0  0  0
 22 23  1  0  0  0  0
 18 21  1  0  0  0  0
 23 24  1  0  0  0  0
 41 42  1  0  0  0  0
  7  8  1  0  0  0  0
 17 18  1  0  0  0  0
  3  4  1  0  0  0  0
  3  5  1  0  0  0  0
  3  6  1  0  0  0  0
 45 48  1  0  0  0  0
 45 49  1  0  0  0  0
 45 50  1  0  0  0  0
 11 14  1  0  0  0  0
 11 15  1  0  0  0  0
 11 16  1  0  0  0  0
 52 54  1  0  0  0  0
 52 55  1  0  0  0  0
 52 56  1  0  0  0  0
 22 32  1  0  0  0  0
 22 33  1  0  0  0  0
 21 30  1  0  0  0  0
 21 31  1  0  0  0  0
 23 34  1  0  0  0  0
 23 35  1  0  0  0  0
 42 47  1  0  0  0  0
  8 13  1  0  0  0  0
 18 29  1  0  0  0  0
 26 37  1  0  0  0  0
 26 38  1  0  0  0  0
 27 39  1  0  0  0  0
 27 40  1  0  0  0  0
 51 53  1  0  0  0  0
  7 12  1  0  0  0  0
 41 46  1  0  0  0  0
 17 28  1  0  0  0  0
 24 36  1  0  0  0  0
M  CHG  1  24   1
M  END
$$$$

  -OEChem-05262214473D

 56 55  0     1  0  0  0  0  0999 V2000
    0.7735   -5.8042   -2.0022 C   0  0  0  0  0  0  0  0  0  0  0  0
   -0.2086   -6.3825   -1.5519 O   0  0  0  0  0  0  0  0  0  0  0  0
    1.4751   -6.3646   -3.1946 C   0  0  0  0  0  0  0  0  0  0  0  0
    2.2765   -7.0687   -2.9186 H   0  0  0  0  0  0  0  0  0  0  0  0
    0.7988   -6.9360   -3.8504 H   0  0  0  0  0  0  0  0  0  0  0  0
    1.9556   -5.6216   -3.8511 H   0  0  0  0  0  0  0  0  0  0  0  0
    1.3322   -4.6359   -1.5106 N   0  0  0  0  0  0  0  0  0  0  0  0
    0.8124   -3.9290   -0.3698 C   0  0  2  0  0  0  0  0  0  0  0  0
    1.0666   -2.4424   -0.5818 C   0  0  0  0  0  0  0  0  0  0  0  0
    2.0598   -2.0076   -1.1610 O   0  0  0  0  0  0  0  0  0  0  0  0
    1.4560   -4.4118    0.9207 C   0  0  0  0  0  0  0  0  0  0  0  0
    2.1528   -4.2578   -1.9805 H   0  0  0  0  0  0  0  0  0  0  0  0
   -0.2667   -4.1160   -0.3467 H   0  0  0  0  0  0  0  0  0  0  0  0
    2.5374   -4.2329    0.9160 H   0  0  0  0  0  0  0  0  0  0  0  0
    1.0390   -3.8932    1.7903 H   0  0  0  0  0  0  0  0  0  0  0  0
    1.2976   -5.4871    1.0566 H   0  0  0  0  0  0  0  0  0  0  0  0
    0.0755   -1.6529   -0.0105 N   0  0  0  0  0  0  0  0  0  0  0  0
    0.1113   -0.2132   -0.0391 C   0  0  2  0  0  0  0  0  0  0  0  0
    0.5030    0.2632    1.3556 C   0  0  0  0  0  0  0  0  0  0  0  0
    1.6421    0.1537    1.8045 O   0  0  0  0  0  0  0  0  0  0  0  0
   -1.2360    0.3883   -0.4517 C   0  0  0  0  0  0  0  0  0  0  0  0
   -1.5941    0.0743   -1.9092 C   0  0  0  0  0  0  0  0  0  0  0  0
   -2.9359    0.6754   -2.3144 C   0  0  0  0  0  0  0  0  0  0  0  0
   -3.2845    0.3543   -3.6966 N   0  3  0  0  0  0  0  0  0  0  0  0
   -4.4954    0.7440   -4.2719 C   0  0  0  0  0  0  0  0  0  0  0  0
   -4.7601    0.4029   -5.5940 N   0  0  0  0  0  0  0  0  0  0  0  0
   -5.4440    1.4659   -3.5549 N   0  0  0  0  0  0  0  0  0  0  0  0
   -0.7323   -2.1024    0.4149 H   0  0  0  0  0  0  0  0  0  0  0  0
    0.8977    0.0708   -0.7478 H   0  0  0  0  0  0  0  0  0  0  0  0
   -1.2087    1.4756   -0.3112 H   0  0  0  0  0  0  0  0  0  0  0  0
   -2.0289    0.0109    0.2075 H   0  0  0  0  0  0  0  0  0  0  0  0
   -0.8072    0.4552   -2.5713 H   0  0  0  0  0  0  0  0  0  0  0  0
   -1.6439   -1.0115   -2.0501 H   0  0  0  0  0  0  0  0  0  0  0  0
   -3.7281    0.2705   -1.6772 H   0  0  0  0  0  0  0  0  0  0  0  0
   -2.9235    1.7647   -2.2112 H   0  0  0  0  0  0  0  0  0  0  0  0
   -2.6292   -0.1724   -4.2714 H   0  0  0  0  0  0  0  0  0  0  0  0
   -5.6324    0.6716   -6.0430 H   0  0  0  0  0  0  0  0  0  0  0  0
   -4.0886   -0.1244   -6.1468 H   0  0  0  0  0  0  0  0  0  0  0  0
   -6.3273    1.7521   -3.9691 H   0  0  0  0  0  0  0  0  0  0  0  0
   -5.2780    1.7290   -2.5863 H   0  0  0  0  0  0  0  0  0  0  0  0
   -0.5796    0.7788    2.0546 N   0  0  0  0  0  0  0  0  0  0  0  0
   -0.4828    1.2530    3.4159 C   0  0  2  0  0  0  0  0  0  0  0  0
   -1.8130    0.9792    4.1050 C   0  0  0  0  0  0  0  0  0  0  0  0
   -2.8939    1.0323    3.5221 O   0  0  0  0  0  0  0  0  0  0  0  0
   -0.1410    2.7341    3.4629 C   0  0  0  0  0  0  0  0  0  0  0  0
   -1.4794    0.8603    1.5904 H   0  0  0  0  0  0  0  0  0  0  0  0
    0.3069    0.6676    3.8993 H   0  0  0  0  0  0  0  0  0  0  0  0
   -0.9208    3.3368    2.9832 H   0  0  0  0  0  0  0  0  0  0  0  0
   -0.0399    3.0854    4.4950 H   0  0  0  0  0  0  0  0  0  0  0  0
    0.8012    2.9334    2.9410 H   0  0  0  0  0  0  0  0  0  0  0  0
   -1.6547    0.7109    5.4575 N   0  0  0  0  0  0  0  0  0  0  0  0
   -2.7713    0.4608    6.3387 C   0  0  0  0  0  0  0  0  0  0  0  0
   -0.7192    0.6475    5.8481 H   0  0  0  0  0  0  0  0  0  0  0  0
   -3.0887    1.4045    6.8063 H   0  0  0  0  0  0  0  0  0  0  0  0
   -3.6069    0.0389    5.7608 H   0  0  0  0  0  0  0  0  0  0  0  0
   -2.4691   -0.2520    7.1201 H   0  0  0  0  0  0  0  0  0  0  0  0
  1  3  1  0  0  0  0
  1  7  1  0  0  0  0
  1  2  2  0  0  0  0
 42 43  1  0  0  0  0
 43 51  1  0  0  0  0
 43 44  2  0  0  0  0
  8  9  1  0  0  0  0
  9 17  1  0  0  0  0
  9 10  2  0  0  0  0
 18 19  1  0  0  0  0
 19 41  1  0  0  0  0
 19 20  2  0  0  0  0
 25 26  1  0  0  0  0
 25 27  1  0  0  0  0
 24 25  2  0  0  0  0
 42 45  1  0  0  0  0
  8 11  1  0  0  0  0
 51 52  1  0  0  0  0
 21 22  1  0  0  0  0
 22 23  1  0  0  0  0
 18 21  1  0  0  0  0
 23 24  1  0  0  0  0
 41 42  1  0  0  0  0
  7  8  1  0  0  0  0
 17 18  1  0  0  0  0
  3  4  1  0  0  0  0
  3  5  1  0  0  0  0
  3  6  1  0  0  0  0
 45 48  1  0  0  0  0
 45 49  1  0  0  0  0
 45 50  1  0  0  0  0
 11 14  1  0  0  0  0
 11 15  1  0  0  0  0
 11 16  1  0  0  0  0
 52 54  1  0  0  0  0
 52 55  1  0  0  0  0
 52 56  1  0  0  0  0
 22 32  1  0  0  0  0
 22 33  1  0  0  0  0
 21 30  1  0  0  0  0
 21 31  1  0  0  0  0
 23 34  1  0  0  0  0
 23 35  1  0  0  0  0
 42 47  1  0  0  0  0
  8 13  1  0  0  0  0
 18 29  1  0  0  0  0
 26 37  1  0  0  0  0
 26 38  1  0  0  0  0
 27 39  1  0  0  0  0
 27 40  1  0  0  0  0
 51 53  1  0  0  0  0
  7 12  1  0  0  0  0
 41 46  1  0  0  0  0
 17 28  1  0  0  0  0
 24 36  1  0  0  0  0
M  CHG  1  24   1
M  END
$$$$

  -OEChem-05262214473D

 56 55  0     1  0  0  0  0  0999 V2000
    0.7735   -5.8042   -2.0022 C   0  0  0  0  0  0  0  0  0  0  0  0
   -0.2086   -6.3825   -1.5519 O   0  0  0  0  0  0  0  0  0  0  0  0
    1.4751   -6.3646   -3.1946 C   0  0  0  0  0  0  0  0  0  0  0  0
    2.2765   -7.0687   -2.9186 H   0  0  0  0  0  0  0  0  0  0  0  0
    0.7988   -6.9360   -3.8504 H   0  0  0  0  0  0  0  0  0  0  0  0
    1.9556   -5.6216   -3.8511 H   0  0  0  0  0  0  0  0  0  0  0  0
    1.3322   -4.6359   -1.5106 N   0  0  0  0  0  0  0  0  0  0  0  0
    0.8124   -3.9290   -0.3698 C   0  0  2  0  0  0  0  0  0  0  0  0
    1.0666   -2.4424   -0.5818 C   0  0  0  0  0  0  0  0  0  0  0  0
    2.0598   -2.0076   -1.1610 O   0  0  0  0  0  0  0  0  0  0  0  0
    1.4560   -4.4118    0.9207 C   0  0  0  0  0  0  0  0  0  0  0  0
    2.1528   -4.2578   -1.9805 H   0  0  0  0  0  0  0  0  0  0  0  0
   -0.2667   -4.1160   -0.3467 H   0  0  0  0  0  0  0  0  0  0  0  0
    2.5374   -4.2329    0.9160 H   0  0  0  0  0  0  0  0  0  0  0  0
    1.0390   -3.8932    1.7903 H   0  0  0  0  0  0  0  0  0  0  0  0
    1.2976   -5.4871    1.0566 H   0  0  0  0  0  0  0  0  0  0  0  0
    0.0755   -1.6529   -0.0105 N   0  0  0  0  0  0  0  0  0  0  0  0
    0.1113   -0.2132   -0.0391 C   0  0  2  0  0  0  0  0  0  0  0  0
    0.5030    0.2632    1.3556 C   0  0  0  0  0  0  0  0  0  0  0  0
    1.6714    0.4043    1.7106 O   0  0  0  0  0  0  0  0  0  0  0  0
   -1.2360    0.3883   -0.4517 C   0  0  0  0  0  0  0  0  0  0  0  0
   -1.5941    0.0743   -1.9092 C   0  0  0  0  0  0  0  0  0  0  0  0
   -2.9359    0.6754   -2.3144 C   0  0  0  0  0  0  0  0  0  0  0  0
   -3.2845    0.3543   -3.6966 N   0  3  0  0  0  0  0  0  0  0  0  0
   -4.4954    0.7440   -4.2719 C   0  0  0  0  0  0  0  0  0  0  0  0
   -4.7601    0.4029   -5.5940 N   0  0  0  0  0  0  0  0  0  0  0  0
   -5.4440    1.4659   -3.5549 N   0  0  0  0  0  0  0  0  0  0  0  0
   -0.7323   -2.1024    0.4149 H   0  0  0  0  0  0  0  0  0  0  0  0
    0.8977    0.0708   -0.7478 H   0  0  0  0  0  0  0  0  0  0  0  0
   -1.2087    1.4756   -0.3112 H   0  0  0  0  0  0  0  0  0  0  0  0
   -2.0289    0.0109    0.2075 H   0  0  0  0  0  0  0  0  0  0  0  0
   -0.8072    0.4552   -2.5713 H   0  0  0  0  0  0  0  0  0  0  0  0
   -1.6439   -1.0115   -2.0501 H   0  0  0  0  0  0  0  0  0  0  0  0
   -3.7281    0.2705   -1.6772 H   0  0  0  0  0  0  0  0  0  0  0  0
   -2.9235    1.7647   -2.2112 H   0  0  0  0  0  0  0  0  0  0  0  0
   -2.6292   -0.1724   -4.2714 H   0  0  0  0  0  0  0  0  0  0  0  0
   -5.6324    0.6716   -6.0430 H   0  0  0  0  0  0  0  0  0  0  0  0
   -4.0886   -0.1244   -6.1468 H   0  0  0  0  0  0  0  0  0  0  0  0
   -6.3273    1.7521   -3.9691 H   0  0  0  0  0  0  0  0  0  0  0  0
   -5.2780    1.7290   -2.5863 H   0  0  0  0  0  0  0  0  0  0  0  0
   -0.6036    0.4641    2.1689 N   0  0  0  0  0  0  0  0  0  0  0  0
   -0.4999    0.8697    3.5517 C   0  0  2  0  0  0  0  0  0  0  0  0
   -1.6625    0.2467    4.3130 C   0  0  0  0  0  0  0  0  0  0  0  0
   -2.7732    0.0724    3.8161 O   0  0  0  0  0  0  0  0  0  0  0  0
   -0.5113    2.3844    3.6863 C   0  0  0  0  0  0  0  0  0  0  0  0
   -1.5351    0.3540    1.7791 H   0  0  0  0  0  0  0  0  0  0  0  0
    0.4446    0.4639    3.9303 H   0  0  0  0  0  0  0  0  0  0  0  0
   -1.4500    2.8090    3.3121 H   0  0  0  0  0  0  0  0  0  0  0  0
   -0.4039    2.6906    4.7322 H   0  0  0  0  0  0  0  0  0  0  0  0
    0.3079    2.8328    3.1139 H   0  0  0  0  0  0  0  0  0  0  0  0
   -1.3262   -0.0522    5.6260 N   0  0  0  0  0  0  0  0  0  0  0  0
   -2.2705   -0.6120    6.5645 C   0  0  0  0  0  0  0  0  0  0  0  0
   -0.3710    0.0882    5.9414 H   0  0  0  0  0  0  0  0  0  0  0  0
   -2.7570    0.2002    7.1245 H   0  0  0  0  0  0  0  0  0  0  0  0
   -3.0321   -1.1882    6.0187 H   0  0  0  0  0  0  0  0  0  0  0  0
   -1.7417   -1.2748    7.2653 H   0  0  0  0  0  0  0  0  0  0  0  0
  1  3  1  0  0  0  0
  1  7  1  0  0  0  0
  1  2  2  0  0  0  0
 42 43  1  0  0  0  0
 43 51  1  0  0  0  0
 43 44  2  0  0  0  0
  8  9  1  0  0  0  0
  9 17  1  0  0  0  0
  9 10  2  0  0  0  0
 18 19  1  0  0  0  0
 19 41  1  0  0  0  0
 19 20  2  0  0  0  0
 25 26  1  0  0  0  0
 25 27  1  0  0  0  0
 24 25  2  0  0  0  0
 42 45  1  0  0  0  0
  8 11  1  0  0  0  0
 51 52  1  0  0  0  0
 21 22  1  0  0  0  0
 22 23  1  0  0  0  0
 18 21  1  0  0  0  0
 23 24  1  0  0  0  0
 41 42  1  0  0  0  0
  7  8  1  0  0  0  0
 17 18  1  0  0  0  0
  3  4  1  0  0  0  0
  3  5  1  0  0  0  0
  3  6  1  0  0  0  0
 45 48  1  0  0  0  0
 45 49  1  0  0  0  0
 45 50  1  0  0  0  0
 11 14  1  0  0  0  0
 11 15  1  0  0  0  0
 11 16  1  0  0  0  0
 52 54  1  0  0  0  0
 52 55  1  0  0  0  0
 52 56  1  0  0  0  0
 22 32  1  0  0  0  0
 22 33  1  0  0  0  0
 21 30  1  0  0  0  0
 21 31  1  0  0  0  0
 23 34  1  0  0  0  0
 23 35  1  0  0  0  0
 42 47  1  0  0  0  0
  8 13  1  0  0  0  0
 18 29  1  0  0  0  0
 26 37  1  0  0  0  0
 26 38  1  0  0  0  0
 27 39  1  0  0  0  0
 27 40  1  0  0  0  0
 51 53  1  0  0  0  0
  7 12  1  0  0  0  0
 41 46  1  0  0  0  0
 17 28  1  0  0  0  0
 24 36  1  0  0  0  0
M  CHG  1  24   1
M  END
$$$$

  -OEChem-05262214473D

 56 55  0     1  0  0  0  0  0999 V2000
    0.7735   -5.8042   -2.0022 C   0  0  0  0  0  0  0  0  0  0  0  0
   -0.2086   -6.3825   -1.5519 O   0  0  0  0  0  0  0  0  0  0  0  0
    1.4751   -6.3646   -3.1946 C   0  0  0  0  0  0  0  0  0  0  0  0
    2.2765   -7.0687   -2.9186 H   0  0  0  0  0  0  0  0  0  0  0  0
    0.7988   -6.9360   -3.8504 H   0  0  0  0  0  0  0  0  0  0  0  0
    1.9556   -5.6216   -3.8511 H   0  0  0  0  0  0  0  0  0  0  0  0
    1.3322   -4.6359   -1.5106 N   0  0  0  0  0  0  0  0  0  0  0  0
    0.8124   -3.9290   -0.3698 C   0  0  2  0  0  0  0  0  0  0  0  0
    1.0666   -2.4424   -0.5818 C   0  0  0  0  0  0  0  0  0  0  0  0
    2.0598   -2.0076   -1.1610 O   0  0  0  0  0  0  0  0  0  0  0  0
    1.4560   -4.4118    0.9207 C   0  0  0  0  0  0  0  0  0  0  0  0
    2.1528   -4.2578   -1.9805 H   0  0  0  0  0  0  0  0  0  0  0  0
   -0.2667   -4.1160   -0.3467 H   0  0  0  0  0  0  0  0  0  0  0  0
    2.5374   -4.2329    0.9160 H   0  0  0  0  0  0  0  0  0  0  0  0
    1.0390   -3.8932    1.7903 H   0  0  0  0  0  0  0  0  0  0  0  0
    1.2976   -5.4871    1.0566 H   0  0  0  0  0  0  0  0  0  0  0  0
    0.0755   -1.6529   -0.0105 N   0  0  0  0  0  0  0  0  0  0  0  0
    0.1113   -0.2132   -0.0391 C   0  0  2  0  0  0  0  0  0  0  0  0
    0.5030    0.2632    1.3556 C   0  0  0  0  0  0  0  0  0  0  0  0
    1.6327    0.6596    1.6343 O   0  0  0  0  0  0  0  0  0  0  0  0
   -1.2360    0.3883   -0.4517 C   0  0  0  0  0  0  0  0  0  0  0  0
   -1.5941    0.0743   -1.9092 C   0  0  0  0  0  0  0  0  0  0  0  0
   -2.9359    0.6754   -2.3144 C   0  0  0  0  0  0  0  0  0  0  0  0
   -3.2845    0.3543   -3.6966 N   0  3  0  0  0  0  0  0  0  0  0  0
   -4.4954    0.7440   -4.2719 C   0  0  0  0  0  0  0  0  0  0  0  0
   -4.7601    0.4029   -5.5940 N   0  0  0  0  0  0  0  0  0  0  0  0
   -5.4440    1.4659   -3.5549 N   0  0  0  0  0  0  0  0  0  0  0  0
   -0.7323   -2.1024    0.4149 H   0  0  0  0  0  0  0  0  0  0  0  0
    0.8977    0.0708   -0.7478 H   0  0  0  0  0  0  0  0  0  0  0  0
   -1.2087    1.4756   -0.3112 H   0  0  0  0  0  0  0  0  0  0  0  0
   -2.0289    0.0109    0.2075 H   0  0  0  0  0  0  0  0  0  0  0  0
   -0.8072    0.4552   -2.5713 H   0  0  0  0  0  0  0  0  0  0  0  0
   -1.6439   -1.0115   -2.0501 H   0  0  0  0  0  0  0  0  0  0  0  0
   -3.7281    0.2705   -1.6772 H   0  0  0  0  0  0  0  0  0  0  0  0
   -2.9235    1.7647   -2.2112 H   0  0  0  0  0  0  0  0  0  0  0  0
   -2.6292   -0.1724   -4.2714 H   0  0  0  0  0  0  0  0  0  0  0  0
   -5.6324    0.6716   -6.0430 H   0  0  0  0  0  0  0  0  0  0  0  0
   -4.0886   -0.1244   -6.1468 H   0  0  0  0  0  0  0  0  0  0  0  0
   -6.3273    1.7521   -3.9691 H   0  0  0  0  0  0  0  0  0  0  0  0
   -5.2780    1.7290   -2.5863 H   0  0  0  0  0  0  0  0  0  0  0  0
   -0.5431    0.1468    2.2603 N   0  0  0  0  0  0  0  0  0  0  0  0
   -0.4147    0.4863    3.6587 C   0  0  2  0  0  0  0  0  0  0  0  0
   -1.3269   -0.4391    4.4531 C   0  0  0  0  0  0  0  0  0  0  0  0
   -2.4057   -0.8457    4.0266 O   0  0  0  0  0  0  0  0  0  0  0  0
   -0.7682    1.9441    3.9089 C   0  0  0  0  0  0  0  0  0  0  0  0
   -1.4538   -0.1608    1.9321 H   0  0  0  0  0  0  0  0  0  0  0  0
    0.6283    0.2978    3.9354 H   0  0  0  0  0  0  0  0  0  0  0  0
   -1.8096    2.1522    3.6374 H   0  0  0  0  0  0  0  0  0  0  0  0
   -0.6429    2.2073    4.9644 H   0  0  0  0  0  0  0  0  0  0  0  0
   -0.1309    2.6073    3.3141 H   0  0  0  0  0  0  0  0  0  0  0  0
   -0.8147   -0.7227    5.7114 N   0  0  0  0  0  0  0  0  0  0  0  0
   -1.5145   -1.5446    6.6709 C   0  0  0  0  0  0  0  0  0  0  0  0
    0.1054   -0.3758    5.9662 H   0  0  0  0  0  0  0  0  0  0  0  0
   -2.1258   -0.9056    7.3251 H   0  0  0  0  0  0  0  0  0  0  0  0
   -2.1656   -2.2545    6.1397 H   0  0  0  0  0  0  0  0  0  0  0  0
   -0.7852   -2.1002    7.2787 H   0  0  0  0  0  0  0  0  0  0  0  0
  1  3  1  0  0  0  0
  1  7  1  0  0  0  0
  1  2  2  0  0  0  0
 42 43  1  0  0  0  0
 43 51  1  0  0  0  0
 43 44  2  0  0  0  0
  8  9  1  0  0  0  0
  9 17  1  0  0  0  0
  9 10  2  0  0  0  0
 18 19  1  0  0  0  0
 19 41  1  0  0  0  0
 19 20  2  0  0  0  0
 25 26  1  0  0  0  0
 25 27  1  0  0  0  0
 24 25  2  0  0  0  0
 42 45  1  0  0  0  0
  8 11  1  0  0  0  0
 51 52  1  0  0  0  0
 21 22  1  0  0  0  0
 22 23  1  0  0  0  0
 18 21  1  0  0  0  0
 23 24  1  0  0  0  0
 41 42  1  0  0  0  0
  7  8  1  0  0  0  0
 17 18  1  0  0  0  0
  3  4  1  0  0  0  0
  3  5  1  0  0  0  0
  3  6  1  0  0  0  0
 45 48  1  0  0  0  0
 45 49  1  0  0  0  0
 45 50  1  0  0  0  0
 11 14  1  0  0  0  0
 11 15  1  0  0  0  0
 11 16  1  0  0  0  0
 52 54  1  0  0  0  0
 52 55  1  0  0  0  0
 52 56  1  0  0  0  0
 22 32  1  0  0  0  0
 22 33  1  0  0  0  0
 21 30  1  0  0  0  0
 21 31  1  0  0  0  0
 23 34  1  0  0  0  0
 23 35  1  0  0  0  0
 42 47  1  0  0  0  0
  8 13  1  0  0  0  0
 18 29  1  0  0  0  0
 26 37  1  0  0  0  0
 26 38  1  0  0  0  0
 27 39  1  0  0  0  0
 27 40  1  0  0  0  0
 51 53  1  0  0  0  0
  7 12  1  0  0  0  0
 41 46  1  0  0  0  0
 17 28  1  0  0  0  0
 24 36  1  0  0  0  0
M  CHG  1  24   1
M  END
$$$$

  -OEChem-05262214473D

 56 55  0     1  0  0  0  0  0999 V2000
    0.7735   -5.8042   -2.0022 C   0  0  0  0  0  0  0  0  0  0  0  0
   -0.2086   -6.3825   -1.5519 O   0  0  0  0  0  0  0  0  0  0  0  0
    1.4751   -6.3646   -3.1946 C   0  0  0  0  0  0  0  0  0  0  0  0
    2.2765   -7.0687   -2.9186 H   0  0  0  0  0  0  0  0  0  0  0  0
    0.7988   -6.9360   -3.8504 H   0  0  0  0  0  0  0  0  0  0  0  0
    1.9556   -5.6216   -3.8511 H   0  0  0  0  0  0  0  0  0  0  0  0
    1.3322   -4.6359   -1.5106 N   0  0  0  0  0  0  0  0  0  0  0  0
    0.8124   -3.9290   -0.3698 C   0  0  2  0  0  0  0  0  0  0  0  0
    1.0666   -2.4424   -0.5818 C   0  0  0  0  0  0  0  0  0  0  0  0
    2.0598   -2.0076   -1.1610 O   0  0  0  0  0  0  0  0  0  0  0  0
    1.4560   -4.4118    0.9207 C   0  0  0  0  0  0  0  0  0  0  0  0
    2.1528   -4.2578   -1.9805 H   0  0  0  0  0  0  0  0  0  0  0  0
   -0.2667   -4.1160   -0.3467 H   0  0  0  0  0  0  0  0  0  0  0  0
    2.5374   -4.2329    0.9160 H   0  0  0  0  0  0  0  0  0  0  0  0
    1.0390   -3.8932    1.7903 H   0  0  0  0  0  0  0  0  0  0  0  0
    1.2976   -5.4871    1.0566 H   0  0  0  0  0  0  0  0  0  0  0  0
    0.0755   -1.6529   -0.0105 N   0  0  0  0  0  0  0  0  0  0  0  0
    0.1113   -0.2132   -0.0391 C   0  0  2  0  0  0  0  0  0  0  0  0
    0.5030    0.2632    1.3556 C   0  0  0  0  0  0  0  0  0  0  0  0
    1.5288    0.9021    1.5806 O   0  0  0  0  0  0  0  0  0  0  0  0
   -1.2360    0.3883   -0.4517 C   0  0  0  0  0  0  0  0  0  0  0  0
   -1.5941    0.0743   -1.9092 C   0  0  0  0  0  0  0  0  0  0  0  0
   -2.9359    0.6754   -2.3144 C   0  0  0  0  0  0  0  0  0  0  0  0
   -3.2845    0.3543   -3.6966 N   0  3  0  0  0  0  0  0  0  0  0  0
   -4.4954    0.7440   -4.2719 C   0  0  0  0  0  0  0  0  0  0  0  0
   -4.7601    0.4029   -5.5940 N   0  0  0  0  0  0  0  0  0  0  0  0
   -5.4440    1.4659   -3.5549 N   0  0  0  0  0  0  0  0  0  0  0  0
   -0.7323   -2.1024    0.4149 H   0  0  0  0  0  0  0  0  0  0  0  0
    0.8977    0.0708   -0.7478 H   0  0  0  0  0  0  0  0  0  0  0  0
   -1.2087    1.4756   -0.3112 H   0  0  0  0  0  0  0  0  0  0  0  0
   -2.0289    0.0109    0.2075 H   0  0  0  0  0  0  0  0  0  0  0  0
   -0.8072    0.4552   -2.5713 H   0  0  0  0  0  0  0  0  0  0  0  0
   -1.6439   -1.0115   -2.0501 H   0  0  0  0  0  0  0  0  0  0  0  0
   -3.7281    0.2705   -1.6772 H   0  0  0  0  0  0  0  0  0  0  0  0
   -2.9235    1.7647   -2.2112 H   0  0  0  0  0  0  0  0  0  0  0  0
   -2.6292   -0.1724   -4.2714 H   0  0  0  0  0  0  0  0  0  0  0  0
   -5.6324    0.6716   -6.0430 H   0  0  0  0  0  0  0  0  0  0  0  0
   -4.0886   -0.1244   -6.1468 H   0  0  0  0  0  0  0  0  0  0  0  0
   -6.3273    1.7521   -3.9691 H   0  0  0  0  0  0  0  0  0  0  0  0
   -5.2780    1.7290   -2.5863 H   0  0  0  0  0  0  0  0  0  0  0  0
   -0.4022   -0.1514    2.3226 N   0  0  0  0  0  0  0  0  0  0  0  0
   -0.2330    0.1291    3.7297 C   0  0  2  0  0  0  0  0  0  0  0  0
   -0.8290   -1.0313    4.5156 C   0  0  0  0  0  0  0  0  0  0  0  0
   -1.8162   -1.6596    4.1391 O   0  0  0  0  0  0  0  0  0  0  0  0
   -0.8941    1.4432    4.1154 C   0  0  0  0  0  0  0  0  0  0  0  0
   -1.2411   -0.6490    2.0392 H   0  0  0  0  0  0  0  0  0  0  0  0
    0.8455    0.1804    3.9146 H   0  0  0  0  0  0  0  0  0  0  0  0
   -1.9752    1.4109    3.9372 H   0  0  0  0  0  0  0  0  0  0  0  0
   -0.7406    1.6684    5.1759 H   0  0  0  0  0  0  0  0  0  0  0  0
   -0.4851    2.2724    3.5280 H   0  0  0  0  0  0  0  0  0  0  0  0
   -0.1550   -1.2550    5.7080 N   0  0  0  0  0  0  0  0  0  0  0  0
   -0.5549   -2.2736    6.6505 C   0  0  0  0  0  0  0  0  0  0  0  0
    0.6773   -0.7129    5.9208 H   0  0  0  0  0  0  0  0  0  0  0  0
   -1.2381   -1.8378    7.3943 H   0  0  0  0  0  0  0  0  0  0  0  0
   -1.0664   -3.0874    6.1156 H   0  0  0  0  0  0  0  0  0  0  0  0
    0.3352   -2.6719    7.1594 H   0  0  0  0  0  0  0  0  0  0  0  0
  1  3  1  0  0  0  0
  1  7  1  0  0  0  0
  1  2  2  0  0  0  0
 42 43  1  0  0  0  0
 43 51  1  0  0  0  0
 43 44  2  0  0  0  0
  8  9  1  0  0  0  0
  9 17  1  0  0  0  0
  9 10  2  0  0  0  0
 18 19  1  0  0  0  0
 19 41  1  0  0  0  0
 19 20  2  0  0  0  0
 25 26  1  0  0  0  0
 25 27  1  0  0  0  0
 24 25  2  0  0  0  0
 42 45  1  0  0  0  0
  8 11  1  0  0  0  0
 51 52  1  0  0  0  0
 21 22  1  0  0  0  0
 22 23  1  0  0  0  0
 18 21  1  0  0  0  0
 23 24  1  0  0  0  0
 41 42  1  0  0  0  0
  7  8  1  0  0  0  0
 17 18  1  0  0  0  0
  3  4  1  0  0  0  0
  3  5  1  0  0  0  0
  3  6  1  0  0  0  0
 45 48  1  0  0  0  0
 45 49  1  0  0  0  0
 45 50  1  0  0  0  0
 11 14  1  0  0  0  0
 11 15  1  0  0  0  0
 11 16  1  0  0  0  0
 52 54  1  0  0  0  0
 52 55  1  0  0  0  0
 52 56  1  0  0  0  0
 22 32  1  0  0  0  0
 22 33  1  0  0  0  0
 21 30  1  0  0  0  0
 21 31  1  0  0  0  0
 23 34  1  0  0  0  0
 23 35  1  0  0  0  0
 42 47  1  0  0  0  0
  8 13  1  0  0  0  0
 18 29  1  0  0  0  0
 26 37  1  0  0  0  0
 26 38  1  0  0  0  0
 27 39  1  0  0  0  0
 27 40  1  0  0  0  0
 51 53  1  0  0  0  0
  7 12  1  0  0  0  0
 41 46  1  0  0  0  0
 17 28  1  0  0  0  0
 24 36  1  0  0  0  0
M  CHG  1  24   1
M  END
$$$$

  -OEChem-05262214473D

 56 55  0     1  0  0  0  0  0999 V2000
    0.7735   -5.8042   -2.0022 C   0  0  0  0  0  0  0  0  0  0  0  0
   -0.2086   -6.3825   -1.5519 O   0  0  0  0  0  0  0  0  0  0  0  0
    1.4751   -6.3646   -3.1946 C   0  0  0  0  0  0  0  0  0  0  0  0
    2.2765   -7.0687   -2.9186 H   0  0  0  0  0  0  0  0  0  0  0  0
    0.7988   -6.9360   -3.8504 H   0  0  0  0  0  0  0  0  0  0  0  0
    1.9556   -5.6216   -3.8511 H   0  0  0  0  0  0  0  0  0  0  0  0
    1.3322   -4.6359   -1.5106 N   0  0  0  0  0  0  0  0  0  0  0  0
    0.8124   -3.9290   -0.3698 C   0  0  2  0  0  0  0  0  0  0  0  0
    1.0666   -2.4424   -0.5818 C   0  0  0  0  0  0  0  0  0  0  0  0
    2.0598   -2.0076   -1.1610 O   0  0  0  0  0  0  0  0  0  0  0  0
    1.4560   -4.4118    0.9207 C   0  0  0  0  0  0  0  0  0  0  0  0
    2.1528   -4.2578   -1.9805 H   0  0  0  0  0  0  0  0  0  0  0  0
   -0.2667   -4.1160   -0.3467 H   0  0  0  0  0  0  0  0  0  0  0  0
    2.5374   -4.2329    0.9160 H   0  0  0  0  0  0  0  0  0  0  0  0
    1.0390   -3.8932    1.7903 H   0  0  0  0  0  0  0  0  0  0  0  0
    1.2976   -5.4871    1.0566 H   0  0  0  0  0  0  0  0  0  0  0  0
    0.0755   -1.6529   -0.0105 N   0  0  0  0  0  0  0  0  0  0  0  0
    0.1113   -0.2132   -0.0391 C   0  0  2  0  0  0  0  0  0  0  0  0
    0.5030    0.2632    1.3556 C   0  0  0  0  0  0  0  0  0  0  0  0
    1.3667    1.1153    1.5533 O   0  0  0  0  0  0  0  0  0  0  0  0
   -1.2360    0.3883   -0.4517 C   0  0  0  0  0  0  0  0  0  0  0  0
   -1.5941    0.0743   -1.9092 C   0  0  0  0  0  0  0  0  0  0  0  0
   -2.9359    0.6754   -2.3144 C   0  0  0  0  0  0  0  0  0  0  0  0
   -3.2845    0.3543   -3.6966 N   0  3  0  0  0  0  0  0  0  0  0  0
   -4.4954    0.7440   -4.2719 C   0  0  0  0  0  0  0  0  0  0  0  0
   -4.7601    0.4029   -5.5940 N   0  0  0  0  0  0  0  0  0  0  0  0
   -5.4440    1.4659   -3.5549 N   0  0  0  0  0  0  0  0  0  0  0  0
   -0.7323   -2.1024    0.4149 H   0  0  0  0  0  0  0  0  0  0  0  0
    0.8977    0.0708   -0.7478 H   0  0  0  0  0  0  0  0  0  0  0  0
   -1.2087    1.4756   -0.3112 H   0  0  0  0  0  0  0  0  0  0  0  0
   -2.0289    0.0109    0.2075 H   0  0  0  0  0  0  0  0  0  0  0  0
   -0.8072    0.4552   -2.5713 H   0  0  0  0  0  0  0  0  0  0  0  0
   -1.6439   -1.0115   -2.0501 H   0  0  0  0  0  0  0  0  0  0  0  0
   -3.7281    0.2705   -1.6772 H   0  0  0  0  0  0  0  0  0  0  0  0
   -2.9235    1.7647   -2.2112 H   0  0  0  0  0  0  0  0  0  0  0  0
   -2.6292   -0.1724   -4.2714 H   0  0  0  0  0  0  0  0  0  0  0  0
   -5.6324    0.6716   -6.0430 H   0  0  0  0  0  0  0  0  0  0  0  0
   -4.0886   -0.1244   -6.1468 H   0  0  0  0  0  0  0  0  0  0  0  0
   -6.3273    1.7521   -3.9691 H   0  0  0  0  0  0  0  0  0  0  0  0
   -5.2780    1.7290   -2.5863 H   0  0  0  0  0  0  0  0  0  0  0  0
   -0.1904   -0.4103    2.3515 N   0  0  0  0  0  0  0  0  0  0  0  0
    0.0328   -0.1776    3.7599 C   0  0  2  0  0  0  0  0  0  0  0  0
   -0.2029   -1.4897    4.4964 C   0  0  0  0  0  0  0  0  0  0  0  0
   -1.0452   -2.3137    4.1461 O   0  0  0  0  0  0  0  0  0  0  0  0
   -0.8805    0.9159    4.2917 C   0  0  0  0  0  0  0  0  0  0  0  0
   -0.9114   -1.0774    2.0929 H   0  0  0  0  0  0  0  0  0  0  0  0
    1.0814    0.1198    3.8690 H   0  0  0  0  0  0  0  0  0  0  0  0
   -1.9354    0.6358    4.1908 H   0  0  0  0  0  0  0  0  0  0  0  0
   -0.6903    1.1108    5.3523 H   0  0  0  0  0  0  0  0  0  0  0  0
   -0.7307    1.8508    3.7409 H   0  0  0  0  0  0  0  0  0  0  0  0
    0.6080   -1.6127    5.6160 N   0  0  0  0  0  0  0  0  0  0  0  0
    0.5428   -2.7493    6.5048 C   0  0  0  0  0  0  0  0  0  0  0  0
    1.3058   -0.9001    5.8083 H   0  0  0  0  0  0  0  0  0  0  0  0
   -0.1545   -2.5326    7.3274 H   0  0  0  0  0  0  0  0  0  0  0  0
    0.1906   -3.6302    5.9481 H   0  0  0  0  0  0  0  0  0  0  0  0
    1.5431   -2.9511    6.9157 H   0  0  0  0  0  0  0  0  0  0  0  0
  1  3  1  0  0  0  0
  1  7  1  0  0  0  0
  1  2  2  0  0  0  0
 42 43  1  0  0  0  0
 43 51  1  0  0  0  0
 43 44  2  0  0  0  0
  8  9  1  0  0  0  0
  9 17  1  0  0  0  0
  9 10  2  0  0  0  0
 18 19  1  0  0  0  0
 19 41  1  0  0  0  0
 19 20  2  0  0  0  0
 25 26  1  0  0  0  0
 25 27  1  0  0  0  0
 24 25  2  0  0  0  0
 42 45  1  0  0  0  0
  8 11  1  0  0  0  0
 51 52  1  0  0  0  0
 21 22  1  0  0  0  0
 22 23  1  0  0  0  0
 18 21  1  0  0  0  0
 23 24  1  0  0  0  0
 41 42  1  0  0  0  0
  7  8  1  0  0  0  0
 17 18  1  0  0  0  0
  3  4  1  0  0  0  0
  3  5  1  0  0  0  0
  3  6  1  0  0  0  0
 45 48  1  0  0  0  0
 45 49  1  0  0  0  0
 45 50  1  0  0  0  0
 11 14  1  0  0  0  0
 11 15  1  0  0  0  0
 11 16  1  0  0  0  0
 52 54  1  0  0  0  0
 52 55  1  0  0  0  0
 52 56  1  0  0  0  0
 22 32  1  0  0  0  0
 22 33  1  0  0  0  0
 21 30  1  0  0  0  0
 21 31  1  0  0  0  0
 23 34  1  0  0  0  0
 23 35  1  0  0  0  0
 42 47  1  0  0  0  0
  8 13  1  0  0  0  0
 18 29  1  0  0  0  0
 26 37  1  0  0  0  0
 26 38  1  0  0  0  0
 27 39  1  0  0  0  0
 27 40  1  0  0  0  0
 51 53  1  0  0  0  0
  7 12  1  0  0  0  0
 41 46  1  0  0  0  0
 17 28  1  0  0  0  0
 24 36  1  0  0  0  0
M  CHG  1  24   1
M  END
$$$$

  -OEChem-05262214473D

 56 55  0     1  0  0  0  0  0999 V2000
    0.7735   -5.8042   -2.0022 C   0  0  0  0  0  0  0  0  0  0  0  0
   -0.2086   -6.3825   -1.5519 O   0  0  0  0  0  0  0  0  0  0  0  0
    1.4751   -6.3646   -3.1946 C   0  0  0  0  0  0  0  0  0  0  0  0
    2.2765   -7.0687   -2.9186 H   0  0  0  0  0  0  0  0  0  0  0  0
    0.7988   -6.9360   -3.8504 H   0  0  0  0  0  0  0  0  0  0  0  0
    1.9556   -5.6216   -3.8511 H   0  0  0  0  0  0  0  0  0  0  0  0
    1.3322   -4.6359   -1.5106 N   0  0  0  0  0  0  0  0  0  0  0  0
    0.8124   -3.9290   -0.3698 C   0  0  2  0  0  0  0  0  0  0  0  0
    1.0666   -2.4424   -0.5818 C   0  0  0  0  0  0  0  0  0  0  0  0
    2.0598   -2.0076   -1.1610 O   0  0  0  0  0  0  0  0  0  0  0  0
    1.4560   -4.4118    0.9207 C   0  0  0  0  0  0  0  0  0  0  0  0
    2.1528   -4.2578   -1.9805 H   0  0  0  0  0  0  0  0  0  0  0  0
   -0.2667   -4.1160   -0.3467 H   0  0  0  0  0  0  0  0  0  0  0  0
    2.5374   -4.2329    0.9160 H   0  0  0  0  0  0  0  0  0  0  0  0
    1.0390   -3.8932    1.7903 H   0  0  0  0  0  0  0  0  0  0  0  0
    1.2976   -5.4871    1.0566 H   0  0  0  0  0  0  0  0  0  0  0  0
    0.0755   -1.6529   -0.0105 N   0  0  0  0  0  0  0  0  0  0  0  0
    0.1113   -0.2132   -0.0391 C   0  0  2  0  0  0  0  0  0  0  0  0
    0.5030    0.2632    1.3556 C   0  0  0  0  0  0  0  0  0  0  0  0
    1.1574    1.2847    1.5542 O   0  0  0  0  0  0  0  0  0  0  0  0
   -1.2360    0.3883   -0.4517 C   0  0  0  0  0  0  0  0  0  0  0  0
   -1.5941    0.0743   -1.9092 C   0  0  0  0  0  0  0  0  0  0  0  0
   -2.9359    0.6754   -2.3144 C   0  0  0  0  0  0  0  0  0  0  0  0
   -3.2845    0.3543   -3.6966 N   0  3  0  0  0  0  0  0  0  0  0  0
   -4.4954    0.7440   -4.2719 C   0  0  0  0  0  0  0  0  0  0  0  0
   -4.7601    0.4029   -5.5940 N   0  0  0  0  0  0  0  0  0  0  0  0
   -5.4440    1.4659   -3.5549 N   0  0  0  0  0  0  0  0  0  0  0  0
   -0.7323   -2.1024    0.4149 H   0  0  0  0  0  0  0  0  0  0  0  0
    0.8977    0.0708   -0.7478 H   0  0  0  0  0  0  0  0  0  0  0  0
   -1.2087    1.4756   -0.3112 H   0  0  0  0  0  0  0  0  0  0  0  0
   -2.0289    0.0109    0.2075 H   0  0  0  0  0  0  0  0  0  0  0  0
   -0.8072    0.4552   -2.5713 H   0  0  0  0  0  0  0  0  0  0  0  0
   -1.6439   -1.0115   -2.0501 H   0  0  0  0  0  0  0  0  0  0  0  0
   -3.7281    0.2705   -1.6772 H   0  0  0  0  0  0  0  0  0  0  0  0
   -2.9235    1.7647   -2.2112 H   0  0  0  0  0  0  0  0  0  0  0  0
   -2.6292   -0.1724   -4.2714 H   0  0  0  0  0  0  0  0  0  0  0  0
   -5.6324    0.6716   -6.0430 H   0  0  0  0  0  0  0  0  0  0  0  0
   -4.0886   -0.1244   -6.1468 H   0  0  0  0  0  0  0  0  0  0  0  0
   -6.3273    1.7521   -3.9691 H   0  0  0  0  0  0  0  0  0  0  0  0
   -5.2780    1.7290   -2.5863 H   0  0  0  0  0  0  0  0  0  0  0  0
    0.0777   -0.6121    2.3452 N   0  0  0  0  0  0  0  0  0  0  0  0
    0.3646   -0.4131    3.7472 C   0  0  2  0  0  0  0  0  0  0  0  0
    0.5088   -1.7830    4.3968 C   0  0  0  0  0  0  0  0  0  0  0  0
   -0.1450   -2.7634    4.0470 O   0  0  0  0  0  0  0  0  0  0  0  0
   -0.7282    0.3980    4.4259 C   0  0  0  0  0  0  0  0  0  0  0  0
   -0.4872   -1.4166    2.0897 H   0  0  0  0  0  0  0  0  0  0  0  0
    1.3200    0.1201    3.8019 H   0  0  0  0  0  0  0  0  0  0  0  0
   -1.6930   -0.1203    4.3811 H   0  0  0  0  0  0  0  0  0  0  0  0
   -0.4954    0.5723    5.4815 H   0  0  0  0  0  0  0  0  0  0  0  0
   -0.8509    1.3713    3.9385 H   0  0  0  0  0  0  0  0  0  0  0  0
    1.4222   -1.7715    5.4417 N   0  0  0  0  0  0  0  0  0  0  0  0
    1.7040   -2.9392    6.2436 C   0  0  0  0  0  0  0  0  0  0  0  0
    1.9482   -0.9247    5.6363 H   0  0  0  0  0  0  0  0  0  0  0  0
    1.0513   -2.9428    7.1290 H   0  0  0  0  0  0  0  0  0  0  0  0
    1.5196   -3.8458    5.6486 H   0  0  0  0  0  0  0  0  0  0  0  0
    2.7562   -2.9186    6.5639 H   0  0  0  0  0  0  0  0  0  0  0  0
  1  3  1  0  0  0  0
  1  7  1  0  0  0  0
  1  2  2  0  0  0  0
 42 43  1  0  0  0  0
 43 51  1  0  0  0  0
 43 44  2  0  0  0  0
  8  9  1  0  0  0  0
  9 17  1  0  0  0  0
  9 10  2  0  0  0  0
 18 19  1  0  0  0  0
 19 41  1  0  0  0  0
 19 20  2  0  0  0  0
 25 26  1  0  0  0  0
 25 27  1  0  0  0  0
 24 25  2  0  0  0  0
 42 45  1  0  0  0  0
  8 11  1  0  0  0  0
 51 52  1  0  0  0  0
 21 22  1  0  0  0  0
 22 23  1  0  0  0  0
 18 21  1  0  0  0  0
 23 24  1  0  0  0  0
 41 42  1  0  0  0  0
  7  8  1  0  0  0  0
 17 18  1  0  0  0  0
  3  4  1  0  0  0  0
  3  5  1  0  0  0  0
  3  6  1  0  0  0  0
 45 48  1  0  0  0  0
 45 49  1  0  0  0  0
 45 50  1  0  0  0  0
 11 14  1  0  0  0  0
 11 15  1  0  0  0  0
 11 16  1  0  0  0  0
 52 54  1  0  0  0  0
 52 55  1  0  0  0  0
 52 56  1  0  0  0  0
 22 32  1  0  0  0  0
 22 33  1  0  0  0  0
 21 30  1  0  0  0  0
 21 31  1  0  0  0  0
 23 34  1  0  0  0  0
 23 35  1  0  0  0  0
 42 47  1  0  0  0  0
  8 13  1  0  0  0  0
 18 29  1  0  0  0  0
 26 37  1  0  0  0  0
 26 38  1  0  0  0  0
 27 39  1  0  0  0  0
 27 40  1  0  0  0  0
 51 53  1  0  0  0  0
  7 12  1  0  0  0  0
 41 46  1  0  0  0  0
 17 28  1  0  0  0  0
 24 36  1  0  0  0  0
M  CHG  1  24   1
M  END
$$$$

  -OEChem-05262214473D

 56 55  0     1  0  0  0  0  0999 V2000
    0.7735   -5.8042   -2.0022 C   0  0  0  0  0  0  0  0  0  0  0  0
   -0.2086   -6.3825   -1.5519 O   0  0  0  0  0  0  0  0  0  0  0  0
    1.4751   -6.3646   -3.1946 C   0  0  0  0  0  0  0  0  0  0  0  0
    2.2765   -7.0687   -2.9186 H   0  0  0  0  0  0  0  0  0  0  0  0
    0.7988   -6.9360   -3.8504 H   0  0  0  0  0  0  0  0  0  0  0  0
    1.9556   -5.6216   -3.8511 H   0  0  0  0  0  0  0  0  0  0  0  0
    1.3322   -4.6359   -1.5106 N   0  0  0  0  0  0  0  0  0  0  0  0
    0.8124   -3.9290   -0.3698 C   0  0  2  0  0  0  0  0  0  0  0  0
    1.0666   -2.4424   -0.5818 C   0  0  0  0  0  0  0  0  0  0  0  0
    2.0598   -2.0076   -1.1610 O   0  0  0  0  0  0  0  0  0  0  0  0
    1.4560   -4.4118    0.9207 C   0  0  0  0  0  0  0  0  0  0  0  0
    2.1528   -4.2578   -1.9805 H   0  0  0  0  0  0  0  0  0  0  0  0
   -0.2667   -4.1160   -0.3467 H   0  0  0  0  0  0  0  0  0  0  0  0
    2.5374   -4.2329    0.9160 H   0  0  0  0  0  0  0  0  0  0  0  0
    1.0390   -3.8932    1.7903 H   0  0  0  0  0  0  0  0  0  0  0  0
    1.2976   -5.4871    1.0566 H   0  0  0  0  0  0  0  0  0  0  0  0
    0.0755   -1.6529   -0.0105 N   0  0  0  0  0  0  0  0  0  0  0  0
    0.1113   -0.2132   -0.0391 C   0  0  2  0  0  0  0  0  0  0  0  0
    0.5030    0.2632    1.3556 C   0  0  0  0  0  0  0  0  0  0  0  0
    0.9152    1.3988    1.5832 O   0  0  0  0  0  0  0  0  0  0  0  0
   -1.2360    0.3883   -0.4517 C   0  0  0  0  0  0  0  0  0  0  0  0
   -1.5941    0.0743   -1.9092 C   0  0  0  0  0  0  0  0  0  0  0  0
   -2.9359    0.6754   -2.3144 C   0  0  0  0  0  0  0  0  0  0  0  0
   -3.2845    0.3543   -3.6966 N   0  3  0  0  0  0  0  0  0  0  0  0
   -4.4954    0.7440   -4.2719 C   0  0  0  0  0  0  0  0  0  0  0  0
   -4.7601    0.4029   -5.5940 N   0  0  0  0  0  0  0  0  0  0  0  0
   -5.4440    1.4659   -3.5549 N   0  0  0  0  0  0  0  0  0  0  0  0
   -0.7323   -2.1024    0.4149 H   0  0  0  0  0  0  0  0  0  0  0  0
    0.8977    0.0708   -0.7478 H   0  0  0  0  0  0  0  0  0  0  0  0
   -1.2087    1.4756   -0.3112 H   0  0  0  0  0  0  0  0  0  0  0  0
   -2.0289    0.0109    0.2075 H   0  0  0  0  0  0  0  0  0  0  0  0
   -0.8072    0.4552   -2.5713 H   0  0  0  0  0  0  0  0  0  0  0  0
   -1.6439   -1.0115   -2.0501 H   0  0  0  0  0  0  0  0  0  0  0  0
   -3.7281    0.2705   -1.6772 H   0  0  0  0  0  0  0  0  0  0  0  0
   -2.9235    1.7647   -2.2112 H   0  0  0  0  0  0  0  0  0  0  0  0
   -2.6292   -0.1724   -4.2714 H   0  0  0  0  0  0  0  0  0  0  0  0
   -5.6324    0.6716   -6.0430 H   0  0  0  0  0  0  0  0  0  0  0  0
   -4.0886   -0.1244   -6.1468 H   0  0  0  0  0  0  0  0  0  0  0  0
   -6.3273    1.7521   -3.9691 H   0  0  0  0  0  0  0  0  0  0  0  0
   -5.2780    1.7290   -2.5863 H   0  0  0  0  0  0  0  0  0  0  0  0
    0.3840   -0.7431    2.3040 N   0  0  0  0  0  0  0  0  0  0  0  0
    0.7398   -0.5611    3.6924 C   0  0  2  0  0  0  0  0  0  0  0  0
    1.2577   -1.8912    4.2235 C   0  0  0  0  0  0  0  0  0  0  0  0
    0.8230   -2.9782    3.8485 O   0  0  0  0  0  0  0  0  0  0  0  0
   -0.4477   -0.0751    4.5087 C   0  0  0  0  0  0  0  0  0  0  0  0
    0.0026   -1.6437    2.0298 H   0  0  0  0  0  0  0  0  0  0  0  0
    1.5449    0.1814    3.7179 H   0  0  0  0  0  0  0  0  0  0  0  0
   -1.2645   -0.8059    4.4950 H   0  0  0  0  0  0  0  0  0  0  0  0
   -0.1692    0.0897    5.5548 H   0  0  0  0  0  0  0  0  0  0  0  0
   -0.8375    0.8665    4.1072 H   0  0  0  0  0  0  0  0  0  0  0  0
    2.2322   -1.7207    5.1969 N   0  0  0  0  0  0  0  0  0  0  0  0
    2.8495   -2.8304    5.8848 C   0  0  0  0  0  0  0  0  0  0  0  0
    2.5605   -0.7849    5.4166 H   0  0  0  0  0  0  0  0  0  0  0  0
    2.2971   -3.0404    6.8126 H   0  0  0  0  0  0  0  0  0  0  0  0
    2.8302   -3.7195    5.2375 H   0  0  0  0  0  0  0  0  0  0  0  0
    3.8918   -2.5767    6.1283 H   0  0  0  0  0  0  0  0  0  0  0  0
  1  3  1  0  0  0  0
  1  7  1  0  0  0  0
  1  2  2  0  0  0  0
 42 43  1  0  0  0  0
 43 51  1  0  0  0  0
 43 44  2  0  0  0  0
  8  9  1  0  0  0  0
  9 17  1  0  0  0  0
  9 10  2  0  0  0  0
 18 19  1  0  0  0  0
 19 41  1  0  0  0  0
 19 20  2  0  0  0  0
 25 26  1  0  0  0  0
 25 27  1  0  0  0  0
 24 25  2  0  0  0  0
 42 45  1  0  0  0  0
  8 11  1  0  0  0  0
 51 52  1  0  0  0  0
 21 22  1  0  0  0  0
 22 23  1  0  0  0  0
 18 21  1  0  0  0  0
 23 24  1  0  0  0  0
 41 42  1  0  0  0  0
  7  8  1  0  0  0  0
 17 18  1  0  0  0  0
  3  4  1  0  0  0  0
  3  5  1  0  0  0  0
  3  6  1  0  0  0  0
 45 48  1  0  0  0  0
 45 49  1  0  0  0  0
 45 50  1  0  0  0  0
 11 14  1  0  0  0  0
 11 15  1  0  0  0  0
 11 16  1  0  0  0  0
 52 54  1  0  0  0  0
 52 55  1  0  0  0  0
 52 56  1  0  0  0  0
 22 32  1  0  0  0  0
 22 33  1  0  0  0  0
 21 30  1  0  0  0  0
 21 31  1  0  0  0  0
 23 34  1  0  0  0  0
 23 35  1  0  0  0  0
 42 47  1  0  0  0  0
  8 13  1  0  0  0  0
 18 29  1  0  0  0  0
 26 37  1  0  0  0  0
 26 38  1  0  0  0  0
 27 39  1  0  0  0  0
 27 40  1  0  0  0  0
 51 53  1  0  0  0  0
  7 12  1  0  0  0  0
 41 46  1  0  0  0  0
 17 28  1  0  0  0  0
 24 36  1  0  0  0  0
M  CHG  1  24   1
M  END
$$$$

  -OEChem-05262214473D

 56 55  0     1  0  0  0  0  0999 V2000
    0.7735   -5.8042   -2.0022 C   0  0  0  0  0  0  0  0  0  0  0  0
   -0.2086   -6.3825   -1.5519 O   0  0  0  0  0  0  0  0  0  0  0  0
    1.4751   -6.3646   -3.1946 C   0  0  0  0  0  0  0  0  0  0  0  0
    2.2765   -7.0687   -2.9186 H   0  0  0  0  0  0  0  0  0  0  0  0
    0.7988   -6.9360   -3.8504 H   0  0  0  0  0  0  0  0  0  0  0  0
    1.9556   -5.6216   -3.8511 H   0  0  0  0  0  0  0  0  0  0  0  0
    1.3322   -4.6359   -1.5106 N   0  0  0  0  0  0  0  0  0  0  0  0
    0.8124   -3.9290   -0.3698 C   0  0  2  0  0  0  0  0  0  0  0  0
    1.0666   -2.4424   -0.5818 C   0  0  0  0  0  0  0  0  0  0  0  0
    2.0598   -2.0076   -1.1610 O   0  0  0  0  0  0  0  0  0  0  0  0
    1.4560   -4.4118    0.9207 C   0  0  0  0  0  0  0  0  0  0  0  0
    2.1528   -4.2578   -1.9805 H   0  0  0  0  0  0  0  0  0  0  0  0
   -0.2667   -4.1160   -0.3467 H   0  0  0  0  0  0  0  0  0  0  0  0
    2.5374   -4.2329    0.9160 H   0  0  0  0  0  0  0  0  0  0  0  0
    1.0390   -3.8932    1.7903 H   0  0  0  0  0  0  0  0  0  0  0  0
    1.2976   -5.4871    1.0566 H   0  0  0  0  0  0  0  0  0  0  0  0
    0.0755   -1.6529   -0.0105 N   0  0  0  0  0  0  0  0  0  0  0  0
    0.1113   -0.2132   -0.0391 C   0  0  2  0  0  0  0  0  0  0  0  0
    0.5030    0.2632    1.3556 C   0  0  0  0  0  0  0  0  0  0  0  0
    0.6566    1.4496    1.6384 O   0  0  0  0  0  0  0  0  0  0  0  0
   -1.2360    0.3883   -0.4517 C   0  0  0  0  0  0  0  0  0  0  0  0
   -1.5941    0.0743   -1.9092 C   0  0  0  0  0  0  0  0  0  0  0  0
   -2.9359    0.6754   -2.3144 C   0  0  0  0  0  0  0  0  0  0  0  0
   -3.2845    0.3543   -3.6966 N   0  3  0  0  0  0  0  0  0  0  0  0
   -4.4954    0.7440   -4.2719 C   0  0  0  0  0  0  0  0  0  0  0  0
   -4.7601    0.4029   -5.5940 N   0  0  0  0  0  0  0  0  0  0  0  0
   -5.4440    1.4659   -3.5549 N   0  0  0  0  0  0  0  0  0  0  0  0
   -0.7323   -2.1024    0.4149 H   0  0  0  0  0  0  0  0  0  0  0  0
    0.8977    0.0708   -0.7478 H   0  0  0  0  0  0  0  0  0  0  0  0
   -1.2087    1.4756   -0.3112 H   0  0  0  0  0  0  0  0  0  0  0  0
   -2.0289    0.0109    0.2075 H   0  0  0  0  0  0  0  0  0  0  0  0
   -0.8072    0.4552   -2.5713 H   0  0  0  0  0  0  0  0  0  0  0  0
   -1.6439   -1.0115   -2.0501 H   0  0  0  0  0  0  0  0  0  0  0  0
   -3.7281    0.2705   -1.6772 H   0  0  0  0  0  0  0  0  0  0  0  0
   -2.9235    1.7647   -2.2112 H   0  0  0  0  0  0  0  0  0  0  0  0
   -2.6292   -0.1724   -4.2714 H   0  0  0  0  0  0  0  0  0  0  0  0
   -5.6324    0.6716   -6.0430 H   0  0  0  0  0  0  0  0  0  0  0  0
   -4.0886   -0.1244   -6.1468 H   0  0  0  0  0  0  0  0  0  0  0  0
   -6.3273    1.7521   -3.9691 H   0  0  0  0  0  0  0  0  0  0  0  0
   -5.2780    1.7290   -2.5863 H   0  0  0  0  0  0  0  0  0  0  0  0
    0.7076   -0.7944    2.2307 N   0  0  0  0  0  0  0  0  0  0  0  0
    1.1328   -0.6116    3.5993 C   0  0  2  0  0  0  0  0  0  0  0  0
    1.9926   -1.8069    3.9883 C   0  0  0  0  0  0  0  0  0  0  0  0
    1.7928   -2.9433    3.5643 O   0  0  0  0  0  0  0  0  0  0  0  0
   -0.0581   -0.4712    4.5346 C   0  0  0  0  0  0  0  0  0  0  0  0
    0.5246   -1.7431    1.9172 H   0  0  0  0  0  0  0  0  0  0  0  0
    1.7408    0.2994    3.6225 H   0  0  0  0  0  0  0  0  0  0  0  0
   -0.6791   -1.3743    4.5248 H   0  0  0  0  0  0  0  0  0  0  0  0
    0.2659   -0.3041    5.5672 H   0  0  0  0  0  0  0  0  0  0  0  0
   -0.6915    0.3709    4.2355 H   0  0  0  0  0  0  0  0  0  0  0  0
    2.9827   -1.4635    4.8983 N   0  0  0  0  0  0  0  0  0  0  0  0
    3.9012   -2.4304    5.4529 C   0  0  0  0  0  0  0  0  0  0  0  0
    3.1012   -0.4904    5.1642 H   0  0  0  0  0  0  0  0  0  0  0  0
    3.4979   -2.8188    6.3997 H   0  0  0  0  0  0  0  0  0  0  0  0
    4.0329   -3.2601    4.7428 H   0  0  0  0  0  0  0  0  0  0  0  0
    4.8726   -1.9487    5.6383 H   0  0  0  0  0  0  0  0  0  0  0  0
  1  3  1  0  0  0  0
  1  7  1  0  0  0  0
  1  2  2  0  0  0  0
 42 43  1  0  0  0  0
 43 51  1  0  0  0  0
 43 44  2  0  0  0  0
  8  9  1  0  0  0  0
  9 17  1  0  0  0  0
  9 10  2  0  0  0  0
 18 19  1  0  0  0  0
 19 41  1  0  0  0  0
 19 20  2  0  0  0  0
 25 26  1  0  0  0  0
 25 27  1  0  0  0  0
 24 25  2  0  0  0  0
 42 45  1  0  0  0  0
  8 11  1  0  0  0  0
 51 52  1  0  0  0  0
 21 22  1  0  0  0  0
 22 23  1  0  0  0  0
 18 21  1  0  0  0  0
 23 24  1  0  0  0  0
 41 42  1  0  0  0  0
  7  8  1  0  0  0  0
 17 18  1  0  0  0  0
  3  4  1  0  0  0  0
  3  5  1  0  0  0  0
  3  6  1  0  0  0  0
 45 48  1  0  0  0  0
 45 49  1  0  0  0  0
 45 50  1  0  0  0  0
 11 14  1  0  0  0  0
 11 15  1  0  0  0  0
 11 16  1  0  0  0  0
 52 54  1  0  0  0  0
 52 55  1  0  0  0  0
 52 56  1  0  0  0  0
 22 32  1  0  0  0  0
 22 33  1  0  0  0  0
 21 30  1  0  0  0  0
 21 31  1  0  0  0  0
 23 34  1  0  0  0  0
 23 35  1  0  0  0  0
 42 47  1  0  0  0  0
  8 13  1  0  0  0  0
 18 29  1  0  0  0  0
 26 37  1  0  0  0  0
 26 38  1  0  0  0  0
 27 39  1  0  0  0  0
 27 40  1  0  0  0  0
 51 53  1  0  0  0  0
  7 12  1  0  0  0  0
 41 46  1  0  0  0  0
 17 28  1  0  0  0  0
 24 36  1  0  0  0  0
M  CHG  1  24   1
M  END
$$$$

  -OEChem-05262214473D

 56 55  0     1  0  0  0  0  0999 V2000
    0.7735   -5.8042   -2.0022 C   0  0  0  0  0  0  0  0  0  0  0  0
   -0.2086   -6.3825   -1.5519 O   0  0  0  0  0  0  0  0  0  0  0  0
    1.4751   -6.3646   -3.1946 C   0  0  0  0  0  0  0  0  0  0  0  0
    2.2765   -7.0687   -2.9186 H   0  0  0  0  0  0  0  0  0  0  0  0
    0.7988   -6.9360   -3.8504 H   0  0  0  0  0  0  0  0  0  0  0  0
    1.9556   -5.6216   -3.8511 H   0  0  0  0  0  0  0  0  0  0  0  0
    1.3322   -4.6359   -1.5106 N   0  0  0  0  0  0  0  0  0  0  0  0
    0.8124   -3.9290   -0.3698 C   0  0  2  0  0  0  0  0  0  0  0  0
    1.0666   -2.4424   -0.5818 C   0  0  0  0  0  0  0  0  0  0  0  0
    2.0598   -2.0076   -1.1610 O   0  0  0  0  0  0  0  0  0  0  0  0
    1.4560   -4.4118    0.9207 C   0  0  0  0  0  0  0  0  0  0  0  0
    2.1528   -4.2578   -1.9805 H   0  0  0  0  0  0  0  0  0  0  0  0
   -0.2667   -4.1160   -0.3467 H   0  0  0  0  0  0  0  0  0  0  0  0
    2.5374   -4.2329    0.9160 H   0  0  0  0  0  0  0  0  0  0  0  0
    1.0390   -3.8932    1.7903 H   0  0  0  0  0  0  0  0  0  0  0  0
    1.2976   -5.4871    1.0566 H   0  0  0  0  0  0  0  0  0  0  0  0
    0.0755   -1.6529   -0.0105 N   0  0  0  0  0  0  0  0  0  0  0  0
    0.1113   -0.2132   -0.0391 C   0  0  2  0  0  0  0  0  0  0  0  0
    0.5030    0.2632    1.3556 C   0  0  0  0  0  0  0  0  0  0  0  0
    0.3993    1.4339    1.7161 O   0  0  0  0  0  0  0  0  0  0  0  0
   -1.2360    0.3883   -0.4517 C   0  0  0  0  0  0  0  0  0  0  0  0
   -1.5941    0.0743   -1.9092 C   0  0  0  0  0  0  0  0  0  0  0  0
   -2.9359    0.6754   -2.3144 C   0  0  0  0  0  0  0  0  0  0  0  0
   -3.2845    0.3543   -3.6966 N   0  3  0  0  0  0  0  0  0  0  0  0
   -4.4954    0.7440   -4.2719 C   0  0  0  0  0  0  0  0  0  0  0  0
   -4.7601    0.4029   -5.5940 N   0  0  0  0  0  0  0  0  0  0  0  0
   -5.4440    1.4659   -3.5549 N   0  0  0  0  0  0  0  0  0  0  0  0
   -0.7323   -2.1024    0.4149 H   0  0  0  0  0  0  0  0  0  0  0  0
    0.8977    0.0708   -0.7478 H   0  0  0  0  0  0  0  0  0  0  0  0
   -1.2087    1.4756   -0.3112 H   0  0  0  0  0  0  0  0  0  0  0  0
   -2.0289    0.0109    0.2075 H   0  0  0  0  0  0  0  0  0  0  0  0
   -0.8072    0.4552   -2.5713 H   0  0  0  0  0  0  0  0  0  0  0  0
   -1.6439   -1.0115   -2.0501 H   0  0  0  0  0  0  0  0  0  0  0  0
   -3.7281    0.2705   -1.6772 H   0  0  0  0  0  0  0  0  0  0  0  0
   -2.9235    1.7647   -2.2112 H   0  0  0  0  0  0  0  0  0  0  0  0
   -2.6292   -0.1724   -4.2714 H   0  0  0  0  0  0  0  0  0  0  0  0
   -5.6324    0.6716   -6.0430 H   0  0  0  0  0  0  0  0  0  0  0  0
   -4.0886   -0.1244   -6.1468 H   0  0  0  0  0  0  0  0  0  0  0  0
   -6.3273    1.7521   -3.9691 H   0  0  0  0  0  0  0  0  0  0  0  0
   -5.2780    1.7290   -2.5863 H   0  0  0  0  0  0  0  0  0  0  0  0
    1.0263   -0.7626    2.1303 N   0  0  0  0  0  0  0  0  0  0  0  0
    1.5168   -0.5611    3.4742 C   0  0  2  0  0  0  0  0  0  0  0  0
    2.6635   -1.5359    3.7074 C   0  0  0  0  0  0  0  0  0  0  0  0
    2.6982   -2.6612    3.2137 O   0  0  0  0  0  0  0  0  0  0  0  0
    0.4141   -0.7633    4.5018 C   0  0  0  0  0  0  0  0  0  0  0  0
    1.0433   -1.7081    1.7596 H   0  0  0  0  0  0  0  0  0  0  0  0
    1.8944    0.4661    3.5225 H   0  0  0  0  0  0  0  0  0  0  0  0
    0.0233   -1.7868    4.4685 H   0  0  0  0  0  0  0  0  0  0  0  0
    0.7805   -0.5823    5.5177 H   0  0  0  0  0  0  0  0  0  0  0  0
   -0.4227   -0.0817    4.3147 H   0  0  0  0  0  0  0  0  0  0  0  0
    3.6226   -1.0176    4.5663 N   0  0  0  0  0  0  0  0  0  0  0  0
    4.7874   -1.7663    4.9772 C   0  0  0  0  0  0  0  0  0  0  0  0
    3.5333   -0.0611    4.8962 H   0  0  0  0  0  0  0  0  0  0  0  0
    4.5720   -2.2931    5.9185 H   0  0  0  0  0  0  0  0  0  0  0  0
    5.0460   -2.4986    4.1982 H   0  0  0  0  0  0  0  0  0  0  0  0
    5.6316   -1.0774    5.1275 H   0  0  0  0  0  0  0  0  0  0  0  0
  1  3  1  0  0  0  0
  1  7  1  0  0  0  0
  1  2  2  0  0  0  0
 42 43  1  0  0  0  0
 43 51  1  0  0  0  0
 43 44  2  0  0  0  0
  8  9  1  0  0  0  0
  9 17  1  0  0  0  0
  9 10  2  0  0  0  0
 18 19  1  0  0  0  0
 19 41  1  0  0  0  0
 19 20  2  0  0  0  0
 25 26  1  0  0  0  0
 25 27  1  0  0  0  0
 24 25  2  0  0  0  0
 42 45  1  0  0  0  0
  8 11  1  0  0  0  0
 51 52  1  0  0  0  0
 21 22  1  0  0  0  0
 22 23  1  0  0  0  0
 18 21  1  0  0  0  0
 23 24  1  0  0  0  0
 41 42  1  0  0  0  0
  7  8  1  0  0  0  0
 17 18  1  0  0  0  0
  3  4  1  0  0  0  0
  3  5  1  0  0  0  0
  3  6  1  0  0  0  0
 45 48  1  0  0  0  0
 45 49  1  0  0  0  0
 45 50  1  0  0  0  0
 11 14  1  0  0  0  0
 11 15  1  0  0  0  0
 11 16  1  0  0  0  0
 52 54  1  0  0  0  0
 52 55  1  0  0  0  0
 52 56  1  0  0  0  0
 22 32  1  0  0  0  0
 22 33  1  0  0  0  0
 21 30  1  0  0  0  0
 21 31  1  0  0  0  0
 23 34  1  0  0  0  0
 23 35  1  0  0  0  0
 42 47  1  0  0  0  0
  8 13  1  0  0  0  0
 18 29  1  0  0  0  0
 26 37  1  0  0  0  0
 26 38  1  0  0  0  0
 27 39  1  0  0  0  0
 27 40  1  0  0  0  0
 51 53  1  0  0  0  0
  7 12  1  0  0  0  0
 41 46  1  0  0  0  0
 17 28  1  0  0  0  0
 24 36  1  0  0  0  0
M  CHG  1  24   1
M  END
$$$$

  -OEChem-05262214473D

 56 55  0     1  0  0  0  0  0999 V2000
    0.7735   -5.8042   -2.0022 C   0  0  0  0  0  0  0  0  0  0  0  0
   -0.2086   -6.3825   -1.5519 O   0  0  0  0  0  0  0  0  0  0  0  0
    1.4751   -6.3646   -3.1946 C   0  0  0  0  0  0  0  0  0  0  0  0
    2.2765   -7.0687   -2.9186 H   0  0  0  0  0  0  0  0  0  0  0  0
    0.7988   -6.9360   -3.8504 H   0  0  0  0  0  0  0  0  0  0  0  0
    1.9556   -5.6216   -3.8511 H   0  0  0  0  0  0  0  0  0  0  0  0
    1.3322   -4.6359   -1.5106 N   0  0  0  0  0  0  0  0  0  0  0  0
    0.8124   -3.9290   -0.3698 C   0  0  2  0  0  0  0  0  0  0  0  0
    1.0666   -2.4424   -0.5818 C   0  0  0  0  0  0  0  0  0  0  0  0
    2.0598   -2.0076   -1.1610 O   0  0  0  0  0  0  0  0  0  0  0  0
    1.4560   -4.4118    0.9207 C   0  0  0  0  0  0  0  0  0  0  0  0
    2.1528   -4.2578   -1.9805 H   0  0  0  0  0  0  0  0  0  0  0  0
   -0.2667   -4.1160   -0.3467 H   0  0  0  0  0  0  0  0  0  0  0  0
    2.5374   -4.2329    0.9160 H   0  0  0  0  0  0  0  0  0  0  0  0
    1.0390   -3.8932    1.7903 H   0  0  0  0  0  0  0  0  0  0  0  0
    1.2976   -5.4871    1.0566 H   0  0  0  0  0  0  0  0  0  0  0  0
    0.0755   -1.6529   -0.0105 N   0  0  0  0  0  0  0  0  0  0  0  0
    0.1113   -0.2132   -0.0391 C   0  0  2  0  0  0  0  0  0  0  0  0
    0.5030    0.2632    1.3556 C   0  0  0  0  0  0  0  0  0  0  0  0
    0.1607    1.3526    1.8108 O   0  0  0  0  0  0  0  0  0  0  0  0
   -1.2360    0.3883   -0.4517 C   0  0  0  0  0  0  0  0  0  0  0  0
   -1.5941    0.0743   -1.9092 C   0  0  0  0  0  0  0  0  0  0  0  0
   -2.9359    0.6754   -2.3144 C   0  0  0  0  0  0  0  0  0  0  0  0
   -3.2845    0.3543   -3.6966 N   0  3  0  0  0  0  0  0  0  0  0  0
   -4.4954    0.7440   -4.2719 C   0  0  0  0  0  0  0  0  0  0  0  0
   -4.7601    0.4029   -5.5940 N   0  0  0  0  0  0  0  0  0  0  0  0
   -5.4440    1.4659   -3.5549 N   0  0  0  0  0  0  0  0  0  0  0  0
   -0.7323   -2.1024    0.4149 H   0  0  0  0  0  0  0  0  0  0  0  0
    0.8977    0.0708   -0.7478 H   0  0  0  0  0  0  0  0  0  0  0  0
   -1.2087    1.4756   -0.3112 H   0  0  0  0  0  0  0  0  0  0  0  0
   -2.0289    0.0109    0.2075 H   0  0  0  0  0  0  0  0  0  0  0  0
   -0.8072    0.4552   -2.5713 H   0  0  0  0  0  0  0  0  0  0  0  0
   -1.6439   -1.0115   -2.0501 H   0  0  0  0  0  0  0  0  0  0  0  0
   -3.7281    0.2705   -1.6772 H   0  0  0  0  0  0  0  0  0  0  0  0
   -2.9235    1.7647   -2.2112 H   0  0  0  0  0  0  0  0  0  0  0  0
   -2.6292   -0.1724   -4.2714 H   0  0  0  0  0  0  0  0  0  0  0  0
   -5.6324    0.6716   -6.0430 H   0  0  0  0  0  0  0  0  0  0  0  0
   -4.0886   -0.1244   -6.1468 H   0  0  0  0  0  0  0  0  0  0  0  0
   -6.3273    1.7521   -3.9691 H   0  0  0  0  0  0  0  0  0  0  0  0
   -5.2780    1.7290   -2.5863 H   0  0  0  0  0  0  0  0  0  0  0  0
    1.3185   -0.6497    2.0097 N   0  0  0  0  0  0  0  0  0  0  0  0
    1.8657   -0.4132    3.3257 C   0  0  2  0  0  0  0  0  0  0  0  0
    3.2247   -1.0967    3.3997 C   0  0  0  0  0  0  0  0  0  0  0  0
    3.4777   -2.1510    2.8206 O   0  0  0  0  0  0  0  0  0  0  0  0
    0.9368   -0.9314    4.4126 C   0  0  0  0  0  0  0  0  0  0  0  0
    1.5232   -1.5410    1.5677 H   0  0  0  0  0  0  0  0  0  0  0  0
    1.9952    0.6701    3.4245 H   0  0  0  0  0  0  0  0  0  0  0  0
    0.7949   -2.0152    4.3299 H   0  0  0  0  0  0  0  0  0  0  0  0
    1.3394   -0.7260    5.4099 H   0  0  0  0  0  0  0  0  0  0  0  0
   -0.0495   -0.4606    4.3394 H   0  0  0  0  0  0  0  0  0  0  0  0
    4.1083   -0.4134    4.2235 N   0  0  0  0  0  0  0  0  0  0  0  0
    5.4477   -0.8835    4.4901 C   0  0  0  0  0  0  0  0  0  0  0  0
    3.8274    0.4736    4.6310 H   0  0  0  0  0  0  0  0  0  0  0  0
    5.4461   -1.4990    5.4018 H   0  0  0  0  0  0  0  0  0  0  0  0
    5.8002   -1.4872    3.6409 H   0  0  0  0  0  0  0  0  0  0  0  0
    6.1173   -0.0221    4.6307 H   0  0  0  0  0  0  0  0  0  0  0  0
  1  3  1  0  0  0  0
  1  7  1  0  0  0  0
  1  2  2  0  0  0  0
 42 43  1  0  0  0  0
 43 51  1  0  0  0  0
 43 44  2  0  0  0  0
  8  9  1  0  0  0  0
  9 17  1  0  0  0  0
  9 10  2  0  0  0  0
 18 19  1  0  0  0  0
 19 41  1  0  0  0  0
 19 20  2  0  0  0  0
 25 26  1  0  0  0  0
 25 27  1  0  0  0  0
 24 25  2  0  0  0  0
 42 45  1  0  0  0  0
  8 11  1  0  0  0  0
 51 52  1  0  0  0  0
 21 22  1  0  0  0  0
 22 23  1  0  0  0  0
 18 21  1  0  0  0  0
 23 24  1  0  0  0  0
 41 42  1  0  0  0  0
  7  8  1  0  0  0  0
 17 18  1  0  0  0  0
  3  4  1  0  0  0  0
  3  5  1  0  0  0  0
  3  6  1  0  0  0  0
 45 48  1  0  0  0  0
 45 49  1  0  0  0  0
 45 50  1  0  0  0  0
 11 14  1  0  0  0  0
 11 15  1  0  0  0  0
 11 16  1  0  0  0  0
 52 54  1  0  0  0  0
 52 55  1  0  0  0  0
 52 56  1  0  0  0  0
 22 32  1  0  0  0  0
 22 33  1  0  0  0  0
 21 30  1  0  0  0  0
 21 31  1  0  0  0  0
 23 34  1  0  0  0  0
 23 35  1  0  0  0  0
 42 47  1  0  0  0  0
  8 13  1  0  0  0  0
 18 29  1  0  0  0  0
 26 37  1  0  0  0  0
 26 38  1  0  0  0  0
 27 39  1  0  0  0  0
 27 40  1  0  0  0  0
 51 53  1  0  0  0  0
  7 12  1  0  0  0  0
 41 46  1  0  0  0  0
 17 28  1  0  0  0  0
 24 36  1  0  0  0  0
M  CHG  1  24   1
M  END
$$$$

  -OEChem-05262214473D

 56 55  0     1  0  0  0  0  0999 V2000
    0.7735   -5.8042   -2.0022 C   0  0  0  0  0  0  0  0  0  0  0  0
   -0.2086   -6.3825   -1.5519 O   0  0  0  0  0  0  0  0  0  0  0  0
    1.4751   -6.3646   -3.1946 C   0  0  0  0  0  0  0  0  0  0  0  0
    2.2765   -7.0687   -2.9186 H   0  0  0  0  0  0  0  0  0  0  0  0
    0.7988   -6.9360   -3.8504 H   0  0  0  0  0  0  0  0  0  0  0  0
    1.9556   -5.6216   -3.8511 H   0  0  0  0  0  0  0  0  0  0  0  0
    1.3322   -4.6359   -1.5106 N   0  0  0  0  0  0  0  0  0  0  0  0
    0.8124   -3.9290   -0.3698 C   0  0  2  0  0  0  0  0  0  0  0  0
    1.0666   -2.4424   -0.5818 C   0  0  0  0  0  0  0  0  0  0  0  0
    2.0598   -2.0076   -1.1610 O   0  0  0  0  0  0  0  0  0  0  0  0
    1.4560   -4.4118    0.9207 C   0  0  0  0  0  0  0  0  0  0  0  0
    2.1528   -4.2578   -1.9805 H   0  0  0  0  0  0  0  0  0  0  0  0
   -0.2667   -4.1160   -0.3467 H   0  0  0  0  0  0  0  0  0  0  0  0
    2.5374   -4.2329    0.9160 H   0  0  0  0  0  0  0  0  0  0  0  0
    1.0390   -3.8932    1.7903 H   0  0  0  0  0  0  0  0  0  0  0  0
    1.2976   -5.4871    1.0566 H   0  0  0  0  0  0  0  0  0  0  0  0
    0.0755   -1.6529   -0.0105 N   0  0  0  0  0  0  0  0  0  0  0  0
    0.1113   -0.2132   -0.0391 C   0  0  2  0  0  0  0  0  0  0  0  0
    0.5030    0.2632    1.3556 C   0  0  0  0  0  0  0  0  0  0  0  0
   -0.0428    1.2114    1.9162 O   0  0  0  0  0  0  0  0  0  0  0  0
   -1.2360    0.3883   -0.4517 C   0  0  0  0  0  0  0  0  0  0  0  0
   -1.5941    0.0743   -1.9092 C   0  0  0  0  0  0  0  0  0  0  0  0
   -2.9359    0.6754   -2.3144 C   0  0  0  0  0  0  0  0  0  0  0  0
   -3.2845    0.3543   -3.6966 N   0  3  0  0  0  0  0  0  0  0  0  0
   -4.4954    0.7440   -4.2719 C   0  0  0  0  0  0  0  0  0  0  0  0
   -4.7601    0.4029   -5.5940 N   0  0  0  0  0  0  0  0  0  0  0  0
   -5.4440    1.4659   -3.5549 N   0  0  0  0  0  0  0  0  0  0  0  0
   -0.7323   -2.1024    0.4149 H   0  0  0  0  0  0  0  0  0  0  0  0
    0.8977    0.0708   -0.7478 H   0  0  0  0  0  0  0  0  0  0  0  0
   -1.2087    1.4756   -0.3112 H   0  0  0  0  0  0  0  0  0  0  0  0
   -2.0289    0.0109    0.2075 H   0  0  0  0  0  0  0  0  0  0  0  0
   -0.8072    0.4552   -2.5713 H   0  0  0  0  0  0  0  0  0  0  0  0
   -1.6439   -1.0115   -2.0501 H   0  0  0  0  0  0  0  0  0  0  0  0
   -3.7281    0.2705   -1.6772 H   0  0  0  0  0  0  0  0  0  0  0  0
   -2.9235    1.7647   -2.2112 H   0  0  0  0  0  0  0  0  0  0  0  0
   -2.6292   -0.1724   -4.2714 H   0  0  0  0  0  0  0  0  0  0  0  0
   -5.6324    0.6716   -6.0430 H   0  0  0  0  0  0  0  0  0  0  0  0
   -4.0886   -0.1244   -6.1468 H   0  0  0  0  0  0  0  0  0  0  0  0
   -6.3273    1.7521   -3.9691 H   0  0  0  0  0  0  0  0  0  0  0  0
   -5.2780    1.7290   -2.5863 H   0  0  0  0  0  0  0  0  0  0  0  0
    1.5642   -0.4634    1.8770 N   0  0  0  0  0  0  0  0  0  0  0  0
    2.1557   -0.1779    3.1639 C   0  0  2  0  0  0  0  0  0  0  0  0
    3.6379   -0.5191    3.0864 C   0  0  0  0  0  0  0  0  0  0  0  0
    4.0781   -1.4476    2.4117 O   0  0  0  0  0  0  0  0  0  0  0  0
    1.4741   -0.9642    4.2729 C   0  0  0  0  0  0  0  0  0  0  0  0
    1.9317   -1.2533    1.3547 H   0  0  0  0  0  0  0  0  0  0  0  0
    2.0364    0.8975    3.3352 H   0  0  0  0  0  0  0  0  0  0  0  0
    1.5830   -2.0439    4.1184 H   0  0  0  0  0  0  0  0  0  0  0  0
    1.9046   -0.7253    5.2510 H   0  0  0  0  0  0  0  0  0  0  0  0
    0.4026   -0.7399    4.3078 H   0  0  0  0  0  0  0  0  0  0  0  0
    4.4068    0.3080    3.8932 N   0  0  0  0  0  0  0  0  0  0  0  0
    5.8372    0.1580    4.0250 C   0  0  0  0  0  0  0  0  0  0  0  0
    3.9635    1.0773    4.3865 H   0  0  0  0  0  0  0  0  0  0  0  0
    6.0607   -0.4908    4.8848 H   0  0  0  0  0  0  0  0  0  0  0  0
    6.2443   -0.2946    3.1088 H   0  0  0  0  0  0  0  0  0  0  0  0
    6.2964    1.1452    4.1816 H   0  0  0  0  0  0  0  0  0  0  0  0
  1  3  1  0  0  0  0
  1  7  1  0  0  0  0
  1  2  2  0  0  0  0
 42 43  1  0  0  0  0
 43 51  1  0  0  0  0
 43 44  2  0  0  0  0
  8  9  1  0  0  0  0
  9 17  1  0  0  0  0
  9 10  2  0  0  0  0
 18 19  1  0  0  0  0
 19 41  1  0  0  0  0
 19 20  2  0  0  0  0
 25 26  1  0  0  0  0
 25 27  1  0  0  0  0
 24 25  2  0  0  0  0
 42 45  1  0  0  0  0
  8 11  1  0  0  0  0
 51 52  1  0  0  0  0
 21 22  1  0  0  0  0
 22 23  1  0  0  0  0
 18 21  1  0  0  0  0
 23 24  1  0  0  0  0
 41 42  1  0  0  0  0
  7  8  1  0  0  0  0
 17 18  1  0  0  0  0
  3  4  1  0  0  0  0
  3  5  1  0  0  0  0
  3  6  1  0  0  0  0
 45 48  1  0  0  0  0
 45 49  1  0  0  0  0
 45 50  1  0  0  0  0
 11 14  1  0  0  0  0
 11 15  1  0  0  0  0
 11 16  1  0  0  0  0
 52 54  1  0  0  0  0
 52 55  1  0  0  0  0
 52 56  1  0  0  0  0
 22 32  1  0  0  0  0
 22 33  1  0  0  0  0
 21 30  1  0  0  0  0
 21 31  1  0  0  0  0
 23 34  1  0  0  0  0
 23 35  1  0  0  0  0
 42 47  1  0  0  0  0
  8 13  1  0  0  0  0
 18 29  1  0  0  0  0
 26 37  1  0  0  0  0
 26 38  1  0  0  0  0
 27 39  1  0  0  0  0
 27 40  1  0  0  0  0
 51 53  1  0  0  0  0
  7 12  1  0  0  0  0
 41 46  1  0  0  0  0
 17 28  1  0  0  0  0
 24 36  1  0  0  0  0
M  CHG  1  24   1
M  END
$$$$

  -OEChem-05262214473D

 56 55  0     1  0  0  0  0  0999 V2000
    0.7735   -5.8042   -2.0022 C   0  0  0  0  0  0  0  0  0  0  0  0
   -0.2086   -6.3825   -1.5519 O   0  0  0  0  0  0  0  0  0  0  0  0
    1.4751   -6.3646   -3.1946 C   0  0  0  0  0  0  0  0  0  0  0  0
    2.2765   -7.0687   -2.9186 H   0  0  0  0  0  0  0  0  0  0  0  0
    0.7988   -6.9360   -3.8504 H   0  0  0  0  0  0  0  0  0  0  0  0
    1.9556   -5.6216   -3.8511 H   0  0  0  0  0  0  0  0  0  0  0  0
    1.3322   -4.6359   -1.5106 N   0  0  0  0  0  0  0  0  0  0  0  0
    0.8124   -3.9290   -0.3698 C   0  0  2  0  0  0  0  0  0  0  0  0
    1.0666   -2.4424   -0.5818 C   0  0  0  0  0  0  0  0  0  0  0  0
    2.0598   -2.0076   -1.1610 O   0  0  0  0  0  0  0  0  0  0  0  0
    1.4560   -4.4118    0.9207 C   0  0  0  0  0  0  0  0  0  0  0  0
    2.1528   -4.2578   -1.9805 H   0  0  0  0  0  0  0  0  0  0  0  0
   -0.2667   -4.1160   -0.3467 H   0  0  0  0  0  0  0  0  0  0  0  0
    2.5374   -4.2329    0.9160 H   0  0  0  0  0  0  0  0  0  0  0  0
    1.0390   -3.8932    1.7903 H   0  0  0  0  0  0  0  0  0  0  0  0
    1.2976   -5.4871    1.0566 H   0  0  0  0  0  0  0  0  0  0  0  0
    0.0755   -1.6529   -0.0105 N   0  0  0  0  0  0  0  0  0  0  0  0
    0.1113   -0.2132   -0.0391 C   0  0  2  0  0  0  0  0  0  0  0  0
    0.5030    0.2632    1.3556 C   0  0  0  0  0  0  0  0  0  0  0  0
   -0.1975    1.0197    2.0251 O   0  0  0  0  0  0  0  0  0  0  0  0
   -1.2360    0.3883   -0.4517 C   0  0  0  0  0  0  0  0  0  0  0  0
   -1.5941    0.0743   -1.9092 C   0  0  0  0  0  0  0  0  0  0  0  0
   -2.9359    0.6754   -2.3144 C   0  0  0  0  0  0  0  0  0  0  0  0
   -3.2845    0.3543   -3.6966 N   0  3  0  0  0  0  0  0  0  0  0  0
   -4.4954    0.7440   -4.2719 C   0  0  0  0  0  0  0  0  0  0  0  0
   -4.7601    0.4029   -5.5940 N   0  0  0  0  0  0  0  0  0  0  0  0
   -5.4440    1.4659   -3.5549 N   0  0  0  0  0  0  0  0  0  0  0  0
   -0.7323   -2.1024    0.4149 H   0  0  0  0  0  0  0  0  0  0  0  0
    0.8977    0.0708   -0.7478 H   0  0  0  0  0  0  0  0  0  0  0  0
   -1.2087    1.4756   -0.3112 H   0  0  0  0  0  0  0  0  0  0  0  0
   -2.0289    0.0109    0.2075 H   0  0  0  0  0  0  0  0  0  0  0  0
   -0.8072    0.4552   -2.5713 H   0  0  0  0  0  0  0  0  0  0  0  0
   -1.6439   -1.0115   -2.0501 H   0  0  0  0  0  0  0  0  0  0  0  0
   -3.7281    0.2705   -1.6772 H   0  0  0  0  0  0  0  0  0  0  0  0
   -2.9235    1.7647   -2.2112 H   0  0  0  0  0  0  0  0  0  0  0  0
   -2.6292   -0.1724   -4.2714 H   0  0  0  0  0  0  0  0  0  0  0  0
   -5.6324    0.6716   -6.0430 H   0  0  0  0  0  0  0  0  0  0  0  0
   -4.0886   -0.1244   -6.1468 H   0  0  0  0  0  0  0  0  0  0  0  0
   -6.3273    1.7521   -3.9691 H   0  0  0  0  0  0  0  0  0  0  0  0
   -5.2780    1.7290   -2.5863 H   0  0  0  0  0  0  0  0  0  0  0  0
    1.7468   -0.2165    1.7414 N   0  0  0  0  0  0  0  0  0  0  0  0
    2.3670    0.1289    2.9998 C   0  0  2  0  0  0  0  0  0  0  0  0
    3.8750    0.1574    2.7887 C   0  0  0  0  0  0  0  0  0  0  0  0
    4.4585   -0.5988    2.0149 O   0  0  0  0  0  0  0  0  0  0  0  0
    1.9897   -0.8594    4.0923 C   0  0  0  0  0  0  0  0  0  0  0  0
    2.2410   -0.8645    1.1351 H   0  0  0  0  0  0  0  0  0  0  0  0
    2.0151    1.1329    3.2608 H   0  0  0  0  0  0  0  0  0  0  0  0
    2.3340   -1.8711    3.8485 H   0  0  0  0  0  0  0  0  0  0  0  0
    2.4374   -0.5802    5.0518 H   0  0  0  0  0  0  0  0  0  0  0  0
    0.9029   -0.9006    4.2222 H   0  0  0  0  0  0  0  0  0  0  0  0
    4.4976    1.0974    3.5980 N   0  0  0  0  0  0  0  0  0  0  0  0
    5.9293    1.2870    3.6134 C   0  0  0  0  0  0  0  0  0  0  0  0
    3.9322    1.7089    4.1795 H   0  0  0  0  0  0  0  0  0  0  0  0
    6.3739    0.6630    4.4027 H   0  0  0  0  0  0  0  0  0  0  0  0
    6.3479    0.9978    2.6381 H   0  0  0  0  0  0  0  0  0  0  0  0
    6.1568    2.3450    3.8109 H   0  0  0  0  0  0  0  0  0  0  0  0
  1  3  1  0  0  0  0
  1  7  1  0  0  0  0
  1  2  2  0  0  0  0
 42 43  1  0  0  0  0
 43 51  1  0  0  0  0
 43 44  2  0  0  0  0
  8  9  1  0  0  0  0
  9 17  1  0  0  0  0
  9 10  2  0  0  0  0
 18 19  1  0  0  0  0
 19 41  1  0  0  0  0
 19 20  2  0  0  0  0
 25 26  1  0  0  0  0
 25 27  1  0  0  0  0
 24 25  2  0  0  0  0
 42 45  1  0  0  0  0
  8 11  1  0  0  0  0
 51 52  1  0  0  0  0
 21 22  1  0  0  0  0
 22 23  1  0  0  0  0
 18 21  1  0  0  0  0
 23 24  1  0  0  0  0
 41 42  1  0  0  0  0
  7  8  1  0  0  0  0
 17 18  1  0  0  0  0
  3  4  1  0  0  0  0
  3  5  1  0  0  0  0
  3  6  1  0  0  0  0
 45 48  1  0  0  0  0
 45 49  1  0  0  0  0
 45 50  1  0  0  0  0
 11 14  1  0  0  0  0
 11 15  1  0  0  0  0
 11 16  1  0  0  0  0
 52 54  1  0  0  0  0
 52 55  1  0  0  0  0
 52 56  1  0  0  0  0
 22 32  1  0  0  0  0
 22 33  1  0  0  0  0
 21 30  1  0  0  0  0
 21 31  1  0  0  0  0
 23 34  1  0  0  0  0
 23 35  1  0  0  0  0
 42 47  1  0  0  0  0
  8 13  1  0  0  0  0
 18 29  1  0  0  0  0
 26 37  1  0  0  0  0
 26 38  1  0  0  0  0
 27 39  1  0  0  0  0
 27 40  1  0  0  0  0
 51 53  1  0  0  0  0
  7 12  1  0  0  0  0
 41 46  1  0  0  0  0
 17 28  1  0  0  0  0
 24 36  1  0  0  0  0
M  CHG  1  24   1
M  END
$$$$

  -OEChem-05262214473D

 56 55  0     1  0  0  0  0  0999 V2000
    0.7735   -5.8042   -2.0022 C   0  0  0  0  0  0  0  0  0  0  0  0
   -0.2086   -6.3825   -1.5519 O   0  0  0  0  0  0  0  0  0  0  0  0
    1.4751   -6.3646   -3.1946 C   0  0  0  0  0  0  0  0  0  0  0  0
    2.2765   -7.0687   -2.9186 H   0  0  0  0  0  0  0  0  0  0  0  0
    0.7988   -6.9360   -3.8504 H   0  0  0  0  0  0  0  0  0  0  0  0
    1.9556   -5.6216   -3.8511 H   0  0  0  0  0  0  0  0  0  0  0  0
    1.3322   -4.6359   -1.5106 N   0  0  0  0  0  0  0  0  0  0  0  0
    0.8124   -3.9290   -0.3698 C   0  0  2  0  0  0  0  0  0  0  0  0
    1.0666   -2.4424   -0.5818 C   0  0  0  0  0  0  0  0  0  0  0  0
    2.0598   -2.0076   -1.1610 O   0  0  0  0  0  0  0  0  0  0  0  0
    1.4560   -4.4118    0.9207 C   0  0  0  0  0  0  0  0  0  0  0  0
    2.1528   -4.2578   -1.9805 H   0  0  0  0  0  0  0  0  0  0  0  0
   -0.2667   -4.1160   -0.3467 H   0  0  0  0  0  0  0  0  0  0  0  0
    2.5374   -4.2329    0.9160 H   0  0  0  0  0  0  0  0  0  0  0  0
    1.0390   -3.8932    1.7903 H   0  0  0  0  0  0  0  0  0  0  0  0
    1.2976   -5.4871    1.0566 H   0  0  0  0  0  0  0  0  0  0  0  0
    0.0755   -1.6529   -0.0105 N   0  0  0  0  0  0  0  0  0  0  0  0
    0.1113   -0.2132   -0.0391 C   0  0  2  0  0  0  0  0  0  0  0  0
    0.5030    0.2632    1.3556 C   0  0  0  0  0  0  0  0  0  0  0  0
   -0.2927    0.7908    2.1301 O   0  0  0  0  0  0  0  0  0  0  0  0
   -1.2360    0.3883   -0.4517 C   0  0  0  0  0  0  0  0  0  0  0  0
   -1.5941    0.0743   -1.9092 C   0  0  0  0  0  0  0  0  0  0  0  0
   -2.9359    0.6754   -2.3144 C   0  0  0  0  0  0  0  0  0  0  0  0
   -3.2845    0.3543   -3.6966 N   0  3  0  0  0  0  0  0  0  0  0  0
   -4.4954    0.7440   -4.2719 C   0  0  0  0  0  0  0  0  0  0  0  0
   -4.7601    0.4029   -5.5940 N   0  0  0  0  0  0  0  0  0  0  0  0
   -5.4440    1.4659   -3.5549 N   0  0  0  0  0  0  0  0  0  0  0  0
   -0.7323   -2.1024    0.4149 H   0  0  0  0  0  0  0  0  0  0  0  0
    0.8977    0.0708   -0.7478 H   0  0  0  0  0  0  0  0  0  0  0  0
   -1.2087    1.4756   -0.3112 H   0  0  0  0  0  0  0  0  0  0  0  0
   -2.0289    0.0109    0.2075 H   0  0  0  0  0  0  0  0  0  0  0  0
   -0.8072    0.4552   -2.5713 H   0  0  0  0  0  0  0  0  0  0  0  0
   -1.6439   -1.0115   -2.0501 H   0  0  0  0  0  0  0  0  0  0  0  0
   -3.7281    0.2705   -1.6772 H   0  0  0  0  0  0  0  0  0  0  0  0
   -2.9235    1.7647   -2.2112 H   0  0  0  0  0  0  0  0  0  0  0  0
   -2.6292   -0.1724   -4.2714 H   0  0  0  0  0  0  0  0  0  0  0  0
   -5.6324    0.6716   -6.0430 H   0  0  0  0  0  0  0  0  0  0  0  0
   -4.0886   -0.1244   -6.1468 H   0  0  0  0  0  0  0  0  0  0  0  0
   -6.3273    1.7521   -3.9691 H   0  0  0  0  0  0  0  0  0  0  0  0
   -5.2780    1.7290   -2.5863 H   0  0  0  0  0  0  0  0  0  0  0  0
    1.8538    0.0742    1.6121 N   0  0  0  0  0  0  0  0  0  0  0  0
    2.4853    0.4860    2.8446 C   0  0  2  0  0  0  0  0  0  0  0  0
    3.9198    0.8868    2.5270 C   0  0  0  0  0  0  0  0  0  0  0  0
    4.5929    0.3374    1.6573 O   0  0  0  0  0  0  0  0  0  0  0  0
    2.4483   -0.6242    3.8832 C   0  0  0  0  0  0  0  0  0  0  0  0
    2.4300   -0.4011    0.9237 H   0  0  0  0  0  0  0  0  0  0  0  0
    1.9328    1.3602    3.2062 H   0  0  0  0  0  0  0  0  0  0  0  0
    2.9967   -1.5085    3.5385 H   0  0  0  0  0  0  0  0  0  0  0  0
    2.9017   -0.3008    4.8260 H   0  0  0  0  0  0  0  0  0  0  0  0
    1.4172   -0.9317    4.0884 H   0  0  0  0  0  0  0  0  0  0  0  0
    4.3746    1.9010    3.3580 N   0  0  0  0  0  0  0  0  0  0  0  0
    5.7177    2.4267    3.2835 C   0  0  0  0  0  0  0  0  0  0  0  0
    3.7358    2.3254    4.0240 H   0  0  0  0  0  0  0  0  0  0  0  0
    6.3643    1.8836    3.9884 H   0  0  0  0  0  0  0  0  0  0  0  0
    6.1039    2.3020    2.2611 H   0  0  0  0  0  0  0  0  0  0  0  0
    5.7080    3.4954    3.5439 H   0  0  0  0  0  0  0  0  0  0  0  0
  1  3  1  0  0  0  0
  1  7  1  0  0  0  0
  1  2  2  0  0  0  0
 42 43  1  0  0  0  0
 43 51  1  0  0  0  0
 43 44  2  0  0  0  0
  8  9  1  0  0  0  0
  9 17  1  0  0  0  0
  9 10  2  0  0  0  0
 18 19  1  0  0  0  0
 19 41  1  0  0  0  0
 19 20  2  0  0  0  0
 25 26  1  0  0  0  0
 25 27  1  0  0  0  0
 24 25  2  0  0  0  0
 42 45  1  0  0  0  0
  8 11  1  0  0  0  0
 51 52  1  0  0  0  0
 21 22  1  0  0  0  0
 22 23  1  0  0  0  0
 18 21  1  0  0  0  0
 23 24  1  0  0  0  0
 41 42  1  0  0  0  0
  7  8  1  0  0  0  0
 17 18  1  0  0  0  0
  3  4  1  0  0  0  0
  3  5  1  0  0  0  0
  3  6  1  0  0  0  0
 45 48  1  0  0  0  0
 45 49  1  0  0  0  0
 45 50  1  0  0  0  0
 11 14  1  0  0  0  0
 11 15  1  0  0  0  0
 11 16  1  0  0  0  0
 52 54  1  0  0  0  0
 52 55  1  0  0  0  0
 52 56  1  0  0  0  0
 22 32  1  0  0  0  0
 22 33  1  0  0  0  0
 21 30  1  0  0  0  0
 21 31  1  0  0  0  0
 23 34  1  0  0  0  0
 23 35  1  0  0  0  0
 42 47  1  0  0  0  0
  8 13  1  0  0  0  0
 18 29  1  0  0  0  0
 26 37  1  0  0  0  0
 26 38  1  0  0  0  0
 27 39  1  0  0  0  0
 27 40  1  0  0  0  0
 51 53  1  0  0  0  0
  7 12  1  0  0  0  0
 41 46  1  0  0  0  0
 17 28  1  0  0  0  0
 24 36  1  0  0  0  0
M  CHG  1  24   1
M  END
$$$$

  -OEChem-05262214473D

 56 55  0     1  0  0  0  0  0999 V2000
    0.7735   -5.8042   -2.0022 C   0  0  0  0  0  0  0  0  0  0  0  0
   -0.2086   -6.3825   -1.5519 O   0  0  0  0  0  0  0  0  0  0  0  0
    1.4751   -6.3646   -3.1946 C   0  0  0  0  0  0  0  0  0  0  0  0
    2.2765   -7.0687   -2.9186 H   0  0  0  0  0  0  0  0  0  0  0  0
    0.7988   -6.9360   -3.8504 H   0  0  0  0  0  0  0  0  0  0  0  0
    1.9556   -5.6216   -3.8511 H   0  0  0  0  0  0  0  0  0  0  0  0
    1.3322   -4.6359   -1.5106 N   0  0  0  0  0  0  0  0  0  0  0  0
    0.8124   -3.9290   -0.3698 C   0  0  2  0  0  0  0  0  0  0  0  0
    1.0666   -2.4424   -0.5818 C   0  0  0  0  0  0  0  0  0  0  0  0
    2.0598   -2.0076   -1.1610 O   0  0  0  0  0  0  0  0  0  0  0  0
    1.4560   -4.4118    0.9207 C   0  0  0  0  0  0  0  0  0  0  0  0
    2.1528   -4.2578   -1.9805 H   0  0  0  0  0  0  0  0  0  0  0  0
   -0.2667   -4.1160   -0.3467 H   0  0  0  0  0  0  0  0  0  0  0  0
    2.5374   -4.2329    0.9160 H   0  0  0  0  0  0  0  0  0  0  0  0
    1.0390   -3.8932    1.7903 H   0  0  0  0  0  0  0  0  0  0  0  0
    1.2976   -5.4871    1.0566 H   0  0  0  0  0  0  0  0  0  0  0  0
    0.0755   -1.6529   -0.0105 N   0  0  0  0  0  0  0  0  0  0  0  0
    0.1113   -0.2132   -0.0391 C   0  0  2  0  0  0  0  0  0  0  0  0
    0.5030    0.2632    1.3556 C   0  0  0  0  0  0  0  0  0  0  0  0
   -0.3219    0.5401    2.2239 O   0  0  0  0  0  0  0  0  0  0  0  0
   -1.2360    0.3883   -0.4517 C   0  0  0  0  0  0  0  0  0  0  0  0
   -1.5941    0.0743   -1.9092 C   0  0  0  0  0  0  0  0  0  0  0  0
   -2.9359    0.6754   -2.3144 C   0  0  0  0  0  0  0  0  0  0  0  0
   -3.2845    0.3543   -3.6966 N   0  3  0  0  0  0  0  0  0  0  0  0
   -4.4954    0.7440   -4.2719 C   0  0  0  0  0  0  0  0  0  0  0  0
   -4.7601    0.4029   -5.5940 N   0  0  0  0  0  0  0  0  0  0  0  0
   -5.4440    1.4659   -3.5549 N   0  0  0  0  0  0  0  0  0  0  0  0
   -0.7323   -2.1024    0.4149 H   0  0  0  0  0  0  0  0  0  0  0  0
    0.8977    0.0708   -0.7478 H   0  0  0  0  0  0  0  0  0  0  0  0
   -1.2087    1.4756   -0.3112 H   0  0  0  0  0  0  0  0  0  0  0  0
   -2.0289    0.0109    0.2075 H   0  0  0  0  0  0  0  0  0  0  0  0
   -0.8072    0.4552   -2.5713 H   0  0  0  0  0  0  0  0  0  0  0  0
   -1.6439   -1.0115   -2.0501 H   0  0  0  0  0  0  0  0  0  0  0  0
   -3.7281    0.2705   -1.6772 H   0  0  0  0  0  0  0  0  0  0  0  0
   -2.9235    1.7647   -2.2112 H   0  0  0  0  0  0  0  0  0  0  0  0
   -2.6292   -0.1724   -4.2714 H   0  0  0  0  0  0  0  0  0  0  0  0
   -5.6324    0.6716   -6.0430 H   0  0  0  0  0  0  0  0  0  0  0  0
   -4.0886   -0.1244   -6.1468 H   0  0  0  0  0  0  0  0  0  0  0  0
   -6.3273    1.7521   -3.9691 H   0  0  0  0  0  0  0  0  0  0  0  0
   -5.2780    1.7290   -2.5863 H   0  0  0  0  0  0  0  0  0  0  0  0
    1.8778    0.3889    1.4978 N   0  0  0  0  0  0  0  0  0  0  0  0
    2.5024    0.8694    2.7088 C   0  0  2  0  0  0  0  0  0  0  0  0
    3.7693    1.6193    2.3190 C   0  0  0  0  0  0  0  0  0  0  0  0
    4.4722    1.2973    1.3633 O   0  0  0  0  0  0  0  0  0  0  0  0
    2.8186   -0.2745    3.6597 C   0  0  0  0  0  0  0  0  0  0  0  0
    2.4857    0.1052    0.7351 H   0  0  0  0  0  0  0  0  0  0  0  0
    1.7951    1.5638    3.1753 H   0  0  0  0  0  0  0  0  0  0  0  0
    3.5258   -0.9807    3.2097 H   0  0  0  0  0  0  0  0  0  0  0  0
    3.2657    0.0940    4.5889 H   0  0  0  0  0  0  0  0  0  0  0  0
    1.9105   -0.8310    3.9155 H   0  0  0  0  0  0  0  0  0  0  0  0
    4.0461    2.6641    3.1895 N   0  0  0  0  0  0  0  0  0  0  0  0
    5.2169    3.4995    3.0576 C   0  0  0  0  0  0  0  0  0  0  0  0
    3.3875    2.8847    3.9307 H   0  0  0  0  0  0  0  0  0  0  0  0
    6.0326    3.0878    3.6701 H   0  0  0  0  0  0  0  0  0  0  0  0
    5.5292    3.5290    2.0033 H   0  0  0  0  0  0  0  0  0  0  0  0
    4.9806    4.5182    3.3987 H   0  0  0  0  0  0  0  0  0  0  0  0
  1  3  1  0  0  0  0
  1  7  1  0  0  0  0
  1  2  2  0  0  0  0
 42 43  1  0  0  0  0
 43 51  1  0  0  0  0
 43 44  2  0  0  0  0
  8  9  1  0  0  0  0
  9 17  1  0  0  0  0
  9 10  2  0  0  0  0
 18 19  1  0  0  0  0
 19 41  1  0  0  0  0
 19 20  2  0  0  0  0
 25 26  1  0  0  0  0
 25 27  1  0  0  0  0
 24 25  2  0  0  0  0
 42 45  1  0  0  0  0
  8 11  1  0  0  0  0
 51 52  1  0  0  0  0
 21 22  1  0  0  0  0
 22 23  1  0  0  0  0
 18 21  1  0  0  0  0
 23 24  1  0  0  0  0
 41 42  1  0  0  0  0
  7  8  1  0  0  0  0
 17 18  1  0  0  0  0
  3  4  1  0  0  0  0
  3  5  1  0  0  0  0
  3  6  1  0  0  0  0
 45 48  1  0  0  0  0
 45 49  1  0  0  0  0
 45 50  1  0  0  0  0
 11 14  1  0  0  0  0
 11 15  1  0  0  0  0
 11 16  1  0  0  0  0
 52 54  1  0  0  0  0
 52 55  1  0  0  0  0
 52 56  1  0  0  0  0
 22 32  1  0  0  0  0
 22 33  1  0  0  0  0
 21 30  1  0  0  0  0
 21 31  1  0  0  0  0
 23 34  1  0  0  0  0
 23 35  1  0  0  0  0
 42 47  1  0  0  0  0
  8 13  1  0  0  0  0
 18 29  1  0  0  0  0
 26 37  1  0  0  0  0
 26 38  1  0  0  0  0
 27 39  1  0  0  0  0
 27 40  1  0  0  0  0
 51 53  1  0  0  0  0
  7 12  1  0  0  0  0
 41 46  1  0  0  0  0
 17 28  1  0  0  0  0
 24 36  1  0  0  0  0
M  CHG  1  24   1
M  END
$$$$

  -OEChem-05262214473D

 56 55  0     1  0  0  0  0  0999 V2000
    0.7735   -5.8042   -2.0022 C   0  0  0  0  0  0  0  0  0  0  0  0
   -0.2086   -6.3825   -1.5519 O   0  0  0  0  0  0  0  0  0  0  0  0
    1.4751   -6.3646   -3.1946 C   0  0  0  0  0  0  0  0  0  0  0  0
    2.2765   -7.0687   -2.9186 H   0  0  0  0  0  0  0  0  0  0  0  0
    0.7988   -6.9360   -3.8504 H   0  0  0  0  0  0  0  0  0  0  0  0
    1.9556   -5.6216   -3.8511 H   0  0  0  0  0  0  0  0  0  0  0  0
    1.3322   -4.6359   -1.5106 N   0  0  0  0  0  0  0  0  0  0  0  0
    0.8124   -3.9290   -0.3698 C   0  0  2  0  0  0  0  0  0  0  0  0
    1.0666   -2.4424   -0.5818 C   0  0  0  0  0  0  0  0  0  0  0  0
    2.0598   -2.0076   -1.1610 O   0  0  0  0  0  0  0  0  0  0  0  0
    1.4560   -4.4118    0.9207 C   0  0  0  0  0  0  0  0  0  0  0  0
    2.1528   -4.2578   -1.9805 H   0  0  0  0  0  0  0  0  0  0  0  0
   -0.2667   -4.1160   -0.3467 H   0  0  0  0  0  0  0  0  0  0  0  0
    2.5374   -4.2329    0.9160 H   0  0  0  0  0  0  0  0  0  0  0  0
    1.0390   -3.8932    1.7903 H   0  0  0  0  0  0  0  0  0  0  0  0
    1.2976   -5.4871    1.0566 H   0  0  0  0  0  0  0  0  0  0  0  0
    0.0755   -1.6529   -0.0105 N   0  0  0  0  0  0  0  0  0  0  0  0
    0.1113   -0.2132   -0.0391 C   0  0  2  0  0  0  0  0  0  0  0  0
    0.5030    0.2632    1.3556 C   0  0  0  0  0  0  0  0  0  0  0  0
   -0.2833    0.2849    2.3003 O   0  0  0  0  0  0  0  0  0  0  0  0
   -1.2360    0.3883   -0.4517 C   0  0  0  0  0  0  0  0  0  0  0  0
   -1.5941    0.0743   -1.9092 C   0  0  0  0  0  0  0  0  0  0  0  0
   -2.9359    0.6754   -2.3144 C   0  0  0  0  0  0  0  0  0  0  0  0
   -3.2845    0.3543   -3.6966 N   0  3  0  0  0  0  0  0  0  0  0  0
   -4.4954    0.7440   -4.2719 C   0  0  0  0  0  0  0  0  0  0  0  0
   -4.7601    0.4029   -5.5940 N   0  0  0  0  0  0  0  0  0  0  0  0
   -5.4440    1.4659   -3.5549 N   0  0  0  0  0  0  0  0  0  0  0  0
   -0.7323   -2.1024    0.4149 H   0  0  0  0  0  0  0  0  0  0  0  0
    0.8977    0.0708   -0.7478 H   0  0  0  0  0  0  0  0  0  0  0  0
   -1.2087    1.4756   -0.3112 H   0  0  0  0  0  0  0  0  0  0  0  0
   -2.0289    0.0109    0.2075 H   0  0  0  0  0  0  0  0  0  0  0  0
   -0.8072    0.4552   -2.5713 H   0  0  0  0  0  0  0  0  0  0  0  0
   -1.6439   -1.0115   -2.0501 H   0  0  0  0  0  0  0  0  0  0  0  0
   -3.7281    0.2705   -1.6772 H   0  0  0  0  0  0  0  0  0  0  0  0
   -2.9235    1.7647   -2.2112 H   0  0  0  0  0  0  0  0  0  0  0  0
   -2.6292   -0.1724   -4.2714 H   0  0  0  0  0  0  0  0  0  0  0  0
   -5.6324    0.6716   -6.0430 H   0  0  0  0  0  0  0  0  0  0  0  0
   -4.0886   -0.1244   -6.1468 H   0  0  0  0  0  0  0  0  0  0  0  0
   -6.3273    1.7521   -3.9691 H   0  0  0  0  0  0  0  0  0  0  0  0
   -5.2780    1.7290   -2.5863 H   0  0  0  0  0  0  0  0  0  0  0  0
    1.8173    0.7061    1.4064 N   0  0  0  0  0  0  0  0  0  0  0  0
    2.4172    1.2527    2.6018 C   0  0  2  0  0  0  0  0  0  0  0  0
    3.4337    2.3050    2.1789 C   0  0  0  0  0  0  0  0  0  0  0  0
    4.1046    2.2154    1.1528 O   0  0  0  0  0  0  0  0  0  0  0  0
    3.0755    0.1658    3.4372 C   0  0  0  0  0  0  0  0  0  0  0  0
    2.4044    0.6200    0.5820 H   0  0  0  0  0  0  0  0  0  0  0  0
    1.6114    1.7300    3.1701 H   0  0  0  0  0  0  0  0  0  0  0  0
    3.8854   -0.3239    2.8843 H   0  0  0  0  0  0  0  0  0  0  0  0
    3.5047    0.5774    4.3566 H   0  0  0  0  0  0  0  0  0  0  0  0
    2.3493   -0.6056    3.7153 H   0  0  0  0  0  0  0  0  0  0  0  0
    3.5346    3.3346    3.1041 N   0  0  0  0  0  0  0  0  0  0  0  0
    4.4609    4.4321    2.9512 C   0  0  0  0  0  0  0  0  0  0  0  0
    2.9112    3.3487    3.9060 H   0  0  0  0  0  0  0  0  0  0  0  0
    5.4014    4.1937    3.4695 H   0  0  0  0  0  0  0  0  0  0  0  0
    4.6626    4.5953    1.8823 H   0  0  0  0  0  0  0  0  0  0  0  0
    4.0241    5.3436    3.3853 H   0  0  0  0  0  0  0  0  0  0  0  0
  1  3  1  0  0  0  0
  1  7  1  0  0  0  0
  1  2  2  0  0  0  0
 42 43  1  0  0  0  0
 43 51  1  0  0  0  0
 43 44  2  0  0  0  0
  8  9  1  0  0  0  0
  9 17  1  0  0  0  0
  9 10  2  0  0  0  0
 18 19  1  0  0  0  0
 19 41  1  0  0  0  0
 19 20  2  0  0  0  0
 25 26  1  0  0  0  0
 25 27  1  0  0  0  0
 24 25  2  0  0  0  0
 42 45  1  0  0  0  0
  8 11  1  0  0  0  0
 51 52  1  0  0  0  0
 21 22  1  0  0  0  0
 22 23  1  0  0  0  0
 18 21  1  0  0  0  0
 23 24  1  0  0  0  0
 41 42  1  0  0  0  0
  7  8  1  0  0  0  0
 17 18  1  0  0  0  0
  3  4  1  0  0  0  0
  3  5  1  0  0  0  0
  3  6  1  0  0  0  0
 45 48  1  0  0  0  0
 45 49  1  0  0  0  0
 45 50  1  0  0  0  0
 11 14  1  0  0  0  0
 11 15  1  0  0  0  0
 11 16  1  0  0  0  0
 52 54  1  0  0  0  0
 52 55  1  0  0  0  0
 52 56  1  0  0  0  0
 22 32  1  0  0  0  0
 22 33  1  0  0  0  0
 21 30  1  0  0  0  0
 21 31  1  0  0  0  0
 23 34  1  0  0  0  0
 23 35  1  0  0  0  0
 42 47  1  0  0  0  0
  8 13  1  0  0  0  0
 18 29  1  0  0  0  0
 26 37  1  0  0  0  0
 26 38  1  0  0  0  0
 27 39  1  0  0  0  0
 27 40  1  0  0  0  0
 51 53  1  0  0  0  0
  7 12  1  0  0  0  0
 41 46  1  0  0  0  0
 17 28  1  0  0  0  0
 24 36  1  0  0  0  0
M  CHG  1  24   1
M  END
$$$$

  -OEChem-05262214473D

 56 55  0     1  0  0  0  0  0999 V2000
    0.7735   -5.8042   -2.0022 C   0  0  0  0  0  0  0  0  0  0  0  0
   -0.2086   -6.3825   -1.5519 O   0  0  0  0  0  0  0  0  0  0  0  0
    1.4751   -6.3646   -3.1946 C   0  0  0  0  0  0  0  0  0  0  0  0
    2.2765   -7.0687   -2.9186 H   0  0  0  0  0  0  0  0  0  0  0  0
    0.7988   -6.9360   -3.8504 H   0  0  0  0  0  0  0  0  0  0  0  0
    1.9556   -5.6216   -3.8511 H   0  0  0  0  0  0  0  0  0  0  0  0
    1.3322   -4.6359   -1.5106 N   0  0  0  0  0  0  0  0  0  0  0  0
    0.8124   -3.9290   -0.3698 C   0  0  2  0  0  0  0  0  0  0  0  0
    1.0666   -2.4424   -0.5818 C   0  0  0  0  0  0  0  0  0  0  0  0
    2.0598   -2.0076   -1.1610 O   0  0  0  0  0  0  0  0  0  0  0  0
    1.4560   -4.4118    0.9207 C   0  0  0  0  0  0  0  0  0  0  0  0
    2.1528   -4.2578   -1.9805 H   0  0  0  0  0  0  0  0  0  0  0  0
   -0.2667   -4.1160   -0.3467 H   0  0  0  0  0  0  0  0  0  0  0  0
    2.5374   -4.2329    0.9160 H   0  0  0  0  0  0  0  0  0  0  0  0
    1.0390   -3.8932    1.7903 H   0  0  0  0  0  0  0  0  0  0  0  0
    1.2976   -5.4871    1.0566 H   0  0  0  0  0  0  0  0  0  0  0  0
    0.0755   -1.6529   -0.0105 N   0  0  0  0  0  0  0  0  0  0  0  0
    0.1113   -0.2132   -0.0391 C   0  0  2  0  0  0  0  0  0  0  0  0
    0.5030    0.2632    1.3556 C   0  0  0  0  0  0  0  0  0  0  0  0
   -0.1794    0.0423    2.3540 O   0  0  0  0  0  0  0  0  0  0  0  0
   -1.2360    0.3883   -0.4517 C   0  0  0  0  0  0  0  0  0  0  0  0
   -1.5941    0.0743   -1.9092 C   0  0  0  0  0  0  0  0  0  0  0  0
   -2.9359    0.6754   -2.3144 C   0  0  0  0  0  0  0  0  0  0  0  0
   -3.2845    0.3543   -3.6966 N   0  3  0  0  0  0  0  0  0  0  0  0
   -4.4954    0.7440   -4.2719 C   0  0  0  0  0  0  0  0  0  0  0  0
   -4.7601    0.4029   -5.5940 N   0  0  0  0  0  0  0  0  0  0  0  0
   -5.4440    1.4659   -3.5549 N   0  0  0  0  0  0  0  0  0  0  0  0
   -0.7323   -2.1024    0.4149 H   0  0  0  0  0  0  0  0  0  0  0  0
    0.8977    0.0708   -0.7478 H   0  0  0  0  0  0  0  0  0  0  0  0
   -1.2087    1.4756   -0.3112 H   0  0  0  0  0  0  0  0  0  0  0  0
   -2.0289    0.0109    0.2075 H   0  0  0  0  0  0  0  0  0  0  0  0
   -0.8072    0.4552   -2.5713 H   0  0  0  0  0  0  0  0  0  0  0  0
   -1.6439   -1.0115   -2.0501 H   0  0  0  0  0  0  0  0  0  0  0  0
   -3.7281    0.2705   -1.6772 H   0  0  0  0  0  0  0  0  0  0  0  0
   -2.9235    1.7647   -2.2112 H   0  0  0  0  0  0  0  0  0  0  0  0
   -2.6292   -0.1724   -4.2714 H   0  0  0  0  0  0  0  0  0  0  0  0
   -5.6324    0.6716   -6.0430 H   0  0  0  0  0  0  0  0  0  0  0  0
   -4.0886   -0.1244   -6.1468 H   0  0  0  0  0  0  0  0  0  0  0  0
   -6.3273    1.7521   -3.9691 H   0  0  0  0  0  0  0  0  0  0  0  0
   -5.2780    1.7290   -2.5863 H   0  0  0  0  0  0  0  0  0  0  0  0
    1.6764    1.0044    1.3441 N   0  0  0  0  0  0  0  0  0  0  0  0
    2.2355    1.6099    2.5307 C   0  0  2  0  0  0  0  0  0  0  0  0
    2.9358    2.8973    2.1164 C   0  0  0  0  0  0  0  0  0  0  0  0
    3.5152    3.0293    1.0403 O   0  0  0  0  0  0  0  0  0  0  0  0
    3.2014    0.6667    3.2307 C   0  0  0  0  0  0  0  0  0  0  0  0
    2.1917    1.1082    0.4750 H   0  0  0  0  0  0  0  0  0  0  0  0
    1.3942    1.8474    3.1910 H   0  0  0  0  0  0  0  0  0  0  0  0
    4.0510    0.4174    2.5846 H   0  0  0  0  0  0  0  0  0  0  0  0
    3.6024    1.1162    4.1451 H   0  0  0  0  0  0  0  0  0  0  0  0
    2.7035   -0.2706    3.5014 H   0  0  0  0  0  0  0  0  0  0  0  0
    2.8749    3.8669    3.1075 N   0  0  0  0  0  0  0  0  0  0  0  0
    3.5013    5.1611    2.9716 C   0  0  0  0  0  0  0  0  0  0  0  0
    2.3393    3.6858    3.9514 H   0  0  0  0  0  0  0  0  0  0  0  0
    4.5137    5.1259    3.4003 H   0  0  0  0  0  0  0  0  0  0  0  0
    3.5635    5.4283    1.9063 H   0  0  0  0  0  0  0  0  0  0  0  0
    2.9037    5.9154    3.5045 H   0  0  0  0  0  0  0  0  0  0  0  0
  1  3  1  0  0  0  0
  1  7  1  0  0  0  0
  1  2  2  0  0  0  0
 42 43  1  0  0  0  0
 43 51  1  0  0  0  0
 43 44  2  0  0  0  0
  8  9  1  0  0  0  0
  9 17  1  0  0  0  0
  9 10  2  0  0  0  0
 18 19  1  0  0  0  0
 19 41  1  0  0  0  0
 19 20  2  0  0  0  0
 25 26  1  0  0  0  0
 25 27  1  0  0  0  0
 24 25  2  0  0  0  0
 42 45  1  0  0  0  0
  8 11  1  0  0  0  0
 51 52  1  0  0  0  0
 21 22  1  0  0  0  0
 22 23  1  0  0  0  0
 18 21  1  0  0  0  0
 23 24  1  0  0  0  0
 41 42  1  0  0  0  0
  7  8  1  0  0  0  0
 17 18  1  0  0  0  0
  3  4  1  0  0  0  0
  3  5  1  0  0  0  0
  3  6  1  0  0  0  0
 45 48  1  0  0  0  0
 45 49  1  0  0  0  0
 45 50  1  0  0  0  0
 11 14  1  0  0  0  0
 11 15  1  0  0  0  0
 11 16  1  0  0  0  0
 52 54  1  0  0  0  0
 52 55  1  0  0  0  0
 52 56  1  0  0  0  0
 22 32  1  0  0  0  0
 22 33  1  0  0  0  0
 21 30  1  0  0  0  0
 21 31  1  0  0  0  0
 23 34  1  0  0  0  0
 23 35  1  0  0  0  0
 42 47  1  0  0  0  0
  8 13  1  0  0  0  0
 18 29  1  0  0  0  0
 26 37  1  0  0  0  0
 26 38  1  0  0  0  0
 27 39  1  0  0  0  0
 27 40  1  0  0  0  0
 51 53  1  0  0  0  0
  7 12  1  0  0  0  0
 41 46  1  0  0  0  0
 17 28  1  0  0  0  0
 24 36  1  0  0  0  0
M  CHG  1  24   1
M  END
$$$$

  -OEChem-05262214473D

 56 55  0     1  0  0  0  0  0999 V2000
    0.7735   -5.8042   -2.0022 C   0  0  0  0  0  0  0  0  0  0  0  0
   -0.2086   -6.3825   -1.5519 O   0  0  0  0  0  0  0  0  0  0  0  0
    1.4751   -6.3646   -3.1946 C   0  0  0  0  0  0  0  0  0  0  0  0
    2.2765   -7.0687   -2.9186 H   0  0  0  0  0  0  0  0  0  0  0  0
    0.7988   -6.9360   -3.8504 H   0  0  0  0  0  0  0  0  0  0  0  0
    1.9556   -5.6216   -3.8511 H   0  0  0  0  0  0  0  0  0  0  0  0
    1.3322   -4.6359   -1.5106 N   0  0  0  0  0  0  0  0  0  0  0  0
    0.8124   -3.9290   -0.3698 C   0  0  2  0  0  0  0  0  0  0  0  0
    1.0666   -2.4424   -0.5818 C   0  0  0  0  0  0  0  0  0  0  0  0
    2.0598   -2.0076   -1.1610 O   0  0  0  0  0  0  0  0  0  0  0  0
    1.4560   -4.4118    0.9207 C   0  0  0  0  0  0  0  0  0  0  0  0
    2.1528   -4.2578   -1.9805 H   0  0  0  0  0  0  0  0  0  0  0  0
   -0.2667   -4.1160   -0.3467 H   0  0  0  0  0  0  0  0  0  0  0  0
    2.5374   -4.2329    0.9160 H   0  0  0  0  0  0  0  0  0  0  0  0
    1.0390   -3.8932    1.7903 H   0  0  0  0  0  0  0  0  0  0  0  0
    1.2976   -5.4871    1.0566 H   0  0  0  0  0  0  0  0  0  0  0  0
    0.0755   -1.6529   -0.0105 N   0  0  0  0  0  0  0  0  0  0  0  0
    0.1113   -0.2132   -0.0391 C   0  0  2  0  0  0  0  0  0  0  0  0
    0.5030    0.2632    1.3556 C   0  0  0  0  0  0  0  0  0  0  0  0
   -0.0173   -0.1709    2.3813 O   0  0  0  0  0  0  0  0  0  0  0  0
   -1.2360    0.3883   -0.4517 C   0  0  0  0  0  0  0  0  0  0  0  0
   -1.5941    0.0743   -1.9092 C   0  0  0  0  0  0  0  0  0  0  0  0
   -2.9359    0.6754   -2.3144 C   0  0  0  0  0  0  0  0  0  0  0  0
   -3.2845    0.3543   -3.6966 N   0  3  0  0  0  0  0  0  0  0  0  0
   -4.4954    0.7440   -4.2719 C   0  0  0  0  0  0  0  0  0  0  0  0
   -4.7601    0.4029   -5.5940 N   0  0  0  0  0  0  0  0  0  0  0  0
   -5.4440    1.4659   -3.5549 N   0  0  0  0  0  0  0  0  0  0  0  0
   -0.7323   -2.1024    0.4149 H   0  0  0  0  0  0  0  0  0  0  0  0
    0.8977    0.0708   -0.7478 H   0  0  0  0  0  0  0  0  0  0  0  0
   -1.2087    1.4756   -0.3112 H   0  0  0  0  0  0  0  0  0  0  0  0
   -2.0289    0.0109    0.2075 H   0  0  0  0  0  0  0  0  0  0  0  0
   -0.8072    0.4552   -2.5713 H   0  0  0  0  0  0  0  0  0  0  0  0
   -1.6439   -1.0115   -2.0501 H   0  0  0  0  0  0  0  0  0  0  0  0
   -3.7281    0.2705   -1.6772 H   0  0  0  0  0  0  0  0  0  0  0  0
   -2.9235    1.7647   -2.2112 H   0  0  0  0  0  0  0  0  0  0  0  0
   -2.6292   -0.1724   -4.2714 H   0  0  0  0  0  0  0  0  0  0  0  0
   -5.6324    0.6716   -6.0430 H   0  0  0  0  0  0  0  0  0  0  0  0
   -4.0886   -0.1244   -6.1468 H   0  0  0  0  0  0  0  0  0  0  0  0
   -6.3273    1.7521   -3.9691 H   0  0  0  0  0  0  0  0  0  0  0  0
   -5.2780    1.7290   -2.5863 H   0  0  0  0  0  0  0  0  0  0  0  0
    1.4646    1.2632    1.3151 N   0  0  0  0  0  0  0  0  0  0  0  0
    1.9697    1.9167    2.5006 C   0  0  2  0  0  0  0  0  0  0  0  0
    2.3097    3.3557    2.1356 C   0  0  0  0  0  0  0  0  0  0  0  0
    2.7441    3.6834    1.0333 O   0  0  0  0  0  0  0  0  0  0  0  0
    3.1878    1.1940    3.0544 C   0  0  0  0  0  0  0  0  0  0  0  0
    1.8620    1.5365    0.4212 H   0  0  0  0  0  0  0  0  0  0  0  0
    1.1583    1.9080    3.2365 H   0  0  0  0  0  0  0  0  0  0  0  0
    4.0112    1.1925    2.3309 H   0  0  0  0  0  0  0  0  0  0  0  0
    3.5521    1.6739    3.9687 H   0  0  0  0  0  0  0  0  0  0  0  0
    2.9491    0.1510    3.2885 H   0  0  0  0  0  0  0  0  0  0  0  0
    2.1119    4.2246    3.1995 N   0  0  0  0  0  0  0  0  0  0  0  0
    2.4035    5.6368    3.1173 C   0  0  0  0  0  0  0  0  0  0  0  0
    1.7108    3.8730    4.0639 H   0  0  0  0  0  0  0  0  0  0  0  0
    3.4301    5.8207    3.4672 H   0  0  0  0  0  0  0  0  0  0  0  0
    2.3065    5.9710    2.0738 H   0  0  0  0  0  0  0  0  0  0  0  0
    1.6958    6.1945    3.7483 H   0  0  0  0  0  0  0  0  0  0  0  0
  1  3  1  0  0  0  0
  1  7  1  0  0  0  0
  1  2  2  0  0  0  0
 42 43  1  0  0  0  0
 43 51  1  0  0  0  0
 43 44  2  0  0  0  0
  8  9  1  0  0  0  0
  9 17  1  0  0  0  0
  9 10  2  0  0  0  0
 18 19  1  0  0  0  0
 19 41  1  0  0  0  0
 19 20  2  0  0  0  0
 25 26  1  0  0  0  0
 25 27  1  0  0  0  0
 24 25  2  0  0  0  0
 42 45  1  0  0  0  0
  8 11  1  0  0  0  0
 51 52  1  0  0  0  0
 21 22  1  0  0  0  0
 22 23  1  0  0  0  0
 18 21  1  0  0  0  0
 23 24  1  0  0  0  0
 41 42  1  0  0  0  0
  7  8  1  0  0  0  0
 17 18  1  0  0  0  0
  3  4  1  0  0  0  0
  3  5  1  0  0  0  0
  3  6  1  0  0  0  0
 45 48  1  0  0  0  0
 45 49  1  0  0  0  0
 45 50  1  0  0  0  0
 11 14  1  0  0  0  0
 11 15  1  0  0  0  0
 11 16  1  0  0  0  0
 52 54  1  0  0  0  0
 52 55  1  0  0  0  0
 52 56  1  0  0  0  0
 22 32  1  0  0  0  0
 22 33  1  0  0  0  0
 21 30  1  0  0  0  0
 21 31  1  0  0  0  0
 23 34  1  0  0  0  0
 23 35  1  0  0  0  0
 42 47  1  0  0  0  0
  8 13  1  0  0  0  0
 18 29  1  0  0  0  0
 26 37  1  0  0  0  0
 26 38  1  0  0  0  0
 27 39  1  0  0  0  0
 27 40  1  0  0  0  0
 51 53  1  0  0  0  0
  7 12  1  0  0  0  0
 41 46  1  0  0  0  0
 17 28  1  0  0  0  0
 24 36  1  0  0  0  0
M  CHG  1  24   1
M  END
$$$$

  -OEChem-05262214473D

 56 55  0     1  0  0  0  0  0999 V2000
    0.7735   -5.8042   -2.0022 C   0  0  0  0  0  0  0  0  0  0  0  0
   -0.2086   -6.3825   -1.5519 O   0  0  0  0  0  0  0  0  0  0  0  0
    1.4751   -6.3646   -3.1946 C   0  0  0  0  0  0  0  0  0  0  0  0
    2.2765   -7.0687   -2.9186 H   0  0  0  0  0  0  0  0  0  0  0  0
    0.7988   -6.9360   -3.8504 H   0  0  0  0  0  0  0  0  0  0  0  0
    1.9556   -5.6216   -3.8511 H   0  0  0  0  0  0  0  0  0  0  0  0
    1.3322   -4.6359   -1.5106 N   0  0  0  0  0  0  0  0  0  0  0  0
    0.8124   -3.9290   -0.3698 C   0  0  2  0  0  0  0  0  0  0  0  0
    1.0666   -2.4424   -0.5818 C   0  0  0  0  0  0  0  0  0  0  0  0
    2.0598   -2.0076   -1.1610 O   0  0  0  0  0  0  0  0  0  0  0  0
    1.4560   -4.4118    0.9207 C   0  0  0  0  0  0  0  0  0  0  0  0
    2.1528   -4.2578   -1.9805 H   0  0  0  0  0  0  0  0  0  0  0  0
   -0.2667   -4.1160   -0.3467 H   0  0  0  0  0  0  0  0  0  0  0  0
    2.5374   -4.2329    0.9160 H   0  0  0  0  0  0  0  0  0  0  0  0
    1.0390   -3.8932    1.7903 H   0  0  0  0  0  0  0  0  0  0  0  0
    1.2976   -5.4871    1.0566 H   0  0  0  0  0  0  0  0  0  0  0  0
    0.0755   -1.6529   -0.0105 N   0  0  0  0  0  0  0  0  0  0  0  0
    0.1113   -0.2132   -0.0391 C   0  0  2  0  0  0  0  0  0  0  0  0
    0.5030    0.2632    1.3556 C   0  0  0  0  0  0  0  0  0  0  0  0
    0.1920   -0.3403    2.3804 O   0  0  0  0  0  0  0  0  0  0  0  0
   -1.2360    0.3883   -0.4517 C   0  0  0  0  0  0  0  0  0  0  0  0
   -1.5941    0.0743   -1.9092 C   0  0  0  0  0  0  0  0  0  0  0  0
   -2.9359    0.6754   -2.3144 C   0  0  0  0  0  0  0  0  0  0  0  0
   -3.2845    0.3543   -3.6966 N   0  3  0  0  0  0  0  0  0  0  0  0
   -4.4954    0.7440   -4.2719 C   0  0  0  0  0  0  0  0  0  0  0  0
   -4.7601    0.4029   -5.5940 N   0  0  0  0  0  0  0  0  0  0  0  0
   -5.4440    1.4659   -3.5549 N   0  0  0  0  0  0  0  0  0  0  0  0
   -0.7323   -2.1024    0.4149 H   0  0  0  0  0  0  0  0  0  0  0  0
    0.8977    0.0708   -0.7478 H   0  0  0  0  0  0  0  0  0  0  0  0
   -1.2087    1.4756   -0.3112 H   0  0  0  0  0  0  0  0  0  0  0  0
   -2.0289    0.0109    0.2075 H   0  0  0  0  0  0  0  0  0  0  0  0
   -0.8072    0.4552   -2.5713 H   0  0  0  0  0  0  0  0  0  0  0  0
   -1.6439   -1.0115   -2.0501 H   0  0  0  0  0  0  0  0  0  0  0  0
   -3.7281    0.2705   -1.6772 H   0  0  0  0  0  0  0  0  0  0  0  0
   -2.9235    1.7647   -2.2112 H   0  0  0  0  0  0  0  0  0  0  0  0
   -2.6292   -0.1724   -4.2714 H   0  0  0  0  0  0  0  0  0  0  0  0
   -5.6324    0.6716   -6.0430 H   0  0  0  0  0  0  0  0  0  0  0  0
   -4.0886   -0.1244   -6.1468 H   0  0  0  0  0  0  0  0  0  0  0  0
   -6.3273    1.7521   -3.9691 H   0  0  0  0  0  0  0  0  0  0  0  0
   -5.2780    1.7290   -2.5863 H   0  0  0  0  0  0  0  0  0  0  0  0
    1.1965    1.4650    1.3215 N   0  0  0  0  0  0  0  0  0  0  0  0
    1.6379    2.1521    2.5133 C   0  0  2  0  0  0  0  0  0  0  0  0
    1.5980    3.6490    2.2352 C   0  0  0  0  0  0  0  0  0  0  0  0
    1.8439    4.1331    1.1324 O   0  0  0  0  0  0  0  0  0  0  0  0
    3.0355    1.7119    2.9202 C   0  0  0  0  0  0  0  0  0  0  0  0
    1.4378    1.8758    0.4244 H   0  0  0  0  0  0  0  0  0  0  0  0
    0.9198    1.9076    3.3036 H   0  0  0  0  0  0  0  0  0  0  0  0
    3.7688    1.9486    2.1407 H   0  0  0  0  0  0  0  0  0  0  0  0
    3.3572    2.2124    3.8395 H   0  0  0  0  0  0  0  0  0  0  0  0
    3.0693    0.6305    3.0909 H   0  0  0  0  0  0  0  0  0  0  0  0
    1.2977    4.3835    3.3738 N   0  0  0  0  0  0  0  0  0  0  0  0
    1.2423    5.8267    3.3785 C   0  0  0  0  0  0  0  0  0  0  0  0
    1.0684    3.8976    4.2359 H   0  0  0  0  0  0  0  0  0  0  0  0
    2.2243    6.2309    3.6656 H   0  0  0  0  0  0  0  0  0  0  0  0
    0.9775    6.1866    2.3734 H   0  0  0  0  0  0  0  0  0  0  0  0
    0.4827    6.1621    4.1000 H   0  0  0  0  0  0  0  0  0  0  0  0
  1  3  1  0  0  0  0
  1  7  1  0  0  0  0
  1  2  2  0  0  0  0
 42 43  1  0  0  0  0
 43 51  1  0  0  0  0
 43 44  2  0  0  0  0
  8  9  1  0  0  0  0
  9 17  1  0  0  0  0
  9 10  2  0  0  0  0
 18 19  1  0  0  0  0
 19 41  1  0  0  0  0
 19 20  2  0  0  0  0
 25 26  1  0  0  0  0
 25 27  1  0  0  0  0
 24 25  2  0  0  0  0
 42 45  1  0  0  0  0
  8 11  1  0  0  0  0
 51 52  1  0  0  0  0
 21 22  1  0  0  0  0
 22 23  1  0  0  0  0
 18 21  1  0  0  0  0
 23 24  1  0  0  0  0
 41 42  1  0  0  0  0
  7  8  1  0  0  0  0
 17 18  1  0  0  0  0
  3  4  1  0  0  0  0
  3  5  1  0  0  0  0
  3  6  1  0  0  0  0
 45 48  1  0  0  0  0
 45 49  1  0  0  0  0
 45 50  1  0  0  0  0
 11 14  1  0  0  0  0
 11 15  1  0  0  0  0
 11 16  1  0  0  0  0
 52 54  1  0  0  0  0
 52 55  1  0  0  0  0
 52 56  1  0  0  0  0
 22 32  1  0  0  0  0
 22 33  1  0  0  0  0
 21 30  1  0  0  0  0
 21 31  1  0  0  0  0
 23 34  1  0  0  0  0
 23 35  1  0  0  0  0
 42 47  1  0  0  0  0
  8 13  1  0  0  0  0
 18 29  1  0  0  0  0
 26 37  1  0  0  0  0
 26 38  1  0  0  0  0
 27 39  1  0  0  0  0
 27 40  1  0  0  0  0
 51 53  1  0  0  0  0
  7 12  1  0  0  0  0
 41 46  1  0  0  0  0
 17 28  1  0  0  0  0
 24 36  1  0  0  0  0
M  CHG  1  24   1
M  END
$$$$

  -OEChem-05262214473D

 56 55  0     1  0  0  0  0  0999 V2000
    0.7735   -5.8042   -2.0022 C   0  0  0  0  0  0  0  0  0  0  0  0
   -0.2086   -6.3825   -1.5519 O   0  0  0  0  0  0  0  0  0  0  0  0
    1.4751   -6.3646   -3.1946 C   0  0  0  0  0  0  0  0  0  0  0  0
    2.2765   -7.0687   -2.9186 H   0  0  0  0  0  0  0  0  0  0  0  0
    0.7988   -6.9360   -3.8504 H   0  0  0  0  0  0  0  0  0  0  0  0
    1.9556   -5.6216   -3.8511 H   0  0  0  0  0  0  0  0  0  0  0  0
    1.3322   -4.6359   -1.5106 N   0  0  0  0  0  0  0  0  0  0  0  0
    0.8124   -3.9290   -0.3698 C   0  0  2  0  0  0  0  0  0  0  0  0
    1.0666   -2.4424   -0.5818 C   0  0  0  0  0  0  0  0  0  0  0  0
    2.0598   -2.0076   -1.1610 O   0  0  0  0  0  0  0  0  0  0  0  0
    1.4560   -4.4118    0.9207 C   0  0  0  0  0  0  0  0  0  0  0  0
    2.1528   -4.2578   -1.9805 H   0  0  0  0  0  0  0  0  0  0  0  0
   -0.2667   -4.1160   -0.3467 H   0  0  0  0  0  0  0  0  0  0  0  0
    2.5374   -4.2329    0.9160 H   0  0  0  0  0  0  0  0  0  0  0  0
    1.0390   -3.8932    1.7903 H   0  0  0  0  0  0  0  0  0  0  0  0
    1.2976   -5.4871    1.0566 H   0  0  0  0  0  0  0  0  0  0  0  0
    0.0755   -1.6529   -0.0105 N   0  0  0  0  0  0  0  0  0  0  0  0
    0.1113   -0.2132   -0.0391 C   0  0  2  0  0  0  0  0  0  0  0  0
    0.5030    0.2632    1.3556 C   0  0  0  0  0  0  0  0  0  0  0  0
    0.4342   -0.4543    2.3513 O   0  0  0  0  0  0  0  0  0  0  0  0
   -1.2360    0.3883   -0.4517 C   0  0  0  0  0  0  0  0  0  0  0  0
   -1.5941    0.0743   -1.9092 C   0  0  0  0  0  0  0  0  0  0  0  0
   -2.9359    0.6754   -2.3144 C   0  0  0  0  0  0  0  0  0  0  0  0
   -3.2845    0.3543   -3.6966 N   0  3  0  0  0  0  0  0  0  0  0  0
   -4.4954    0.7440   -4.2719 C   0  0  0  0  0  0  0  0  0  0  0  0
   -4.7601    0.4029   -5.5940 N   0  0  0  0  0  0  0  0  0  0  0  0
   -5.4440    1.4659   -3.5549 N   0  0  0  0  0  0  0  0  0  0  0  0
   -0.7323   -2.1024    0.4149 H   0  0  0  0  0  0  0  0  0  0  0  0
    0.8977    0.0708   -0.7478 H   0  0  0  0  0  0  0  0  0  0  0  0
   -1.2087    1.4756   -0.3112 H   0  0  0  0  0  0  0  0  0  0  0  0
   -2.0289    0.0109    0.2075 H   0  0  0  0  0  0  0  0  0  0  0  0
   -0.8072    0.4552   -2.5713 H   0  0  0  0  0  0  0  0  0  0  0  0
   -1.6439   -1.0115   -2.0501 H   0  0  0  0  0  0  0  0  0  0  0  0
   -3.7281    0.2705   -1.6772 H   0  0  0  0  0  0  0  0  0  0  0  0
   -2.9235    1.7647   -2.2112 H   0  0  0  0  0  0  0  0  0  0  0  0
   -2.6292   -0.1724   -4.2714 H   0  0  0  0  0  0  0  0  0  0  0  0
   -5.6324    0.6716   -6.0430 H   0  0  0  0  0  0  0  0  0  0  0  0
   -4.0886   -0.1244   -6.1468 H   0  0  0  0  0  0  0  0  0  0  0  0
   -6.3273    1.7521   -3.9691 H   0  0  0  0  0  0  0  0  0  0  0  0
   -5.2780    1.7290   -2.5863 H   0  0  0  0  0  0  0  0  0  0  0  0
    0.8902    1.5960    1.3627 N   0  0  0  0  0  0  0  0  0  0  0  0
    1.2627    2.3001    2.5681 C   0  0  2  0  0  0  0  0  0  0  0  0
    0.8491    3.7572    2.4085 C   0  0  0  0  0  0  0  0  0  0  0  0
    0.8760    4.3479    1.3308 O   0  0  0  0  0  0  0  0  0  0  0  0
    2.7550    2.1850    2.8373 C   0  0  0  0  0  0  0  0  0  0  0  0
    0.9480    2.1029    0.4844 H   0  0  0  0  0  0  0  0  0  0  0  0
    0.6949    1.8464    3.3877 H   0  0  0  0  0  0  0  0  0  0  0  0
    3.3403    2.6342    2.0267 H   0  0  0  0  0  0  0  0  0  0  0  0
    3.0311    2.6950    3.7662 H   0  0  0  0  0  0  0  0  0  0  0  0
    3.0559    1.1352    2.9222 H   0  0  0  0  0  0  0  0  0  0  0  0
    0.4877    4.3326    3.6186 N   0  0  0  0  0  0  0  0  0  0  0  0
    0.0969    5.7179    3.7373 C   0  0  0  0  0  0  0  0  0  0  0  0
    0.4561    3.7579    4.4555 H   0  0  0  0  0  0  0  0  0  0  0  0
    0.9785    6.3285    3.9820 H   0  0  0  0  0  0  0  0  0  0  0  0
   -0.3331    6.0604    2.7845 H   0  0  0  0  0  0  0  0  0  0  0  0
   -0.6529    5.8202    4.5357 H   0  0  0  0  0  0  0  0  0  0  0  0
  1  3  1  0  0  0  0
  1  7  1  0  0  0  0
  1  2  2  0  0  0  0
 42 43  1  0  0  0  0
 43 51  1  0  0  0  0
 43 44  2  0  0  0  0
  8  9  1  0  0  0  0
  9 17  1  0  0  0  0
  9 10  2  0  0  0  0
 18 19  1  0  0  0  0
 19 41  1  0  0  0  0
 19 20  2  0  0  0  0
 25 26  1  0  0  0  0
 25 27  1  0  0  0  0
 24 25  2  0  0  0  0
 42 45  1  0  0  0  0
  8 11  1  0  0  0  0
 51 52  1  0  0  0  0
 21 22  1  0  0  0  0
 22 23  1  0  0  0  0
 18 21  1  0  0  0  0
 23 24  1  0  0  0  0
 41 42  1  0  0  0  0
  7  8  1  0  0  0  0
 17 18  1  0  0  0  0
  3  4  1  0  0  0  0
  3  5  1  0  0  0  0
  3  6  1  0  0  0  0
 45 48  1  0  0  0  0
 45 49  1  0  0  0  0
 45 50  1  0  0  0  0
 11 14  1  0  0  0  0
 11 15  1  0  0  0  0
 11 16  1  0  0  0  0
 52 54  1  0  0  0  0
 52 55  1  0  0  0  0
 52 56  1  0  0  0  0
 22 32  1  0  0  0  0
 22 33  1  0  0  0  0
 21 30  1  0  0  0  0
 21 31  1  0  0  0  0
 23 34  1  0  0  0  0
 23 35  1  0  0  0  0
 42 47  1  0  0  0  0
  8 13  1  0  0  0  0
 18 29  1  0  0  0  0
 26 37  1  0  0  0  0
 26 38  1  0  0  0  0
 27 39  1  0  0  0  0
 27 40  1  0  0  0  0
 51 53  1  0  0  0  0
  7 12  1  0  0  0  0
 41 46  1  0  0  0  0
 17 28  1  0  0  0  0
 24 36  1  0  0  0  0
M  CHG  1  24   1
M  END
$$$$

  -OEChem-05262214473D

 56 55  0     1  0  0  0  0  0999 V2000
    0.7735   -5.8042   -2.0022 C   0  0  0  0  0  0  0  0  0  0  0  0
   -0.2086   -6.3825   -1.5519 O   0  0  0  0  0  0  0  0  0  0  0  0
    1.4751   -6.3646   -3.1946 C   0  0  0  0  0  0  0  0  0  0  0  0
    2.2765   -7.0687   -2.9186 H   0  0  0  0  0  0  0  0  0  0  0  0
    0.7988   -6.9360   -3.8504 H   0  0  0  0  0  0  0  0  0  0  0  0
    1.9556   -5.6216   -3.8511 H   0  0  0  0  0  0  0  0  0  0  0  0
    1.3322   -4.6359   -1.5106 N   0  0  0  0  0  0  0  0  0  0  0  0
    0.8124   -3.9290   -0.3698 C   0  0  2  0  0  0  0  0  0  0  0  0
    1.0666   -2.4424   -0.5818 C   0  0  0  0  0  0  0  0  0  0  0  0
    2.0598   -2.0076   -1.1610 O   0  0  0  0  0  0  0  0  0  0  0  0
    1.4560   -4.4118    0.9207 C   0  0  0  0  0  0  0  0  0  0  0  0
    2.1528   -4.2578   -1.9805 H   0  0  0  0  0  0  0  0  0  0  0  0
   -0.2667   -4.1160   -0.3467 H   0  0  0  0  0  0  0  0  0  0  0  0
    2.5374   -4.2329    0.9160 H   0  0  0  0  0  0  0  0  0  0  0  0
    1.0390   -3.8932    1.7903 H   0  0  0  0  0  0  0  0  0  0  0  0
    1.2976   -5.4871    1.0566 H   0  0  0  0  0  0  0  0  0  0  0  0
    0.0755   -1.6529   -0.0105 N   0  0  0  0  0  0  0  0  0  0  0  0
    0.1113   -0.2132   -0.0391 C   0  0  2  0  0  0  0  0  0  0  0  0
    0.8532    0.2516    1.2095 C   0  0  0  0  0  0  0  0  0  0  0  0
    1.2753   -0.5243    2.0645 O   0  0  0  0  0  0  0  0  0  0  0  0
   -1.2932    0.3970   -0.0856 C   0  0  0  0  0  0  0  0  0  0  0  0
   -2.0180    0.0949   -1.4027 C   0  0  0  0  0  0  0  0  0  0  0  0
   -3.4154    0.7047   -1.4435 C   0  0  0  0  0  0  0  0  0  0  0  0
   -4.1115    0.3950   -2.6902 N   0  3  0  0  0  0  0  0  0  0  0  0
   -5.4277    0.7939   -2.9304 C   0  0  0  0  0  0  0  0  0  0  0  0
   -6.0274    0.4634   -4.1410 N   0  0  0  0  0  0  0  0  0  0  0  0
   -6.1542    1.5148   -1.9883 N   0  0  0  0  0  0  0  0  0  0  0  0
   -0.7323   -2.1024    0.4149 H   0  0  0  0  0  0  0  0  0  0  0  0
    0.6893    0.0725   -0.9254 H   0  0  0  0  0  0  0  0  0  0  0  0
   -1.2240    1.4831    0.0493 H   0  0  0  0  0  0  0  0  0  0  0  0
   -1.8908    0.0183    0.7541 H   0  0  0  0  0  0  0  0  0  0  0  0
   -1.4270    0.4771   -2.2436 H   0  0  0  0  0  0  0  0  0  0  0  0
   -2.1091   -0.9896   -1.5322 H   0  0  0  0  0  0  0  0  0  0  0  0
   -4.0182    0.2986   -0.6254 H   0  0  0  0  0  0  0  0  0  0  0  0
   -3.3702    1.7932   -1.3407 H   0  0  0  0  0  0  0  0  0  0  0  0
   -3.6304   -0.1305   -3.4180 H   0  0  0  0  0  0  0  0  0  0  0  0
   -6.9845    0.7391   -4.3474 H   0  0  0  0  0  0  0  0  0  0  0  0
   -5.5249   -0.0628   -4.8517 H   0  0  0  0  0  0  0  0  0  0  0  0
   -7.1128    1.8077   -2.1582 H   0  0  0  0  0  0  0  0  0  0  0  0
   -5.7417    1.7702   -1.0941 H   0  0  0  0  0  0  0  0  0  0  0  0
    0.9439    1.6348    1.2787 N   0  0  0  0  0  0  0  0  0  0  0  0
    1.5577    2.3280    2.3878 C   0  0  2  0  0  0  0  0  0  0  0  0
    0.8314    3.6536    2.5740 C   0  0  0  0  0  0  0  0  0  0  0  0
    0.3682    4.3019    1.6379 O   0  0  0  0  0  0  0  0  0  0  0  0
    3.0427    2.5510    2.1473 C   0  0  0  0  0  0  0  0  0  0  0  0
    0.5943    2.1963    0.5079 H   0  0  0  0  0  0  0  0  0  0  0  0
    1.4085    1.7016    3.2740 H   0  0  0  0  0  0  0  0  0  0  0  0
    3.2120    3.1767    1.2634 H   0  0  0  0  0  0  0  0  0  0  0  0
    3.5122    3.0510    3.0009 H   0  0  0  0  0  0  0  0  0  0  0  0
    3.5584    1.5985    1.9841 H   0  0  0  0  0  0  0  0  0  0  0  0
    0.7991    4.0487    3.9040 N   0  0  0  0  0  0  0  0  0  0  0  0
    0.2033    5.2923    4.3336 C   0  0  0  0  0  0  0  0  0  0  0  0
    1.1721    3.4302    4.6182 H   0  0  0  0  0  0  0  0  0  0  0  0
    0.9739    6.0766    4.3667 H   0  0  0  0  0  0  0  0  0  0  0  0
   -0.5866    5.5841    3.6258 H   0  0  0  0  0  0  0  0  0  0  0  0
   -0.2317    5.1634    5.3357 H   0  0  0  0  0  0  0  0  0  0  0  0
  1  3  1  0  0  0  0
  1  7  1  0  0  0  0
  1  2  2  0  0  0  0
 42 43  1  0  0  0  0
 43 51  1  0  0  0  0
 43 44  2  0  0  0  0
  8  9  1  0  0  0  0
  9 17  1  0  0  0  0
  9 10  2  0  0  0  0
 18 19  1  0  0  0  0
 19 41  1  0  0  0  0
 19 20  2  0  0  0  0
 25 26  1  0  0  0  0
 25 27  1  0  0  0  0
 24 25  2  0  0  0  0
 42 45  1  0  0  0  0
  8 11  1  0  0  0  0
 51 52  1  0  0  0  0
 21 22  1  0  0  0  0
 22 23  1  0  0  0  0
 18 21  1  0  0  0  0
 23 24  1  0  0  0  0
 41 42  1  0  0  0  0
  7  8  1  0  0  0  0
 17 18  1  0  0  0  0
  3  4  1  0  0  0  0
  3  5  1  0  0  0  0
  3  6  1  0  0  0  0
 45 48  1  0  0  0  0
 45 49  1  0  0  0  0
 45 50  1  0  0  0  0
 11 14  1  0  0  0  0
 11 15  1  0  0  0  0
 11 16  1  0  0  0  0
 52 54  1  0  0  0  0
 52 55  1  0  0  0  0
 52 56  1  0  0  0  0
 22 32  1  0  0  0  0
 22 33  1  0  0  0  0
 21 30  1  0  0  0  0
 21 31  1  0  0  0  0
 23 34  1  0  0  0  0
 23 35  1  0  0  0  0
 42 47  1  0  0  0  0
  8 13  1  0  0  0  0
 18 29  1  0  0  0  0
 26 37  1  0  0  0  0
 26 38  1  0  0  0  0
 27 39  1  0  0  0  0
 27 40  1  0  0  0  0
 51 53  1  0  0  0  0
  7 12  1  0  0  0  0
 41 46  1  0  0  0  0
 17 28  1  0  0  0  0
 24 36  1  0  0  0  0
M  CHG  1  24   1
M  END
$$$$

  -OEChem-05262214473D

 56 55  0     1  0  0  0  0  0999 V2000
    0.7735   -5.8042   -2.0022 C   0  0  0  0  0  0  0  0  0  0  0  0
   -0.2086   -6.3825   -1.5519 O   0  0  0  0  0  0  0  0  0  0  0  0
    1.4751   -6.3646   -3.1946 C   0  0  0  0  0  0  0  0  0  0  0  0
    2.2765   -7.0687   -2.9186 H   0  0  0  0  0  0  0  0  0  0  0  0
    0.7988   -6.9360   -3.8504 H   0  0  0  0  0  0  0  0  0  0  0  0
    1.9556   -5.6216   -3.8511 H   0  0  0  0  0  0  0  0  0  0  0  0
    1.3322   -4.6359   -1.5106 N   0  0  0  0  0  0  0  0  0  0  0  0
    0.8124   -3.9290   -0.3698 C   0  0  2  0  0  0  0  0  0  0  0  0
    1.0666   -2.4424   -0.5818 C   0  0  0  0  0  0  0  0  0  0  0  0
    2.0598   -2.0076   -1.1610 O   0  0  0  0  0  0  0  0  0  0  0  0
    1.4560   -4.4118    0.9207 C   0  0  0  0  0  0  0  0  0  0  0  0
    2.1528   -4.2578   -1.9805 H   0  0  0  0  0  0  0  0  0  0  0  0
   -0.2667   -4.1160   -0.3467 H   0  0  0  0  0  0  0  0  0  0  0  0
    2.5374   -4.2329    0.9160 H   0  0  0  0  0  0  0  0  0  0  0  0
    1.0390   -3.8932    1.7903 H   0  0  0  0  0  0  0  0  0  0  0  0
    1.2976   -5.4871    1.0566 H   0  0  0  0  0  0  0  0  0  0  0  0
    0.0755   -1.6529   -0.0105 N   0  0  0  0  0  0  0  0  0  0  0  0
    0.1113   -0.2132   -0.0391 C   0  0  2  0  0  0  0  0  0  0  0  0
    0.8532    0.2516    1.2095 C   0  0  0  0  0  0  0  0  0  0  0  0
    1.5039   -0.5091    1.9230 O   0  0  0  0  0  0  0  0  0  0  0  0
   -1.2932    0.3970   -0.0856 C   0  0  0  0  0  0  0  0  0  0  0  0
   -2.0180    0.0949   -1.4027 C   0  0  0  0  0  0  0  0  0  0  0  0
   -3.4154    0.7047   -1.4435 C   0  0  0  0  0  0  0  0  0  0  0  0
   -4.1115    0.3950   -2.6902 N   0  3  0  0  0  0  0  0  0  0  0  0
   -5.4277    0.7939   -2.9304 C   0  0  0  0  0  0  0  0  0  0  0  0
   -6.0274    0.4634   -4.1410 N   0  0  0  0  0  0  0  0  0  0  0  0
   -6.1542    1.5148   -1.9883 N   0  0  0  0  0  0  0  0  0  0  0  0
   -0.7323   -2.1024    0.4149 H   0  0  0  0  0  0  0  0  0  0  0  0
    0.6893    0.0725   -0.9254 H   0  0  0  0  0  0  0  0  0  0  0  0
   -1.2240    1.4831    0.0493 H   0  0  0  0  0  0  0  0  0  0  0  0
   -1.8908    0.0183    0.7541 H   0  0  0  0  0  0  0  0  0  0  0  0
   -1.4270    0.4771   -2.2436 H   0  0  0  0  0  0  0  0  0  0  0  0
   -2.1091   -0.9896   -1.5322 H   0  0  0  0  0  0  0  0  0  0  0  0
   -4.0182    0.2986   -0.6254 H   0  0  0  0  0  0  0  0  0  0  0  0
   -3.3702    1.7932   -1.3407 H   0  0  0  0  0  0  0  0  0  0  0  0
   -3.6304   -0.1305   -3.4180 H   0  0  0  0  0  0  0  0  0  0  0  0
   -6.9845    0.7391   -4.3474 H   0  0  0  0  0  0  0  0  0  0  0  0
   -5.5249   -0.0628   -4.8517 H   0  0  0  0  0  0  0  0  0  0  0  0
   -7.1128    1.8077   -2.1582 H   0  0  0  0  0  0  0  0  0  0  0  0
   -5.7417    1.7702   -1.0941 H   0  0  0  0  0  0  0  0  0  0  0  0
    0.6618    1.6036    1.4579 N   0  0  0  0  0  0  0  0  0  0  0  0
    1.2188    2.2784    2.6077 C   0  0  2  0  0  0  0  0  0  0  0  0
    0.2544    3.3835    3.0174 C   0  0  0  0  0  0  0  0  0  0  0  0
   -0.4174    4.0212    2.2092 O   0  0  0  0  0  0  0  0  0  0  0  0
    2.5968    2.8449    2.3029 C   0  0  0  0  0  0  0  0  0  0  0  0
    0.1338    2.1624    0.7941 H   0  0  0  0  0  0  0  0  0  0  0  0
    1.2850    1.5348    3.4094 H   0  0  0  0  0  0  0  0  0  0  0  0
    2.5506    3.5917    1.5019 H   0  0  0  0  0  0  0  0  0  0  0  0
    3.0296    3.3310    3.1834 H   0  0  0  0  0  0  0  0  0  0  0  0
    3.2811    2.0529    1.9797 H   0  0  0  0  0  0  0  0  0  0  0  0
    0.2641    3.6033    4.3877 N   0  0  0  0  0  0  0  0  0  0  0  0
   -0.5337    4.6287    5.0186 C   0  0  0  0  0  0  0  0  0  0  0  0
    0.8214    3.0010    4.9864 H   0  0  0  0  0  0  0  0  0  0  0  0
    0.0577    5.5520    5.1063 H   0  0  0  0  0  0  0  0  0  0  0  0
   -1.4288    4.8232    4.4095 H   0  0  0  0  0  0  0  0  0  0  0  0
   -0.8380    4.2917    6.0205 H   0  0  0  0  0  0  0  0  0  0  0  0
  1  3  1  0  0  0  0
  1  7  1  0  0  0  0
  1  2  2  0  0  0  0
 42 43  1  0  0  0  0
 43 51  1  0  0  0  0
 43 44  2  0  0  0  0
  8  9  1  0  0  0  0
  9 17  1  0  0  0  0
  9 10  2  0  0  0  0
 18 19  1  0  0  0  0
 19 41  1  0  0  0  0
 19 20  2  0  0  0  0
 25 26  1  0  0  0  0
 25 27  1  0  0  0  0
 24 25  2  0  0  0  0
 42 45  1  0  0  0  0
  8 11  1  0  0  0  0
 51 52  1  0  0  0  0
 21 22  1  0  0  0  0
 22 23  1  0  0  0  0
 18 21  1  0  0  0  0
 23 24  1  0  0  0  0
 41 42  1  0  0  0  0
  7  8  1  0  0  0  0
 17 18  1  0  0  0  0
  3  4  1  0  0  0  0
  3  5  1  0  0  0  0
  3  6  1  0  0  0  0
 45 48  1  0  0  0  0
 45 49  1  0  0  0  0
 45 50  1  0  0  0  0
 11 14  1  0  0  0  0
 11 15  1  0  0  0  0
 11 16  1  0  0  0  0
 52 54  1  0  0  0  0
 52 55  1  0  0  0  0
 52 56  1  0  0  0  0
 22 32  1  0  0  0  0
 22 33  1  0  0  0  0
 21 30  1  0  0  0  0
 21 31  1  0  0  0  0
 23 34  1  0  0  0  0
 23 35  1  0  0  0  0
 42 47  1  0  0  0  0
  8 13  1  0  0  0  0
 18 29  1  0  0  0  0
 26 37  1  0  0  0  0
 26 38  1  0  0  0  0
 27 39  1  0  0  0  0
 27 40  1  0  0  0  0
 51 53  1  0  0  0  0
  7 12  1  0  0  0  0
 41 46  1  0  0  0  0
 17 28  1  0  0  0  0
 24 36  1  0  0  0  0
M  CHG  1  24   1
M  END
$$$$

  -OEChem-05262214473D

 56 55  0     1  0  0  0  0  0999 V2000
    0.7735   -5.8042   -2.0022 C   0  0  0  0  0  0  0  0  0  0  0  0
   -0.2086   -6.3825   -1.5519 O   0  0  0  0  0  0  0  0  0  0  0  0
    1.4751   -6.3646   -3.1946 C   0  0  0  0  0  0  0  0  0  0  0  0
    2.2765   -7.0687   -2.9186 H   0  0  0  0  0  0  0  0  0  0  0  0
    0.7988   -6.9360   -3.8504 H   0  0  0  0  0  0  0  0  0  0  0  0
    1.9556   -5.6216   -3.8511 H   0  0  0  0  0  0  0  0  0  0  0  0
    1.3322   -4.6359   -1.5106 N   0  0  0  0  0  0  0  0  0  0  0  0
    0.8124   -3.9290   -0.3698 C   0  0  2  0  0  0  0  0  0  0  0  0
    1.0666   -2.4424   -0.5818 C   0  0  0  0  0  0  0  0  0  0  0  0
    2.0598   -2.0076   -1.1610 O   0  0  0  0  0  0  0  0  0  0  0  0
    1.4560   -4.4118    0.9207 C   0  0  0  0  0  0  0  0  0  0  0  0
    2.1528   -4.2578   -1.9805 H   0  0  0  0  0  0  0  0  0  0  0  0
   -0.2667   -4.1160   -0.3467 H   0  0  0  0  0  0  0  0  0  0  0  0
    2.5374   -4.2329    0.9160 H   0  0  0  0  0  0  0  0  0  0  0  0
    1.0390   -3.8932    1.7903 H   0  0  0  0  0  0  0  0  0  0  0  0
    1.2976   -5.4871    1.0566 H   0  0  0  0  0  0  0  0  0  0  0  0
    0.0755   -1.6529   -0.0105 N   0  0  0  0  0  0  0  0  0  0  0  0
    0.1113   -0.2132   -0.0391 C   0  0  2  0  0  0  0  0  0  0  0  0
    0.8532    0.2516    1.2095 C   0  0  0  0  0  0  0  0  0  0  0  0
    1.7103   -0.4282    1.7702 O   0  0  0  0  0  0  0  0  0  0  0  0
   -1.2932    0.3970   -0.0856 C   0  0  0  0  0  0  0  0  0  0  0  0
   -2.0180    0.0949   -1.4027 C   0  0  0  0  0  0  0  0  0  0  0  0
   -3.4154    0.7047   -1.4435 C   0  0  0  0  0  0  0  0  0  0  0  0
   -4.1115    0.3950   -2.6902 N   0  3  0  0  0  0  0  0  0  0  0  0
   -5.4277    0.7939   -2.9304 C   0  0  0  0  0  0  0  0  0  0  0  0
   -6.0274    0.4634   -4.1410 N   0  0  0  0  0  0  0  0  0  0  0  0
   -6.1542    1.5148   -1.9883 N   0  0  0  0  0  0  0  0  0  0  0  0
   -0.7323   -2.1024    0.4149 H   0  0  0  0  0  0  0  0  0  0  0  0
    0.6893    0.0725   -0.9254 H   0  0  0  0  0  0  0  0  0  0  0  0
   -1.2240    1.4831    0.0493 H   0  0  0  0  0  0  0  0  0  0  0  0
   -1.8908    0.0183    0.7541 H   0  0  0  0  0  0  0  0  0  0  0  0
   -1.4270    0.4771   -2.2436 H   0  0  0  0  0  0  0  0  0  0  0  0
   -2.1091   -0.9896   -1.5322 H   0  0  0  0  0  0  0  0  0  0  0  0
   -4.0182    0.2986   -0.6254 H   0  0  0  0  0  0  0  0  0  0  0  0
   -3.3702    1.7932   -1.3407 H   0  0  0  0  0  0  0  0  0  0  0  0
   -3.6304   -0.1305   -3.4180 H   0  0  0  0  0  0  0  0  0  0  0  0
   -6.9845    0.7391   -4.3474 H   0  0  0  0  0  0  0  0  0  0  0  0
   -5.5249   -0.0628   -4.8517 H   0  0  0  0  0  0  0  0  0  0  0  0
   -7.1128    1.8077   -2.1582 H   0  0  0  0  0  0  0  0  0  0  0  0
   -5.7417    1.7702   -1.0941 H   0  0  0  0  0  0  0  0  0  0  0  0
    0.4100    1.4911    1.6494 N   0  0  0  0  0  0  0  0  0  0  0  0
    0.9193    2.1309    2.8405 C   0  0  2  0  0  0  0  0  0  0  0  0
   -0.2108    2.9445    3.4572 C   0  0  0  0  0  0  0  0  0  0  0  0
   -1.0718    3.5116    2.7877 O   0  0  0  0  0  0  0  0  0  0  0  0
    2.1161    3.0147    2.5253 C   0  0  0  0  0  0  0  0  0  0  0  0
   -0.2811    1.9960    1.1026 H   0  0  0  0  0  0  0  0  0  0  0  0
    1.2117    1.3306    3.5290 H   0  0  0  0  0  0  0  0  0  0  0  0
    1.8425    3.8224    1.8367 H   0  0  0  0  0  0  0  0  0  0  0  0
    2.5185    3.4763    3.4330 H   0  0  0  0  0  0  0  0  0  0  0  0
    2.9165    2.4336    2.0546 H   0  0  0  0  0  0  0  0  0  0  0  0
   -0.1200    2.9987    4.8410 N   0  0  0  0  0  0  0  0  0  0  0  0
   -1.0509    3.7452    5.6547 C   0  0  0  0  0  0  0  0  0  0  0  0
    0.6027    2.4656    5.3156 H   0  0  0  0  0  0  0  0  0  0  0  0
   -0.6577    4.7581    5.8270 H   0  0  0  0  0  0  0  0  0  0  0  0
   -2.0193    3.8111    5.1372 H   0  0  0  0  0  0  0  0  0  0  0  0
   -1.1850    3.2350    6.6200 H   0  0  0  0  0  0  0  0  0  0  0  0
  1  3  1  0  0  0  0
  1  7  1  0  0  0  0
  1  2  2  0  0  0  0
 42 43  1  0  0  0  0
 43 51  1  0  0  0  0
 43 44  2  0  0  0  0
  8  9  1  0  0  0  0
  9 17  1  0  0  0  0
  9 10  2  0  0  0  0
 18 19  1  0  0  0  0
 19 41  1  0  0  0  0
 19 20  2  0  0  0  0
 25 26  1  0  0  0  0
 25 27  1  0  0  0  0
 24 25  2  0  0  0  0
 42 45  1  0  0  0  0
  8 11  1  0  0  0  0
 51 52  1  0  0  0  0
 21 22  1  0  0  0  0
 22 23  1  0  0  0  0
 18 21  1  0  0  0  0
 23 24  1  0  0  0  0
 41 42  1  0  0  0  0
  7  8  1  0  0  0  0
 17 18  1  0  0  0  0
  3  4  1  0  0  0  0
  3  5  1  0  0  0  0
  3  6  1  0  0  0  0
 45 48  1  0  0  0  0
 45 49  1  0  0  0  0
 45 50  1  0  0  0  0
 11 14  1  0  0  0  0
 11 15  1  0  0  0  0
 11 16  1  0  0  0  0
 52 54  1  0  0  0  0
 52 55  1  0  0  0  0
 52 56  1  0  0  0  0
 22 32  1  0  0  0  0
 22 33  1  0  0  0  0
 21 30  1  0  0  0  0
 21 31  1  0  0  0  0
 23 34  1  0  0  0  0
 23 35  1  0  0  0  0
 42 47  1  0  0  0  0
  8 13  1  0  0  0  0
 18 29  1  0  0  0  0
 26 37  1  0  0  0  0
 26 38  1  0  0  0  0
 27 39  1  0  0  0  0
 27 40  1  0  0  0  0
 51 53  1  0  0  0  0
  7 12  1  0  0  0  0
 41 46  1  0  0  0  0
 17 28  1  0  0  0  0
 24 36  1  0  0  0  0
M  CHG  1  24   1
M  END
$$$$

  -OEChem-05262214473D

 56 55  0     1  0  0  0  0  0999 V2000
    0.7735   -5.8042   -2.0022 C   0  0  0  0  0  0  0  0  0  0  0  0
   -0.2086   -6.3825   -1.5519 O   0  0  0  0  0  0  0  0  0  0  0  0
    1.4751   -6.3646   -3.1946 C   0  0  0  0  0  0  0  0  0  0  0  0
    2.2765   -7.0687   -2.9186 H   0  0  0  0  0  0  0  0  0  0  0  0
    0.7988   -6.9360   -3.8504 H   0  0  0  0  0  0  0  0  0  0  0  0
    1.9556   -5.6216   -3.8511 H   0  0  0  0  0  0  0  0  0  0  0  0
    1.3322   -4.6359   -1.5106 N   0  0  0  0  0  0  0  0  0  0  0  0
    0.8124   -3.9290   -0.3698 C   0  0  2  0  0  0  0  0  0  0  0  0
    1.0666   -2.4424   -0.5818 C   0  0  0  0  0  0  0  0  0  0  0  0
    2.0598   -2.0076   -1.1610 O   0  0  0  0  0  0  0  0  0  0  0  0
    1.4560   -4.4118    0.9207 C   0  0  0  0  0  0  0  0  0  0  0  0
    2.1528   -4.2578   -1.9805 H   0  0  0  0  0  0  0  0  0  0  0  0
   -0.2667   -4.1160   -0.3467 H   0  0  0  0  0  0  0  0  0  0  0  0
    2.5374   -4.2329    0.9160 H   0  0  0  0  0  0  0  0  0  0  0  0
    1.0390   -3.8932    1.7903 H   0  0  0  0  0  0  0  0  0  0  0  0
    1.2976   -5.4871    1.0566 H   0  0  0  0  0  0  0  0  0  0  0  0
    0.0755   -1.6529   -0.0105 N   0  0  0  0  0  0  0  0  0  0  0  0
    0.1113   -0.2132   -0.0391 C   0  0  2  0  0  0  0  0  0  0  0  0
    0.8532    0.2516    1.2095 C   0  0  0  0  0  0  0  0  0  0  0  0
    1.8805   -0.2871    1.6166 O   0  0  0  0  0  0  0  0  0  0  0  0
   -1.2932    0.3970   -0.0856 C   0  0  0  0  0  0  0  0  0  0  0  0
   -2.0180    0.0949   -1.4027 C   0  0  0  0  0  0  0  0  0  0  0  0
   -3.4154    0.7047   -1.4435 C   0  0  0  0  0  0  0  0  0  0  0  0
   -4.1115    0.3950   -2.6902 N   0  3  0  0  0  0  0  0  0  0  0  0
   -5.4277    0.7939   -2.9304 C   0  0  0  0  0  0  0  0  0  0  0  0
   -6.0274    0.4634   -4.1410 N   0  0  0  0  0  0  0  0  0  0  0  0
   -6.1542    1.5148   -1.9883 N   0  0  0  0  0  0  0  0  0  0  0  0
   -0.7323   -2.1024    0.4149 H   0  0  0  0  0  0  0  0  0  0  0  0
    0.6893    0.0725   -0.9254 H   0  0  0  0  0  0  0  0  0  0  0  0
   -1.2240    1.4831    0.0493 H   0  0  0  0  0  0  0  0  0  0  0  0
   -1.8908    0.0183    0.7541 H   0  0  0  0  0  0  0  0  0  0  0  0
   -1.4270    0.4771   -2.2436 H   0  0  0  0  0  0  0  0  0  0  0  0
   -2.1091   -0.9896   -1.5322 H   0  0  0  0  0  0  0  0  0  0  0  0
   -4.0182    0.2986   -0.6254 H   0  0  0  0  0  0  0  0  0  0  0  0
   -3.3702    1.7932   -1.3407 H   0  0  0  0  0  0  0  0  0  0  0  0
   -3.6304   -0.1305   -3.4180 H   0  0  0  0  0  0  0  0  0  0  0  0
   -6.9845    0.7391   -4.3474 H   0  0  0  0  0  0  0  0  0  0  0  0
   -5.5249   -0.0628   -4.8517 H   0  0  0  0  0  0  0  0  0  0  0  0
   -7.1128    1.8077   -2.1582 H   0  0  0  0  0  0  0  0  0  0  0  0
   -5.7417    1.7702   -1.0941 H   0  0  0  0  0  0  0  0  0  0  0  0
    0.2058    1.3050    1.8400 N   0  0  0  0  0  0  0  0  0  0  0  0
    0.6797    1.8957    3.0705 C   0  0  2  0  0  0  0  0  0  0  0  0
   -0.5324    2.3665    3.8634 C   0  0  0  0  0  0  0  0  0  0  0  0
   -1.5501    2.8079    3.3339 O   0  0  0  0  0  0  0  0  0  0  0  0
    1.6334    3.0488    2.7994 C   0  0  0  0  0  0  0  0  0  0  0  0
   -0.6224    1.7085    1.4123 H   0  0  0  0  0  0  0  0  0  0  0  0
    1.1937    1.1027    3.6245 H   0  0  0  0  0  0  0  0  0  0  0  0
    1.1361    3.8531    2.2450 H   0  0  0  0  0  0  0  0  0  0  0  0
    2.0137    3.4769    3.7327 H   0  0  0  0  0  0  0  0  0  0  0  0
    2.4896    2.7146    2.2036 H   0  0  0  0  0  0  0  0  0  0  0  0
   -0.3272    2.2763    5.2330 N   0  0  0  0  0  0  0  0  0  0  0  0
   -1.3130    2.7022    6.1988 C   0  0  0  0  0  0  0  0  0  0  0  0
    0.5309    1.8607    5.5834 H   0  0  0  0  0  0  0  0  0  0  0  0
   -1.1237    3.7488    6.4796 H   0  0  0  0  0  0  0  0  0  0  0  0
   -2.3177    2.6167    5.7591 H   0  0  0  0  0  0  0  0  0  0  0  0
   -1.2488    2.0653    7.0934 H   0  0  0  0  0  0  0  0  0  0  0  0
  1  3  1  0  0  0  0
  1  7  1  0  0  0  0
  1  2  2  0  0  0  0
 42 43  1  0  0  0  0
 43 51  1  0  0  0  0
 43 44  2  0  0  0  0
  8  9  1  0  0  0  0
  9 17  1  0  0  0  0
  9 10  2  0  0  0  0
 18 19  1  0  0  0  0
 19 41  1  0  0  0  0
 19 20  2  0  0  0  0
 25 26  1  0  0  0  0
 25 27  1  0  0  0  0
 24 25  2  0  0  0  0
 42 45  1  0  0  0  0
  8 11  1  0  0  0  0
 51 52  1  0  0  0  0
 21 22  1  0  0  0  0
 22 23  1  0  0  0  0
 18 21  1  0  0  0  0
 23 24  1  0  0  0  0
 41 42  1  0  0  0  0
  7  8  1  0  0  0  0
 17 18  1  0  0  0  0
  3  4  1  0  0  0  0
  3  5  1  0  0  0  0
  3  6  1  0  0  0  0
 45 48  1  0  0  0  0
 45 49  1  0  0  0  0
 45 50  1  0  0  0  0
 11 14  1  0  0  0  0
 11 15  1  0  0  0  0
 11 16  1  0  0  0  0
 52 54  1  0  0  0  0
 52 55  1  0  0  0  0
 52 56  1  0  0  0  0
 22 32  1  0  0  0  0
 22 33  1  0  0  0  0
 21 30  1  0  0  0  0
 21 31  1  0  0  0  0
 23 34  1  0  0  0  0
 23 35  1  0  0  0  0
 42 47  1  0  0  0  0
  8 13  1  0  0  0  0
 18 29  1  0  0  0  0
 26 37  1  0  0  0  0
 26 38  1  0  0  0  0
 27 39  1  0  0  0  0
 27 40  1  0  0  0  0
 51 53  1  0  0  0  0
  7 12  1  0  0  0  0
 41 46  1  0  0  0  0
 17 28  1  0  0  0  0
 24 36  1  0  0  0  0
M  CHG  1  24   1
M  END
$$$$

  -OEChem-05262214473D

 56 55  0     1  0  0  0  0  0999 V2000
    0.7735   -5.8042   -2.0022 C   0  0  0  0  0  0  0  0  0  0  0  0
   -0.2086   -6.3825   -1.5519 O   0  0  0  0  0  0  0  0  0  0  0  0
    1.4751   -6.3646   -3.1946 C   0  0  0  0  0  0  0  0  0  0  0  0
    2.2765   -7.0687   -2.9186 H   0  0  0  0  0  0  0  0  0  0  0  0
    0.7988   -6.9360   -3.8504 H   0  0  0  0  0  0  0  0  0  0  0  0
    1.9556   -5.6216   -3.8511 H   0  0  0  0  0  0  0  0  0  0  0  0
    1.3322   -4.6359   -1.5106 N   0  0  0  0  0  0  0  0  0  0  0  0
    0.8124   -3.9290   -0.3698 C   0  0  2  0  0  0  0  0  0  0  0  0
    1.0666   -2.4424   -0.5818 C   0  0  0  0  0  0  0  0  0  0  0  0
    2.0598   -2.0076   -1.1610 O   0  0  0  0  0  0  0  0  0  0  0  0
    1.4560   -4.4118    0.9207 C   0  0  0  0  0  0  0  0  0  0  0  0
    2.1528   -4.2578   -1.9805 H   0  0  0  0  0  0  0  0  0  0  0  0
   -0.2667   -4.1160   -0.3467 H   0  0  0  0  0  0  0  0  0  0  0  0
    2.5374   -4.2329    0.9160 H   0  0  0  0  0  0  0  0  0  0  0  0
    1.0390   -3.8932    1.7903 H   0  0  0  0  0  0  0  0  0  0  0  0
    1.2976   -5.4871    1.0566 H   0  0  0  0  0  0  0  0  0  0  0  0
    0.0755   -1.6529   -0.0105 N   0  0  0  0  0  0  0  0  0  0  0  0
    0.1113   -0.2132   -0.0391 C   0  0  2  0  0  0  0  0  0  0  0  0
    0.8532    0.2516    1.2095 C   0  0  0  0  0  0  0  0  0  0  0  0
    2.0029   -0.0954    1.4725 O   0  0  0  0  0  0  0  0  0  0  0  0
   -1.2932    0.3970   -0.0856 C   0  0  0  0  0  0  0  0  0  0  0  0
   -2.0180    0.0949   -1.4027 C   0  0  0  0  0  0  0  0  0  0  0  0
   -3.4154    0.7047   -1.4435 C   0  0  0  0  0  0  0  0  0  0  0  0
   -4.1115    0.3950   -2.6902 N   0  3  0  0  0  0  0  0  0  0  0  0
   -5.4277    0.7939   -2.9304 C   0  0  0  0  0  0  0  0  0  0  0  0
   -6.0274    0.4634   -4.1410 N   0  0  0  0  0  0  0  0  0  0  0  0
   -6.1542    1.5148   -1.9883 N   0  0  0  0  0  0  0  0  0  0  0  0
   -0.7323   -2.1024    0.4149 H   0  0  0  0  0  0  0  0  0  0  0  0
    0.6893    0.0725   -0.9254 H   0  0  0  0  0  0  0  0  0  0  0  0
   -1.2240    1.4831    0.0493 H   0  0  0  0  0  0  0  0  0  0  0  0
   -1.8908    0.0183    0.7541 H   0  0  0  0  0  0  0  0  0  0  0  0
   -1.4270    0.4771   -2.2436 H   0  0  0  0  0  0  0  0  0  0  0  0
   -2.1091   -0.9896   -1.5322 H   0  0  0  0  0  0  0  0  0  0  0  0
   -4.0182    0.2986   -0.6254 H   0  0  0  0  0  0  0  0  0  0  0  0
   -3.3702    1.7932   -1.3407 H   0  0  0  0  0  0  0  0  0  0  0  0
   -3.6304   -0.1305   -3.4180 H   0  0  0  0  0  0  0  0  0  0  0  0
   -6.9845    0.7391   -4.3474 H   0  0  0  0  0  0  0  0  0  0  0  0
   -5.5249   -0.0628   -4.8517 H   0  0  0  0  0  0  0  0  0  0  0  0
   -7.1128    1.8077   -2.1582 H   0  0  0  0  0  0  0  0  0  0  0  0
   -5.7417    1.7702   -1.0941 H   0  0  0  0  0  0  0  0  0  0  0  0
    0.0631    1.0579    2.0168 N   0  0  0  0  0  0  0  0  0  0  0  0
    0.5162    1.5887    3.2819 C   0  0  2  0  0  0  0  0  0  0  0  0
   -0.6884    1.6890    4.2084 C   0  0  0  0  0  0  0  0  0  0  0  0
   -1.8200    1.9580    3.8106 O   0  0  0  0  0  0  0  0  0  0  0  0
    1.1814    2.9449    3.1066 C   0  0  0  0  0  0  0  0  0  0  0  0
   -0.8666    1.3195    1.7023 H   0  0  0  0  0  0  0  0  0  0  0  0
    1.2321    0.8667    3.6896 H   0  0  0  0  0  0  0  0  0  0  0  0
    0.4795    3.6816    2.6990 H   0  0  0  0  0  0  0  0  0  0  0  0
    1.5497    3.3327    4.0621 H   0  0  0  0  0  0  0  0  0  0  0  0
    2.0295    2.8768    2.4167 H   0  0  0  0  0  0  0  0  0  0  0  0
   -0.3433    1.4852    5.5371 N   0  0  0  0  0  0  0  0  0  0  0  0
   -1.3023    1.5707    6.6137 C   0  0  0  0  0  0  0  0  0  0  0  0
    0.6109    1.2275    5.7717 H   0  0  0  0  0  0  0  0  0  0  0  0
   -1.3084    2.5930    7.0196 H   0  0  0  0  0  0  0  0  0  0  0  0
   -2.3038    1.3214    6.2331 H   0  0  0  0  0  0  0  0  0  0  0  0
   -1.0253    0.8624    7.4084 H   0  0  0  0  0  0  0  0  0  0  0  0
  1  3  1  0  0  0  0
  1  7  1  0  0  0  0
  1  2  2  0  0  0  0
 42 43  1  0  0  0  0
 43 51  1  0  0  0  0
 43 44  2  0  0  0  0
  8  9  1  0  0  0  0
  9 17  1  0  0  0  0
  9 10  2  0  0  0  0
 18 19  1  0  0  0  0
 19 41  1  0  0  0  0
 19 20  2  0  0  0  0
 25 26  1  0  0  0  0
 25 27  1  0  0  0  0
 24 25  2  0  0  0  0
 42 45  1  0  0  0  0
  8 11  1  0  0  0  0
 51 52  1  0  0  0  0
 21 22  1  0  0  0  0
 22 23  1  0  0  0  0
 18 21  1  0  0  0  0
 23 24  1  0  0  0  0
 41 42  1  0  0  0  0
  7  8  1  0  0  0  0
 17 18  1  0  0  0  0
  3  4  1  0  0  0  0
  3  5  1  0  0  0  0
  3  6  1  0  0  0  0
 45 48  1  0  0  0  0
 45 49  1  0  0  0  0
 45 50  1  0  0  0  0
 11 14  1  0  0  0  0
 11 15  1  0  0  0  0
 11 16  1  0  0  0  0
 52 54  1  0  0  0  0
 52 55  1  0  0  0  0
 52 56  1  0  0  0  0
 22 32  1  0  0  0  0
 22 33  1  0  0  0  0
 21 30  1  0  0  0  0
 21 31  1  0  0  0  0
 23 34  1  0  0  0  0
 23 35  1  0  0  0  0
 42 47  1  0  0  0  0
  8 13  1  0  0  0  0
 18 29  1  0  0  0  0
 26 37  1  0  0  0  0
 26 38  1  0  0  0  0
 27 39  1  0  0  0  0
 27 40  1  0  0  0  0
 51 53  1  0  0  0  0
  7 12  1  0  0  0  0
 41 46  1  0  0  0  0
 17 28  1  0  0  0  0
 24 36  1  0  0  0  0
M  CHG  1  24   1
M  END
$$$$

  -OEChem-05262214473D

 56 55  0     1  0  0  0  0  0999 V2000
    0.7735   -5.8042   -2.0022 C   0  0  0  0  0  0  0  0  0  0  0  0
   -0.2086   -6.3825   -1.5519 O   0  0  0  0  0  0  0  0  0  0  0  0
    1.4751   -6.3646   -3.1946 C   0  0  0  0  0  0  0  0  0  0  0  0
    2.2765   -7.0687   -2.9186 H   0  0  0  0  0  0  0  0  0  0  0  0
    0.7988   -6.9360   -3.8504 H   0  0  0  0  0  0  0  0  0  0  0  0
    1.9556   -5.6216   -3.8511 H   0  0  0  0  0  0  0  0  0  0  0  0
    1.3322   -4.6359   -1.5106 N   0  0  0  0  0  0  0  0  0  0  0  0
    0.8124   -3.9290   -0.3698 C   0  0  2  0  0  0  0  0  0  0  0  0
    1.0666   -2.4424   -0.5818 C   0  0  0  0  0  0  0  0  0  0  0  0
    2.0598   -2.0076   -1.1610 O   0  0  0  0  0  0  0  0  0  0  0  0
    1.4560   -4.4118    0.9207 C   0  0  0  0  0  0  0  0  0  0  0  0
    2.1528   -4.2578   -1.9805 H   0  0  0  0  0  0  0  0  0  0  0  0
   -0.2667   -4.1160   -0.3467 H   0  0  0  0  0  0  0  0  0  0  0  0
    2.5374   -4.2329    0.9160 H   0  0  0  0  0  0  0  0  0  0  0  0
    1.0390   -3.8932    1.7903 H   0  0  0  0  0  0  0  0  0  0  0  0
    1.2976   -5.4871    1.0566 H   0  0  0  0  0  0  0  0  0  0  0  0
    0.0755   -1.6529   -0.0105 N   0  0  0  0  0  0  0  0  0  0  0  0
    0.1113   -0.2132   -0.0391 C   0  0  2  0  0  0  0  0  0  0  0  0
    0.8532    0.2516    1.2095 C   0  0  0  0  0  0  0  0  0  0  0  0
    2.0691    0.1339    1.3478 O   0  0  0  0  0  0  0  0  0  0  0  0
   -1.2932    0.3970   -0.0856 C   0  0  0  0  0  0  0  0  0  0  0  0
   -2.0180    0.0949   -1.4027 C   0  0  0  0  0  0  0  0  0  0  0  0
   -3.4154    0.7047   -1.4435 C   0  0  0  0  0  0  0  0  0  0  0  0
   -4.1115    0.3950   -2.6902 N   0  3  0  0  0  0  0  0  0  0  0  0
   -5.4277    0.7939   -2.9304 C   0  0  0  0  0  0  0  0  0  0  0  0
   -6.0274    0.4634   -4.1410 N   0  0  0  0  0  0  0  0  0  0  0  0
   -6.1542    1.5148   -1.9883 N   0  0  0  0  0  0  0  0  0  0  0  0
   -0.7323   -2.1024    0.4149 H   0  0  0  0  0  0  0  0  0  0  0  0
    0.6893    0.0725   -0.9254 H   0  0  0  0  0  0  0  0  0  0  0  0
   -1.2240    1.4831    0.0493 H   0  0  0  0  0  0  0  0  0  0  0  0
   -1.8908    0.0183    0.7541 H   0  0  0  0  0  0  0  0  0  0  0  0
   -1.4270    0.4771   -2.2436 H   0  0  0  0  0  0  0  0  0  0  0  0
   -2.1091   -0.9896   -1.5322 H   0  0  0  0  0  0  0  0  0  0  0  0
   -4.0182    0.2986   -0.6254 H   0  0  0  0  0  0  0  0  0  0  0  0
   -3.3702    1.7932   -1.3407 H   0  0  0  0  0  0  0  0  0  0  0  0
   -3.6304   -0.1305   -3.4180 H   0  0  0  0  0  0  0  0  0  0  0  0
   -6.9845    0.7391   -4.3474 H   0  0  0  0  0  0  0  0  0  0  0  0
   -5.5249   -0.0628   -4.8517 H   0  0  0  0  0  0  0  0  0  0  0  0
   -7.1128    1.8077   -2.1582 H   0  0  0  0  0  0  0  0  0  0  0  0
   -5.7417    1.7702   -1.0941 H   0  0  0  0  0  0  0  0  0  0  0  0
   -0.0085    0.7668    2.1678 N   0  0  0  0  0  0  0  0  0  0  0  0
    0.4400    1.2309    3.4604 C   0  0  2  0  0  0  0  0  0  0  0  0
   -0.6684    0.9579    4.4686 C   0  0  0  0  0  0  0  0  0  0  0  0
   -1.8630    1.0199    4.1854 O   0  0  0  0  0  0  0  0  0  0  0  0
    0.7912    2.7102    3.4259 C   0  0  0  0  0  0  0  0  0  0  0  0
   -0.9972    0.8555    1.9526 H   0  0  0  0  0  0  0  0  0  0  0  0
    1.3243    0.6387    3.7197 H   0  0  0  0  0  0  0  0  0  0  0  0
   -0.0826    3.3196    3.1677 H   0  0  0  0  0  0  0  0  0  0  0  0
    1.1579    3.0537    4.3988 H   0  0  0  0  0  0  0  0  0  0  0  0
    1.5674    2.9091    2.6791 H   0  0  0  0  0  0  0  0  0  0  0  0
   -0.1672    0.6793    5.7325 N   0  0  0  0  0  0  0  0  0  0  0  0
   -1.0194    0.4277    6.8711 C   0  0  0  0  0  0  0  0  0  0  0  0
    0.8371    0.6091    5.8674 H   0  0  0  0  0  0  0  0  0  0  0  0
   -1.1993    1.3695    7.4103 H   0  0  0  0  0  0  0  0  0  0  0  0
   -1.9785    0.0135    6.5267 H   0  0  0  0  0  0  0  0  0  0  0  0
   -0.5296   -0.2919    7.5436 H   0  0  0  0  0  0  0  0  0  0  0  0
  1  3  1  0  0  0  0
  1  7  1  0  0  0  0
  1  2  2  0  0  0  0
 42 43  1  0  0  0  0
 43 51  1  0  0  0  0
 43 44  2  0  0  0  0
  8  9  1  0  0  0  0
  9 17  1  0  0  0  0
  9 10  2  0  0  0  0
 18 19  1  0  0  0  0
 19 41  1  0  0  0  0
 19 20  2  0  0  0  0
 25 26  1  0  0  0  0
 25 27  1  0  0  0  0
 24 25  2  0  0  0  0
 42 45  1  0  0  0  0
  8 11  1  0  0  0  0
 51 52  1  0  0  0  0
 21 22  1  0  0  0  0
 22 23  1  0  0  0  0
 18 21  1  0  0  0  0
 23 24  1  0  0  0  0
 41 42  1  0  0  0  0
  7  8  1  0  0  0  0
 17 18  1  0  0  0  0
  3  4  1  0  0  0  0
  3  5  1  0  0  0  0
  3  6  1  0  0  0  0
 45 48  1  0  0  0  0
 45 49  1  0  0  0  0
 45 50  1  0  0  0  0
 11 14  1  0  0  0  0
 11 15  1  0  0  0  0
 11 16  1  0  0  0  0
 52 54  1  0  0  0  0
 52 55  1  0  0  0  0
 52 56  1  0  0  0  0
 22 32  1  0  0  0  0
 22 33  1  0  0  0  0
 21 30  1  0  0  0  0
 21 31  1  0  0  0  0
 23 34  1  0  0  0  0
 23 35  1  0  0  0  0
 42 47  1  0  0  0  0
  8 13  1  0  0  0  0
 18 29  1  0  0  0  0
 26 37  1  0  0  0  0
 26 38  1  0  0  0  0
 27 39  1  0  0  0  0
 27 40  1  0  0  0  0
 51 53  1  0  0  0  0
  7 12  1  0  0  0  0
 41 46  1  0  0  0  0
 17 28  1  0  0  0  0
 24 36  1  0  0  0  0
M  CHG  1  24   1
M  END
$$$$

  -OEChem-05262214473D

 56 55  0     1  0  0  0  0  0999 V2000
    0.7735   -5.8042   -2.0022 C   0  0  0  0  0  0  0  0  0  0  0  0
   -0.2086   -6.3825   -1.5519 O   0  0  0  0  0  0  0  0  0  0  0  0
    1.4751   -6.3646   -3.1946 C   0  0  0  0  0  0  0  0  0  0  0  0
    2.2765   -7.0687   -2.9186 H   0  0  0  0  0  0  0  0  0  0  0  0
    0.7988   -6.9360   -3.8504 H   0  0  0  0  0  0  0  0  0  0  0  0
    1.9556   -5.6216   -3.8511 H   0  0  0  0  0  0  0  0  0  0  0  0
    1.3322   -4.6359   -1.5106 N   0  0  0  0  0  0  0  0  0  0  0  0
    0.8124   -3.9290   -0.3698 C   0  0  2  0  0  0  0  0  0  0  0  0
    1.0666   -2.4424   -0.5818 C   0  0  0  0  0  0  0  0  0  0  0  0
    2.0598   -2.0076   -1.1610 O   0  0  0  0  0  0  0  0  0  0  0  0
    1.4560   -4.4118    0.9207 C   0  0  0  0  0  0  0  0  0  0  0  0
    2.1528   -4.2578   -1.9805 H   0  0  0  0  0  0  0  0  0  0  0  0
   -0.2667   -4.1160   -0.3467 H   0  0  0  0  0  0  0  0  0  0  0  0
    2.5374   -4.2329    0.9160 H   0  0  0  0  0  0  0  0  0  0  0  0
    1.0390   -3.8932    1.7903 H   0  0  0  0  0  0  0  0  0  0  0  0
    1.2976   -5.4871    1.0566 H   0  0  0  0  0  0  0  0  0  0  0  0
    0.0755   -1.6529   -0.0105 N   0  0  0  0  0  0  0  0  0  0  0  0
    0.1113   -0.2132   -0.0391 C   0  0  2  0  0  0  0  0  0  0  0  0
    0.8532    0.2516    1.2095 C   0  0  0  0  0  0  0  0  0  0  0  0
    2.0746    0.3851    1.2510 O   0  0  0  0  0  0  0  0  0  0  0  0
   -1.2932    0.3970   -0.0856 C   0  0  0  0  0  0  0  0  0  0  0  0
   -2.0180    0.0949   -1.4027 C   0  0  0  0  0  0  0  0  0  0  0  0
   -3.4154    0.7047   -1.4435 C   0  0  0  0  0  0  0  0  0  0  0  0
   -4.1115    0.3950   -2.6902 N   0  3  0  0  0  0  0  0  0  0  0  0
   -5.4277    0.7939   -2.9304 C   0  0  0  0  0  0  0  0  0  0  0  0
   -6.0274    0.4634   -4.1410 N   0  0  0  0  0  0  0  0  0  0  0  0
   -6.1542    1.5148   -1.9883 N   0  0  0  0  0  0  0  0  0  0  0  0
   -0.7323   -2.1024    0.4149 H   0  0  0  0  0  0  0  0  0  0  0  0
    0.6893    0.0725   -0.9254 H   0  0  0  0  0  0  0  0  0  0  0  0
   -1.2240    1.4831    0.0493 H   0  0  0  0  0  0  0  0  0  0  0  0
   -1.8908    0.0183    0.7541 H   0  0  0  0  0  0  0  0  0  0  0  0
   -1.4270    0.4771   -2.2436 H   0  0  0  0  0  0  0  0  0  0  0  0
   -2.1091   -0.9896   -1.5322 H   0  0  0  0  0  0  0  0  0  0  0  0
   -4.0182    0.2986   -0.6254 H   0  0  0  0  0  0  0  0  0  0  0  0
   -3.3702    1.7932   -1.3407 H   0  0  0  0  0  0  0  0  0  0  0  0
   -3.6304   -0.1305   -3.4180 H   0  0  0  0  0  0  0  0  0  0  0  0
   -6.9845    0.7391   -4.3474 H   0  0  0  0  0  0  0  0  0  0  0  0
   -5.5249   -0.0628   -4.8517 H   0  0  0  0  0  0  0  0  0  0  0  0
   -7.1128    1.8077   -2.1582 H   0  0  0  0  0  0  0  0  0  0  0  0
   -5.7417    1.7702   -1.0941 H   0  0  0  0  0  0  0  0  0  0  0  0
   -0.0041    0.4514    2.2825 N   0  0  0  0  0  0  0  0  0  0  0  0
    0.4563    0.8467    3.5937 C   0  0  2  0  0  0  0  0  0  0  0  0
   -0.4736    0.2233    4.6264 C   0  0  0  0  0  0  0  0  0  0  0  0
   -1.6761    0.0574    4.4327 O   0  0  0  0  0  0  0  0  0  0  0  0
    0.4891    2.3605    3.7355 C   0  0  0  0  0  0  0  0  0  0  0  0
   -1.0053    0.3481    2.1463 H   0  0  0  0  0  0  0  0  0  0  0  0
    1.4641    0.4342    3.7127 H   0  0  0  0  0  0  0  0  0  0  0  0
   -0.5118    2.7918    3.6193 H   0  0  0  0  0  0  0  0  0  0  0  0
    0.8653    2.6587    4.7197 H   0  0  0  0  0  0  0  0  0  0  0  0
    1.1350    2.8094    2.9732 H   0  0  0  0  0  0  0  0  0  0  0  0
    0.1891   -0.0863    5.8058 N   0  0  0  0  0  0  0  0  0  0  0  0
   -0.4836   -0.6488    6.9535 C   0  0  0  0  0  0  0  0  0  0  0  0
    1.1943    0.0477    5.8642 H   0  0  0  0  0  0  0  0  0  0  0  0
   -0.8038    0.1615    7.6250 H   0  0  0  0  0  0  0  0  0  0  0  0
   -1.3639   -1.2178    6.6199 H   0  0  0  0  0  0  0  0  0  0  0  0
    0.2045   -1.3188    7.4897 H   0  0  0  0  0  0  0  0  0  0  0  0
  1  3  1  0  0  0  0
  1  7  1  0  0  0  0
  1  2  2  0  0  0  0
 42 43  1  0  0  0  0
 43 51  1  0  0  0  0
 43 44  2  0  0  0  0
  8  9  1  0  0  0  0
  9 17  1  0  0  0  0
  9 10  2  0  0  0  0
 18 19  1  0  0  0  0
 19 41  1  0  0  0  0
 19 20  2  0  0  0  0
 25 26  1  0  0  0  0
 25 27  1  0  0  0  0
 24 25  2  0  0  0  0
 42 45  1  0  0  0  0
  8 11  1  0  0  0  0
 51 52  1  0  0  0  0
 21 22  1  0  0  0  0
 22 23  1  0  0  0  0
 18 21  1  0  0  0  0
 23 24  1  0  0  0  0
 41 42  1  0  0  0  0
  7  8  1  0  0  0  0
 17 18  1  0  0  0  0
  3  4  1  0  0  0  0
  3  5  1  0  0  0  0
  3  6  1  0  0  0  0
 45 48  1  0  0  0  0
 45 49  1  0  0  0  0
 45 50  1  0  0  0  0
 11 14  1  0  0  0  0
 11 15  1  0  0  0  0
 11 16  1  0  0  0  0
 52 54  1  0  0  0  0
 52 55  1  0  0  0  0
 52 56  1  0  0  0  0
 22 32  1  0  0  0  0
 22 33  1  0  0  0  0
 21 30  1  0  0  0  0
 21 31  1  0  0  0  0
 23 34  1  0  0  0  0
 23 35  1  0  0  0  0
 42 47  1  0  0  0  0
  8 13  1  0  0  0  0
 18 29  1  0  0  0  0
 26 37  1  0  0  0  0
 26 38  1  0  0  0  0
 27 39  1  0  0  0  0
 27 40  1  0  0  0  0
 51 53  1  0  0  0  0
  7 12  1  0  0  0  0
 41 46  1  0  0  0  0
 17 28  1  0  0  0  0
 24 36  1  0  0  0  0
M  CHG  1  24   1
M  END
$$$$

  -OEChem-05262214473D

 56 55  0     1  0  0  0  0  0999 V2000
    0.7735   -5.8042   -2.0022 C   0  0  0  0  0  0  0  0  0  0  0  0
   -0.2086   -6.3825   -1.5519 O   0  0  0  0  0  0  0  0  0  0  0  0
    1.4751   -6.3646   -3.1946 C   0  0  0  0  0  0  0  0  0  0  0  0
    2.2765   -7.0687   -2.9186 H   0  0  0  0  0  0  0  0  0  0  0  0
    0.7988   -6.9360   -3.8504 H   0  0  0  0  0  0  0  0  0  0  0  0
    1.9556   -5.6216   -3.8511 H   0  0  0  0  0  0  0  0  0  0  0  0
    1.3322   -4.6359   -1.5106 N   0  0  0  0  0  0  0  0  0  0  0  0
    0.8124   -3.9290   -0.3698 C   0  0  2  0  0  0  0  0  0  0  0  0
    1.0666   -2.4424   -0.5818 C   0  0  0  0  0  0  0  0  0  0  0  0
    2.0598   -2.0076   -1.1610 O   0  0  0  0  0  0  0  0  0  0  0  0
    1.4560   -4.4118    0.9207 C   0  0  0  0  0  0  0  0  0  0  0  0
    2.1528   -4.2578   -1.9805 H   0  0  0  0  0  0  0  0  0  0  0  0
   -0.2667   -4.1160   -0.3467 H   0  0  0  0  0  0  0  0  0  0  0  0
    2.5374   -4.2329    0.9160 H   0  0  0  0  0  0  0  0  0  0  0  0
    1.0390   -3.8932    1.7903 H   0  0  0  0  0  0  0  0  0  0  0  0
    1.2976   -5.4871    1.0566 H   0  0  0  0  0  0  0  0  0  0  0  0
    0.0755   -1.6529   -0.0105 N   0  0  0  0  0  0  0  0  0  0  0  0
    0.1113   -0.2132   -0.0391 C   0  0  2  0  0  0  0  0  0  0  0  0
    0.8532    0.2516    1.2095 C   0  0  0  0  0  0  0  0  0  0  0  0
    2.0190    0.6411    1.1887 O   0  0  0  0  0  0  0  0  0  0  0  0
   -1.2932    0.3970   -0.0856 C   0  0  0  0  0  0  0  0  0  0  0  0
   -2.0180    0.0949   -1.4027 C   0  0  0  0  0  0  0  0  0  0  0  0
   -3.4154    0.7047   -1.4435 C   0  0  0  0  0  0  0  0  0  0  0  0
   -4.1115    0.3950   -2.6902 N   0  3  0  0  0  0  0  0  0  0  0  0
   -5.4277    0.7939   -2.9304 C   0  0  0  0  0  0  0  0  0  0  0  0
   -6.0274    0.4634   -4.1410 N   0  0  0  0  0  0  0  0  0  0  0  0
   -6.1542    1.5148   -1.9883 N   0  0  0  0  0  0  0  0  0  0  0  0
   -0.7323   -2.1024    0.4149 H   0  0  0  0  0  0  0  0  0  0  0  0
    0.6893    0.0725   -0.9254 H   0  0  0  0  0  0  0  0  0  0  0  0
   -1.2240    1.4831    0.0493 H   0  0  0  0  0  0  0  0  0  0  0  0
   -1.8908    0.0183    0.7541 H   0  0  0  0  0  0  0  0  0  0  0  0
   -1.4270    0.4771   -2.2436 H   0  0  0  0  0  0  0  0  0  0  0  0
   -2.1091   -0.9896   -1.5322 H   0  0  0  0  0  0  0  0  0  0  0  0
   -4.0182    0.2986   -0.6254 H   0  0  0  0  0  0  0  0  0  0  0  0
   -3.3702    1.7932   -1.3407 H   0  0  0  0  0  0  0  0  0  0  0  0
   -3.6304   -0.1305   -3.4180 H   0  0  0  0  0  0  0  0  0  0  0  0
   -6.9845    0.7391   -4.3474 H   0  0  0  0  0  0  0  0  0  0  0  0
   -5.5249   -0.0628   -4.8517 H   0  0  0  0  0  0  0  0  0  0  0  0
   -7.1128    1.8077   -2.1582 H   0  0  0  0  0  0  0  0  0  0  0  0
   -5.7417    1.7702   -1.0941 H   0  0  0  0  0  0  0  0  0  0  0  0
    0.0761    0.1332    2.3533 N   0  0  0  0  0  0  0  0  0  0  0  0
    0.5640    0.4622    3.6729 C   0  0  2  0  0  0  0  0  0  0  0  0
   -0.1172   -0.4649    4.6708 C   0  0  0  0  0  0  0  0  0  0  0  0
   -1.2721   -0.8638    4.5356 O   0  0  0  0  0  0  0  0  0  0  0  0
    0.2959    1.9197    4.0144 C   0  0  0  0  0  0  0  0  0  0  0  0
   -0.8903   -0.1682    2.2702 H   0  0  0  0  0  0  0  0  0  0  0  0
    1.6419    0.2672    3.6693 H   0  0  0  0  0  0  0  0  0  0  0  0
   -0.7790    2.1341    4.0228 H   0  0  0  0  0  0  0  0  0  0  0  0
    0.6916    2.1748    5.0030 H   0  0  0  0  0  0  0  0  0  0  0  0
    0.7617    2.5844    3.2788 H   0  0  0  0  0  0  0  0  0  0  0  0
    0.7013   -0.7596    5.7522 N   0  0  0  0  0  0  0  0  0  0  0  0
    0.2685   -1.5854    6.8553 C   0  0  0  0  0  0  0  0  0  0  0  0
    1.6580   -0.4185    5.7623 H   0  0  0  0  0  0  0  0  0  0  0  0
   -0.1489   -0.9485    7.6491 H   0  0  0  0  0  0  0  0  0  0  0  0
   -0.5020   -2.2887    6.5065 H   0  0  0  0  0  0  0  0  0  0  0  0
    1.1269   -2.1484    7.2505 H   0  0  0  0  0  0  0  0  0  0  0  0
  1  3  1  0  0  0  0
  1  7  1  0  0  0  0
  1  2  2  0  0  0  0
 42 43  1  0  0  0  0
 43 51  1  0  0  0  0
 43 44  2  0  0  0  0
  8  9  1  0  0  0  0
  9 17  1  0  0  0  0
  9 10  2  0  0  0  0
 18 19  1  0  0  0  0
 19 41  1  0  0  0  0
 19 20  2  0  0  0  0
 25 26  1  0  0  0  0
 25 27  1  0  0  0  0
 24 25  2  0  0  0  0
 42 45  1  0  0  0  0
  8 11  1  0  0  0  0
 51 52  1  0  0  0  0
 21 22  1  0  0  0  0
 22 23  1  0  0  0  0
 18 21  1  0  0  0  0
 23 24  1  0  0  0  0
 41 42  1  0  0  0  0
  7  8  1  0  0  0  0
 17 18  1  0  0  0  0
  3  4  1  0  0  0  0
  3  5  1  0  0  0  0
  3  6  1  0  0  0  0
 45 48  1  0  0  0  0
 45 49  1  0  0  0  0
 45 50  1  0  0  0  0
 11 14  1  0  0  0  0
 11 15  1  0  0  0  0
 11 16  1  0  0  0  0
 52 54  1  0  0  0  0
 52 55  1  0  0  0  0
 52 56  1  0  0  0  0
 22 32  1  0  0  0  0
 22 33  1  0  0  0  0
 21 30  1  0  0  0  0
 21 31  1  0  0  0  0
 23 34  1  0  0  0  0
 23 35  1  0  0  0  0
 42 47  1  0  0  0  0
  8 13  1  0  0  0  0
 18 29  1  0  0  0  0
 26 37  1  0  0  0  0
 26 38  1  0  0  0  0
 27 39  1  0  0  0  0
 27 40  1  0  0  0  0
 51 53  1  0  0  0  0
  7 12  1  0  0  0  0
 41 46  1  0  0  0  0
 17 28  1  0  0  0  0
 24 36  1  0  0  0  0
M  CHG  1  24   1
M  END
$$$$

  -OEChem-05262214473D

 56 55  0     1  0  0  0  0  0999 V2000
    0.7735   -5.8042   -2.0022 C   0  0  0  0  0  0  0  0  0  0  0  0
   -0.2086   -6.3825   -1.5519 O   0  0  0  0  0  0  0  0  0  0  0  0
    1.4751   -6.3646   -3.1946 C   0  0  0  0  0  0  0  0  0  0  0  0
    2.2765   -7.0687   -2.9186 H   0  0  0  0  0  0  0  0  0  0  0  0
    0.7988   -6.9360   -3.8504 H   0  0  0  0  0  0  0  0  0  0  0  0
    1.9556   -5.6216   -3.8511 H   0  0  0  0  0  0  0  0  0  0  0  0
    1.3322   -4.6359   -1.5106 N   0  0  0  0  0  0  0  0  0  0  0  0
    0.8124   -3.9290   -0.3698 C   0  0  2  0  0  0  0  0  0  0  0  0
    1.0666   -2.4424   -0.5818 C   0  0  0  0  0  0  0  0  0  0  0  0
    2.0598   -2.0076   -1.1610 O   0  0  0  0  0  0  0  0  0  0  0  0
    1.4560   -4.4118    0.9207 C   0  0  0  0  0  0  0  0  0  0  0  0
    2.1528   -4.2578   -1.9805 H   0  0  0  0  0  0  0  0  0  0  0  0
   -0.2667   -4.1160   -0.3467 H   0  0  0  0  0  0  0  0  0  0  0  0
    2.5374   -4.2329    0.9160 H   0  0  0  0  0  0  0  0  0  0  0  0
    1.0390   -3.8932    1.7903 H   0  0  0  0  0  0  0  0  0  0  0  0
    1.2976   -5.4871    1.0566 H   0  0  0  0  0  0  0  0  0  0  0  0
    0.0755   -1.6529   -0.0105 N   0  0  0  0  0  0  0  0  0  0  0  0
    0.1113   -0.2132   -0.0391 C   0  0  2  0  0  0  0  0  0  0  0  0
    0.8532    0.2516    1.2095 C   0  0  0  0  0  0  0  0  0  0  0  0
    1.9062    0.8844    1.1652 O   0  0  0  0  0  0  0  0  0  0  0  0
   -1.2932    0.3970   -0.0856 C   0  0  0  0  0  0  0  0  0  0  0  0
   -2.0180    0.0949   -1.4027 C   0  0  0  0  0  0  0  0  0  0  0  0
   -3.4154    0.7047   -1.4435 C   0  0  0  0  0  0  0  0  0  0  0  0
   -4.1115    0.3950   -2.6902 N   0  3  0  0  0  0  0  0  0  0  0  0
   -5.4277    0.7939   -2.9304 C   0  0  0  0  0  0  0  0  0  0  0  0
   -6.0274    0.4634   -4.1410 N   0  0  0  0  0  0  0  0  0  0  0  0
   -6.1542    1.5148   -1.9883 N   0  0  0  0  0  0  0  0  0  0  0  0
   -0.7323   -2.1024    0.4149 H   0  0  0  0  0  0  0  0  0  0  0  0
    0.6893    0.0725   -0.9254 H   0  0  0  0  0  0  0  0  0  0  0  0
   -1.2240    1.4831    0.0493 H   0  0  0  0  0  0  0  0  0  0  0  0
   -1.8908    0.0183    0.7541 H   0  0  0  0  0  0  0  0  0  0  0  0
   -1.4270    0.4771   -2.2436 H   0  0  0  0  0  0  0  0  0  0  0  0
   -2.1091   -0.9896   -1.5322 H   0  0  0  0  0  0  0  0  0  0  0  0
   -4.0182    0.2986   -0.6254 H   0  0  0  0  0  0  0  0  0  0  0  0
   -3.3702    1.7932   -1.3407 H   0  0  0  0  0  0  0  0  0  0  0  0
   -3.6304   -0.1305   -3.4180 H   0  0  0  0  0  0  0  0  0  0  0  0
   -6.9845    0.7391   -4.3474 H   0  0  0  0  0  0  0  0  0  0  0  0
   -5.5249   -0.0628   -4.8517 H   0  0  0  0  0  0  0  0  0  0  0  0
   -7.1128    1.8077   -2.1582 H   0  0  0  0  0  0  0  0  0  0  0  0
   -5.7417    1.7702   -1.0941 H   0  0  0  0  0  0  0  0  0  0  0  0
    0.2266   -0.1660    2.3753 N   0  0  0  0  0  0  0  0  0  0  0  0
    0.7557    0.1037    3.6924 C   0  0  2  0  0  0  0  0  0  0  0  0
    0.3763   -1.0597    4.5991 C   0  0  0  0  0  0  0  0  0  0  0  0
   -0.6785   -1.6810    4.4871 O   0  0  0  0  0  0  0  0  0  0  0  0
    0.2247    1.4179    4.2435 C   0  0  0  0  0  0  0  0  0  0  0  0
   -0.6601   -0.6580    2.3157 H   0  0  0  0  0  0  0  0  0  0  0  0
    1.8456    0.1490    3.5922 H   0  0  0  0  0  0  0  0  0  0  0  0
   -0.8658    1.3915    4.3509 H   0  0  0  0  0  0  0  0  0  0  0  0
    0.6487    1.6349    5.2295 H   0  0  0  0  0  0  0  0  0  0  0  0
    0.4728    2.2495    3.5751 H   0  0  0  0  0  0  0  0  0  0  0  0
    1.3345   -1.2947    5.5751 N   0  0  0  0  0  0  0  0  0  0  0  0
    1.1858   -2.3183    6.5831 C   0  0  0  0  0  0  0  0  0  0  0  0
    2.1967   -0.7577    5.5685 H   0  0  0  0  0  0  0  0  0  0  0  0
    0.7209   -1.8849    7.4809 H   0  0  0  0  0  0  0  0  0  0  0  0
    0.5485   -3.1261    6.1940 H   0  0  0  0  0  0  0  0  0  0  0  0
    2.1749   -2.7241    6.8422 H   0  0  0  0  0  0  0  0  0  0  0  0
  1  3  1  0  0  0  0
  1  7  1  0  0  0  0
  1  2  2  0  0  0  0
 42 43  1  0  0  0  0
 43 51  1  0  0  0  0
 43 44  2  0  0  0  0
  8  9  1  0  0  0  0
  9 17  1  0  0  0  0
  9 10  2  0  0  0  0
 18 19  1  0  0  0  0
 19 41  1  0  0  0  0
 19 20  2  0  0  0  0
 25 26  1  0  0  0  0
 25 27  1  0  0  0  0
 24 25  2  0  0  0  0
 42 45  1  0  0  0  0
  8 11  1  0  0  0  0
 51 52  1  0  0  0  0
 21 22  1  0  0  0  0
 22 23  1  0  0  0  0
 18 21  1  0  0  0  0
 23 24  1  0  0  0  0
 41 42  1  0  0  0  0
  7  8  1  0  0  0  0
 17 18  1  0  0  0  0
  3  4  1  0  0  0  0
  3  5  1  0  0  0  0
  3  6  1  0  0  0  0
 45 48  1  0  0  0  0
 45 49  1  0  0  0  0
 45 50  1  0  0  0  0
 11 14  1  0  0  0  0
 11 15  1  0  0  0  0
 11 16  1  0  0  0  0
 52 54  1  0  0  0  0
 52 55  1  0  0  0  0
 52 56  1  0  0  0  0
 22 32  1  0  0  0  0
 22 33  1  0  0  0  0
 21 30  1  0  0  0  0
 21 31  1  0  0  0  0
 23 34  1  0  0  0  0
 23 35  1  0  0  0  0
 42 47  1  0  0  0  0
  8 13  1  0  0  0  0
 18 29  1  0  0  0  0
 26 37  1  0  0  0  0
 26 38  1  0  0  0  0
 27 39  1  0  0  0  0
 27 40  1  0  0  0  0
 51 53  1  0  0  0  0
  7 12  1  0  0  0  0
 41 46  1  0  0  0  0
 17 28  1  0  0  0  0
 24 36  1  0  0  0  0
M  CHG  1  24   1
M  END
$$$$

  -OEChem-05262214473D

 56 55  0     1  0  0  0  0  0999 V2000
    0.7735   -5.8042   -2.0022 C   0  0  0  0  0  0  0  0  0  0  0  0
   -0.2086   -6.3825   -1.5519 O   0  0  0  0  0  0  0  0  0  0  0  0
    1.4751   -6.3646   -3.1946 C   0  0  0  0  0  0  0  0  0  0  0  0
    2.2765   -7.0687   -2.9186 H   0  0  0  0  0  0  0  0  0  0  0  0
    0.7988   -6.9360   -3.8504 H   0  0  0  0  0  0  0  0  0  0  0  0
    1.9556   -5.6216   -3.8511 H   0  0  0  0  0  0  0  0  0  0  0  0
    1.3322   -4.6359   -1.5106 N   0  0  0  0  0  0  0  0  0  0  0  0
    0.8124   -3.9290   -0.3698 C   0  0  2  0  0  0  0  0  0  0  0  0
    1.0666   -2.4424   -0.5818 C   0  0  0  0  0  0  0  0  0  0  0  0
    2.0598   -2.0076   -1.1610 O   0  0  0  0  0  0  0  0  0  0  0  0
    1.4560   -4.4118    0.9207 C   0  0  0  0  0  0  0  0  0  0  0  0
    2.1528   -4.2578   -1.9805 H   0  0  0  0  0  0  0  0  0  0  0  0
   -0.2667   -4.1160   -0.3467 H   0  0  0  0  0  0  0  0  0  0  0  0
    2.5374   -4.2329    0.9160 H   0  0  0  0  0  0  0  0  0  0  0  0
    1.0390   -3.8932    1.7903 H   0  0  0  0  0  0  0  0  0  0  0  0
    1.2976   -5.4871    1.0566 H   0  0  0  0  0  0  0  0  0  0  0  0
    0.0755   -1.6529   -0.0105 N   0  0  0  0  0  0  0  0  0  0  0  0
    0.1113   -0.2132   -0.0391 C   0  0  2  0  0  0  0  0  0  0  0  0
    0.8532    0.2516    1.2095 C   0  0  0  0  0  0  0  0  0  0  0  0
    1.7438    1.0986    1.1820 O   0  0  0  0  0  0  0  0  0  0  0  0
   -1.2932    0.3970   -0.0856 C   0  0  0  0  0  0  0  0  0  0  0  0
   -2.0180    0.0949   -1.4027 C   0  0  0  0  0  0  0  0  0  0  0  0
   -3.4154    0.7047   -1.4435 C   0  0  0  0  0  0  0  0  0  0  0  0
   -4.1115    0.3950   -2.6902 N   0  3  0  0  0  0  0  0  0  0  0  0
   -5.4277    0.7939   -2.9304 C   0  0  0  0  0  0  0  0  0  0  0  0
   -6.0274    0.4634   -4.1410 N   0  0  0  0  0  0  0  0  0  0  0  0
   -6.1542    1.5148   -1.9883 N   0  0  0  0  0  0  0  0  0  0  0  0
   -0.7323   -2.1024    0.4149 H   0  0  0  0  0  0  0  0  0  0  0  0
    0.6893    0.0725   -0.9254 H   0  0  0  0  0  0  0  0  0  0  0  0
   -1.2240    1.4831    0.0493 H   0  0  0  0  0  0  0  0  0  0  0  0
   -1.8908    0.0183    0.7541 H   0  0  0  0  0  0  0  0  0  0  0  0
   -1.4270    0.4771   -2.2436 H   0  0  0  0  0  0  0  0  0  0  0  0
   -2.1091   -0.9896   -1.5322 H   0  0  0  0  0  0  0  0  0  0  0  0
   -4.0182    0.2986   -0.6254 H   0  0  0  0  0  0  0  0  0  0  0  0
   -3.3702    1.7932   -1.3407 H   0  0  0  0  0  0  0  0  0  0  0  0
   -3.6304   -0.1305   -3.4180 H   0  0  0  0  0  0  0  0  0  0  0  0
   -6.9845    0.7391   -4.3474 H   0  0  0  0  0  0  0  0  0  0  0  0
   -5.5249   -0.0628   -4.8517 H   0  0  0  0  0  0  0  0  0  0  0  0
   -7.1128    1.8077   -2.1582 H   0  0  0  0  0  0  0  0  0  0  0  0
   -5.7417    1.7702   -1.0941 H   0  0  0  0  0  0  0  0  0  0  0  0
    0.4371   -0.4260    2.3470 N   0  0  0  0  0  0  0  0  0  0  0  0
    1.0184   -0.2044    3.6510 C   0  0  2  0  0  0  0  0  0  0  0  0
    0.9733   -1.5206    4.4159 C   0  0  0  0  0  0  0  0  0  0  0  0
    0.0642   -2.3384    4.2906 O   0  0  0  0  0  0  0  0  0  0  0  0
    0.2803    0.8893    4.4073 C   0  0  0  0  0  0  0  0  0  0  0  0
   -0.3302   -1.0881    2.2799 H   0  0  0  0  0  0  0  0  0  0  0  0
    2.0613    0.0878    3.4869 H   0  0  0  0  0  0  0  0  0  0  0  0
   -0.7664    0.6145    4.5811 H   0  0  0  0  0  0  0  0  0  0  0  0
    0.7396    1.0758    5.3837 H   0  0  0  0  0  0  0  0  0  0  0  0
    0.2882    1.8274    3.8419 H   0  0  0  0  0  0  0  0  0  0  0  0
    2.0455   -1.6551    5.2868 N   0  0  0  0  0  0  0  0  0  0  0  0
    2.2057   -2.7977    6.1556 C   0  0  0  0  0  0  0  0  0  0  0  0
    2.7736   -0.9469    5.2961 H   0  0  0  0  0  0  0  0  0  0  0  0
    1.7462   -2.5839    7.1319 H   0  0  0  0  0  0  0  0  0  0  0  0
    1.7161   -3.6731    5.7039 H   0  0  0  0  0  0  0  0  0  0  0  0
    3.2769   -3.0067    6.2926 H   0  0  0  0  0  0  0  0  0  0  0  0
  1  3  1  0  0  0  0
  1  7  1  0  0  0  0
  1  2  2  0  0  0  0
 42 43  1  0  0  0  0
 43 51  1  0  0  0  0
 43 44  2  0  0  0  0
  8  9  1  0  0  0  0
  9 17  1  0  0  0  0
  9 10  2  0  0  0  0
 18 19  1  0  0  0  0
 19 41  1  0  0  0  0
 19 20  2  0  0  0  0
 25 26  1  0  0  0  0
 25 27  1  0  0  0  0
 24 25  2  0  0  0  0
 42 45  1  0  0  0  0
  8 11  1  0  0  0  0
 51 52  1  0  0  0  0
 21 22  1  0  0  0  0
 22 23  1  0  0  0  0
 18 21  1  0  0  0  0
 23 24  1  0  0  0  0
 41 42  1  0  0  0  0
  7  8  1  0  0  0  0
 17 18  1  0  0  0  0
  3  4  1  0  0  0  0
  3  5  1  0  0  0  0
  3  6  1  0  0  0  0
 45 48  1  0  0  0  0
 45 49  1  0  0  0  0
 45 50  1  0  0  0  0
 11 14  1  0  0  0  0
 11 15  1  0  0  0  0
 11 16  1  0  0  0  0
 52 54  1  0  0  0  0
 52 55  1  0  0  0  0
 52 56  1  0  0  0  0
 22 32  1  0  0  0  0
 22 33  1  0  0  0  0
 21 30  1  0  0  0  0
 21 31  1  0  0  0  0
 23 34  1  0  0  0  0
 23 35  1  0  0  0  0
 42 47  1  0  0  0  0
  8 13  1  0  0  0  0
 18 29  1  0  0  0  0
 26 37  1  0  0  0  0
 26 38  1  0  0  0  0
 27 39  1  0  0  0  0
 27 40  1  0  0  0  0
 51 53  1  0  0  0  0
  7 12  1  0  0  0  0
 41 46  1  0  0  0  0
 17 28  1  0  0  0  0
 24 36  1  0  0  0  0
M  CHG  1  24   1
M  END
$$$$

  -OEChem-05262214473D

 56 55  0     1  0  0  0  0  0999 V2000
    0.7735   -5.8042   -2.0022 C   0  0  0  0  0  0  0  0  0  0  0  0
   -0.2086   -6.3825   -1.5519 O   0  0  0  0  0  0  0  0  0  0  0  0
    1.4751   -6.3646   -3.1946 C   0  0  0  0  0  0  0  0  0  0  0  0
    2.2765   -7.0687   -2.9186 H   0  0  0  0  0  0  0  0  0  0  0  0
    0.7988   -6.9360   -3.8504 H   0  0  0  0  0  0  0  0  0  0  0  0
    1.9556   -5.6216   -3.8511 H   0  0  0  0  0  0  0  0  0  0  0  0
    1.3322   -4.6359   -1.5106 N   0  0  0  0  0  0  0  0  0  0  0  0
    0.8124   -3.9290   -0.3698 C   0  0  2  0  0  0  0  0  0  0  0  0
    1.0666   -2.4424   -0.5818 C   0  0  0  0  0  0  0  0  0  0  0  0
    2.0598   -2.0076   -1.1610 O   0  0  0  0  0  0  0  0  0  0  0  0
    1.4560   -4.4118    0.9207 C   0  0  0  0  0  0  0  0  0  0  0  0
    2.1528   -4.2578   -1.9805 H   0  0  0  0  0  0  0  0  0  0  0  0
   -0.2667   -4.1160   -0.3467 H   0  0  0  0  0  0  0  0  0  0  0  0
    2.5374   -4.2329    0.9160 H   0  0  0  0  0  0  0  0  0  0  0  0
    1.0390   -3.8932    1.7903 H   0  0  0  0  0  0  0  0  0  0  0  0
    1.2976   -5.4871    1.0566 H   0  0  0  0  0  0  0  0  0  0  0  0
    0.0755   -1.6529   -0.0105 N   0  0  0  0  0  0  0  0  0  0  0  0
    0.1113   -0.2132   -0.0391 C   0  0  2  0  0  0  0  0  0  0  0  0
    0.8532    0.2516    1.2095 C   0  0  0  0  0  0  0  0  0  0  0  0
    1.5429    1.2688    1.2379 O   0  0  0  0  0  0  0  0  0  0  0  0
   -1.2932    0.3970   -0.0856 C   0  0  0  0  0  0  0  0  0  0  0  0
   -2.0180    0.0949   -1.4027 C   0  0  0  0  0  0  0  0  0  0  0  0
   -3.4154    0.7047   -1.4435 C   0  0  0  0  0  0  0  0  0  0  0  0
   -4.1115    0.3950   -2.6902 N   0  3  0  0  0  0  0  0  0  0  0  0
   -5.4277    0.7939   -2.9304 C   0  0  0  0  0  0  0  0  0  0  0  0
   -6.0274    0.4634   -4.1410 N   0  0  0  0  0  0  0  0  0  0  0  0
   -6.1542    1.5148   -1.9883 N   0  0  0  0  0  0  0  0  0  0  0  0
   -0.7323   -2.1024    0.4149 H   0  0  0  0  0  0  0  0  0  0  0  0
    0.6893    0.0725   -0.9254 H   0  0  0  0  0  0  0  0  0  0  0  0
   -1.2240    1.4831    0.0493 H   0  0  0  0  0  0  0  0  0  0  0  0
   -1.8908    0.0183    0.7541 H   0  0  0  0  0  0  0  0  0  0  0  0
   -1.4270    0.4771   -2.2436 H   0  0  0  0  0  0  0  0  0  0  0  0
   -2.1091   -0.9896   -1.5322 H   0  0  0  0  0  0  0  0  0  0  0  0
   -4.0182    0.2986   -0.6254 H   0  0  0  0  0  0  0  0  0  0  0  0
   -3.3702    1.7932   -1.3407 H   0  0  0  0  0  0  0  0  0  0  0  0
   -3.6304   -0.1305   -3.4180 H   0  0  0  0  0  0  0  0  0  0  0  0
   -6.9845    0.7391   -4.3474 H   0  0  0  0  0  0  0  0  0  0  0  0
   -5.5249   -0.0628   -4.8517 H   0  0  0  0  0  0  0  0  0  0  0  0
   -7.1128    1.8077   -2.1582 H   0  0  0  0  0  0  0  0  0  0  0  0
   -5.7417    1.7702   -1.0941 H   0  0  0  0  0  0  0  0  0  0  0  0
    0.6933   -0.6289    2.2704 N   0  0  0  0  0  0  0  0  0  0  0  0
    1.3342   -0.4411    3.5515 C   0  0  2  0  0  0  0  0  0  0  0  0
    1.6333   -1.8162    4.1338 C   0  0  0  0  0  0  0  0  0  0  0  0
    0.9054   -2.7913    3.9594 O   0  0  0  0  0  0  0  0  0  0  0  0
    0.4590    0.3698    4.4945 C   0  0  0  0  0  0  0  0  0  0  0  0
    0.0767   -1.4292    2.1651 H   0  0  0  0  0  0  0  0  0  0  0  0
    2.2744    0.0876    3.3603 H   0  0  0  0  0  0  0  0  0  0  0  0
   -0.4876   -0.1440    4.6978 H   0  0  0  0  0  0  0  0  0  0  0  0
    0.9580    0.5355    5.4550 H   0  0  0  0  0  0  0  0  0  0  0  0
    0.2203    1.3470    4.0611 H   0  0  0  0  0  0  0  0  0  0  0  0
    2.7859   -1.8162    4.9069 N   0  0  0  0  0  0  0  0  0  0  0  0
    3.2586   -2.9907    5.6019 C   0  0  0  0  0  0  0  0  0  0  0  0
    3.3494   -0.9730    4.9637 H   0  0  0  0  0  0  0  0  0  0  0  0
    2.8571   -2.9978    6.6260 H   0  0  0  0  0  0  0  0  0  0  0  0
    2.9211   -3.8922    5.0696 H   0  0  0  0  0  0  0  0  0  0  0  0
    4.3579   -2.9769    5.6392 H   0  0  0  0  0  0  0  0  0  0  0  0
  1  3  1  0  0  0  0
  1  7  1  0  0  0  0
  1  2  2  0  0  0  0
 42 43  1  0  0  0  0
 43 51  1  0  0  0  0
 43 44  2  0  0  0  0
  8  9  1  0  0  0  0
  9 17  1  0  0  0  0
  9 10  2  0  0  0  0
 18 19  1  0  0  0  0
 19 41  1  0  0  0  0
 19 20  2  0  0  0  0
 25 26  1  0  0  0  0
 25 27  1  0  0  0  0
 24 25  2  0  0  0  0
 42 45  1  0  0  0  0
  8 11  1  0  0  0  0
 51 52  1  0  0  0  0
 21 22  1  0  0  0  0
 22 23  1  0  0  0  0
 18 21  1  0  0  0  0
 23 24  1  0  0  0  0
 41 42  1  0  0  0  0
  7  8  1  0  0  0  0
 17 18  1  0  0  0  0
  3  4  1  0  0  0  0
  3  5  1  0  0  0  0
  3  6  1  0  0  0  0
 45 48  1  0  0  0  0
 45 49  1  0  0  0  0
 45 50  1  0  0  0  0
 11 14  1  0  0  0  0
 11 15  1  0  0  0  0
 11 16  1  0  0  0  0
 52 54  1  0  0  0  0
 52 55  1  0  0  0  0
 52 56  1  0  0  0  0
 22 32  1  0  0  0  0
 22 33  1  0  0  0  0
 21 30  1  0  0  0  0
 21 31  1  0  0  0  0
 23 34  1  0  0  0  0
 23 35  1  0  0  0  0
 42 47  1  0  0  0  0
  8 13  1  0  0  0  0
 18 29  1  0  0  0  0
 26 37  1  0  0  0  0
 26 38  1  0  0  0  0
 27 39  1  0  0  0  0
 27 40  1  0  0  0  0
 51 53  1  0  0  0  0
  7 12  1  0  0  0  0
 41 46  1  0  0  0  0
 17 28  1  0  0  0  0
 24 36  1  0  0  0  0
M  CHG  1  24   1
M  END
$$$$

  -OEChem-05262214473D

 56 55  0     1  0  0  0  0  0999 V2000
    0.7735   -5.8042   -2.0022 C   0  0  0  0  0  0  0  0  0  0  0  0
   -0.2086   -6.3825   -1.5519 O   0  0  0  0  0  0  0  0  0  0  0  0
    1.4751   -6.3646   -3.1946 C   0  0  0  0  0  0  0  0  0  0  0  0
    2.2765   -7.0687   -2.9186 H   0  0  0  0  0  0  0  0  0  0  0  0
    0.7988   -6.9360   -3.8504 H   0  0  0  0  0  0  0  0  0  0  0  0
    1.9556   -5.6216   -3.8511 H   0  0  0  0  0  0  0  0  0  0  0  0
    1.3322   -4.6359   -1.5106 N   0  0  0  0  0  0  0  0  0  0  0  0
    0.8124   -3.9290   -0.3698 C   0  0  2  0  0  0  0  0  0  0  0  0
    1.0666   -2.4424   -0.5818 C   0  0  0  0  0  0  0  0  0  0  0  0
    2.0598   -2.0076   -1.1610 O   0  0  0  0  0  0  0  0  0  0  0  0
    1.4560   -4.4118    0.9207 C   0  0  0  0  0  0  0  0  0  0  0  0
    2.1528   -4.2578   -1.9805 H   0  0  0  0  0  0  0  0  0  0  0  0
   -0.2667   -4.1160   -0.3467 H   0  0  0  0  0  0  0  0  0  0  0  0
    2.5374   -4.2329    0.9160 H   0  0  0  0  0  0  0  0  0  0  0  0
    1.0390   -3.8932    1.7903 H   0  0  0  0  0  0  0  0  0  0  0  0
    1.2976   -5.4871    1.0566 H   0  0  0  0  0  0  0  0  0  0  0  0
    0.0755   -1.6529   -0.0105 N   0  0  0  0  0  0  0  0  0  0  0  0
    0.1113   -0.2132   -0.0391 C   0  0  2  0  0  0  0  0  0  0  0  0
    0.8532    0.2516    1.2095 C   0  0  0  0  0  0  0  0  0  0  0  0
    1.3172    1.3837    1.3293 O   0  0  0  0  0  0  0  0  0  0  0  0
   -1.2932    0.3970   -0.0856 C   0  0  0  0  0  0  0  0  0  0  0  0
   -2.0180    0.0949   -1.4027 C   0  0  0  0  0  0  0  0  0  0  0  0
   -3.4154    0.7047   -1.4435 C   0  0  0  0  0  0  0  0  0  0  0  0
   -4.1115    0.3950   -2.6902 N   0  3  0  0  0  0  0  0  0  0  0  0
   -5.4277    0.7939   -2.9304 C   0  0  0  0  0  0  0  0  0  0  0  0
   -6.0274    0.4634   -4.1410 N   0  0  0  0  0  0  0  0  0  0  0  0
   -6.1542    1.5148   -1.9883 N   0  0  0  0  0  0  0  0  0  0  0  0
   -0.7323   -2.1024    0.4149 H   0  0  0  0  0  0  0  0  0  0  0  0
    0.6893    0.0725   -0.9254 H   0  0  0  0  0  0  0  0  0  0  0  0
   -1.2240    1.4831    0.0493 H   0  0  0  0  0  0  0  0  0  0  0  0
   -1.8908    0.0183    0.7541 H   0  0  0  0  0  0  0  0  0  0  0  0
   -1.4270    0.4771   -2.2436 H   0  0  0  0  0  0  0  0  0  0  0  0
   -2.1091   -0.9896   -1.5322 H   0  0  0  0  0  0  0  0  0  0  0  0
   -4.0182    0.2986   -0.6254 H   0  0  0  0  0  0  0  0  0  0  0  0
   -3.3702    1.7932   -1.3407 H   0  0  0  0  0  0  0  0  0  0  0  0
   -3.6304   -0.1305   -3.4180 H   0  0  0  0  0  0  0  0  0  0  0  0
   -6.9845    0.7391   -4.3474 H   0  0  0  0  0  0  0  0  0  0  0  0
   -5.5249   -0.0628   -4.8517 H   0  0  0  0  0  0  0  0  0  0  0  0
   -7.1128    1.8077   -2.1582 H   0  0  0  0  0  0  0  0  0  0  0  0
   -5.7417    1.7702   -1.0941 H   0  0  0  0  0  0  0  0  0  0  0  0
    0.9777   -0.7610    2.1505 N   0  0  0  0  0  0  0  0  0  0  0  0
    1.6815   -0.5903    3.4007 C   0  0  2  0  0  0  0  0  0  0  0  0
    2.3112   -1.9264    3.7721 C   0  0  0  0  0  0  0  0  0  0  0  0
    1.7878   -3.0088    3.5161 O   0  0  0  0  0  0  0  0  0  0  0  0
    0.7486   -0.1051    4.4993 C   0  0  0  0  0  0  0  0  0  0  0  0
    0.5329   -1.6579    1.9792 H   0  0  0  0  0  0  0  0  0  0  0  0
    2.4702    0.1485    3.2213 H   0  0  0  0  0  0  0  0  0  0  0  0
   -0.0483   -0.8323    4.6931 H   0  0  0  0  0  0  0  0  0  0  0  0
    1.2891    0.0510    5.4386 H   0  0  0  0  0  0  0  0  0  0  0  0
    0.2738    0.8410    4.2177 H   0  0  0  0  0  0  0  0  0  0  0  0
    3.5053   -1.7670    4.4612 N   0  0  0  0  0  0  0  0  0  0  0  0
    4.2729   -2.8843    4.9596 C   0  0  0  0  0  0  0  0  0  0  0  0
    3.8850   -0.8343    4.5939 H   0  0  0  0  0  0  0  0  0  0  0  0
    3.9780   -3.0986    5.9974 H   0  0  0  0  0  0  0  0  0  0  0  0
    4.0815   -3.7687    4.3341 H   0  0  0  0  0  0  0  0  0  0  0  0
    5.3442   -2.6368    4.9266 H   0  0  0  0  0  0  0  0  0  0  0  0
  1  3  1  0  0  0  0
  1  7  1  0  0  0  0
  1  2  2  0  0  0  0
 42 43  1  0  0  0  0
 43 51  1  0  0  0  0
 43 44  2  0  0  0  0
  8  9  1  0  0  0  0
  9 17  1  0  0  0  0
  9 10  2  0  0  0  0
 18 19  1  0  0  0  0
 19 41  1  0  0  0  0
 19 20  2  0  0  0  0
 25 26  1  0  0  0  0
 25 27  1  0  0  0  0
 24 25  2  0  0  0  0
 42 45  1  0  0  0  0
  8 11  1  0  0  0  0
 51 52  1  0  0  0  0
 21 22  1  0  0  0  0
 22 23  1  0  0  0  0
 18 21  1  0  0  0  0
 23 24  1  0  0  0  0
 41 42  1  0  0  0  0
  7  8  1  0  0  0  0
 17 18  1  0  0  0  0
  3  4  1  0  0  0  0
  3  5  1  0  0  0  0
  3  6  1  0  0  0  0
 45 48  1  0  0  0  0
 45 49  1  0  0  0  0
 45 50  1  0  0  0  0
 11 14  1  0  0  0  0
 11 15  1  0  0  0  0
 11 16  1  0  0  0  0
 52 54  1  0  0  0  0
 52 55  1  0  0  0  0
 52 56  1  0  0  0  0
 22 32  1  0  0  0  0
 22 33  1  0  0  0  0
 21 30  1  0  0  0  0
 21 31  1  0  0  0  0
 23 34  1  0  0  0  0
 23 35  1  0  0  0  0
 42 47  1  0  0  0  0
  8 13  1  0  0  0  0
 18 29  1  0  0  0  0
 26 37  1  0  0  0  0
 26 38  1  0  0  0  0
 27 39  1  0  0  0  0
 27 40  1  0  0  0  0
 51 53  1  0  0  0  0
  7 12  1  0  0  0  0
 41 46  1  0  0  0  0
 17 28  1  0  0  0  0
 24 36  1  0  0  0  0
M  CHG  1  24   1
M  END
$$$$

  -OEChem-05262214473D

 56 55  0     1  0  0  0  0  0999 V2000
    0.7735   -5.8042   -2.0022 C   0  0  0  0  0  0  0  0  0  0  0  0
   -0.2086   -6.3825   -1.5519 O   0  0  0  0  0  0  0  0  0  0  0  0
    1.4751   -6.3646   -3.1946 C   0  0  0  0  0  0  0  0  0  0  0  0
    2.2765   -7.0687   -2.9186 H   0  0  0  0  0  0  0  0  0  0  0  0
    0.7988   -6.9360   -3.8504 H   0  0  0  0  0  0  0  0  0  0  0  0
    1.9556   -5.6216   -3.8511 H   0  0  0  0  0  0  0  0  0  0  0  0
    1.3322   -4.6359   -1.5106 N   0  0  0  0  0  0  0  0  0  0  0  0
    0.8124   -3.9290   -0.3698 C   0  0  2  0  0  0  0  0  0  0  0  0
    1.0666   -2.4424   -0.5818 C   0  0  0  0  0  0  0  0  0  0  0  0
    2.0598   -2.0076   -1.1610 O   0  0  0  0  0  0  0  0  0  0  0  0
    1.4560   -4.4118    0.9207 C   0  0  0  0  0  0  0  0  0  0  0  0
    2.1528   -4.2578   -1.9805 H   0  0  0  0  0  0  0  0  0  0  0  0
   -0.2667   -4.1160   -0.3467 H   0  0  0  0  0  0  0  0  0  0  0  0
    2.5374   -4.2329    0.9160 H   0  0  0  0  0  0  0  0  0  0  0  0
    1.0390   -3.8932    1.7903 H   0  0  0  0  0  0  0  0  0  0  0  0
    1.2976   -5.4871    1.0566 H   0  0  0  0  0  0  0  0  0  0  0  0
    0.0755   -1.6529   -0.0105 N   0  0  0  0  0  0  0  0  0  0  0  0
    0.1113   -0.2132   -0.0391 C   0  0  2  0  0  0  0  0  0  0  0  0
    0.8532    0.2516    1.2095 C   0  0  0  0  0  0  0  0  0  0  0  0
    1.0820    1.4353    1.4498 O   0  0  0  0  0  0  0  0  0  0  0  0
   -1.2932    0.3970   -0.0856 C   0  0  0  0  0  0  0  0  0  0  0  0
   -2.0180    0.0949   -1.4027 C   0  0  0  0  0  0  0  0  0  0  0  0
   -3.4154    0.7047   -1.4435 C   0  0  0  0  0  0  0  0  0  0  0  0
   -4.1115    0.3950   -2.6902 N   0  3  0  0  0  0  0  0  0  0  0  0
   -5.4277    0.7939   -2.9304 C   0  0  0  0  0  0  0  0  0  0  0  0
   -6.0274    0.4634   -4.1410 N   0  0  0  0  0  0  0  0  0  0  0  0
   -6.1542    1.5148   -1.9883 N   0  0  0  0  0  0  0  0  0  0  0  0
   -0.7323   -2.1024    0.4149 H   0  0  0  0  0  0  0  0  0  0  0  0
    0.6893    0.0725   -0.9254 H   0  0  0  0  0  0  0  0  0  0  0  0
   -1.2240    1.4831    0.0493 H   0  0  0  0  0  0  0  0  0  0  0  0
   -1.8908    0.0183    0.7541 H   0  0  0  0  0  0  0  0  0  0  0  0
   -1.4270    0.4771   -2.2436 H   0  0  0  0  0  0  0  0  0  0  0  0
   -2.1091   -0.9896   -1.5322 H   0  0  0  0  0  0  0  0  0  0  0  0
   -4.0182    0.2986   -0.6254 H   0  0  0  0  0  0  0  0  0  0  0  0
   -3.3702    1.7932   -1.3407 H   0  0  0  0  0  0  0  0  0  0  0  0
   -3.6304   -0.1305   -3.4180 H   0  0  0  0  0  0  0  0  0  0  0  0
   -6.9845    0.7391   -4.3474 H   0  0  0  0  0  0  0  0  0  0  0  0
   -5.5249   -0.0628   -4.8517 H   0  0  0  0  0  0  0  0  0  0  0  0
   -7.1128    1.8077   -2.1582 H   0  0  0  0  0  0  0  0  0  0  0  0
   -5.7417    1.7702   -1.0941 H   0  0  0  0  0  0  0  0  0  0  0  0
    1.2709   -0.8131    1.9957 N   0  0  0  0  0  0  0  0  0  0  0  0
    2.0368   -0.6419    3.2088 C   0  0  2  0  0  0  0  0  0  0  0  0
    2.9608   -1.8436    3.3553 C   0  0  0  0  0  0  0  0  0  0  0  0
    2.6512   -2.9761    2.9909 O   0  0  0  0  0  0  0  0  0  0  0  0
    1.1293   -0.5030    4.4212 C   0  0  0  0  0  0  0  0  0  0  0  0
    1.0074   -1.7588    1.7348 H   0  0  0  0  0  0  0  0  0  0  0  0
    2.6355    0.2663    3.0792 H   0  0  0  0  0  0  0  0  0  0  0  0
    0.5214   -1.4034    4.5671 H   0  0  0  0  0  0  0  0  0  0  0  0
    1.7103   -0.3447    5.3357 H   0  0  0  0  0  0  0  0  0  0  0  0
    0.4451    0.3439    4.3010 H   0  0  0  0  0  0  0  0  0  0  0  0
    4.1546   -1.5110    3.9801 N   0  0  0  0  0  0  0  0  0  0  0  0
    5.1794   -2.4857    4.2726 C   0  0  0  0  0  0  0  0  0  0  0  0
    4.3437   -0.5403    4.2119 H   0  0  0  0  0  0  0  0  0  0  0  0
    5.0325   -2.8792    5.2892 H   0  0  0  0  0  0  0  0  0  0  0  0
    5.1181   -3.3109    3.5478 H   0  0  0  0  0  0  0  0  0  0  0  0
    6.1686   -2.0096    4.2032 H   0  0  0  0  0  0  0  0  0  0  0  0
  1  3  1  0  0  0  0
  1  7  1  0  0  0  0
  1  2  2  0  0  0  0
 42 43  1  0  0  0  0
 43 51  1  0  0  0  0
 43 44  2  0  0  0  0
  8  9  1  0  0  0  0
  9 17  1  0  0  0  0
  9 10  2  0  0  0  0
 18 19  1  0  0  0  0
 19 41  1  0  0  0  0
 19 20  2  0  0  0  0
 25 26  1  0  0  0  0
 25 27  1  0  0  0  0
 24 25  2  0  0  0  0
 42 45  1  0  0  0  0
  8 11  1  0  0  0  0
 51 52  1  0  0  0  0
 21 22  1  0  0  0  0
 22 23  1  0  0  0  0
 18 21  1  0  0  0  0
 23 24  1  0  0  0  0
 41 42  1  0  0  0  0
  7  8  1  0  0  0  0
 17 18  1  0  0  0  0
  3  4  1  0  0  0  0
  3  5  1  0  0  0  0
  3  6  1  0  0  0  0
 45 48  1  0  0  0  0
 45 49  1  0  0  0  0
 45 50  1  0  0  0  0
 11 14  1  0  0  0  0
 11 15  1  0  0  0  0
 11 16  1  0  0  0  0
 52 54  1  0  0  0  0
 52 55  1  0  0  0  0
 52 56  1  0  0  0  0
 22 32  1  0  0  0  0
 22 33  1  0  0  0  0
 21 30  1  0  0  0  0
 21 31  1  0  0  0  0
 23 34  1  0  0  0  0
 23 35  1  0  0  0  0
 42 47  1  0  0  0  0
  8 13  1  0  0  0  0
 18 29  1  0  0  0  0
 26 37  1  0  0  0  0
 26 38  1  0  0  0  0
 27 39  1  0  0  0  0
 27 40  1  0  0  0  0
 51 53  1  0  0  0  0
  7 12  1  0  0  0  0
 41 46  1  0  0  0  0
 17 28  1  0  0  0  0
 24 36  1  0  0  0  0
M  CHG  1  24   1
M  END
$$$$

  -OEChem-05262214473D

 56 55  0     1  0  0  0  0  0999 V2000
    0.7735   -5.8042   -2.0022 C   0  0  0  0  0  0  0  0  0  0  0  0
   -0.2086   -6.3825   -1.5519 O   0  0  0  0  0  0  0  0  0  0  0  0
    1.4751   -6.3646   -3.1946 C   0  0  0  0  0  0  0  0  0  0  0  0
    2.2765   -7.0687   -2.9186 H   0  0  0  0  0  0  0  0  0  0  0  0
    0.7988   -6.9360   -3.8504 H   0  0  0  0  0  0  0  0  0  0  0  0
    1.9556   -5.6216   -3.8511 H   0  0  0  0  0  0  0  0  0  0  0  0
    1.3322   -4.6359   -1.5106 N   0  0  0  0  0  0  0  0  0  0  0  0
    0.8124   -3.9290   -0.3698 C   0  0  2  0  0  0  0  0  0  0  0  0
    1.0666   -2.4424   -0.5818 C   0  0  0  0  0  0  0  0  0  0  0  0
    2.0598   -2.0076   -1.1610 O   0  0  0  0  0  0  0  0  0  0  0  0
    1.4560   -4.4118    0.9207 C   0  0  0  0  0  0  0  0  0  0  0  0
    2.1528   -4.2578   -1.9805 H   0  0  0  0  0  0  0  0  0  0  0  0
   -0.2667   -4.1160   -0.3467 H   0  0  0  0  0  0  0  0  0  0  0  0
    2.5374   -4.2329    0.9160 H   0  0  0  0  0  0  0  0  0  0  0  0
    1.0390   -3.8932    1.7903 H   0  0  0  0  0  0  0  0  0  0  0  0
    1.2976   -5.4871    1.0566 H   0  0  0  0  0  0  0  0  0  0  0  0
    0.0755   -1.6529   -0.0105 N   0  0  0  0  0  0  0  0  0  0  0  0
    0.1113   -0.2132   -0.0391 C   0  0  2  0  0  0  0  0  0  0  0  0
    0.8532    0.2516    1.2095 C   0  0  0  0  0  0  0  0  0  0  0  0
    0.8534    1.4201    1.5913 O   0  0  0  0  0  0  0  0  0  0  0  0
   -1.2932    0.3970   -0.0856 C   0  0  0  0  0  0  0  0  0  0  0  0
   -2.0180    0.0949   -1.4027 C   0  0  0  0  0  0  0  0  0  0  0  0
   -3.4154    0.7047   -1.4435 C   0  0  0  0  0  0  0  0  0  0  0  0
   -4.1115    0.3950   -2.6902 N   0  3  0  0  0  0  0  0  0  0  0  0
   -5.4277    0.7939   -2.9304 C   0  0  0  0  0  0  0  0  0  0  0  0
   -6.0274    0.4634   -4.1410 N   0  0  0  0  0  0  0  0  0  0  0  0
   -6.1542    1.5148   -1.9883 N   0  0  0  0  0  0  0  0  0  0  0  0
   -0.7323   -2.1024    0.4149 H   0  0  0  0  0  0  0  0  0  0  0  0
    0.6893    0.0725   -0.9254 H   0  0  0  0  0  0  0  0  0  0  0  0
   -1.2240    1.4831    0.0493 H   0  0  0  0  0  0  0  0  0  0  0  0
   -1.8908    0.0183    0.7541 H   0  0  0  0  0  0  0  0  0  0  0  0
   -1.4270    0.4771   -2.2436 H   0  0  0  0  0  0  0  0  0  0  0  0
   -2.1091   -0.9896   -1.5322 H   0  0  0  0  0  0  0  0  0  0  0  0
   -4.0182    0.2986   -0.6254 H   0  0  0  0  0  0  0  0  0  0  0  0
   -3.3702    1.7932   -1.3407 H   0  0  0  0  0  0  0  0  0  0  0  0
   -3.6304   -0.1305   -3.4180 H   0  0  0  0  0  0  0  0  0  0  0  0
   -6.9845    0.7391   -4.3474 H   0  0  0  0  0  0  0  0  0  0  0  0
   -5.5249   -0.0628   -4.8517 H   0  0  0  0  0  0  0  0  0  0  0  0
   -7.1128    1.8077   -2.1582 H   0  0  0  0  0  0  0  0  0  0  0  0
   -5.7417    1.7702   -1.0941 H   0  0  0  0  0  0  0  0  0  0  0  0
    1.5530   -0.7819    1.8165 N   0  0  0  0  0  0  0  0  0  0  0  0
    2.3757   -0.5922    2.9890 C   0  0  2  0  0  0  0  0  0  0  0  0
    3.5378   -1.5735    2.9119 C   0  0  0  0  0  0  0  0  0  0  0  0
    3.4369   -2.6954    2.4195 O   0  0  0  0  0  0  0  0  0  0  0  0
    1.5752   -0.7969    4.2657 C   0  0  0  0  0  0  0  0  0  0  0  0
    1.4679   -1.7248    1.4486 H   0  0  0  0  0  0  0  0  0  0  0  0
    2.7590    0.4330    2.9438 H   0  0  0  0  0  0  0  0  0  0  0  0
    1.1829   -1.8185    4.3286 H   0  0  0  0  0  0  0  0  0  0  0  0
    2.1929   -0.6248    5.1532 H   0  0  0  0  0  0  0  0  0  0  0  0
    0.7225   -0.1105    4.3053 H   0  0  0  0  0  0  0  0  0  0  0  0
    4.6895   -1.0655    3.4964 N   0  0  0  0  0  0  0  0  0  0  0  0
    5.9164   -1.8221    3.5876 C   0  0  0  0  0  0  0  0  0  0  0  0
    4.6943   -0.1110    3.8437 H   0  0  0  0  0  0  0  0  0  0  0  0
    5.9487   -2.3546    4.5496 H   0  0  0  0  0  0  0  0  0  0  0  0
    5.9603   -2.5500    2.7641 H   0  0  0  0  0  0  0  0  0  0  0  0
    6.7749   -1.1379    3.5184 H   0  0  0  0  0  0  0  0  0  0  0  0
  1  3  1  0  0  0  0
  1  7  1  0  0  0  0
  1  2  2  0  0  0  0
 42 43  1  0  0  0  0
 43 51  1  0  0  0  0
 43 44  2  0  0  0  0
  8  9  1  0  0  0  0
  9 17  1  0  0  0  0
  9 10  2  0  0  0  0
 18 19  1  0  0  0  0
 19 41  1  0  0  0  0
 19 20  2  0  0  0  0
 25 26  1  0  0  0  0
 25 27  1  0  0  0  0
 24 25  2  0  0  0  0
 42 45  1  0  0  0  0
  8 11  1  0  0  0  0
 51 52  1  0  0  0  0
 21 22  1  0  0  0  0
 22 23  1  0  0  0  0
 18 21  1  0  0  0  0
 23 24  1  0  0  0  0
 41 42  1  0  0  0  0
  7  8  1  0  0  0  0
 17 18  1  0  0  0  0
  3  4  1  0  0  0  0
  3  5  1  0  0  0  0
  3  6  1  0  0  0  0
 45 48  1  0  0  0  0
 45 49  1  0  0  0  0
 45 50  1  0  0  0  0
 11 14  1  0  0  0  0
 11 15  1  0  0  0  0
 11 16  1  0  0  0  0
 52 54  1  0  0  0  0
 52 55  1  0  0  0  0
 52 56  1  0  0  0  0
 22 32  1  0  0  0  0
 22 33  1  0  0  0  0
 21 30  1  0  0  0  0
 21 31  1  0  0  0  0
 23 34  1  0  0  0  0
 23 35  1  0  0  0  0
 42 47  1  0  0  0  0
  8 13  1  0  0  0  0
 18 29  1  0  0  0  0
 26 37  1  0  0  0  0
 26 38  1  0  0  0  0
 27 39  1  0  0  0  0
 27 40  1  0  0  0  0
 51 53  1  0  0  0  0
  7 12  1  0  0  0  0
 41 46  1  0  0  0  0
 17 28  1  0  0  0  0
 24 36  1  0  0  0  0
M  CHG  1  24   1
M  END
$$$$

  -OEChem-05262214473D

 56 55  0     1  0  0  0  0  0999 V2000
    0.7735   -5.8042   -2.0022 C   0  0  0  0  0  0  0  0  0  0  0  0
   -0.2086   -6.3825   -1.5519 O   0  0  0  0  0  0  0  0  0  0  0  0
    1.4751   -6.3646   -3.1946 C   0  0  0  0  0  0  0  0  0  0  0  0
    2.2765   -7.0687   -2.9186 H   0  0  0  0  0  0  0  0  0  0  0  0
    0.7988   -6.9360   -3.8504 H   0  0  0  0  0  0  0  0  0  0  0  0
    1.9556   -5.6216   -3.8511 H   0  0  0  0  0  0  0  0  0  0  0  0
    1.3322   -4.6359   -1.5106 N   0  0  0  0  0  0  0  0  0  0  0  0
    0.8124   -3.9290   -0.3698 C   0  0  2  0  0  0  0  0  0  0  0  0
    1.0666   -2.4424   -0.5818 C   0  0  0  0  0  0  0  0  0  0  0  0
    2.0598   -2.0076   -1.1610 O   0  0  0  0  0  0  0  0  0  0  0  0
    1.4560   -4.4118    0.9207 C   0  0  0  0  0  0  0  0  0  0  0  0
    2.1528   -4.2578   -1.9805 H   0  0  0  0  0  0  0  0  0  0  0  0
   -0.2667   -4.1160   -0.3467 H   0  0  0  0  0  0  0  0  0  0  0  0
    2.5374   -4.2329    0.9160 H   0  0  0  0  0  0  0  0  0  0  0  0
    1.0390   -3.8932    1.7903 H   0  0  0  0  0  0  0  0  0  0  0  0
    1.2976   -5.4871    1.0566 H   0  0  0  0  0  0  0  0  0  0  0  0
    0.0755   -1.6529   -0.0105 N   0  0  0  0  0  0  0  0  0  0  0  0
    0.1113   -0.2132   -0.0391 C   0  0  2  0  0  0  0  0  0  0  0  0
    0.8532    0.2516    1.2095 C   0  0  0  0  0  0  0  0  0  0  0  0
    0.6470    1.3392    1.7441 O   0  0  0  0  0  0  0  0  0  0  0  0
   -1.2932    0.3970   -0.0856 C   0  0  0  0  0  0  0  0  0  0  0  0
   -2.0180    0.0949   -1.4027 C   0  0  0  0  0  0  0  0  0  0  0  0
   -3.4154    0.7047   -1.4435 C   0  0  0  0  0  0  0  0  0  0  0  0
   -4.1115    0.3950   -2.6902 N   0  3  0  0  0  0  0  0  0  0  0  0
   -5.4277    0.7939   -2.9304 C   0  0  0  0  0  0  0  0  0  0  0  0
   -6.0274    0.4634   -4.1410 N   0  0  0  0  0  0  0  0  0  0  0  0
   -6.1542    1.5148   -1.9883 N   0  0  0  0  0  0  0  0  0  0  0  0
   -0.7323   -2.1024    0.4149 H   0  0  0  0  0  0  0  0  0  0  0  0
    0.6893    0.0725   -0.9254 H   0  0  0  0  0  0  0  0  0  0  0  0
   -1.2240    1.4831    0.0493 H   0  0  0  0  0  0  0  0  0  0  0  0
   -1.8908    0.0183    0.7541 H   0  0  0  0  0  0  0  0  0  0  0  0
   -1.4270    0.4771   -2.2436 H   0  0  0  0  0  0  0  0  0  0  0  0
   -2.1091   -0.9896   -1.5322 H   0  0  0  0  0  0  0  0  0  0  0  0
   -4.0182    0.2986   -0.6254 H   0  0  0  0  0  0  0  0  0  0  0  0
   -3.3702    1.7932   -1.3407 H   0  0  0  0  0  0  0  0  0  0  0  0
   -3.6304   -0.1305   -3.4180 H   0  0  0  0  0  0  0  0  0  0  0  0
   -6.9845    0.7391   -4.3474 H   0  0  0  0  0  0  0  0  0  0  0  0
   -5.5249   -0.0628   -4.8517 H   0  0  0  0  0  0  0  0  0  0  0  0
   -7.1128    1.8077   -2.1582 H   0  0  0  0  0  0  0  0  0  0  0  0
   -5.7417    1.7702   -1.0941 H   0  0  0  0  0  0  0  0  0  0  0  0
    1.8047   -0.6694    1.6251 N   0  0  0  0  0  0  0  0  0  0  0  0
    2.6752   -0.4447    2.7561 C   0  0  2  0  0  0  0  0  0  0  0  0
    4.0029   -1.1345    2.4721 C   0  0  0  0  0  0  0  0  0  0  0  0
    4.0912   -2.1858    1.8411 O   0  0  0  0  0  0  0  0  0  0  0  0
    2.0559   -0.9667    4.0432 C   0  0  0  0  0  0  0  0  0  0  0  0
    1.8828   -1.5585    1.1401 H   0  0  0  0  0  0  0  0  0  0  0  0
    2.8323    0.6373    2.8242 H   0  0  0  0  0  0  0  0  0  0  0  0
    1.8910   -2.0492    3.9938 H   0  0  0  0  0  0  0  0  0  0  0  0
    2.7040   -0.7701    4.9036 H   0  0  0  0  0  0  0  0  0  0  0  0
    1.0870   -0.4911    4.2304 H   0  0  0  0  0  0  0  0  0  0  0  0
    5.0736   -0.4610    3.0431 N   0  0  0  0  0  0  0  0  0  0  0  0
    6.4336   -0.9387    2.9515 C   0  0  0  0  0  0  0  0  0  0  0  0
    4.9130    0.4243    3.5145 H   0  0  0  0  0  0  0  0  0  0  0  0
    6.6641   -1.5607    3.8289 H   0  0  0  0  0  0  0  0  0  0  0  0
    6.5508   -1.5378    2.0364 H   0  0  0  0  0  0  0  0  0  0  0  0
    7.1218   -0.0812    2.9189 H   0  0  0  0  0  0  0  0  0  0  0  0
  1  3  1  0  0  0  0
  1  7  1  0  0  0  0
  1  2  2  0  0  0  0
 42 43  1  0  0  0  0
 43 51  1  0  0  0  0
 43 44  2  0  0  0  0
  8  9  1  0  0  0  0
  9 17  1  0  0  0  0
  9 10  2  0  0  0  0
 18 19  1  0  0  0  0
 19 41  1  0  0  0  0
 19 20  2  0  0  0  0
 25 26  1  0  0  0  0
 25 27  1  0  0  0  0
 24 25  2  0  0  0  0
 42 45  1  0  0  0  0
  8 11  1  0  0  0  0
 51 52  1  0  0  0  0
 21 22  1  0  0  0  0
 22 23  1  0  0  0  0
 18 21  1  0  0  0  0
 23 24  1  0  0  0  0
 41 42  1  0  0  0  0
  7  8  1  0  0  0  0
 17 18  1  0  0  0  0
  3  4  1  0  0  0  0
  3  5  1  0  0  0  0
  3  6  1  0  0  0  0
 45 48  1  0  0  0  0
 45 49  1  0  0  0  0
 45 50  1  0  0  0  0
 11 14  1  0  0  0  0
 11 15  1  0  0  0  0
 11 16  1  0  0  0  0
 52 54  1  0  0  0  0
 52 55  1  0  0  0  0
 52 56  1  0  0  0  0
 22 32  1  0  0  0  0
 22 33  1  0  0  0  0
 21 30  1  0  0  0  0
 21 31  1  0  0  0  0
 23 34  1  0  0  0  0
 23 35  1  0  0  0  0
 42 47  1  0  0  0  0
  8 13  1  0  0  0  0
 18 29  1  0  0  0  0
 26 37  1  0  0  0  0
 26 38  1  0  0  0  0
 27 39  1  0  0  0  0
 27 40  1  0  0  0  0
 51 53  1  0  0  0  0
  7 12  1  0  0  0  0
 41 46  1  0  0  0  0
 17 28  1  0  0  0  0
 24 36  1  0  0  0  0
M  CHG  1  24   1
M  END
$$$$

  -OEChem-05262214473D

 56 55  0     1  0  0  0  0  0999 V2000
    0.7735   -5.8042   -2.0022 C   0  0  0  0  0  0  0  0  0  0  0  0
   -0.2086   -6.3825   -1.5519 O   0  0  0  0  0  0  0  0  0  0  0  0
    1.4751   -6.3646   -3.1946 C   0  0  0  0  0  0  0  0  0  0  0  0
    2.2765   -7.0687   -2.9186 H   0  0  0  0  0  0  0  0  0  0  0  0
    0.7988   -6.9360   -3.8504 H   0  0  0  0  0  0  0  0  0  0  0  0
    1.9556   -5.6216   -3.8511 H   0  0  0  0  0  0  0  0  0  0  0  0
    1.3322   -4.6359   -1.5106 N   0  0  0  0  0  0  0  0  0  0  0  0
    0.8124   -3.9290   -0.3698 C   0  0  2  0  0  0  0  0  0  0  0  0
    1.0666   -2.4424   -0.5818 C   0  0  0  0  0  0  0  0  0  0  0  0
    2.0598   -2.0076   -1.1610 O   0  0  0  0  0  0  0  0  0  0  0  0
    1.4560   -4.4118    0.9207 C   0  0  0  0  0  0  0  0  0  0  0  0
    2.1528   -4.2578   -1.9805 H   0  0  0  0  0  0  0  0  0  0  0  0
   -0.2667   -4.1160   -0.3467 H   0  0  0  0  0  0  0  0  0  0  0  0
    2.5374   -4.2329    0.9160 H   0  0  0  0  0  0  0  0  0  0  0  0
    1.0390   -3.8932    1.7903 H   0  0  0  0  0  0  0  0  0  0  0  0
    1.2976   -5.4871    1.0566 H   0  0  0  0  0  0  0  0  0  0  0  0
    0.0755   -1.6529   -0.0105 N   0  0  0  0  0  0  0  0  0  0  0  0
    0.1113   -0.2132   -0.0391 C   0  0  2  0  0  0  0  0  0  0  0  0
    0.8532    0.2516    1.2095 C   0  0  0  0  0  0  0  0  0  0  0  0
    0.4768    1.1981    1.8977 O   0  0  0  0  0  0  0  0  0  0  0  0
   -1.2932    0.3970   -0.0856 C   0  0  0  0  0  0  0  0  0  0  0  0
   -2.0180    0.0949   -1.4027 C   0  0  0  0  0  0  0  0  0  0  0  0
   -3.4154    0.7047   -1.4435 C   0  0  0  0  0  0  0  0  0  0  0  0
   -4.1115    0.3950   -2.6902 N   0  3  0  0  0  0  0  0  0  0  0  0
   -5.4277    0.7939   -2.9304 C   0  0  0  0  0  0  0  0  0  0  0  0
   -6.0274    0.4634   -4.1410 N   0  0  0  0  0  0  0  0  0  0  0  0
   -6.1542    1.5148   -1.9883 N   0  0  0  0  0  0  0  0  0  0  0  0
   -0.7323   -2.1024    0.4149 H   0  0  0  0  0  0  0  0  0  0  0  0
    0.6893    0.0725   -0.9254 H   0  0  0  0  0  0  0  0  0  0  0  0
   -1.2240    1.4831    0.0493 H   0  0  0  0  0  0  0  0  0  0  0  0
   -1.8908    0.0183    0.7541 H   0  0  0  0  0  0  0  0  0  0  0  0
   -1.4270    0.4771   -2.2436 H   0  0  0  0  0  0  0  0  0  0  0  0
   -2.1091   -0.9896   -1.5322 H   0  0  0  0  0  0  0  0  0  0  0  0
   -4.0182    0.2986   -0.6254 H   0  0  0  0  0  0  0  0  0  0  0  0
   -3.3702    1.7932   -1.3407 H   0  0  0  0  0  0  0  0  0  0  0  0
   -3.6304   -0.1305   -3.4180 H   0  0  0  0  0  0  0  0  0  0  0  0
   -6.9845    0.7391   -4.3474 H   0  0  0  0  0  0  0  0  0  0  0  0
   -5.5249   -0.0628   -4.8517 H   0  0  0  0  0  0  0  0  0  0  0  0
   -7.1128    1.8077   -2.1582 H   0  0  0  0  0  0  0  0  0  0  0  0
   -5.7417    1.7702   -1.0941 H   0  0  0  0  0  0  0  0  0  0  0  0
    2.0089   -0.4833    1.4344 N   0  0  0  0  0  0  0  0  0  0  0  0
    2.9148   -0.2095    2.5261 C   0  0  2  0  0  0  0  0  0  0  0  0
    4.3245   -0.5565    2.0658 C   0  0  0  0  0  0  0  0  0  0  0  0
    4.5696   -1.4821    1.2948 O   0  0  0  0  0  0  0  0  0  0  0  0
    2.5386   -1.0008    3.7691 C   0  0  0  0  0  0  0  0  0  0  0  0
    2.2241   -1.2710    0.8303 H   0  0  0  0  0  0  0  0  0  0  0  0
    2.8503    0.8652    2.7286 H   0  0  0  0  0  0  0  0  0  0  0  0
    2.5974   -2.0798    3.5855 H   0  0  0  0  0  0  0  0  0  0  0  0
    3.2088   -0.7706    4.6039 H   0  0  0  0  0  0  0  0  0  0  0  0
    1.5139   -0.7721    4.0814 H   0  0  0  0  0  0  0  0  0  0  0  0
    5.2808    0.2615    2.6510 N   0  0  0  0  0  0  0  0  0  0  0  0
    6.6957    0.1044    2.4074 C   0  0  0  0  0  0  0  0  0  0  0  0
    4.9848    1.0292    3.2466 H   0  0  0  0  0  0  0  0  0  0  0  0
    7.1301   -0.5514    3.1763 H   0  0  0  0  0  0  0  0  0  0  0  0
    6.8492   -0.3434    1.4145 H   0  0  0  0  0  0  0  0  0  0  0  0
    7.1857    1.0885    2.4455 H   0  0  0  0  0  0  0  0  0  0  0  0
  1  3  1  0  0  0  0
  1  7  1  0  0  0  0
  1  2  2  0  0  0  0
 42 43  1  0  0  0  0
 43 51  1  0  0  0  0
 43 44  2  0  0  0  0
  8  9  1  0  0  0  0
  9 17  1  0  0  0  0
  9 10  2  0  0  0  0
 18 19  1  0  0  0  0
 19 41  1  0  0  0  0
 19 20  2  0  0  0  0
 25 26  1  0  0  0  0
 25 27  1  0  0  0  0
 24 25  2  0  0  0  0
 42 45  1  0  0  0  0
  8 11  1  0  0  0  0
 51 52  1  0  0  0  0
 21 22  1  0  0  0  0
 22 23  1  0  0  0  0
 18 21  1  0  0  0  0
 23 24  1  0  0  0  0
 41 42  1  0  0  0  0
  7  8  1  0  0  0  0
 17 18  1  0  0  0  0
  3  4  1  0  0  0  0
  3  5  1  0  0  0  0
  3  6  1  0  0  0  0
 45 48  1  0  0  0  0
 45 49  1  0  0  0  0
 45 50  1  0  0  0  0
 11 14  1  0  0  0  0
 11 15  1  0  0  0  0
 11 16  1  0  0  0  0
 52 54  1  0  0  0  0
 52 55  1  0  0  0  0
 52 56  1  0  0  0  0
 22 32  1  0  0  0  0
 22 33  1  0  0  0  0
 21 30  1  0  0  0  0
 21 31  1  0  0  0  0
 23 34  1  0  0  0  0
 23 35  1  0  0  0  0
 42 47  1  0  0  0  0
  8 13  1  0  0  0  0
 18 29  1  0  0  0  0
 26 37  1  0  0  0  0
 26 38  1  0  0  0  0
 27 39  1  0  0  0  0
 27 40  1  0  0  0  0
 51 53  1  0  0  0  0
  7 12  1  0  0  0  0
 41 46  1  0  0  0  0
 17 28  1  0  0  0  0
 24 36  1  0  0  0  0
M  CHG  1  24   1
M  END
$$$$

  -OEChem-05262214473D

 56 55  0     1  0  0  0  0  0999 V2000
    0.7735   -5.8042   -2.0022 C   0  0  0  0  0  0  0  0  0  0  0  0
   -0.2086   -6.3825   -1.5519 O   0  0  0  0  0  0  0  0  0  0  0  0
    1.4751   -6.3646   -3.1946 C   0  0  0  0  0  0  0  0  0  0  0  0
    2.2765   -7.0687   -2.9186 H   0  0  0  0  0  0  0  0  0  0  0  0
    0.7988   -6.9360   -3.8504 H   0  0  0  0  0  0  0  0  0  0  0  0
    1.9556   -5.6216   -3.8511 H   0  0  0  0  0  0  0  0  0  0  0  0
    1.3322   -4.6359   -1.5106 N   0  0  0  0  0  0  0  0  0  0  0  0
    0.8124   -3.9290   -0.3698 C   0  0  2  0  0  0  0  0  0  0  0  0
    1.0666   -2.4424   -0.5818 C   0  0  0  0  0  0  0  0  0  0  0  0
    2.0598   -2.0076   -1.1610 O   0  0  0  0  0  0  0  0  0  0  0  0
    1.4560   -4.4118    0.9207 C   0  0  0  0  0  0  0  0  0  0  0  0
    2.1528   -4.2578   -1.9805 H   0  0  0  0  0  0  0  0  0  0  0  0
   -0.2667   -4.1160   -0.3467 H   0  0  0  0  0  0  0  0  0  0  0  0
    2.5374   -4.2329    0.9160 H   0  0  0  0  0  0  0  0  0  0  0  0
    1.0390   -3.8932    1.7903 H   0  0  0  0  0  0  0  0  0  0  0  0
    1.2976   -5.4871    1.0566 H   0  0  0  0  0  0  0  0  0  0  0  0
    0.0755   -1.6529   -0.0105 N   0  0  0  0  0  0  0  0  0  0  0  0
    0.1113   -0.2132   -0.0391 C   0  0  2  0  0  0  0  0  0  0  0  0
    0.8532    0.2516    1.2095 C   0  0  0  0  0  0  0  0  0  0  0  0
    0.3544    1.0063    2.0418 O   0  0  0  0  0  0  0  0  0  0  0  0
   -1.2932    0.3970   -0.0856 C   0  0  0  0  0  0  0  0  0  0  0  0
   -2.0180    0.0949   -1.4027 C   0  0  0  0  0  0  0  0  0  0  0  0
   -3.4154    0.7047   -1.4435 C   0  0  0  0  0  0  0  0  0  0  0  0
   -4.1115    0.3950   -2.6902 N   0  3  0  0  0  0  0  0  0  0  0  0
   -5.4277    0.7939   -2.9304 C   0  0  0  0  0  0  0  0  0  0  0  0
   -6.0274    0.4634   -4.1410 N   0  0  0  0  0  0  0  0  0  0  0  0
   -6.1542    1.5148   -1.9883 N   0  0  0  0  0  0  0  0  0  0  0  0
   -0.7323   -2.1024    0.4149 H   0  0  0  0  0  0  0  0  0  0  0  0
    0.6893    0.0725   -0.9254 H   0  0  0  0  0  0  0  0  0  0  0  0
   -1.2240    1.4831    0.0493 H   0  0  0  0  0  0  0  0  0  0  0  0
   -1.8908    0.0183    0.7541 H   0  0  0  0  0  0  0  0  0  0  0  0
   -1.4270    0.4771   -2.2436 H   0  0  0  0  0  0  0  0  0  0  0  0
   -2.1091   -0.9896   -1.5322 H   0  0  0  0  0  0  0  0  0  0  0  0
   -4.0182    0.2986   -0.6254 H   0  0  0  0  0  0  0  0  0  0  0  0
   -3.3702    1.7932   -1.3407 H   0  0  0  0  0  0  0  0  0  0  0  0
   -3.6304   -0.1305   -3.4180 H   0  0  0  0  0  0  0  0  0  0  0  0
   -6.9845    0.7391   -4.3474 H   0  0  0  0  0  0  0  0  0  0  0  0
   -5.5249   -0.0628   -4.8517 H   0  0  0  0  0  0  0  0  0  0  0  0
   -7.1128    1.8077   -2.1582 H   0  0  0  0  0  0  0  0  0  0  0  0
   -5.7417    1.7702   -1.0941 H   0  0  0  0  0  0  0  0  0  0  0  0
    2.1517   -0.2363    1.2576 N   0  0  0  0  0  0  0  0  0  0  0  0
    3.0783    0.0975    2.3147 C   0  0  2  0  0  0  0  0  0  0  0  0
    4.4806    0.1211    1.7209 C   0  0  0  0  0  0  0  0  0  0  0  0
    4.8394   -0.6322    0.8181 O   0  0  0  0  0  0  0  0  0  0  0  0
    2.9905   -0.8969    3.4619 C   0  0  0  0  0  0  0  0  0  0  0  0
    2.4683   -0.8820    0.5403 H   0  0  0  0  0  0  0  0  0  0  0  0
    2.8119    1.1012    2.6636 H   0  0  0  0  0  0  0  0  0  0  0  0
    3.2540   -1.9083    3.1315 H   0  0  0  0  0  0  0  0  0  0  0  0
    3.6729   -0.6265    4.2745 H   0  0  0  0  0  0  0  0  0  0  0  0
    1.9741   -0.9343    3.8684 H   0  0  0  0  0  0  0  0  0  0  0  0
    5.2969    1.0526    2.3469 N   0  0  0  0  0  0  0  0  0  0  0  0
    6.6850    1.2359    1.9925 C   0  0  0  0  0  0  0  0  0  0  0  0
    4.9049    1.6624    3.0584 H   0  0  0  0  0  0  0  0  0  0  0  0
    7.3148    0.6044    2.6363 H   0  0  0  0  0  0  0  0  0  0  0  0
    6.8353    0.9519    0.9405 H   0  0  0  0  0  0  0  0  0  0  0  0
    6.9622    2.2914    2.1305 H   0  0  0  0  0  0  0  0  0  0  0  0
  1  3  1  0  0  0  0
  1  7  1  0  0  0  0
  1  2  2  0  0  0  0
 42 43  1  0  0  0  0
 43 51  1  0  0  0  0
 43 44  2  0  0  0  0
  8  9  1  0  0  0  0
  9 17  1  0  0  0  0
  9 10  2  0  0  0  0
 18 19  1  0  0  0  0
 19 41  1  0  0  0  0
 19 20  2  0  0  0  0
 25 26  1  0  0  0  0
 25 27  1  0  0  0  0
 24 25  2  0  0  0  0
 42 45  1  0  0  0  0
  8 11  1  0  0  0  0
 51 52  1  0  0  0  0
 21 22  1  0  0  0  0
 22 23  1  0  0  0  0
 18 21  1  0  0  0  0
 23 24  1  0  0  0  0
 41 42  1  0  0  0  0
  7  8  1  0  0  0  0
 17 18  1  0  0  0  0
  3  4  1  0  0  0  0
  3  5  1  0  0  0  0
  3  6  1  0  0  0  0
 45 48  1  0  0  0  0
 45 49  1  0  0  0  0
 45 50  1  0  0  0  0
 11 14  1  0  0  0  0
 11 15  1  0  0  0  0
 11 16  1  0  0  0  0
 52 54  1  0  0  0  0
 52 55  1  0  0  0  0
 52 56  1  0  0  0  0
 22 32  1  0  0  0  0
 22 33  1  0  0  0  0
 21 30  1  0  0  0  0
 21 31  1  0  0  0  0
 23 34  1  0  0  0  0
 23 35  1  0  0  0  0
 42 47  1  0  0  0  0
  8 13  1  0  0  0  0
 18 29  1  0  0  0  0
 26 37  1  0  0  0  0
 26 38  1  0  0  0  0
 27 39  1  0  0  0  0
 27 40  1  0  0  0  0
 51 53  1  0  0  0  0
  7 12  1  0  0  0  0
 41 46  1  0  0  0  0
 17 28  1  0  0  0  0
 24 36  1  0  0  0  0
M  CHG  1  24   1
M  END
$$$$

  -OEChem-05262214473D

 56 55  0     1  0  0  0  0  0999 V2000
    0.7735   -5.8042   -2.0022 C   0  0  0  0  0  0  0  0  0  0  0  0
   -0.2086   -6.3825   -1.5519 O   0  0  0  0  0  0  0  0  0  0  0  0
    1.4751   -6.3646   -3.1946 C   0  0  0  0  0  0  0  0  0  0  0  0
    2.2765   -7.0687   -2.9186 H   0  0  0  0  0  0  0  0  0  0  0  0
    0.7988   -6.9360   -3.8504 H   0  0  0  0  0  0  0  0  0  0  0  0
    1.9556   -5.6216   -3.8511 H   0  0  0  0  0  0  0  0  0  0  0  0
    1.3322   -4.6359   -1.5106 N   0  0  0  0  0  0  0  0  0  0  0  0
    0.8124   -3.9290   -0.3698 C   0  0  2  0  0  0  0  0  0  0  0  0
    1.0666   -2.4424   -0.5818 C   0  0  0  0  0  0  0  0  0  0  0  0
    2.0598   -2.0076   -1.1610 O   0  0  0  0  0  0  0  0  0  0  0  0
    1.4560   -4.4118    0.9207 C   0  0  0  0  0  0  0  0  0  0  0  0
    2.1528   -4.2578   -1.9805 H   0  0  0  0  0  0  0  0  0  0  0  0
   -0.2667   -4.1160   -0.3467 H   0  0  0  0  0  0  0  0  0  0  0  0
    2.5374   -4.2329    0.9160 H   0  0  0  0  0  0  0  0  0  0  0  0
    1.0390   -3.8932    1.7903 H   0  0  0  0  0  0  0  0  0  0  0  0
    1.2976   -5.4871    1.0566 H   0  0  0  0  0  0  0  0  0  0  0  0
    0.0755   -1.6529   -0.0105 N   0  0  0  0  0  0  0  0  0  0  0  0
    0.1113   -0.2132   -0.0391 C   0  0  2  0  0  0  0  0  0  0  0  0
    0.8532    0.2516    1.2095 C   0  0  0  0  0  0  0  0  0  0  0  0
    0.2882    0.7770    2.1665 O   0  0  0  0  0  0  0  0  0  0  0  0
   -1.2932    0.3970   -0.0856 C   0  0  0  0  0  0  0  0  0  0  0  0
   -2.0180    0.0949   -1.4027 C   0  0  0  0  0  0  0  0  0  0  0  0
   -3.4154    0.7047   -1.4435 C   0  0  0  0  0  0  0  0  0  0  0  0
   -4.1115    0.3950   -2.6902 N   0  3  0  0  0  0  0  0  0  0  0  0
   -5.4277    0.7939   -2.9304 C   0  0  0  0  0  0  0  0  0  0  0  0
   -6.0274    0.4634   -4.1410 N   0  0  0  0  0  0  0  0  0  0  0  0
   -6.1542    1.5148   -1.9883 N   0  0  0  0  0  0  0  0  0  0  0  0
   -0.7323   -2.1024    0.4149 H   0  0  0  0  0  0  0  0  0  0  0  0
    0.6893    0.0725   -0.9254 H   0  0  0  0  0  0  0  0  0  0  0  0
   -1.2240    1.4831    0.0493 H   0  0  0  0  0  0  0  0  0  0  0  0
   -1.8908    0.0183    0.7541 H   0  0  0  0  0  0  0  0  0  0  0  0
   -1.4270    0.4771   -2.2436 H   0  0  0  0  0  0  0  0  0  0  0  0
   -2.1091   -0.9896   -1.5322 H   0  0  0  0  0  0  0  0  0  0  0  0
   -4.0182    0.2986   -0.6254 H   0  0  0  0  0  0  0  0  0  0  0  0
   -3.3702    1.7932   -1.3407 H   0  0  0  0  0  0  0  0  0  0  0  0
   -3.6304   -0.1305   -3.4180 H   0  0  0  0  0  0  0  0  0  0  0  0
   -6.9845    0.7391   -4.3474 H   0  0  0  0  0  0  0  0  0  0  0  0
   -5.5249   -0.0628   -4.8517 H   0  0  0  0  0  0  0  0  0  0  0  0
   -7.1128    1.8077   -2.1582 H   0  0  0  0  0  0  0  0  0  0  0  0
   -5.7417    1.7702   -1.0941 H   0  0  0  0  0  0  0  0  0  0  0  0
    2.2233    0.0549    1.1067 N   0  0  0  0  0  0  0  0  0  0  0  0
    3.1545    0.4553    2.1362 C   0  0  2  0  0  0  0  0  0  0  0  0
    4.4605    0.8521    1.4606 C   0  0  0  0  0  0  0  0  0  0  0  0
    4.8824    0.3060    0.4433 O   0  0  0  0  0  0  0  0  0  0  0  0
    3.3808   -0.6622    3.1426 C   0  0  0  0  0  0  0  0  0  0  0  0
    2.5989   -0.4179    0.2900 H   0  0  0  0  0  0  0  0  0  0  0  0
    2.7197    1.3291    2.6335 H   0  0  0  0  0  0  0  0  0  0  0  0
    3.8161   -1.5463    2.6628 H   0  0  0  0  0  0  0  0  0  0  0  0
    4.0646   -0.3474    3.9379 H   0  0  0  0  0  0  0  0  0  0  0  0
    2.4361   -0.9667    3.6059 H   0  0  0  0  0  0  0  0  0  0  0  0
    5.1208    1.8584    2.1516 N   0  0  0  0  0  0  0  0  0  0  0  0
    6.4021    2.3789    1.7351 C   0  0  0  0  0  0  0  0  0  0  0  0
    4.6786    2.2808    2.9626 H   0  0  0  0  0  0  0  0  0  0  0  0
    7.2057    1.8279    2.2456 H   0  0  0  0  0  0  0  0  0  0  0  0
    6.5100    2.2597    0.6469 H   0  0  0  0  0  0  0  0  0  0  0  0
    6.4665    3.4457    1.9953 H   0  0  0  0  0  0  0  0  0  0  0  0
  1  3  1  0  0  0  0
  1  7  1  0  0  0  0
  1  2  2  0  0  0  0
 42 43  1  0  0  0  0
 43 51  1  0  0  0  0
 43 44  2  0  0  0  0
  8  9  1  0  0  0  0
  9 17  1  0  0  0  0
  9 10  2  0  0  0  0
 18 19  1  0  0  0  0
 19 41  1  0  0  0  0
 19 20  2  0  0  0  0
 25 26  1  0  0  0  0
 25 27  1  0  0  0  0
 24 25  2  0  0  0  0
 42 45  1  0  0  0  0
  8 11  1  0  0  0  0
 51 52  1  0  0  0  0
 21 22  1  0  0  0  0
 22 23  1  0  0  0  0
 18 21  1  0  0  0  0
 23 24  1  0  0  0  0
 41 42  1  0  0  0  0
  7  8  1  0  0  0  0
 17 18  1  0  0  0  0
  3  4  1  0  0  0  0
  3  5  1  0  0  0  0
  3  6  1  0  0  0  0
 45 48  1  0  0  0  0
 45 49  1  0  0  0  0
 45 50  1  0  0  0  0
 11 14  1  0  0  0  0
 11 15  1  0  0  0  0
 11 16  1  0  0  0  0
 52 54  1  0  0  0  0
 52 55  1  0  0  0  0
 52 56  1  0  0  0  0
 22 32  1  0  0  0  0
 22 33  1  0  0  0  0
 21 30  1  0  0  0  0
 21 31  1  0  0  0  0
 23 34  1  0  0  0  0
 23 35  1  0  0  0  0
 42 47  1  0  0  0  0
  8 13  1  0  0  0  0
 18 29  1  0  0  0  0
 26 37  1  0  0  0  0
 26 38  1  0  0  0  0
 27 39  1  0  0  0  0
 27 40  1  0  0  0  0
 51 53  1  0  0  0  0
  7 12  1  0  0  0  0
 41 46  1  0  0  0  0
 17 28  1  0  0  0  0
 24 36  1  0  0  0  0
M  CHG  1  24   1
M  END
$$$$

  -OEChem-05262214473D

 56 55  0     1  0  0  0  0  0999 V2000
    0.7735   -5.8042   -2.0022 C   0  0  0  0  0  0  0  0  0  0  0  0
   -0.2086   -6.3825   -1.5519 O   0  0  0  0  0  0  0  0  0  0  0  0
    1.4751   -6.3646   -3.1946 C   0  0  0  0  0  0  0  0  0  0  0  0
    2.2765   -7.0687   -2.9186 H   0  0  0  0  0  0  0  0  0  0  0  0
    0.7988   -6.9360   -3.8504 H   0  0  0  0  0  0  0  0  0  0  0  0
    1.9556   -5.6216   -3.8511 H   0  0  0  0  0  0  0  0  0  0  0  0
    1.3322   -4.6359   -1.5106 N   0  0  0  0  0  0  0  0  0  0  0  0
    0.8124   -3.9290   -0.3698 C   0  0  2  0  0  0  0  0  0  0  0  0
    1.0666   -2.4424   -0.5818 C   0  0  0  0  0  0  0  0  0  0  0  0
    2.0598   -2.0076   -1.1610 O   0  0  0  0  0  0  0  0  0  0  0  0
    1.4560   -4.4118    0.9207 C   0  0  0  0  0  0  0  0  0  0  0  0
    2.1528   -4.2578   -1.9805 H   0  0  0  0  0  0  0  0  0  0  0  0
   -0.2667   -4.1160   -0.3467 H   0  0  0  0  0  0  0  0  0  0  0  0
    2.5374   -4.2329    0.9160 H   0  0  0  0  0  0  0  0  0  0  0  0
    1.0390   -3.8932    1.7903 H   0  0  0  0  0  0  0  0  0  0  0  0
    1.2976   -5.4871    1.0566 H   0  0  0  0  0  0  0  0  0  0  0  0
    0.0755   -1.6529   -0.0105 N   0  0  0  0  0  0  0  0  0  0  0  0
    0.1113   -0.2132   -0.0391 C   0  0  2  0  0  0  0  0  0  0  0  0
    0.8532    0.2516    1.2095 C   0  0  0  0  0  0  0  0  0  0  0  0
    0.2827    0.5259    2.2633 O   0  0  0  0  0  0  0  0  0  0  0  0
   -1.2932    0.3970   -0.0856 C   0  0  0  0  0  0  0  0  0  0  0  0
   -2.0180    0.0949   -1.4027 C   0  0  0  0  0  0  0  0  0  0  0  0
   -3.4154    0.7047   -1.4435 C   0  0  0  0  0  0  0  0  0  0  0  0
   -4.1115    0.3950   -2.6902 N   0  3  0  0  0  0  0  0  0  0  0  0
   -5.4277    0.7939   -2.9304 C   0  0  0  0  0  0  0  0  0  0  0  0
   -6.0274    0.4634   -4.1410 N   0  0  0  0  0  0  0  0  0  0  0  0
   -6.1542    1.5148   -1.9883 N   0  0  0  0  0  0  0  0  0  0  0  0
   -0.7323   -2.1024    0.4149 H   0  0  0  0  0  0  0  0  0  0  0  0
    0.6893    0.0725   -0.9254 H   0  0  0  0  0  0  0  0  0  0  0  0
   -1.2240    1.4831    0.0493 H   0  0  0  0  0  0  0  0  0  0  0  0
   -1.8908    0.0183    0.7541 H   0  0  0  0  0  0  0  0  0  0  0  0
   -1.4270    0.4771   -2.2436 H   0  0  0  0  0  0  0  0  0  0  0  0
   -2.1091   -0.9896   -1.5322 H   0  0  0  0  0  0  0  0  0  0  0  0
   -4.0182    0.2986   -0.6254 H   0  0  0  0  0  0  0  0  0  0  0  0
   -3.3702    1.7932   -1.3407 H   0  0  0  0  0  0  0  0  0  0  0  0
   -3.6304   -0.1305   -3.4180 H   0  0  0  0  0  0  0  0  0  0  0  0
   -6.9845    0.7391   -4.3474 H   0  0  0  0  0  0  0  0  0  0  0  0
   -5.5249   -0.0628   -4.8517 H   0  0  0  0  0  0  0  0  0  0  0  0
   -7.1128    1.8077   -2.1582 H   0  0  0  0  0  0  0  0  0  0  0  0
   -5.7417    1.7702   -1.0941 H   0  0  0  0  0  0  0  0  0  0  0  0
    2.2189    0.3703    0.9919 N   0  0  0  0  0  0  0  0  0  0  0  0
    3.1382    0.8395    2.0029 C   0  0  2  0  0  0  0  0  0  0  0  0
    4.2657    1.5867    1.3029 C   0  0  0  0  0  0  0  0  0  0  0  0
    4.6955    1.2685    0.1961 O   0  0  0  0  0  0  0  0  0  0  0  0
    3.6829   -0.3125    2.8330 C   0  0  0  0  0  0  0  0  0  0  0  0
    2.6070    0.0895    0.0963 H   0  0  0  0  0  0  0  0  0  0  0  0
    2.5799    1.5336    2.6405 H   0  0  0  0  0  0  0  0  0  0  0  0
    4.2453   -1.0185    2.2112 H   0  0  0  0  0  0  0  0  0  0  0  0
    4.3573    0.0475    3.6170 H   0  0  0  0  0  0  0  0  0  0  0  0
    2.8685   -0.8669    3.3118 H   0  0  0  0  0  0  0  0  0  0  0  0
    4.7645    2.6241    2.0782 N   0  0  0  0  0  0  0  0  0  0  0  0
    5.8663    3.4554    1.6527 C   0  0  0  0  0  0  0  0  0  0  0  0
    4.3215    2.8422    2.9658 H   0  0  0  0  0  0  0  0  0  0  0  0
    6.8102    3.0359    2.0309 H   0  0  0  0  0  0  0  0  0  0  0  0
    5.8954    3.4910    0.5537 H   0  0  0  0  0  0  0  0  0  0  0  0
    5.7324    4.4726    2.0492 H   0  0  0  0  0  0  0  0  0  0  0  0
  1  3  1  0  0  0  0
  1  7  1  0  0  0  0
  1  2  2  0  0  0  0
 42 43  1  0  0  0  0
 43 51  1  0  0  0  0
 43 44  2  0  0  0  0
  8  9  1  0  0  0  0
  9 17  1  0  0  0  0
  9 10  2  0  0  0  0
 18 19  1  0  0  0  0
 19 41  1  0  0  0  0
 19 20  2  0  0  0  0
 25 26  1  0  0  0  0
 25 27  1  0  0  0  0
 24 25  2  0  0  0  0
 42 45  1  0  0  0  0
  8 11  1  0  0  0  0
 51 52  1  0  0  0  0
 21 22  1  0  0  0  0
 22 23  1  0  0  0  0
 18 21  1  0  0  0  0
 23 24  1  0  0  0  0
 41 42  1  0  0  0  0
  7  8  1  0  0  0  0
 17 18  1  0  0  0  0
  3  4  1  0  0  0  0
  3  5  1  0  0  0  0
  3  6  1  0  0  0  0
 45 48  1  0  0  0  0
 45 49  1  0  0  0  0
 45 50  1  0  0  0  0
 11 14  1  0  0  0  0
 11 15  1  0  0  0  0
 11 16  1  0  0  0  0
 52 54  1  0  0  0  0
 52 55  1  0  0  0  0
 52 56  1  0  0  0  0
 22 32  1  0  0  0  0
 22 33  1  0  0  0  0
 21 30  1  0  0  0  0
 21 31  1  0  0  0  0
 23 34  1  0  0  0  0
 23 35  1  0  0  0  0
 42 47  1  0  0  0  0
  8 13  1  0  0  0  0
 18 29  1  0  0  0  0
 26 37  1  0  0  0  0
 26 38  1  0  0  0  0
 27 39  1  0  0  0  0
 27 40  1  0  0  0  0
 51 53  1  0  0  0  0
  7 12  1  0  0  0  0
 41 46  1  0  0  0  0
 17 28  1  0  0  0  0
 24 36  1  0  0  0  0
M  CHG  1  24   1
M  END
$$$$

  -OEChem-05262214473D

 56 55  0     1  0  0  0  0  0999 V2000
    0.7735   -5.8042   -2.0022 C   0  0  0  0  0  0  0  0  0  0  0  0
   -0.2086   -6.3825   -1.5519 O   0  0  0  0  0  0  0  0  0  0  0  0
    1.4751   -6.3646   -3.1946 C   0  0  0  0  0  0  0  0  0  0  0  0
    2.2765   -7.0687   -2.9186 H   0  0  0  0  0  0  0  0  0  0  0  0
    0.7988   -6.9360   -3.8504 H   0  0  0  0  0  0  0  0  0  0  0  0
    1.9556   -5.6216   -3.8511 H   0  0  0  0  0  0  0  0  0  0  0  0
    1.3322   -4.6359   -1.5106 N   0  0  0  0  0  0  0  0  0  0  0  0
    0.8124   -3.9290   -0.3698 C   0  0  2  0  0  0  0  0  0  0  0  0
    1.0666   -2.4424   -0.5818 C   0  0  0  0  0  0  0  0  0  0  0  0
    2.0598   -2.0076   -1.1610 O   0  0  0  0  0  0  0  0  0  0  0  0
    1.4560   -4.4118    0.9207 C   0  0  0  0  0  0  0  0  0  0  0  0
    2.1528   -4.2578   -1.9805 H   0  0  0  0  0  0  0  0  0  0  0  0
   -0.2667   -4.1160   -0.3467 H   0  0  0  0  0  0  0  0  0  0  0  0
    2.5374   -4.2329    0.9160 H   0  0  0  0  0  0  0  0  0  0  0  0
    1.0390   -3.8932    1.7903 H   0  0  0  0  0  0  0  0  0  0  0  0
    1.2976   -5.4871    1.0566 H   0  0  0  0  0  0  0  0  0  0  0  0
    0.0755   -1.6529   -0.0105 N   0  0  0  0  0  0  0  0  0  0  0  0
    0.1113   -0.2132   -0.0391 C   0  0  2  0  0  0  0  0  0  0  0  0
    0.8532    0.2516    1.2095 C   0  0  0  0  0  0  0  0  0  0  0  0
    0.3383    0.2699    2.3256 O   0  0  0  0  0  0  0  0  0  0  0  0
   -1.2932    0.3970   -0.0856 C   0  0  0  0  0  0  0  0  0  0  0  0
   -2.0180    0.0949   -1.4027 C   0  0  0  0  0  0  0  0  0  0  0  0
   -3.4154    0.7047   -1.4435 C   0  0  0  0  0  0  0  0  0  0  0  0
   -4.1115    0.3950   -2.6902 N   0  3  0  0  0  0  0  0  0  0  0  0
   -5.4277    0.7939   -2.9304 C   0  0  0  0  0  0  0  0  0  0  0  0
   -6.0274    0.4634   -4.1410 N   0  0  0  0  0  0  0  0  0  0  0  0
   -6.1542    1.5148   -1.9883 N   0  0  0  0  0  0  0  0  0  0  0  0
   -0.7323   -2.1024    0.4149 H   0  0  0  0  0  0  0  0  0  0  0  0
    0.6893    0.0725   -0.9254 H   0  0  0  0  0  0  0  0  0  0  0  0
   -1.2240    1.4831    0.0493 H   0  0  0  0  0  0  0  0  0  0  0  0
   -1.8908    0.0183    0.7541 H   0  0  0  0  0  0  0  0  0  0  0  0
   -1.4270    0.4771   -2.2436 H   0  0  0  0  0  0  0  0  0  0  0  0
   -2.1091   -0.9896   -1.5322 H   0  0  0  0  0  0  0  0  0  0  0  0
   -4.0182    0.2986   -0.6254 H   0  0  0  0  0  0  0  0  0  0  0  0
   -3.3702    1.7932   -1.3407 H   0  0  0  0  0  0  0  0  0  0  0  0
   -3.6304   -0.1305   -3.4180 H   0  0  0  0  0  0  0  0  0  0  0  0
   -6.9845    0.7391   -4.3474 H   0  0  0  0  0  0  0  0  0  0  0  0
   -5.5249   -0.0628   -4.8517 H   0  0  0  0  0  0  0  0  0  0  0  0
   -7.1128    1.8077   -2.1582 H   0  0  0  0  0  0  0  0  0  0  0  0
   -5.7417    1.7702   -1.0941 H   0  0  0  0  0  0  0  0  0  0  0  0
    2.1387    0.6885    0.9211 N   0  0  0  0  0  0  0  0  0  0  0  0
    3.0306    1.2239    1.9237 C   0  0  2  0  0  0  0  0  0  0  0  0
    3.9094    2.2749    1.2584 C   0  0  0  0  0  0  0  0  0  0  0  0
    4.2915    2.1897    0.0931 O   0  0  0  0  0  0  0  0  0  0  0  0
    3.8761    0.1283    2.5541 C   0  0  0  0  0  0  0  0  0  0  0  0
    2.4920    0.6057   -0.0276 H   0  0  0  0  0  0  0  0  0  0  0  0
    2.4021    1.7006    2.6839 H   0  0  0  0  0  0  0  0  0  0  0  0
    4.5125   -0.3609    1.8077 H   0  0  0  0  0  0  0  0  0  0  0  0
    4.5310    0.5314    3.3336 H   0  0  0  0  0  0  0  0  0  0  0  0
    3.2419   -0.6419    3.0062 H   0  0  0  0  0  0  0  0  0  0  0  0
    4.2523    3.2974    2.1319 N   0  0  0  0  0  0  0  0  0  0  0  0
    5.1142    4.3920    1.7509 C   0  0  0  0  0  0  0  0  0  0  0  0
    3.8577    3.3085    3.0678 H   0  0  0  0  0  0  0  0  0  0  0  0
    6.1553    4.1458    2.0069 H   0  0  0  0  0  0  0  0  0  0  0  0
    5.0335    4.5619    0.6671 H   0  0  0  0  0  0  0  0  0  0  0  0
    4.8100    5.3022    2.2884 H   0  0  0  0  0  0  0  0  0  0  0  0
  1  3  1  0  0  0  0
  1  7  1  0  0  0  0
  1  2  2  0  0  0  0
 42 43  1  0  0  0  0
 43 51  1  0  0  0  0
 43 44  2  0  0  0  0
  8  9  1  0  0  0  0
  9 17  1  0  0  0  0
  9 10  2  0  0  0  0
 18 19  1  0  0  0  0
 19 41  1  0  0  0  0
 19 20  2  0  0  0  0
 25 26  1  0  0  0  0
 25 27  1  0  0  0  0
 24 25  2  0  0  0  0
 42 45  1  0  0  0  0
  8 11  1  0  0  0  0
 51 52  1  0  0  0  0
 21 22  1  0  0  0  0
 22 23  1  0  0  0  0
 18 21  1  0  0  0  0
 23 24  1  0  0  0  0
 41 42  1  0  0  0  0
  7  8  1  0  0  0  0
 17 18  1  0  0  0  0
  3  4  1  0  0  0  0
  3  5  1  0  0  0  0
  3  6  1  0  0  0  0
 45 48  1  0  0  0  0
 45 49  1  0  0  0  0
 45 50  1  0  0  0  0
 11 14  1  0  0  0  0
 11 15  1  0  0  0  0
 11 16  1  0  0  0  0
 52 54  1  0  0  0  0
 52 55  1  0  0  0  0
 52 56  1  0  0  0  0
 22 32  1  0  0  0  0
 22 33  1  0  0  0  0
 21 30  1  0  0  0  0
 21 31  1  0  0  0  0
 23 34  1  0  0  0  0
 23 35  1  0  0  0  0
 42 47  1  0  0  0  0
  8 13  1  0  0  0  0
 18 29  1  0  0  0  0
 26 37  1  0  0  0  0
 26 38  1  0  0  0  0
 27 39  1  0  0  0  0
 27 40  1  0  0  0  0
 51 53  1  0  0  0  0
  7 12  1  0  0  0  0
 41 46  1  0  0  0  0
 17 28  1  0  0  0  0
 24 36  1  0  0  0  0
M  CHG  1  24   1
M  END
$$$$

  -OEChem-05262214473D

 56 55  0     1  0  0  0  0  0999 V2000
    0.7735   -5.8042   -2.0022 C   0  0  0  0  0  0  0  0  0  0  0  0
   -0.2086   -6.3825   -1.5519 O   0  0  0  0  0  0  0  0  0  0  0  0
    1.4751   -6.3646   -3.1946 C   0  0  0  0  0  0  0  0  0  0  0  0
    2.2765   -7.0687   -2.9186 H   0  0  0  0  0  0  0  0  0  0  0  0
    0.7988   -6.9360   -3.8504 H   0  0  0  0  0  0  0  0  0  0  0  0
    1.9556   -5.6216   -3.8511 H   0  0  0  0  0  0  0  0  0  0  0  0
    1.3322   -4.6359   -1.5106 N   0  0  0  0  0  0  0  0  0  0  0  0
    0.8124   -3.9290   -0.3698 C   0  0  2  0  0  0  0  0  0  0  0  0
    1.0666   -2.4424   -0.5818 C   0  0  0  0  0  0  0  0  0  0  0  0
    2.0598   -2.0076   -1.1610 O   0  0  0  0  0  0  0  0  0  0  0  0
    1.4560   -4.4118    0.9207 C   0  0  0  0  0  0  0  0  0  0  0  0
    2.1528   -4.2578   -1.9805 H   0  0  0  0  0  0  0  0  0  0  0  0
   -0.2667   -4.1160   -0.3467 H   0  0  0  0  0  0  0  0  0  0  0  0
    2.5374   -4.2329    0.9160 H   0  0  0  0  0  0  0  0  0  0  0  0
    1.0390   -3.8932    1.7903 H   0  0  0  0  0  0  0  0  0  0  0  0
    1.2976   -5.4871    1.0566 H   0  0  0  0  0  0  0  0  0  0  0  0
    0.0755   -1.6529   -0.0105 N   0  0  0  0  0  0  0  0  0  0  0  0
    0.1113   -0.2132   -0.0391 C   0  0  2  0  0  0  0  0  0  0  0  0
    0.8532    0.2516    1.2095 C   0  0  0  0  0  0  0  0  0  0  0  0
    0.4511    0.0265    2.3491 O   0  0  0  0  0  0  0  0  0  0  0  0
   -1.2932    0.3970   -0.0856 C   0  0  0  0  0  0  0  0  0  0  0  0
   -2.0180    0.0949   -1.4027 C   0  0  0  0  0  0  0  0  0  0  0  0
   -3.4154    0.7047   -1.4435 C   0  0  0  0  0  0  0  0  0  0  0  0
   -4.1115    0.3950   -2.6902 N   0  3  0  0  0  0  0  0  0  0  0  0
   -5.4277    0.7939   -2.9304 C   0  0  0  0  0  0  0  0  0  0  0  0
   -6.0274    0.4634   -4.1410 N   0  0  0  0  0  0  0  0  0  0  0  0
   -6.1542    1.5148   -1.9883 N   0  0  0  0  0  0  0  0  0  0  0  0
   -0.7323   -2.1024    0.4149 H   0  0  0  0  0  0  0  0  0  0  0  0
    0.6893    0.0725   -0.9254 H   0  0  0  0  0  0  0  0  0  0  0  0
   -1.2240    1.4831    0.0493 H   0  0  0  0  0  0  0  0  0  0  0  0
   -1.8908    0.0183    0.7541 H   0  0  0  0  0  0  0  0  0  0  0  0
   -1.4270    0.4771   -2.2436 H   0  0  0  0  0  0  0  0  0  0  0  0
   -2.1091   -0.9896   -1.5322 H   0  0  0  0  0  0  0  0  0  0  0  0
   -4.0182    0.2986   -0.6254 H   0  0  0  0  0  0  0  0  0  0  0  0
   -3.3702    1.7932   -1.3407 H   0  0  0  0  0  0  0  0  0  0  0  0
   -3.6304   -0.1305   -3.4180 H   0  0  0  0  0  0  0  0  0  0  0  0
   -6.9845    0.7391   -4.3474 H   0  0  0  0  0  0  0  0  0  0  0  0
   -5.5249   -0.0628   -4.8517 H   0  0  0  0  0  0  0  0  0  0  0  0
   -7.1128    1.8077   -2.1582 H   0  0  0  0  0  0  0  0  0  0  0  0
   -5.7417    1.7702   -1.0941 H   0  0  0  0  0  0  0  0  0  0  0  0
    1.9882    0.9877    0.8991 N   0  0  0  0  0  0  0  0  0  0  0  0
    2.8388    1.5824    1.9042 C   0  0  2  0  0  0  0  0  0  0  0  0
    3.4159    2.8697    1.3302 C   0  0  0  0  0  0  0  0  0  0  0  0
    3.6979    3.0069    0.1416 O   0  0  0  0  0  0  0  0  0  0  0  0
    3.9473    0.6301    2.3250 C   0  0  0  0  0  0  0  0  0  0  0  0
    2.2617    1.0956   -0.0731 H   0  0  0  0  0  0  0  0  0  0  0  0
    2.1984    1.8188    2.7610 H   0  0  0  0  0  0  0  0  0  0  0  0
    4.5993    0.3817    1.4796 H   0  0  0  0  0  0  0  0  0  0  0  0
    4.5738    1.0713    3.1071 H   0  0  0  0  0  0  0  0  0  0  0  0
    3.5307   -0.3070    2.7099 H   0  0  0  0  0  0  0  0  0  0  0  0
    3.6192    3.8325    2.3089 N   0  0  0  0  0  0  0  0  0  0  0  0
    4.1969    5.1249    2.0231 C   0  0  0  0  0  0  0  0  0  0  0  0
    3.3191    3.6477    3.2616 H   0  0  0  0  0  0  0  0  0  0  0  0
    5.2855    5.0822    2.1750 H   0  0  0  0  0  0  0  0  0  0  0  0
    3.9830    5.3994    0.9795 H   0  0  0  0  0  0  0  0  0  0  0  0
    3.7620    5.8779    2.6968 H   0  0  0  0  0  0  0  0  0  0  0  0
  1  3  1  0  0  0  0
  1  7  1  0  0  0  0
  1  2  2  0  0  0  0
 42 43  1  0  0  0  0
 43 51  1  0  0  0  0
 43 44  2  0  0  0  0
  8  9  1  0  0  0  0
  9 17  1  0  0  0  0
  9 10  2  0  0  0  0
 18 19  1  0  0  0  0
 19 41  1  0  0  0  0
 19 20  2  0  0  0  0
 25 26  1  0  0  0  0
 25 27  1  0  0  0  0
 24 25  2  0  0  0  0
 42 45  1  0  0  0  0
  8 11  1  0  0  0  0
 51 52  1  0  0  0  0
 21 22  1  0  0  0  0
 22 23  1  0  0  0  0
 18 21  1  0  0  0  0
 23 24  1  0  0  0  0
 41 42  1  0  0  0  0
  7  8  1  0  0  0  0
 17 18  1  0  0  0  0
  3  4  1  0  0  0  0
  3  5  1  0  0  0  0
  3  6  1  0  0  0  0
 45 48  1  0  0  0  0
 45 49  1  0  0  0  0
 45 50  1  0  0  0  0
 11 14  1  0  0  0  0
 11 15  1  0  0  0  0
 11 16  1  0  0  0  0
 52 54  1  0  0  0  0
 52 55  1  0  0  0  0
 52 56  1  0  0  0  0
 22 32  1  0  0  0  0
 22 33  1  0  0  0  0
 21 30  1  0  0  0  0
 21 31  1  0  0  0  0
 23 34  1  0  0  0  0
 23 35  1  0  0  0  0
 42 47  1  0  0  0  0
  8 13  1  0  0  0  0
 18 29  1  0  0  0  0
 26 37  1  0  0  0  0
 26 38  1  0  0  0  0
 27 39  1  0  0  0  0
 27 40  1  0  0  0  0
 51 53  1  0  0  0  0
  7 12  1  0  0  0  0
 41 46  1  0  0  0  0
 17 28  1  0  0  0  0
 24 36  1  0  0  0  0
M  CHG  1  24   1
M  END
$$$$

  -OEChem-05262214473D

 56 55  0     1  0  0  0  0  0999 V2000
    0.7735   -5.8042   -2.0022 C   0  0  0  0  0  0  0  0  0  0  0  0
   -0.2086   -6.3825   -1.5519 O   0  0  0  0  0  0  0  0  0  0  0  0
    1.4751   -6.3646   -3.1946 C   0  0  0  0  0  0  0  0  0  0  0  0
    2.2765   -7.0687   -2.9186 H   0  0  0  0  0  0  0  0  0  0  0  0
    0.7988   -6.9360   -3.8504 H   0  0  0  0  0  0  0  0  0  0  0  0
    1.9556   -5.6216   -3.8511 H   0  0  0  0  0  0  0  0  0  0  0  0
    1.3322   -4.6359   -1.5106 N   0  0  0  0  0  0  0  0  0  0  0  0
    0.8124   -3.9290   -0.3698 C   0  0  2  0  0  0  0  0  0  0  0  0
    1.0666   -2.4424   -0.5818 C   0  0  0  0  0  0  0  0  0  0  0  0
    2.0598   -2.0076   -1.1610 O   0  0  0  0  0  0  0  0  0  0  0  0
    1.4560   -4.4118    0.9207 C   0  0  0  0  0  0  0  0  0  0  0  0
    2.1528   -4.2578   -1.9805 H   0  0  0  0  0  0  0  0  0  0  0  0
   -0.2667   -4.1160   -0.3467 H   0  0  0  0  0  0  0  0  0  0  0  0
    2.5374   -4.2329    0.9160 H   0  0  0  0  0  0  0  0  0  0  0  0
    1.0390   -3.8932    1.7903 H   0  0  0  0  0  0  0  0  0  0  0  0
    1.2976   -5.4871    1.0566 H   0  0  0  0  0  0  0  0  0  0  0  0
    0.0755   -1.6529   -0.0105 N   0  0  0  0  0  0  0  0  0  0  0  0
    0.1113   -0.2132   -0.0391 C   0  0  2  0  0  0  0  0  0  0  0  0
    0.8532    0.2516    1.2095 C   0  0  0  0  0  0  0  0  0  0  0  0
    0.6135   -0.1876    2.3324 O   0  0  0  0  0  0  0  0  0  0  0  0
   -1.2932    0.3970   -0.0856 C   0  0  0  0  0  0  0  0  0  0  0  0
   -2.0180    0.0949   -1.4027 C   0  0  0  0  0  0  0  0  0  0  0  0
   -3.4154    0.7047   -1.4435 C   0  0  0  0  0  0  0  0  0  0  0  0
   -4.1115    0.3950   -2.6902 N   0  3  0  0  0  0  0  0  0  0  0  0
   -5.4277    0.7939   -2.9304 C   0  0  0  0  0  0  0  0  0  0  0  0
   -6.0274    0.4634   -4.1410 N   0  0  0  0  0  0  0  0  0  0  0  0
   -6.1542    1.5148   -1.9883 N   0  0  0  0  0  0  0  0  0  0  0  0
   -0.7323   -2.1024    0.4149 H   0  0  0  0  0  0  0  0  0  0  0  0
    0.6893    0.0725   -0.9254 H   0  0  0  0  0  0  0  0  0  0  0  0
   -1.2240    1.4831    0.0493 H   0  0  0  0  0  0  0  0  0  0  0  0
   -1.8908    0.0183    0.7541 H   0  0  0  0  0  0  0  0  0  0  0  0
   -1.4270    0.4771   -2.2436 H   0  0  0  0  0  0  0  0  0  0  0  0
   -2.1091   -0.9896   -1.5322 H   0  0  0  0  0  0  0  0  0  0  0  0
   -4.0182    0.2986   -0.6254 H   0  0  0  0  0  0  0  0  0  0  0  0
   -3.3702    1.7932   -1.3407 H   0  0  0  0  0  0  0  0  0  0  0  0
   -3.6304   -0.1305   -3.4180 H   0  0  0  0  0  0  0  0  0  0  0  0
   -6.9845    0.7391   -4.3474 H   0  0  0  0  0  0  0  0  0  0  0  0
   -5.5249   -0.0628   -4.8517 H   0  0  0  0  0  0  0  0  0  0  0  0
   -7.1128    1.8077   -2.1582 H   0  0  0  0  0  0  0  0  0  0  0  0
   -5.7417    1.7702   -1.0941 H   0  0  0  0  0  0  0  0  0  0  0  0
    1.7777    1.2477    0.9274 N   0  0  0  0  0  0  0  0  0  0  0  0
    2.5761    1.8906    1.9456 C   0  0  2  0  0  0  0  0  0  0  0  0
    2.8188    3.3306    1.5134 C   0  0  0  0  0  0  0  0  0  0  0  0
    2.9552    3.6643    0.3381 O   0  0  0  0  0  0  0  0  0  0  0  0
    3.8917    1.1587    2.1612 C   0  0  0  0  0  0  0  0  0  0  0  0
    1.9319    1.5257   -0.0373 H   0  0  0  0  0  0  0  0  0  0  0  0
    1.9827    1.8801    2.8663 H   0  0  0  0  0  0  0  0  0  0  0  0
    4.4999    1.1588    1.2494 H   0  0  0  0  0  0  0  0  0  0  0  0
    4.4830    1.6305    2.9530 H   0  0  0  0  0  0  0  0  0  0  0  0
    3.7154    0.1150    2.4431 H   0  0  0  0  0  0  0  0  0  0  0  0
    2.9081    4.1928    2.5972 N   0  0  0  0  0  0  0  0  0  0  0  0
    3.1770    5.6043    2.4506 C   0  0  0  0  0  0  0  0  0  0  0  0
    2.7421    3.8368    3.5339 H   0  0  0  0  0  0  0  0  0  0  0  0
    4.2602    5.7812    2.5240 H   0  0  0  0  0  0  0  0  0  0  0  0
    2.8154    5.9463    1.4697 H   0  0  0  0  0  0  0  0  0  0  0  0
    2.6600    6.1605    3.2463 H   0  0  0  0  0  0  0  0  0  0  0  0
  1  3  1  0  0  0  0
  1  7  1  0  0  0  0
  1  2  2  0  0  0  0
 42 43  1  0  0  0  0
 43 51  1  0  0  0  0
 43 44  2  0  0  0  0
  8  9  1  0  0  0  0
  9 17  1  0  0  0  0
  9 10  2  0  0  0  0
 18 19  1  0  0  0  0
 19 41  1  0  0  0  0
 19 20  2  0  0  0  0
 25 26  1  0  0  0  0
 25 27  1  0  0  0  0
 24 25  2  0  0  0  0
 42 45  1  0  0  0  0
  8 11  1  0  0  0  0
 51 52  1  0  0  0  0
 21 22  1  0  0  0  0
 22 23  1  0  0  0  0
 18 21  1  0  0  0  0
 23 24  1  0  0  0  0
 41 42  1  0  0  0  0
  7  8  1  0  0  0  0
 17 18  1  0  0  0  0
  3  4  1  0  0  0  0
  3  5  1  0  0  0  0
  3  6  1  0  0  0  0
 45 48  1  0  0  0  0
 45 49  1  0  0  0  0
 45 50  1  0  0  0  0
 11 14  1  0  0  0  0
 11 15  1  0  0  0  0
 11 16  1  0  0  0  0
 52 54  1  0  0  0  0
 52 55  1  0  0  0  0
 52 56  1  0  0  0  0
 22 32  1  0  0  0  0
 22 33  1  0  0  0  0
 21 30  1  0  0  0  0
 21 31  1  0  0  0  0
 23 34  1  0  0  0  0
 23 35  1  0  0  0  0
 42 47  1  0  0  0  0
  8 13  1  0  0  0  0
 18 29  1  0  0  0  0
 26 37  1  0  0  0  0
 26 38  1  0  0  0  0
 27 39  1  0  0  0  0
 27 40  1  0  0  0  0
 51 53  1  0  0  0  0
  7 12  1  0  0  0  0
 41 46  1  0  0  0  0
 17 28  1  0  0  0  0
 24 36  1  0  0  0  0
M  CHG  1  24   1
M  END
$$$$

  -OEChem-05262214473D

 56 55  0     1  0  0  0  0  0999 V2000
    0.7735   -5.8042   -2.0022 C   0  0  0  0  0  0  0  0  0  0  0  0
   -0.2086   -6.3825   -1.5519 O   0  0  0  0  0  0  0  0  0  0  0  0
    1.4751   -6.3646   -3.1946 C   0  0  0  0  0  0  0  0  0  0  0  0
    2.2765   -7.0687   -2.9186 H   0  0  0  0  0  0  0  0  0  0  0  0
    0.7988   -6.9360   -3.8504 H   0  0  0  0  0  0  0  0  0  0  0  0
    1.9556   -5.6216   -3.8511 H   0  0  0  0  0  0  0  0  0  0  0  0
    1.3322   -4.6359   -1.5106 N   0  0  0  0  0  0  0  0  0  0  0  0
    0.8124   -3.9290   -0.3698 C   0  0  2  0  0  0  0  0  0  0  0  0
    1.0666   -2.4424   -0.5818 C   0  0  0  0  0  0  0  0  0  0  0  0
    2.0598   -2.0076   -1.1610 O   0  0  0  0  0  0  0  0  0  0  0  0
    1.4560   -4.4118    0.9207 C   0  0  0  0  0  0  0  0  0  0  0  0
    2.1528   -4.2578   -1.9805 H   0  0  0  0  0  0  0  0  0  0  0  0
   -0.2667   -4.1160   -0.3467 H   0  0  0  0  0  0  0  0  0  0  0  0
    2.5374   -4.2329    0.9160 H   0  0  0  0  0  0  0  0  0  0  0  0
    1.0390   -3.8932    1.7903 H   0  0  0  0  0  0  0  0  0  0  0  0
    1.2976   -5.4871    1.0566 H   0  0  0  0  0  0  0  0  0  0  0  0
    0.0755   -1.6529   -0.0105 N   0  0  0  0  0  0  0  0  0  0  0  0
    0.1113   -0.2132   -0.0391 C   0  0  2  0  0  0  0  0  0  0  0  0
    0.8532    0.2516    1.2095 C   0  0  0  0  0  0  0  0  0  0  0  0
    0.8144   -0.3579    2.2764 O   0  0  0  0  0  0  0  0  0  0  0  0
   -1.2932    0.3970   -0.0856 C   0  0  0  0  0  0  0  0  0  0  0  0
   -2.0180    0.0949   -1.4027 C   0  0  0  0  0  0  0  0  0  0  0  0
   -3.4154    0.7047   -1.4435 C   0  0  0  0  0  0  0  0  0  0  0  0
   -4.1115    0.3950   -2.6902 N   0  3  0  0  0  0  0  0  0  0  0  0
   -5.4277    0.7939   -2.9304 C   0  0  0  0  0  0  0  0  0  0  0  0
   -6.0274    0.4634   -4.1410 N   0  0  0  0  0  0  0  0  0  0  0  0
   -6.1542    1.5148   -1.9883 N   0  0  0  0  0  0  0  0  0  0  0  0
   -0.7323   -2.1024    0.4149 H   0  0  0  0  0  0  0  0  0  0  0  0
    0.6893    0.0725   -0.9254 H   0  0  0  0  0  0  0  0  0  0  0  0
   -1.2240    1.4831    0.0493 H   0  0  0  0  0  0  0  0  0  0  0  0
   -1.8908    0.0183    0.7541 H   0  0  0  0  0  0  0  0  0  0  0  0
   -1.4270    0.4771   -2.2436 H   0  0  0  0  0  0  0  0  0  0  0  0
   -2.1091   -0.9896   -1.5322 H   0  0  0  0  0  0  0  0  0  0  0  0
   -4.0182    0.2986   -0.6254 H   0  0  0  0  0  0  0  0  0  0  0  0
   -3.3702    1.7932   -1.3407 H   0  0  0  0  0  0  0  0  0  0  0  0
   -3.6304   -0.1305   -3.4180 H   0  0  0  0  0  0  0  0  0  0  0  0
   -6.9845    0.7391   -4.3474 H   0  0  0  0  0  0  0  0  0  0  0  0
   -5.5249   -0.0628   -4.8517 H   0  0  0  0  0  0  0  0  0  0  0  0
   -7.1128    1.8077   -2.1582 H   0  0  0  0  0  0  0  0  0  0  0  0
   -5.7417    1.7702   -1.0941 H   0  0  0  0  0  0  0  0  0  0  0  0
    1.5215    1.4506    1.0041 N   0  0  0  0  0  0  0  0  0  0  0  0
    2.2603    2.1273    2.0451 C   0  0  2  0  0  0  0  0  0  0  0  0
    2.1588    3.6262    1.7954 C   0  0  0  0  0  0  0  0  0  0  0  0
    2.1140    4.1172    0.6694 O   0  0  0  0  0  0  0  0  0  0  0  0
    3.7130    1.6782    2.0740 C   0  0  0  0  0  0  0  0  0  0  0  0
    1.5250    1.8667    0.0775 H   0  0  0  0  0  0  0  0  0  0  0  0
    1.7697    1.8803    2.9928 H   0  0  0  0  0  0  0  0  0  0  0  0
    4.2211    1.9173    1.1327 H   0  0  0  0  0  0  0  0  0  0  0  0
    4.2645    2.1707    2.8816 H   0  0  0  0  0  0  0  0  0  0  0  0
    3.7833    0.5954    2.2239 H   0  0  0  0  0  0  0  0  0  0  0  0
    2.1677    4.3539    2.9772 N   0  0  0  0  0  0  0  0  0  0  0  0
    2.1241    5.7973    3.0043 C   0  0  0  0  0  0  0  0  0  0  0  0
    2.1663    3.8629    3.8664 H   0  0  0  0  0  0  0  0  0  0  0  0
    3.1493    6.1952    3.0300 H   0  0  0  0  0  0  0  0  0  0  0  0
    1.6104    6.1655    2.1040 H   0  0  0  0  0  0  0  0  0  0  0  0
    1.5790    6.1308    3.8997 H   0  0  0  0  0  0  0  0  0  0  0  0
  1  3  1  0  0  0  0
  1  7  1  0  0  0  0
  1  2  2  0  0  0  0
 42 43  1  0  0  0  0
 43 51  1  0  0  0  0
 43 44  2  0  0  0  0
  8  9  1  0  0  0  0
  9 17  1  0  0  0  0
  9 10  2  0  0  0  0
 18 19  1  0  0  0  0
 19 41  1  0  0  0  0
 19 20  2  0  0  0  0
 25 26  1  0  0  0  0
 25 27  1  0  0  0  0
 24 25  2  0  0  0  0
 42 45  1  0  0  0  0
  8 11  1  0  0  0  0
 51 52  1  0  0  0  0
 21 22  1  0  0  0  0
 22 23  1  0  0  0  0
 18 21  1  0  0  0  0
 23 24  1  0  0  0  0
 41 42  1  0  0  0  0
  7  8  1  0  0  0  0
 17 18  1  0  0  0  0
  3  4  1  0  0  0  0
  3  5  1  0  0  0  0
  3  6  1  0  0  0  0
 45 48  1  0  0  0  0
 45 49  1  0  0  0  0
 45 50  1  0  0  0  0
 11 14  1  0  0  0  0
 11 15  1  0  0  0  0
 11 16  1  0  0  0  0
 52 54  1  0  0  0  0
 52 55  1  0  0  0  0
 52 56  1  0  0  0  0
 22 32  1  0  0  0  0
 22 33  1  0  0  0  0
 21 30  1  0  0  0  0
 21 31  1  0  0  0  0
 23 34  1  0  0  0  0
 23 35  1  0  0  0  0
 42 47  1  0  0  0  0
  8 13  1  0  0  0  0
 18 29  1  0  0  0  0
 26 37  1  0  0  0  0
 26 38  1  0  0  0  0
 27 39  1  0  0  0  0
 27 40  1  0  0  0  0
 51 53  1  0  0  0  0
  7 12  1  0  0  0  0
 41 46  1  0  0  0  0
 17 28  1  0  0  0  0
 24 36  1  0  0  0  0
M  CHG  1  24   1
M  END
$$$$

  -OEChem-05262214473D

 56 55  0     1  0  0  0  0  0999 V2000
    0.7735   -5.8042   -2.0022 C   0  0  0  0  0  0  0  0  0  0  0  0
   -0.2086   -6.3825   -1.5519 O   0  0  0  0  0  0  0  0  0  0  0  0
    1.4751   -6.3646   -3.1946 C   0  0  0  0  0  0  0  0  0  0  0  0
    2.2765   -7.0687   -2.9186 H   0  0  0  0  0  0  0  0  0  0  0  0
    0.7988   -6.9360   -3.8504 H   0  0  0  0  0  0  0  0  0  0  0  0
    1.9556   -5.6216   -3.8511 H   0  0  0  0  0  0  0  0  0  0  0  0
    1.3322   -4.6359   -1.5106 N   0  0  0  0  0  0  0  0  0  0  0  0
    0.8124   -3.9290   -0.3698 C   0  0  2  0  0  0  0  0  0  0  0  0
    1.0666   -2.4424   -0.5818 C   0  0  0  0  0  0  0  0  0  0  0  0
    2.0598   -2.0076   -1.1610 O   0  0  0  0  0  0  0  0  0  0  0  0
    1.4560   -4.4118    0.9207 C   0  0  0  0  0  0  0  0  0  0  0  0
    2.1528   -4.2578   -1.9805 H   0  0  0  0  0  0  0  0  0  0  0  0
   -0.2667   -4.1160   -0.3467 H   0  0  0  0  0  0  0  0  0  0  0  0
    2.5374   -4.2329    0.9160 H   0  0  0  0  0  0  0  0  0  0  0  0
    1.0390   -3.8932    1.7903 H   0  0  0  0  0  0  0  0  0  0  0  0
    1.2976   -5.4871    1.0566 H   0  0  0  0  0  0  0  0  0  0  0  0
    0.0755   -1.6529   -0.0105 N   0  0  0  0  0  0  0  0  0  0  0  0
    0.1113   -0.2132   -0.0391 C   0  0  2  0  0  0  0  0  0  0  0  0
    0.8532    0.2516    1.2095 C   0  0  0  0  0  0  0  0  0  0  0  0
    1.0401   -0.4727    2.1850 O   0  0  0  0  0  0  0  0  0  0  0  0
   -1.2932    0.3970   -0.0856 C   0  0  0  0  0  0  0  0  0  0  0  0
   -2.0180    0.0949   -1.4027 C   0  0  0  0  0  0  0  0  0  0  0  0
   -3.4154    0.7047   -1.4435 C   0  0  0  0  0  0  0  0  0  0  0  0
   -4.1115    0.3950   -2.6902 N   0  3  0  0  0  0  0  0  0  0  0  0
   -5.4277    0.7939   -2.9304 C   0  0  0  0  0  0  0  0  0  0  0  0
   -6.0274    0.4634   -4.1410 N   0  0  0  0  0  0  0  0  0  0  0  0
   -6.1542    1.5148   -1.9883 N   0  0  0  0  0  0  0  0  0  0  0  0
   -0.7323   -2.1024    0.4149 H   0  0  0  0  0  0  0  0  0  0  0  0
    0.6893    0.0725   -0.9254 H   0  0  0  0  0  0  0  0  0  0  0  0
   -1.2240    1.4831    0.0493 H   0  0  0  0  0  0  0  0  0  0  0  0
   -1.8908    0.0183    0.7541 H   0  0  0  0  0  0  0  0  0  0  0  0
   -1.4270    0.4771   -2.2436 H   0  0  0  0  0  0  0  0  0  0  0  0
   -2.1091   -0.9896   -1.5322 H   0  0  0  0  0  0  0  0  0  0  0  0
   -4.0182    0.2986   -0.6254 H   0  0  0  0  0  0  0  0  0  0  0  0
   -3.3702    1.7932   -1.3407 H   0  0  0  0  0  0  0  0  0  0  0  0
   -3.6304   -0.1305   -3.4180 H   0  0  0  0  0  0  0  0  0  0  0  0
   -6.9845    0.7391   -4.3474 H   0  0  0  0  0  0  0  0  0  0  0  0
   -5.5249   -0.0628   -4.8517 H   0  0  0  0  0  0  0  0  0  0  0  0
   -7.1128    1.8077   -2.1582 H   0  0  0  0  0  0  0  0  0  0  0  0
   -5.7417    1.7702   -1.0941 H   0  0  0  0  0  0  0  0  0  0  0  0
    1.2371    1.5826    1.1239 N   0  0  0  0  0  0  0  0  0  0  0  0
    1.9130    2.2765    2.1959 C   0  0  2  0  0  0  0  0  0  0  0  0
    1.4810    3.7364    2.1572 C   0  0  0  0  0  0  0  0  0  0  0  0
    1.2316    4.3347    1.1127 O   0  0  0  0  0  0  0  0  0  0  0  0
    3.4234    2.1531    2.0693 C   0  0  0  0  0  0  0  0  0  0  0  0
    1.0688    2.0955    0.2635 H   0  0  0  0  0  0  0  0  0  0  0  0
    1.5738    1.8194    3.1319 H   0  0  0  0  0  0  0  0  0  0  0  0
    3.7818    2.6056    1.1374 H   0  0  0  0  0  0  0  0  0  0  0  0
    3.9334    2.6552    2.8980 H   0  0  0  0  0  0  0  0  0  0  0  0
    3.7297    1.1014    2.0674 H   0  0  0  0  0  0  0  0  0  0  0  0
    1.4483    4.3048    3.4229 N   0  0  0  0  0  0  0  0  0  0  0  0
    1.1098    5.6909    3.6466 C   0  0  0  0  0  0  0  0  0  0  0  0
    1.6308    3.7242    4.2362 H   0  0  0  0  0  0  0  0  0  0  0  0
    2.0284    6.2959    3.6585 H   0  0  0  0  0  0  0  0  0  0  0  0
    0.4500    6.0420    2.8395 H   0  0  0  0  0  0  0  0  0  0  0  0
    0.5927    5.7906    4.6124 H   0  0  0  0  0  0  0  0  0  0  0  0
  1  3  1  0  0  0  0
  1  7  1  0  0  0  0
  1  2  2  0  0  0  0
 42 43  1  0  0  0  0
 43 51  1  0  0  0  0
 43 44  2  0  0  0  0
  8  9  1  0  0  0  0
  9 17  1  0  0  0  0
  9 10  2  0  0  0  0
 18 19  1  0  0  0  0
 19 41  1  0  0  0  0
 19 20  2  0  0  0  0
 25 26  1  0  0  0  0
 25 27  1  0  0  0  0
 24 25  2  0  0  0  0
 42 45  1  0  0  0  0
  8 11  1  0  0  0  0
 51 52  1  0  0  0  0
 21 22  1  0  0  0  0
 22 23  1  0  0  0  0
 18 21  1  0  0  0  0
 23 24  1  0  0  0  0
 41 42  1  0  0  0  0
  7  8  1  0  0  0  0
 17 18  1  0  0  0  0
  3  4  1  0  0  0  0
  3  5  1  0  0  0  0
  3  6  1  0  0  0  0
 45 48  1  0  0  0  0
 45 49  1  0  0  0  0
 45 50  1  0  0  0  0
 11 14  1  0  0  0  0
 11 15  1  0  0  0  0
 11 16  1  0  0  0  0
 52 54  1  0  0  0  0
 52 55  1  0  0  0  0
 52 56  1  0  0  0  0
 22 32  1  0  0  0  0
 22 33  1  0  0  0  0
 21 30  1  0  0  0  0
 21 31  1  0  0  0  0
 23 34  1  0  0  0  0
 23 35  1  0  0  0  0
 42 47  1  0  0  0  0
  8 13  1  0  0  0  0
 18 29  1  0  0  0  0
 26 37  1  0  0  0  0
 26 38  1  0  0  0  0
 27 39  1  0  0  0  0
 27 40  1  0  0  0  0
 51 53  1  0  0  0  0
  7 12  1  0  0  0  0
 41 46  1  0  0  0  0
 17 28  1  0  0  0  0
 24 36  1  0  0  0  0
M  CHG  1  24   1
M  END
$$$$

  -OEChem-05262214473D

 56 55  0     1  0  0  0  0  0999 V2000
    0.7735   -5.8042   -2.0022 C   0  0  0  0  0  0  0  0  0  0  0  0
   -0.2086   -6.3825   -1.5519 O   0  0  0  0  0  0  0  0  0  0  0  0
    1.4751   -6.3646   -3.1946 C   0  0  0  0  0  0  0  0  0  0  0  0
    2.2765   -7.0687   -2.9186 H   0  0  0  0  0  0  0  0  0  0  0  0
    0.7988   -6.9360   -3.8504 H   0  0  0  0  0  0  0  0  0  0  0  0
    1.9556   -5.6216   -3.8511 H   0  0  0  0  0  0  0  0  0  0  0  0
    1.3322   -4.6359   -1.5106 N   0  0  0  0  0  0  0  0  0  0  0  0
    0.8124   -3.9290   -0.3698 C   0  0  2  0  0  0  0  0  0  0  0  0
    1.0666   -2.4424   -0.5818 C   0  0  0  0  0  0  0  0  0  0  0  0
    2.0598   -2.0076   -1.1610 O   0  0  0  0  0  0  0  0  0  0  0  0
    1.4560   -4.4118    0.9207 C   0  0  0  0  0  0  0  0  0  0  0  0
    2.1528   -4.2578   -1.9805 H   0  0  0  0  0  0  0  0  0  0  0  0
   -0.2667   -4.1160   -0.3467 H   0  0  0  0  0  0  0  0  0  0  0  0
    2.5374   -4.2329    0.9160 H   0  0  0  0  0  0  0  0  0  0  0  0
    1.0390   -3.8932    1.7903 H   0  0  0  0  0  0  0  0  0  0  0  0
    1.2976   -5.4871    1.0566 H   0  0  0  0  0  0  0  0  0  0  0  0
    0.0755   -1.6529   -0.0105 N   0  0  0  0  0  0  0  0  0  0  0  0
    0.1113   -0.2132   -0.0391 C   0  0  2  0  0  0  0  0  0  0  0  0
    1.1537    0.2395    0.9777 C   0  0  0  0  0  0  0  0  0  0  0  0
    1.7779   -0.5443    1.6899 O   0  0  0  0  0  0  0  0  0  0  0  0
   -1.2537    0.4033    0.2828 C   0  0  0  0  0  0  0  0  0  0  0  0
   -2.2964    0.1138   -0.8036 C   0  0  0  0  0  0  0  0  0  0  0  0
   -3.6531    0.7298   -0.4779 C   0  0  0  0  0  0  0  0  0  0  0  0
   -4.6499    0.4320   -1.5040 N   0  3  0  0  0  0  0  0  0  0  0  0
   -5.9809    0.8383   -1.3931 C   0  0  0  0  0  0  0  0  0  0  0  0
   -6.8753    0.5190   -2.4093 N   0  0  0  0  0  0  0  0  0  0  0  0
   -6.4346    1.5555   -0.2910 N   0  0  0  0  0  0  0  0  0  0  0  0
   -0.7323   -2.1024    0.4149 H   0  0  0  0  0  0  0  0  0  0  0  0
    0.4421    0.0763   -1.0431 H   0  0  0  0  0  0  0  0  0  0  0  0
   -1.1455    1.4882    0.4015 H   0  0  0  0  0  0  0  0  0  0  0  0
   -1.6161    0.0212    1.2464 H   0  0  0  0  0  0  0  0  0  0  0  0
   -1.9407    0.4994   -1.7665 H   0  0  0  0  0  0  0  0  0  0  0  0
   -2.4244   -0.9694   -0.9113 H   0  0  0  0  0  0  0  0  0  0  0  0
   -4.0262    0.3205    0.4659 H   0  0  0  0  0  0  0  0  0  0  0  0
   -3.5763    1.8174   -0.3841 H   0  0  0  0  0  0  0  0  0  0  0  0
   -4.3765   -0.0903   -2.3345 H   0  0  0  0  0  0  0  0  0  0  0  0
   -7.8516    0.8002   -2.3594 H   0  0  0  0  0  0  0  0  0  0  0  0
   -6.5770   -0.0043   -3.2288 H   0  0  0  0  0  0  0  0  0  0  0  0
   -7.4028    1.8538   -0.2054 H   0  0  0  0  0  0  0  0  0  0  0  0
   -5.8034    1.8028    0.4675 H   0  0  0  0  0  0  0  0  0  0  0  0
    1.2675    1.6218    1.0291 N   0  0  0  0  0  0  0  0  0  0  0  0
    2.1515    2.3044    1.9456 C   0  0  2  0  0  0  0  0  0  0  0  0
    1.5060    3.6318    2.3210 C   0  0  0  0  0  0  0  0  0  0  0  0
    0.8203    4.2887    1.5404 O   0  0  0  0  0  0  0  0  0  0  0  0
    3.5250    2.5227    1.3304 C   0  0  0  0  0  0  0  0  0  0  0  0
    0.7338    2.1903    0.3782 H   0  0  0  0  0  0  0  0  0  0  0  0
    2.2328    1.6723    2.8366 H   0  0  0  0  0  0  0  0  0  0  0  0
    3.4637    3.1539    0.4364 H   0  0  0  0  0  0  0  0  0  0  0  0
    4.2024    3.0146    2.0364 H   0  0  0  0  0  0  0  0  0  0  0  0
    3.9753    1.5693    1.0338 H   0  0  0  0  0  0  0  0  0  0  0  0
    1.8212    4.0175    3.6164 N   0  0  0  0  0  0  0  0  0  0  0  0
    1.3643    5.2606    4.1927 C   0  0  0  0  0  0  0  0  0  0  0  0
    2.3625    3.3924    4.2062 H   0  0  0  0  0  0  0  0  0  0  0  0
    2.1219    6.0412    4.0298 H   0  0  0  0  0  0  0  0  0  0  0  0
    0.4200    5.5608    3.7150 H   0  0  0  0  0  0  0  0  0  0  0  0
    1.2025    5.1264    5.2724 H   0  0  0  0  0  0  0  0  0  0  0  0
  1  3  1  0  0  0  0
  1  7  1  0  0  0  0
  1  2  2  0  0  0  0
 42 43  1  0  0  0  0
 43 51  1  0  0  0  0
 43 44  2  0  0  0  0
  8  9  1  0  0  0  0
  9 17  1  0  0  0  0
  9 10  2  0  0  0  0
 18 19  1  0  0  0  0
 19 41  1  0  0  0  0
 19 20  2  0  0  0  0
 25 26  1  0  0  0  0
 25 27  1  0  0  0  0
 24 25  2  0  0  0  0
 42 45  1  0  0  0  0
  8 11  1  0  0  0  0
 51 52  1  0  0  0  0
 21 22  1  0  0  0  0
 22 23  1  0  0  0  0
 18 21  1  0  0  0  0
 23 24  1  0  0  0  0
 41 42  1  0  0  0  0
  7  8  1  0  0  0  0
 17 18  1  0  0  0  0
  3  4  1  0  0  0  0
  3  5  1  0  0  0  0
  3  6  1  0  0  0  0
 45 48  1  0  0  0  0
 45 49  1  0  0  0  0
 45 50  1  0  0  0  0
 11 14  1  0  0  0  0
 11 15  1  0  0  0  0
 11 16  1  0  0  0  0
 52 54  1  0  0  0  0
 52 55  1  0  0  0  0
 52 56  1  0  0  0  0
 22 32  1  0  0  0  0
 22 33  1  0  0  0  0
 21 30  1  0  0  0  0
 21 31  1  0  0  0  0
 23 34  1  0  0  0  0
 23 35  1  0  0  0  0
 42 47  1  0  0  0  0
  8 13  1  0  0  0  0
 18 29  1  0  0  0  0
 26 37  1  0  0  0  0
 26 38  1  0  0  0  0
 27 39  1  0  0  0  0
 27 40  1  0  0  0  0
 51 53  1  0  0  0  0
  7 12  1  0  0  0  0
 41 46  1  0  0  0  0
 17 28  1  0  0  0  0
 24 36  1  0  0  0  0
M  CHG  1  24   1
M  END
$$$$

  -OEChem-05262214473D

 56 55  0     1  0  0  0  0  0999 V2000
    0.7735   -5.8042   -2.0022 C   0  0  0  0  0  0  0  0  0  0  0  0
   -0.2086   -6.3825   -1.5519 O   0  0  0  0  0  0  0  0  0  0  0  0
    1.4751   -6.3646   -3.1946 C   0  0  0  0  0  0  0  0  0  0  0  0
    2.2765   -7.0687   -2.9186 H   0  0  0  0  0  0  0  0  0  0  0  0
    0.7988   -6.9360   -3.8504 H   0  0  0  0  0  0  0  0  0  0  0  0
    1.9556   -5.6216   -3.8511 H   0  0  0  0  0  0  0  0  0  0  0  0
    1.3322   -4.6359   -1.5106 N   0  0  0  0  0  0  0  0  0  0  0  0
    0.8124   -3.9290   -0.3698 C   0  0  2  0  0  0  0  0  0  0  0  0
    1.0666   -2.4424   -0.5818 C   0  0  0  0  0  0  0  0  0  0  0  0
    2.0598   -2.0076   -1.1610 O   0  0  0  0  0  0  0  0  0  0  0  0
    1.4560   -4.4118    0.9207 C   0  0  0  0  0  0  0  0  0  0  0  0
    2.1528   -4.2578   -1.9805 H   0  0  0  0  0  0  0  0  0  0  0  0
   -0.2667   -4.1160   -0.3467 H   0  0  0  0  0  0  0  0  0  0  0  0
    2.5374   -4.2329    0.9160 H   0  0  0  0  0  0  0  0  0  0  0  0
    1.0390   -3.8932    1.7903 H   0  0  0  0  0  0  0  0  0  0  0  0
    1.2976   -5.4871    1.0566 H   0  0  0  0  0  0  0  0  0  0  0  0
    0.0755   -1.6529   -0.0105 N   0  0  0  0  0  0  0  0  0  0  0  0
    0.1113   -0.2132   -0.0391 C   0  0  2  0  0  0  0  0  0  0  0  0
    1.1537    0.2395    0.9777 C   0  0  0  0  0  0  0  0  0  0  0  0
    1.9622   -0.5291    1.4942 O   0  0  0  0  0  0  0  0  0  0  0  0
   -1.2537    0.4033    0.2828 C   0  0  0  0  0  0  0  0  0  0  0  0
   -2.2964    0.1138   -0.8036 C   0  0  0  0  0  0  0  0  0  0  0  0
   -3.6531    0.7298   -0.4779 C   0  0  0  0  0  0  0  0  0  0  0  0
   -4.6499    0.4320   -1.5040 N   0  3  0  0  0  0  0  0  0  0  0  0
   -5.9809    0.8383   -1.3931 C   0  0  0  0  0  0  0  0  0  0  0  0
   -6.8753    0.5190   -2.4093 N   0  0  0  0  0  0  0  0  0  0  0  0
   -6.4346    1.5555   -0.2910 N   0  0  0  0  0  0  0  0  0  0  0  0
   -0.7323   -2.1024    0.4149 H   0  0  0  0  0  0  0  0  0  0  0  0
    0.4421    0.0763   -1.0431 H   0  0  0  0  0  0  0  0  0  0  0  0
   -1.1455    1.4882    0.4015 H   0  0  0  0  0  0  0  0  0  0  0  0
   -1.6161    0.0212    1.2464 H   0  0  0  0  0  0  0  0  0  0  0  0
   -1.9407    0.4994   -1.7665 H   0  0  0  0  0  0  0  0  0  0  0  0
   -2.4244   -0.9694   -0.9113 H   0  0  0  0  0  0  0  0  0  0  0  0
   -4.0262    0.3205    0.4659 H   0  0  0  0  0  0  0  0  0  0  0  0
   -3.5763    1.8174   -0.3841 H   0  0  0  0  0  0  0  0  0  0  0  0
   -4.3765   -0.0903   -2.3345 H   0  0  0  0  0  0  0  0  0  0  0  0
   -7.8516    0.8002   -2.3594 H   0  0  0  0  0  0  0  0  0  0  0  0
   -6.5770   -0.0043   -3.2288 H   0  0  0  0  0  0  0  0  0  0  0  0
   -7.4028    1.8538   -0.2054 H   0  0  0  0  0  0  0  0  0  0  0  0
   -5.8034    1.8028    0.4675 H   0  0  0  0  0  0  0  0  0  0  0  0
    1.0412    1.5905    1.2750 N   0  0  0  0  0  0  0  0  0  0  0  0
    1.8807    2.2547    2.2454 C   0  0  2  0  0  0  0  0  0  0  0  0
    1.0617    3.3610    2.8970 C   0  0  0  0  0  0  0  0  0  0  0  0
    0.2075    4.0073    2.2939 O   0  0  0  0  0  0  0  0  0  0  0  0
    3.1363    2.8174    1.5977 C   0  0  0  0  0  0  0  0  0  0  0  0
    0.3628    2.1563    0.7736 H   0  0  0  0  0  0  0  0  0  0  0  0
    2.1476    1.5052    2.9984 H   0  0  0  0  0  0  0  0  0  0  0  0
    2.8890    3.5701    0.8403 H   0  0  0  0  0  0  0  0  0  0  0  0
    3.7851    3.2954    2.3391 H   0  0  0  0  0  0  0  0  0  0  0  0
    3.7089    2.0248    1.1040 H   0  0  0  0  0  0  0  0  0  0  0  0
    1.4269    3.5709    4.2194 N   0  0  0  0  0  0  0  0  0  0  0  0
    0.8256    4.5952    5.0411 C   0  0  0  0  0  0  0  0  0  0  0  0
    2.1164    2.9620    4.6500 H   0  0  0  0  0  0  0  0  0  0  0  0
    1.4251    5.5154    4.9782 H   0  0  0  0  0  0  0  0  0  0  0  0
   -0.1954    4.7980    4.6855 H   0  0  0  0  0  0  0  0  0  0  0  0
    0.7887    4.2525    6.0857 H   0  0  0  0  0  0  0  0  0  0  0  0
  1  3  1  0  0  0  0
  1  7  1  0  0  0  0
  1  2  2  0  0  0  0
 42 43  1  0  0  0  0
 43 51  1  0  0  0  0
 43 44  2  0  0  0  0
  8  9  1  0  0  0  0
  9 17  1  0  0  0  0
  9 10  2  0  0  0  0
 18 19  1  0  0  0  0
 19 41  1  0  0  0  0
 19 20  2  0  0  0  0
 25 26  1  0  0  0  0
 25 27  1  0  0  0  0
 24 25  2  0  0  0  0
 42 45  1  0  0  0  0
  8 11  1  0  0  0  0
 51 52  1  0  0  0  0
 21 22  1  0  0  0  0
 22 23  1  0  0  0  0
 18 21  1  0  0  0  0
 23 24  1  0  0  0  0
 41 42  1  0  0  0  0
  7  8  1  0  0  0  0
 17 18  1  0  0  0  0
  3  4  1  0  0  0  0
  3  5  1  0  0  0  0
  3  6  1  0  0  0  0
 45 48  1  0  0  0  0
 45 49  1  0  0  0  0
 45 50  1  0  0  0  0
 11 14  1  0  0  0  0
 11 15  1  0  0  0  0
 11 16  1  0  0  0  0
 52 54  1  0  0  0  0
 52 55  1  0  0  0  0
 52 56  1  0  0  0  0
 22 32  1  0  0  0  0
 22 33  1  0  0  0  0
 21 30  1  0  0  0  0
 21 31  1  0  0  0  0
 23 34  1  0  0  0  0
 23 35  1  0  0  0  0
 42 47  1  0  0  0  0
  8 13  1  0  0  0  0
 18 29  1  0  0  0  0
 26 37  1  0  0  0  0
 26 38  1  0  0  0  0
 27 39  1  0  0  0  0
 27 40  1  0  0  0  0
 51 53  1  0  0  0  0
  7 12  1  0  0  0  0
 41 46  1  0  0  0  0
 17 28  1  0  0  0  0
 24 36  1  0  0  0  0
M  CHG  1  24   1
M  END
$$$$

  -OEChem-05262214473D

 56 55  0     1  0  0  0  0  0999 V2000
    0.7735   -5.8042   -2.0022 C   0  0  0  0  0  0  0  0  0  0  0  0
   -0.2086   -6.3825   -1.5519 O   0  0  0  0  0  0  0  0  0  0  0  0
    1.4751   -6.3646   -3.1946 C   0  0  0  0  0  0  0  0  0  0  0  0
    2.2765   -7.0687   -2.9186 H   0  0  0  0  0  0  0  0  0  0  0  0
    0.7988   -6.9360   -3.8504 H   0  0  0  0  0  0  0  0  0  0  0  0
    1.9556   -5.6216   -3.8511 H   0  0  0  0  0  0  0  0  0  0  0  0
    1.3322   -4.6359   -1.5106 N   0  0  0  0  0  0  0  0  0  0  0  0
    0.8124   -3.9290   -0.3698 C   0  0  2  0  0  0  0  0  0  0  0  0
    1.0666   -2.4424   -0.5818 C   0  0  0  0  0  0  0  0  0  0  0  0
    2.0598   -2.0076   -1.1610 O   0  0  0  0  0  0  0  0  0  0  0  0
    1.4560   -4.4118    0.9207 C   0  0  0  0  0  0  0  0  0  0  0  0
    2.1528   -4.2578   -1.9805 H   0  0  0  0  0  0  0  0  0  0  0  0
   -0.2667   -4.1160   -0.3467 H   0  0  0  0  0  0  0  0  0  0  0  0
    2.5374   -4.2329    0.9160 H   0  0  0  0  0  0  0  0  0  0  0  0
    1.0390   -3.8932    1.7903 H   0  0  0  0  0  0  0  0  0  0  0  0
    1.2976   -5.4871    1.0566 H   0  0  0  0  0  0  0  0  0  0  0  0
    0.0755   -1.6529   -0.0105 N   0  0  0  0  0  0  0  0  0  0  0  0
    0.1113   -0.2132   -0.0391 C   0  0  2  0  0  0  0  0  0  0  0  0
    1.1537    0.2395    0.9777 C   0  0  0  0  0  0  0  0  0  0  0  0
    2.1226   -0.4480    1.2937 O   0  0  0  0  0  0  0  0  0  0  0  0
   -1.2537    0.4033    0.2828 C   0  0  0  0  0  0  0  0  0  0  0  0
   -2.2964    0.1138   -0.8036 C   0  0  0  0  0  0  0  0  0  0  0  0
   -3.6531    0.7298   -0.4779 C   0  0  0  0  0  0  0  0  0  0  0  0
   -4.6499    0.4320   -1.5040 N   0  3  0  0  0  0  0  0  0  0  0  0
   -5.9809    0.8383   -1.3931 C   0  0  0  0  0  0  0  0  0  0  0  0
   -6.8753    0.5190   -2.4093 N   0  0  0  0  0  0  0  0  0  0  0  0
   -6.4346    1.5555   -0.2910 N   0  0  0  0  0  0  0  0  0  0  0  0
   -0.7323   -2.1024    0.4149 H   0  0  0  0  0  0  0  0  0  0  0  0
    0.4421    0.0763   -1.0431 H   0  0  0  0  0  0  0  0  0  0  0  0
   -1.1455    1.4882    0.4015 H   0  0  0  0  0  0  0  0  0  0  0  0
   -1.6161    0.0212    1.2464 H   0  0  0  0  0  0  0  0  0  0  0  0
   -1.9407    0.4994   -1.7665 H   0  0  0  0  0  0  0  0  0  0  0  0
   -2.4244   -0.9694   -0.9113 H   0  0  0  0  0  0  0  0  0  0  0  0
   -4.0262    0.3205    0.4659 H   0  0  0  0  0  0  0  0  0  0  0  0
   -3.5763    1.8174   -0.3841 H   0  0  0  0  0  0  0  0  0  0  0  0
   -4.3765   -0.0903   -2.3345 H   0  0  0  0  0  0  0  0  0  0  0  0
   -7.8516    0.8002   -2.3594 H   0  0  0  0  0  0  0  0  0  0  0  0
   -6.5770   -0.0043   -3.2288 H   0  0  0  0  0  0  0  0  0  0  0  0
   -7.4028    1.8538   -0.2054 H   0  0  0  0  0  0  0  0  0  0  0  0
   -5.8034    1.8028    0.4675 H   0  0  0  0  0  0  0  0  0  0  0  0
    0.8469    1.4777    1.5244 N   0  0  0  0  0  0  0  0  0  0  0  0
    1.6508    2.1068    2.5469 C   0  0  2  0  0  0  0  0  0  0  0  0
    0.7235    2.9209    3.4396 C   0  0  0  0  0  0  0  0  0  0  0  0
   -0.2779    3.4965    3.0190 O   0  0  0  0  0  0  0  0  0  0  0  0
    2.7305    2.9877    1.9379 C   0  0  0  0  0  0  0  0  0  0  0  0
    0.0408    1.9895    1.1780 H   0  0  0  0  0  0  0  0  0  0  0  0
    2.1065    1.3004    3.1317 H   0  0  0  0  0  0  0  0  0  0  0  0
    2.2930    3.8015    1.3482 H   0  0  0  0  0  0  0  0  0  0  0  0
    3.3568    3.4411    2.7133 H   0  0  0  0  0  0  0  0  0  0  0  0
    3.3784    2.4065    1.2729 H   0  0  0  0  0  0  0  0  0  0  0  0
    1.1695    2.9648    4.7532 N   0  0  0  0  0  0  0  0  0  0  0  0
    0.4853    3.7095    5.7843 C   0  0  0  0  0  0  0  0  0  0  0  0
    1.9872    2.4253    5.0215 H   0  0  0  0  0  0  0  0  0  0  0  0
    0.9157    4.7194    5.8548 H   0  0  0  0  0  0  0  0  0  0  0  0
   -0.5836    3.7832    5.5353 H   0  0  0  0  0  0  0  0  0  0  0  0
    0.6024    3.1930    6.7484 H   0  0  0  0  0  0  0  0  0  0  0  0
  1  3  1  0  0  0  0
  1  7  1  0  0  0  0
  1  2  2  0  0  0  0
 42 43  1  0  0  0  0
 43 51  1  0  0  0  0
 43 44  2  0  0  0  0
  8  9  1  0  0  0  0
  9 17  1  0  0  0  0
  9 10  2  0  0  0  0
 18 19  1  0  0  0  0
 19 41  1  0  0  0  0
 19 20  2  0  0  0  0
 25 26  1  0  0  0  0
 25 27  1  0  0  0  0
 24 25  2  0  0  0  0
 42 45  1  0  0  0  0
  8 11  1  0  0  0  0
 51 52  1  0  0  0  0
 21 22  1  0  0  0  0
 22 23  1  0  0  0  0
 18 21  1  0  0  0  0
 23 24  1  0  0  0  0
 41 42  1  0  0  0  0
  7  8  1  0  0  0  0
 17 18  1  0  0  0  0
  3  4  1  0  0  0  0
  3  5  1  0  0  0  0
  3  6  1  0  0  0  0
 45 48  1  0  0  0  0
 45 49  1  0  0  0  0
 45 50  1  0  0  0  0
 11 14  1  0  0  0  0
 11 15  1  0  0  0  0
 11 16  1  0  0  0  0
 52 54  1  0  0  0  0
 52 55  1  0  0  0  0
 52 56  1  0  0  0  0
 22 32  1  0  0  0  0
 22 33  1  0  0  0  0
 21 30  1  0  0  0  0
 21 31  1  0  0  0  0
 23 34  1  0  0  0  0
 23 35  1  0  0  0  0
 42 47  1  0  0  0  0
  8 13  1  0  0  0  0
 18 29  1  0  0  0  0
 26 37  1  0  0  0  0
 26 38  1  0  0  0  0
 27 39  1  0  0  0  0
 27 40  1  0  0  0  0
 51 53  1  0  0  0  0
  7 12  1  0  0  0  0
 41 46  1  0  0  0  0
 17 28  1  0  0  0  0
 24 36  1  0  0  0  0
M  CHG  1  24   1
M  END
$$$$

  -OEChem-05262214473D

 56 55  0     1  0  0  0  0  0999 V2000
    0.7735   -5.8042   -2.0022 C   0  0  0  0  0  0  0  0  0  0  0  0
   -0.2086   -6.3825   -1.5519 O   0  0  0  0  0  0  0  0  0  0  0  0
    1.4751   -6.3646   -3.1946 C   0  0  0  0  0  0  0  0  0  0  0  0
    2.2765   -7.0687   -2.9186 H   0  0  0  0  0  0  0  0  0  0  0  0
    0.7988   -6.9360   -3.8504 H   0  0  0  0  0  0  0  0  0  0  0  0
    1.9556   -5.6216   -3.8511 H   0  0  0  0  0  0  0  0  0  0  0  0
    1.3322   -4.6359   -1.5106 N   0  0  0  0  0  0  0  0  0  0  0  0
    0.8124   -3.9290   -0.3698 C   0  0  2  0  0  0  0  0  0  0  0  0
    1.0666   -2.4424   -0.5818 C   0  0  0  0  0  0  0  0  0  0  0  0
    2.0598   -2.0076   -1.1610 O   0  0  0  0  0  0  0  0  0  0  0  0
    1.4560   -4.4118    0.9207 C   0  0  0  0  0  0  0  0  0  0  0  0
    2.1528   -4.2578   -1.9805 H   0  0  0  0  0  0  0  0  0  0  0  0
   -0.2667   -4.1160   -0.3467 H   0  0  0  0  0  0  0  0  0  0  0  0
    2.5374   -4.2329    0.9160 H   0  0  0  0  0  0  0  0  0  0  0  0
    1.0390   -3.8932    1.7903 H   0  0  0  0  0  0  0  0  0  0  0  0
    1.2976   -5.4871    1.0566 H   0  0  0  0  0  0  0  0  0  0  0  0
    0.0755   -1.6529   -0.0105 N   0  0  0  0  0  0  0  0  0  0  0  0
    0.1113   -0.2132   -0.0391 C   0  0  2  0  0  0  0  0  0  0  0  0
    1.1537    0.2395    0.9777 C   0  0  0  0  0  0  0  0  0  0  0  0
    2.2481   -0.3065    1.1021 O   0  0  0  0  0  0  0  0  0  0  0  0
   -1.2537    0.4033    0.2828 C   0  0  0  0  0  0  0  0  0  0  0  0
   -2.2964    0.1138   -0.8036 C   0  0  0  0  0  0  0  0  0  0  0  0
   -3.6531    0.7298   -0.4779 C   0  0  0  0  0  0  0  0  0  0  0  0
   -4.6499    0.4320   -1.5040 N   0  3  0  0  0  0  0  0  0  0  0  0
   -5.9809    0.8383   -1.3931 C   0  0  0  0  0  0  0  0  0  0  0  0
   -6.8753    0.5190   -2.4093 N   0  0  0  0  0  0  0  0  0  0  0  0
   -6.4346    1.5555   -0.2910 N   0  0  0  0  0  0  0  0  0  0  0  0
   -0.7323   -2.1024    0.4149 H   0  0  0  0  0  0  0  0  0  0  0  0
    0.4421    0.0763   -1.0431 H   0  0  0  0  0  0  0  0  0  0  0  0
   -1.1455    1.4882    0.4015 H   0  0  0  0  0  0  0  0  0  0  0  0
   -1.6161    0.0212    1.2464 H   0  0  0  0  0  0  0  0  0  0  0  0
   -1.9407    0.4994   -1.7665 H   0  0  0  0  0  0  0  0  0  0  0  0
   -2.4244   -0.9694   -0.9113 H   0  0  0  0  0  0  0  0  0  0  0  0
   -4.0262    0.3205    0.4659 H   0  0  0  0  0  0  0  0  0  0  0  0
   -3.5763    1.8174   -0.3841 H   0  0  0  0  0  0  0  0  0  0  0  0
   -4.3765   -0.0903   -2.3345 H   0  0  0  0  0  0  0  0  0  0  0  0
   -7.8516    0.8002   -2.3594 H   0  0  0  0  0  0  0  0  0  0  0  0
   -6.5770   -0.0043   -3.2288 H   0  0  0  0  0  0  0  0  0  0  0  0
   -7.4028    1.8538   -0.2054 H   0  0  0  0  0  0  0  0  0  0  0  0
   -5.8034    1.8028    0.4675 H   0  0  0  0  0  0  0  0  0  0  0  0
    0.6978    1.2911    1.7603 N   0  0  0  0  0  0  0  0  0  0  0  0
    1.4773    1.8710    2.8297 C   0  0  2  0  0  0  0  0  0  0  0  0
    0.5145    2.3414    3.9119 C   0  0  0  0  0  0  0  0  0  0  0  0
   -0.6029    2.7909    3.6663 O   0  0  0  0  0  0  0  0  0  0  0  0
    2.3353    3.0219    2.3278 C   0  0  0  0  0  0  0  0  0  0  0  0
   -0.2104    1.7013    1.5638 H   0  0  0  0  0  0  0  0  0  0  0  0
    2.1124    1.0719    3.2273 H   0  0  0  0  0  0  0  0  0  0  0  0
    1.7164    3.8323    1.9256 H   0  0  0  0  0  0  0  0  0  0  0  0
    2.9467    3.4417    3.1334 H   0  0  0  0  0  0  0  0  0  0  0  0
    3.0063    2.6883    1.5289 H   0  0  0  0  0  0  0  0  0  0  0  0
    1.0664    2.2405    5.1813 N   0  0  0  0  0  0  0  0  0  0  0  0
    0.3665    2.6638    6.3716 C   0  0  0  0  0  0  0  0  0  0  0  0
    1.9834    1.8188    5.2954 H   0  0  0  0  0  0  0  0  0  0  0  0
    0.6283    3.7075    6.5999 H   0  0  0  0  0  0  0  0  0  0  0  0
   -0.7182    2.5857    6.2064 H   0  0  0  0  0  0  0  0  0  0  0  0
    0.6561    2.0203    7.2155 H   0  0  0  0  0  0  0  0  0  0  0  0
  1  3  1  0  0  0  0
  1  7  1  0  0  0  0
  1  2  2  0  0  0  0
 42 43  1  0  0  0  0
 43 51  1  0  0  0  0
 43 44  2  0  0  0  0
  8  9  1  0  0  0  0
  9 17  1  0  0  0  0
  9 10  2  0  0  0  0
 18 19  1  0  0  0  0
 19 41  1  0  0  0  0
 19 20  2  0  0  0  0
 25 26  1  0  0  0  0
 25 27  1  0  0  0  0
 24 25  2  0  0  0  0
 42 45  1  0  0  0  0
  8 11  1  0  0  0  0
 51 52  1  0  0  0  0
 21 22  1  0  0  0  0
 22 23  1  0  0  0  0
 18 21  1  0  0  0  0
 23 24  1  0  0  0  0
 41 42  1  0  0  0  0
  7  8  1  0  0  0  0
 17 18  1  0  0  0  0
  3  4  1  0  0  0  0
  3  5  1  0  0  0  0
  3  6  1  0  0  0  0
 45 48  1  0  0  0  0
 45 49  1  0  0  0  0
 45 50  1  0  0  0  0
 11 14  1  0  0  0  0
 11 15  1  0  0  0  0
 11 16  1  0  0  0  0
 52 54  1  0  0  0  0
 52 55  1  0  0  0  0
 52 56  1  0  0  0  0
 22 32  1  0  0  0  0
 22 33  1  0  0  0  0
 21 30  1  0  0  0  0
 21 31  1  0  0  0  0
 23 34  1  0  0  0  0
 23 35  1  0  0  0  0
 42 47  1  0  0  0  0
  8 13  1  0  0  0  0
 18 29  1  0  0  0  0
 26 37  1  0  0  0  0
 26 38  1  0  0  0  0
 27 39  1  0  0  0  0
 27 40  1  0  0  0  0
 51 53  1  0  0  0  0
  7 12  1  0  0  0  0
 41 46  1  0  0  0  0
 17 28  1  0  0  0  0
 24 36  1  0  0  0  0
M  CHG  1  24   1
M  END
$$$$

  -OEChem-05262214473D

 56 55  0     1  0  0  0  0  0999 V2000
    0.7735   -5.8042   -2.0022 C   0  0  0  0  0  0  0  0  0  0  0  0
   -0.2086   -6.3825   -1.5519 O   0  0  0  0  0  0  0  0  0  0  0  0
    1.4751   -6.3646   -3.1946 C   0  0  0  0  0  0  0  0  0  0  0  0
    2.2765   -7.0687   -2.9186 H   0  0  0  0  0  0  0  0  0  0  0  0
    0.7988   -6.9360   -3.8504 H   0  0  0  0  0  0  0  0  0  0  0  0
    1.9556   -5.6216   -3.8511 H   0  0  0  0  0  0  0  0  0  0  0  0
    1.3322   -4.6359   -1.5106 N   0  0  0  0  0  0  0  0  0  0  0  0
    0.8124   -3.9290   -0.3698 C   0  0  2  0  0  0  0  0  0  0  0  0
    1.0666   -2.4424   -0.5818 C   0  0  0  0  0  0  0  0  0  0  0  0
    2.0598   -2.0076   -1.1610 O   0  0  0  0  0  0  0  0  0  0  0  0
    1.4560   -4.4118    0.9207 C   0  0  0  0  0  0  0  0  0  0  0  0
    2.1528   -4.2578   -1.9805 H   0  0  0  0  0  0  0  0  0  0  0  0
   -0.2667   -4.1160   -0.3467 H   0  0  0  0  0  0  0  0  0  0  0  0
    2.5374   -4.2329    0.9160 H   0  0  0  0  0  0  0  0  0  0  0  0
    1.0390   -3.8932    1.7903 H   0  0  0  0  0  0  0  0  0  0  0  0
    1.2976   -5.4871    1.0566 H   0  0  0  0  0  0  0  0  0  0  0  0
    0.0755   -1.6529   -0.0105 N   0  0  0  0  0  0  0  0  0  0  0  0
    0.1113   -0.2132   -0.0391 C   0  0  2  0  0  0  0  0  0  0  0  0
    1.1537    0.2395    0.9777 C   0  0  0  0  0  0  0  0  0  0  0  0
    2.3302   -0.1143    0.9323 O   0  0  0  0  0  0  0  0  0  0  0  0
   -1.2537    0.4033    0.2828 C   0  0  0  0  0  0  0  0  0  0  0  0
   -2.2964    0.1138   -0.8036 C   0  0  0  0  0  0  0  0  0  0  0  0
   -3.6531    0.7298   -0.4779 C   0  0  0  0  0  0  0  0  0  0  0  0
   -4.6499    0.4320   -1.5040 N   0  3  0  0  0  0  0  0  0  0  0  0
   -5.9809    0.8383   -1.3931 C   0  0  0  0  0  0  0  0  0  0  0  0
   -6.8753    0.5190   -2.4093 N   0  0  0  0  0  0  0  0  0  0  0  0
   -6.4346    1.5555   -0.2910 N   0  0  0  0  0  0  0  0  0  0  0  0
   -0.7323   -2.1024    0.4149 H   0  0  0  0  0  0  0  0  0  0  0  0
    0.4421    0.0763   -1.0431 H   0  0  0  0  0  0  0  0  0  0  0  0
   -1.1455    1.4882    0.4015 H   0  0  0  0  0  0  0  0  0  0  0  0
   -1.6161    0.0212    1.2464 H   0  0  0  0  0  0  0  0  0  0  0  0
   -1.9407    0.4994   -1.7665 H   0  0  0  0  0  0  0  0  0  0  0  0
   -2.4244   -0.9694   -0.9113 H   0  0  0  0  0  0  0  0  0  0  0  0
   -4.0262    0.3205    0.4659 H   0  0  0  0  0  0  0  0  0  0  0  0
   -3.5763    1.8174   -0.3841 H   0  0  0  0  0  0  0  0  0  0  0  0
   -4.3765   -0.0903   -2.3345 H   0  0  0  0  0  0  0  0  0  0  0  0
   -7.8516    0.8002   -2.3594 H   0  0  0  0  0  0  0  0  0  0  0  0
   -6.5770   -0.0043   -3.2288 H   0  0  0  0  0  0  0  0  0  0  0  0
   -7.4028    1.8538   -0.2054 H   0  0  0  0  0  0  0  0  0  0  0  0
   -5.8034    1.8028    0.4675 H   0  0  0  0  0  0  0  0  0  0  0  0
    0.6042    1.0435    1.9666 N   0  0  0  0  0  0  0  0  0  0  0  0
    1.3723    1.5632    3.0745 C   0  0  2  0  0  0  0  0  0  0  0  0
    0.4489    1.6621    4.2816 C   0  0  0  0  0  0  0  0  0  0  0  0
   -0.7454    1.9388    4.1917 O   0  0  0  0  0  0  0  0  0  0  0  0
    1.9776    2.9178    2.7408 C   0  0  0  0  0  0  0  0  0  0  0  0
   -0.3737    1.3113    1.9048 H   0  0  0  0  0  0  0  0  0  0  0  0
    2.1649    0.8353    3.2789 H   0  0  0  0  0  0  0  0  0  0  0  0
    1.1986    3.6603    2.5330 H   0  0  0  0  0  0  0  0  0  0  0  0
    2.5828    3.2972    3.5708 H   0  0  0  0  0  0  0  0  0  0  0  0
    2.6179    2.8509    1.8546 H   0  0  0  0  0  0  0  0  0  0  0  0
    1.1248    1.4473    5.4746 N   0  0  0  0  0  0  0  0  0  0  0  0
    0.4774    1.5293    6.7631 C   0  0  0  0  0  0  0  0  0  0  0  0
    2.1056    1.1839    5.4528 H   0  0  0  0  0  0  0  0  0  0  0  0
    0.5826    2.5487    7.1627 H   0  0  0  0  0  0  0  0  0  0  0  0
   -0.5899    1.2870    6.6531 H   0  0  0  0  0  0  0  0  0  0  0  0
    0.9463    0.8142    7.4550 H   0  0  0  0  0  0  0  0  0  0  0  0
  1  3  1  0  0  0  0
  1  7  1  0  0  0  0
  1  2  2  0  0  0  0
 42 43  1  0  0  0  0
 43 51  1  0  0  0  0
 43 44  2  0  0  0  0
  8  9  1  0  0  0  0
  9 17  1  0  0  0  0
  9 10  2  0  0  0  0
 18 19  1  0  0  0  0
 19 41  1  0  0  0  0
 19 20  2  0  0  0  0
 25 26  1  0  0  0  0
 25 27  1  0  0  0  0
 24 25  2  0  0  0  0
 42 45  1  0  0  0  0
  8 11  1  0  0  0  0
 51 52  1  0  0  0  0
 21 22  1  0  0  0  0
 22 23  1  0  0  0  0
 18 21  1  0  0  0  0
 23 24  1  0  0  0  0
 41 42  1  0  0  0  0
  7  8  1  0  0  0  0
 17 18  1  0  0  0  0
  3  4  1  0  0  0  0
  3  5  1  0  0  0  0
  3  6  1  0  0  0  0
 45 48  1  0  0  0  0
 45 49  1  0  0  0  0
 45 50  1  0  0  0  0
 11 14  1  0  0  0  0
 11 15  1  0  0  0  0
 11 16  1  0  0  0  0
 52 54  1  0  0  0  0
 52 55  1  0  0  0  0
 52 56  1  0  0  0  0
 22 32  1  0  0  0  0
 22 33  1  0  0  0  0
 21 30  1  0  0  0  0
 21 31  1  0  0  0  0
 23 34  1  0  0  0  0
 23 35  1  0  0  0  0
 42 47  1  0  0  0  0
  8 13  1  0  0  0  0
 18 29  1  0  0  0  0
 26 37  1  0  0  0  0
 26 38  1  0  0  0  0
 27 39  1  0  0  0  0
 27 40  1  0  0  0  0
 51 53  1  0  0  0  0
  7 12  1  0  0  0  0
 41 46  1  0  0  0  0
 17 28  1  0  0  0  0
 24 36  1  0  0  0  0
M  CHG  1  24   1
M  END
$$$$

  -OEChem-05262214473D

 56 55  0     1  0  0  0  0  0999 V2000
    0.7735   -5.8042   -2.0022 C   0  0  0  0  0  0  0  0  0  0  0  0
   -0.2086   -6.3825   -1.5519 O   0  0  0  0  0  0  0  0  0  0  0  0
    1.4751   -6.3646   -3.1946 C   0  0  0  0  0  0  0  0  0  0  0  0
    2.2765   -7.0687   -2.9186 H   0  0  0  0  0  0  0  0  0  0  0  0
    0.7988   -6.9360   -3.8504 H   0  0  0  0  0  0  0  0  0  0  0  0
    1.9556   -5.6216   -3.8511 H   0  0  0  0  0  0  0  0  0  0  0  0
    1.3322   -4.6359   -1.5106 N   0  0  0  0  0  0  0  0  0  0  0  0
    0.8124   -3.9290   -0.3698 C   0  0  2  0  0  0  0  0  0  0  0  0
    1.0666   -2.4424   -0.5818 C   0  0  0  0  0  0  0  0  0  0  0  0
    2.0598   -2.0076   -1.1610 O   0  0  0  0  0  0  0  0  0  0  0  0
    1.4560   -4.4118    0.9207 C   0  0  0  0  0  0  0  0  0  0  0  0
    2.1528   -4.2578   -1.9805 H   0  0  0  0  0  0  0  0  0  0  0  0
   -0.2667   -4.1160   -0.3467 H   0  0  0  0  0  0  0  0  0  0  0  0
    2.5374   -4.2329    0.9160 H   0  0  0  0  0  0  0  0  0  0  0  0
    1.0390   -3.8932    1.7903 H   0  0  0  0  0  0  0  0  0  0  0  0
    1.2976   -5.4871    1.0566 H   0  0  0  0  0  0  0  0  0  0  0  0
    0.0755   -1.6529   -0.0105 N   0  0  0  0  0  0  0  0  0  0  0  0
    0.1113   -0.2132   -0.0391 C   0  0  2  0  0  0  0  0  0  0  0  0
    1.1537    0.2395    0.9777 C   0  0  0  0  0  0  0  0  0  0  0  0
    2.3632    0.1156    0.7961 O   0  0  0  0  0  0  0  0  0  0  0  0
   -1.2537    0.4033    0.2828 C   0  0  0  0  0  0  0  0  0  0  0  0
   -2.2964    0.1138   -0.8036 C   0  0  0  0  0  0  0  0  0  0  0  0
   -3.6531    0.7298   -0.4779 C   0  0  0  0  0  0  0  0  0  0  0  0
   -4.6499    0.4320   -1.5040 N   0  3  0  0  0  0  0  0  0  0  0  0
   -5.9809    0.8383   -1.3931 C   0  0  0  0  0  0  0  0  0  0  0  0
   -6.8753    0.5190   -2.4093 N   0  0  0  0  0  0  0  0  0  0  0  0
   -6.4346    1.5555   -0.2910 N   0  0  0  0  0  0  0  0  0  0  0  0
   -0.7323   -2.1024    0.4149 H   0  0  0  0  0  0  0  0  0  0  0  0
    0.4421    0.0763   -1.0431 H   0  0  0  0  0  0  0  0  0  0  0  0
   -1.1455    1.4882    0.4015 H   0  0  0  0  0  0  0  0  0  0  0  0
   -1.6161    0.0212    1.2464 H   0  0  0  0  0  0  0  0  0  0  0  0
   -1.9407    0.4994   -1.7665 H   0  0  0  0  0  0  0  0  0  0  0  0
   -2.4244   -0.9694   -0.9113 H   0  0  0  0  0  0  0  0  0  0  0  0
   -4.0262    0.3205    0.4659 H   0  0  0  0  0  0  0  0  0  0  0  0
   -3.5763    1.8174   -0.3841 H   0  0  0  0  0  0  0  0  0  0  0  0
   -4.3765   -0.0903   -2.3345 H   0  0  0  0  0  0  0  0  0  0  0  0
   -7.8516    0.8002   -2.3594 H   0  0  0  0  0  0  0  0  0  0  0  0
   -6.5770   -0.0043   -3.2288 H   0  0  0  0  0  0  0  0  0  0  0  0
   -7.4028    1.8538   -0.2054 H   0  0  0  0  0  0  0  0  0  0  0  0
   -5.8034    1.8028    0.4675 H   0  0  0  0  0  0  0  0  0  0  0  0
    0.5723    0.7515    2.1293 N   0  0  0  0  0  0  0  0  0  0  0  0
    1.3427    1.2045    3.2645 C   0  0  2  0  0  0  0  0  0  0  0  0
    0.5312    0.9291    4.5236 C   0  0  0  0  0  0  0  0  0  0  0  0
   -0.6956    0.9982    4.5594 O   0  0  0  0  0  0  0  0  0  0  0  0
    1.6818    2.6824    3.1488 C   0  0  0  0  0  0  0  0  0  0  0  0
   -0.4379    0.8460    2.1778 H   0  0  0  0  0  0  0  0  0  0  0  0
    2.2604    0.6067    3.2827 H   0  0  0  0  0  0  0  0  0  0  0  0
    0.7747    3.2974    3.1291 H   0  0  0  0  0  0  0  0  0  0  0  0
    2.2898    3.0174    3.9957 H   0  0  0  0  0  0  0  0  0  0  0  0
    2.2397    2.8834    2.2279 H   0  0  0  0  0  0  0  0  0  0  0  0
    1.3406    0.6394    5.6131 N   0  0  0  0  0  0  0  0  0  0  0  0
    0.8104    0.3833    6.9319 C   0  0  0  0  0  0  0  0  0  0  0  0
    2.3452    0.5639    5.4832 H   0  0  0  0  0  0  0  0  0  0  0  0
    0.7818    1.3220    7.5048 H   0  0  0  0  0  0  0  0  0  0  0  0
   -0.2076   -0.0243    6.8450 H   0  0  0  0  0  0  0  0  0  0  0  0
    1.4532   -0.3432    7.4507 H   0  0  0  0  0  0  0  0  0  0  0  0
  1  3  1  0  0  0  0
  1  7  1  0  0  0  0
  1  2  2  0  0  0  0
 42 43  1  0  0  0  0
 43 51  1  0  0  0  0
 43 44  2  0  0  0  0
  8  9  1  0  0  0  0
  9 17  1  0  0  0  0
  9 10  2  0  0  0  0
 18 19  1  0  0  0  0
 19 41  1  0  0  0  0
 19 20  2  0  0  0  0
 25 26  1  0  0  0  0
 25 27  1  0  0  0  0
 24 25  2  0  0  0  0
 42 45  1  0  0  0  0
  8 11  1  0  0  0  0
 51 52  1  0  0  0  0
 21 22  1  0  0  0  0
 22 23  1  0  0  0  0
 18 21  1  0  0  0  0
 23 24  1  0  0  0  0
 41 42  1  0  0  0  0
  7  8  1  0  0  0  0
 17 18  1  0  0  0  0
  3  4  1  0  0  0  0
  3  5  1  0  0  0  0
  3  6  1  0  0  0  0
 45 48  1  0  0  0  0
 45 49  1  0  0  0  0
 45 50  1  0  0  0  0
 11 14  1  0  0  0  0
 11 15  1  0  0  0  0
 11 16  1  0  0  0  0
 52 54  1  0  0  0  0
 52 55  1  0  0  0  0
 52 56  1  0  0  0  0
 22 32  1  0  0  0  0
 22 33  1  0  0  0  0
 21 30  1  0  0  0  0
 21 31  1  0  0  0  0
 23 34  1  0  0  0  0
 23 35  1  0  0  0  0
 42 47  1  0  0  0  0
  8 13  1  0  0  0  0
 18 29  1  0  0  0  0
 26 37  1  0  0  0  0
 26 38  1  0  0  0  0
 27 39  1  0  0  0  0
 27 40  1  0  0  0  0
 51 53  1  0  0  0  0
  7 12  1  0  0  0  0
 41 46  1  0  0  0  0
 17 28  1  0  0  0  0
 24 36  1  0  0  0  0
M  CHG  1  24   1
M  END
$$$$

  -OEChem-05262214473D

 56 55  0     1  0  0  0  0  0999 V2000
    0.7735   -5.8042   -2.0022 C   0  0  0  0  0  0  0  0  0  0  0  0
   -0.2086   -6.3825   -1.5519 O   0  0  0  0  0  0  0  0  0  0  0  0
    1.4751   -6.3646   -3.1946 C   0  0  0  0  0  0  0  0  0  0  0  0
    2.2765   -7.0687   -2.9186 H   0  0  0  0  0  0  0  0  0  0  0  0
    0.7988   -6.9360   -3.8504 H   0  0  0  0  0  0  0  0  0  0  0  0
    1.9556   -5.6216   -3.8511 H   0  0  0  0  0  0  0  0  0  0  0  0
    1.3322   -4.6359   -1.5106 N   0  0  0  0  0  0  0  0  0  0  0  0
    0.8124   -3.9290   -0.3698 C   0  0  2  0  0  0  0  0  0  0  0  0
    1.0666   -2.4424   -0.5818 C   0  0  0  0  0  0  0  0  0  0  0  0
    2.0598   -2.0076   -1.1610 O   0  0  0  0  0  0  0  0  0  0  0  0
    1.4560   -4.4118    0.9207 C   0  0  0  0  0  0  0  0  0  0  0  0
    2.1528   -4.2578   -1.9805 H   0  0  0  0  0  0  0  0  0  0  0  0
   -0.2667   -4.1160   -0.3467 H   0  0  0  0  0  0  0  0  0  0  0  0
    2.5374   -4.2329    0.9160 H   0  0  0  0  0  0  0  0  0  0  0  0
    1.0390   -3.8932    1.7903 H   0  0  0  0  0  0  0  0  0  0  0  0
    1.2976   -5.4871    1.0566 H   0  0  0  0  0  0  0  0  0  0  0  0
    0.0755   -1.6529   -0.0105 N   0  0  0  0  0  0  0  0  0  0  0  0
    0.1113   -0.2132   -0.0391 C   0  0  2  0  0  0  0  0  0  0  0  0
    1.1537    0.2395    0.9777 C   0  0  0  0  0  0  0  0  0  0  0  0
    2.3450    0.3675    0.7026 O   0  0  0  0  0  0  0  0  0  0  0  0
   -1.2537    0.4033    0.2828 C   0  0  0  0  0  0  0  0  0  0  0  0
   -2.2964    0.1138   -0.8036 C   0  0  0  0  0  0  0  0  0  0  0  0
   -3.6531    0.7298   -0.4779 C   0  0  0  0  0  0  0  0  0  0  0  0
   -4.6499    0.4320   -1.5040 N   0  3  0  0  0  0  0  0  0  0  0  0
   -5.9809    0.8383   -1.3931 C   0  0  0  0  0  0  0  0  0  0  0  0
   -6.8753    0.5190   -2.4093 N   0  0  0  0  0  0  0  0  0  0  0  0
   -6.4346    1.5555   -0.2910 N   0  0  0  0  0  0  0  0  0  0  0  0
   -0.7323   -2.1024    0.4149 H   0  0  0  0  0  0  0  0  0  0  0  0
    0.4421    0.0763   -1.0431 H   0  0  0  0  0  0  0  0  0  0  0  0
   -1.1455    1.4882    0.4015 H   0  0  0  0  0  0  0  0  0  0  0  0
   -1.6161    0.0212    1.2464 H   0  0  0  0  0  0  0  0  0  0  0  0
   -1.9407    0.4994   -1.7665 H   0  0  0  0  0  0  0  0  0  0  0  0
   -2.4244   -0.9694   -0.9113 H   0  0  0  0  0  0  0  0  0  0  0  0
   -4.0262    0.3205    0.4659 H   0  0  0  0  0  0  0  0  0  0  0  0
   -3.5763    1.8174   -0.3841 H   0  0  0  0  0  0  0  0  0  0  0  0
   -4.3765   -0.0903   -2.3345 H   0  0  0  0  0  0  0  0  0  0  0  0
   -7.8516    0.8002   -2.3594 H   0  0  0  0  0  0  0  0  0  0  0  0
   -6.5770   -0.0043   -3.2288 H   0  0  0  0  0  0  0  0  0  0  0  0
   -7.4028    1.8538   -0.2054 H   0  0  0  0  0  0  0  0  0  0  0  0
   -5.8034    1.8028    0.4675 H   0  0  0  0  0  0  0  0  0  0  0  0
    0.6044    0.4353    2.2372 N   0  0  0  0  0  0  0  0  0  0  0  0
    1.3906    0.8193    3.3869 C   0  0  2  0  0  0  0  0  0  0  0  0
    0.7558    0.1926    4.6213 C   0  0  0  0  0  0  0  0  0  0  0  0
   -0.4568    0.0332    4.7444 O   0  0  0  0  0  0  0  0  0  0  0  0
    1.4681    2.3319    3.5241 C   0  0  0  0  0  0  0  0  0  0  0  0
   -0.3986    0.3373    2.3640 H   0  0  0  0  0  0  0  0  0  0  0  0
    2.3924    0.4017    3.2387 H   0  0  0  0  0  0  0  0  0  0  0  0
    0.4737    2.7683    3.6732 H   0  0  0  0  0  0  0  0  0  0  0  0
    2.0878    2.6215    4.3791 H   0  0  0  0  0  0  0  0  0  0  0  0
    1.8975    2.7834    2.6232 H   0  0  0  0  0  0  0  0  0  0  0  0
    1.6991   -0.1283    5.5874 N   0  0  0  0  0  0  0  0  0  0  0  0
    1.3428   -0.6960    6.8667 C   0  0  0  0  0  0  0  0  0  0  0  0
    2.6860    0.0010    5.3845 H   0  0  0  0  0  0  0  0  0  0  0  0
    1.2121    0.1108    7.6029 H   0  0  0  0  0  0  0  0  0  0  0  0
    0.4028   -1.2589    6.7690 H   0  0  0  0  0  0  0  0  0  0  0  0
    2.1422   -1.3728    7.2028 H   0  0  0  0  0  0  0  0  0  0  0  0
  1  3  1  0  0  0  0
  1  7  1  0  0  0  0
  1  2  2  0  0  0  0
 42 43  1  0  0  0  0
 43 51  1  0  0  0  0
 43 44  2  0  0  0  0
  8  9  1  0  0  0  0
  9 17  1  0  0  0  0
  9 10  2  0  0  0  0
 18 19  1  0  0  0  0
 19 41  1  0  0  0  0
 19 20  2  0  0  0  0
 25 26  1  0  0  0  0
 25 27  1  0  0  0  0
 24 25  2  0  0  0  0
 42 45  1  0  0  0  0
  8 11  1  0  0  0  0
 51 52  1  0  0  0  0
 21 22  1  0  0  0  0
 22 23  1  0  0  0  0
 18 21  1  0  0  0  0
 23 24  1  0  0  0  0
 41 42  1  0  0  0  0
  7  8  1  0  0  0  0
 17 18  1  0  0  0  0
  3  4  1  0  0  0  0
  3  5  1  0  0  0  0
  3  6  1  0  0  0  0
 45 48  1  0  0  0  0
 45 49  1  0  0  0  0
 45 50  1  0  0  0  0
 11 14  1  0  0  0  0
 11 15  1  0  0  0  0
 11 16  1  0  0  0  0
 52 54  1  0  0  0  0
 52 55  1  0  0  0  0
 52 56  1  0  0  0  0
 22 32  1  0  0  0  0
 22 33  1  0  0  0  0
 21 30  1  0  0  0  0
 21 31  1  0  0  0  0
 23 34  1  0  0  0  0
 23 35  1  0  0  0  0
 42 47  1  0  0  0  0
  8 13  1  0  0  0  0
 18 29  1  0  0  0  0
 26 37  1  0  0  0  0
 26 38  1  0  0  0  0
 27 39  1  0  0  0  0
 27 40  1  0  0  0  0
 51 53  1  0  0  0  0
  7 12  1  0  0  0  0
 41 46  1  0  0  0  0
 17 28  1  0  0  0  0
 24 36  1  0  0  0  0
M  CHG  1  24   1
M  END
$$$$

  -OEChem-05262214473D

 56 55  0     1  0  0  0  0  0999 V2000
    0.7735   -5.8042   -2.0022 C   0  0  0  0  0  0  0  0  0  0  0  0
   -0.2086   -6.3825   -1.5519 O   0  0  0  0  0  0  0  0  0  0  0  0
    1.4751   -6.3646   -3.1946 C   0  0  0  0  0  0  0  0  0  0  0  0
    2.2765   -7.0687   -2.9186 H   0  0  0  0  0  0  0  0  0  0  0  0
    0.7988   -6.9360   -3.8504 H   0  0  0  0  0  0  0  0  0  0  0  0
    1.9556   -5.6216   -3.8511 H   0  0  0  0  0  0  0  0  0  0  0  0
    1.3322   -4.6359   -1.5106 N   0  0  0  0  0  0  0  0  0  0  0  0
    0.8124   -3.9290   -0.3698 C   0  0  2  0  0  0  0  0  0  0  0  0
    1.0666   -2.4424   -0.5818 C   0  0  0  0  0  0  0  0  0  0  0  0
    2.0598   -2.0076   -1.1610 O   0  0  0  0  0  0  0  0  0  0  0  0
    1.4560   -4.4118    0.9207 C   0  0  0  0  0  0  0  0  0  0  0  0
    2.1528   -4.2578   -1.9805 H   0  0  0  0  0  0  0  0  0  0  0  0
   -0.2667   -4.1160   -0.3467 H   0  0  0  0  0  0  0  0  0  0  0  0
    2.5374   -4.2329    0.9160 H   0  0  0  0  0  0  0  0  0  0  0  0
    1.0390   -3.8932    1.7903 H   0  0  0  0  0  0  0  0  0  0  0  0
    1.2976   -5.4871    1.0566 H   0  0  0  0  0  0  0  0  0  0  0  0
    0.0755   -1.6529   -0.0105 N   0  0  0  0  0  0  0  0  0  0  0  0
    0.1113   -0.2132   -0.0391 C   0  0  2  0  0  0  0  0  0  0  0  0
    1.1537    0.2395    0.9777 C   0  0  0  0  0  0  0  0  0  0  0  0
    2.2768    0.6241    0.6583 O   0  0  0  0  0  0  0  0  0  0  0  0
   -1.2537    0.4033    0.2828 C   0  0  0  0  0  0  0  0  0  0  0  0
   -2.2964    0.1138   -0.8036 C   0  0  0  0  0  0  0  0  0  0  0  0
   -3.6531    0.7298   -0.4779 C   0  0  0  0  0  0  0  0  0  0  0  0
   -4.6499    0.4320   -1.5040 N   0  3  0  0  0  0  0  0  0  0  0  0
   -5.9809    0.8383   -1.3931 C   0  0  0  0  0  0  0  0  0  0  0  0
   -6.8753    0.5190   -2.4093 N   0  0  0  0  0  0  0  0  0  0  0  0
   -6.4346    1.5555   -0.2910 N   0  0  0  0  0  0  0  0  0  0  0  0
   -0.7323   -2.1024    0.4149 H   0  0  0  0  0  0  0  0  0  0  0  0
    0.4421    0.0763   -1.0431 H   0  0  0  0  0  0  0  0  0  0  0  0
   -1.1455    1.4882    0.4015 H   0  0  0  0  0  0  0  0  0  0  0  0
   -1.6161    0.0212    1.2464 H   0  0  0  0  0  0  0  0  0  0  0  0
   -1.9407    0.4994   -1.7665 H   0  0  0  0  0  0  0  0  0  0  0  0
   -2.4244   -0.9694   -0.9113 H   0  0  0  0  0  0  0  0  0  0  0  0
   -4.0262    0.3205    0.4659 H   0  0  0  0  0  0  0  0  0  0  0  0
   -3.5763    1.8174   -0.3841 H   0  0  0  0  0  0  0  0  0  0  0  0
   -4.3765   -0.0903   -2.3345 H   0  0  0  0  0  0  0  0  0  0  0  0
   -7.8516    0.8002   -2.3594 H   0  0  0  0  0  0  0  0  0  0  0  0
   -6.5770   -0.0043   -3.2288 H   0  0  0  0  0  0  0  0  0  0  0  0
   -7.4028    1.8538   -0.2054 H   0  0  0  0  0  0  0  0  0  0  0  0
   -5.8034    1.8028    0.4675 H   0  0  0  0  0  0  0  0  0  0  0  0
    0.6982    0.1163    2.2830 N   0  0  0  0  0  0  0  0  0  0  0  0
    1.5128    0.4338    3.4332 C   0  0  2  0  0  0  0  0  0  0  0  0
    1.1074   -0.4974    4.5681 C   0  0  0  0  0  0  0  0  0  0  0  0
   -0.0455   -0.8905    4.7339 O   0  0  0  0  0  0  0  0  0  0  0  0
    1.3510    1.8900    3.8409 C   0  0  0  0  0  0  0  0  0  0  0  0
   -0.2586   -0.1803    2.4509 H   0  0  0  0  0  0  0  0  0  0  0  0
    2.5519    0.2342    3.1498 H   0  0  0  0  0  0  0  0  0  0  0  0
    0.3161    2.1090    4.1283 H   0  0  0  0  0  0  0  0  0  0  0  0
    1.9904    2.1363    4.6950 H   0  0  0  0  0  0  0  0  0  0  0  0
    1.6145    2.5579    3.0137 H   0  0  0  0  0  0  0  0  0  0  0  0
    2.1760   -0.8034    5.3991 N   0  0  0  0  0  0  0  0  0  0  0  0
    2.0383   -1.6351    6.5719 C   0  0  0  0  0  0  0  0  0  0  0  0
    3.1047   -0.4665    5.1634 H   0  0  0  0  0  0  0  0  0  0  0  0
    1.8443   -1.0021    7.4503 H   0  0  0  0  0  0  0  0  0  0  0  0
    1.1996   -2.3326    6.4302 H   0  0  0  0  0  0  0  0  0  0  0  0
    2.9664   -2.2046    6.7283 H   0  0  0  0  0  0  0  0  0  0  0  0
  1  3  1  0  0  0  0
  1  7  1  0  0  0  0
  1  2  2  0  0  0  0
 42 43  1  0  0  0  0
 43 51  1  0  0  0  0
 43 44  2  0  0  0  0
  8  9  1  0  0  0  0
  9 17  1  0  0  0  0
  9 10  2  0  0  0  0
 18 19  1  0  0  0  0
 19 41  1  0  0  0  0
 19 20  2  0  0  0  0
 25 26  1  0  0  0  0
 25 27  1  0  0  0  0
 24 25  2  0  0  0  0
 42 45  1  0  0  0  0
  8 11  1  0  0  0  0
 51 52  1  0  0  0  0
 21 22  1  0  0  0  0
 22 23  1  0  0  0  0
 18 21  1  0  0  0  0
 23 24  1  0  0  0  0
 41 42  1  0  0  0  0
  7  8  1  0  0  0  0
 17 18  1  0  0  0  0
  3  4  1  0  0  0  0
  3  5  1  0  0  0  0
  3  6  1  0  0  0  0
 45 48  1  0  0  0  0
 45 49  1  0  0  0  0
 45 50  1  0  0  0  0
 11 14  1  0  0  0  0
 11 15  1  0  0  0  0
 11 16  1  0  0  0  0
 52 54  1  0  0  0  0
 52 55  1  0  0  0  0
 52 56  1  0  0  0  0
 22 32  1  0  0  0  0
 22 33  1  0  0  0  0
 21 30  1  0  0  0  0
 21 31  1  0  0  0  0
 23 34  1  0  0  0  0
 23 35  1  0  0  0  0
 42 47  1  0  0  0  0
  8 13  1  0  0  0  0
 18 29  1  0  0  0  0
 26 37  1  0  0  0  0
 26 38  1  0  0  0  0
 27 39  1  0  0  0  0
 27 40  1  0  0  0  0
 51 53  1  0  0  0  0
  7 12  1  0  0  0  0
 41 46  1  0  0  0  0
 17 28  1  0  0  0  0
 24 36  1  0  0  0  0
M  CHG  1  24   1
M  END
$$$$

  -OEChem-05262214473D

 56 55  0     1  0  0  0  0  0999 V2000
    0.7735   -5.8042   -2.0022 C   0  0  0  0  0  0  0  0  0  0  0  0
   -0.2086   -6.3825   -1.5519 O   0  0  0  0  0  0  0  0  0  0  0  0
    1.4751   -6.3646   -3.1946 C   0  0  0  0  0  0  0  0  0  0  0  0
    2.2765   -7.0687   -2.9186 H   0  0  0  0  0  0  0  0  0  0  0  0
    0.7988   -6.9360   -3.8504 H   0  0  0  0  0  0  0  0  0  0  0  0
    1.9556   -5.6216   -3.8511 H   0  0  0  0  0  0  0  0  0  0  0  0
    1.3322   -4.6359   -1.5106 N   0  0  0  0  0  0  0  0  0  0  0  0
    0.8124   -3.9290   -0.3698 C   0  0  2  0  0  0  0  0  0  0  0  0
    1.0666   -2.4424   -0.5818 C   0  0  0  0  0  0  0  0  0  0  0  0
    2.0598   -2.0076   -1.1610 O   0  0  0  0  0  0  0  0  0  0  0  0
    1.4560   -4.4118    0.9207 C   0  0  0  0  0  0  0  0  0  0  0  0
    2.1528   -4.2578   -1.9805 H   0  0  0  0  0  0  0  0  0  0  0  0
   -0.2667   -4.1160   -0.3467 H   0  0  0  0  0  0  0  0  0  0  0  0
    2.5374   -4.2329    0.9160 H   0  0  0  0  0  0  0  0  0  0  0  0
    1.0390   -3.8932    1.7903 H   0  0  0  0  0  0  0  0  0  0  0  0
    1.2976   -5.4871    1.0566 H   0  0  0  0  0  0  0  0  0  0  0  0
    0.0755   -1.6529   -0.0105 N   0  0  0  0  0  0  0  0  0  0  0  0
    0.1113   -0.2132   -0.0391 C   0  0  2  0  0  0  0  0  0  0  0  0
    1.1537    0.2395    0.9777 C   0  0  0  0  0  0  0  0  0  0  0  0
    2.1632    0.8681    0.6661 O   0  0  0  0  0  0  0  0  0  0  0  0
   -1.2537    0.4033    0.2828 C   0  0  0  0  0  0  0  0  0  0  0  0
   -2.2964    0.1138   -0.8036 C   0  0  0  0  0  0  0  0  0  0  0  0
   -3.6531    0.7298   -0.4779 C   0  0  0  0  0  0  0  0  0  0  0  0
   -4.6499    0.4320   -1.5040 N   0  3  0  0  0  0  0  0  0  0  0  0
   -5.9809    0.8383   -1.3931 C   0  0  0  0  0  0  0  0  0  0  0  0
   -6.8753    0.5190   -2.4093 N   0  0  0  0  0  0  0  0  0  0  0  0
   -6.4346    1.5555   -0.2910 N   0  0  0  0  0  0  0  0  0  0  0  0
   -0.7323   -2.1024    0.4149 H   0  0  0  0  0  0  0  0  0  0  0  0
    0.4421    0.0763   -1.0431 H   0  0  0  0  0  0  0  0  0  0  0  0
   -1.1455    1.4882    0.4015 H   0  0  0  0  0  0  0  0  0  0  0  0
   -1.6161    0.0212    1.2464 H   0  0  0  0  0  0  0  0  0  0  0  0
   -1.9407    0.4994   -1.7665 H   0  0  0  0  0  0  0  0  0  0  0  0
   -2.4244   -0.9694   -0.9113 H   0  0  0  0  0  0  0  0  0  0  0  0
   -4.0262    0.3205    0.4659 H   0  0  0  0  0  0  0  0  0  0  0  0
   -3.5763    1.8174   -0.3841 H   0  0  0  0  0  0  0  0  0  0  0  0
   -4.3765   -0.0903   -2.3345 H   0  0  0  0  0  0  0  0  0  0  0  0
   -7.8516    0.8002   -2.3594 H   0  0  0  0  0  0  0  0  0  0  0  0
   -6.5770   -0.0043   -3.2288 H   0  0  0  0  0  0  0  0  0  0  0  0
   -7.4028    1.8538   -0.2054 H   0  0  0  0  0  0  0  0  0  0  0  0
   -5.8034    1.8028    0.4675 H   0  0  0  0  0  0  0  0  0  0  0  0
    0.8475   -0.1837    2.2636 N   0  0  0  0  0  0  0  0  0  0  0  0
    1.7009    0.0744    3.4005 C   0  0  2  0  0  0  0  0  0  0  0  0
    1.5619   -1.0938    4.3677 C   0  0  0  0  0  0  0  0  0  0  0  0
    0.5104   -1.7098    4.5288 O   0  0  0  0  0  0  0  0  0  0  0  0
    1.3384    1.3869    4.0777 C   0  0  0  0  0  0  0  0  0  0  0  0
   -0.0273   -0.6715    2.4325 H   0  0  0  0  0  0  0  0  0  0  0  0
    2.7281    0.1157    3.0220 H   0  0  0  0  0  0  0  0  0  0  0  0
    0.3126    1.3644    4.4634 H   0  0  0  0  0  0  0  0  0  0  0  0
    2.0043    1.5950    4.9217 H   0  0  0  0  0  0  0  0  0  0  0  0
    1.4102    2.2221    3.3727 H   0  0  0  0  0  0  0  0  0  0  0  0
    2.7386   -1.3399    5.0612 N   0  0  0  0  0  0  0  0  0  0  0  0
    2.8496   -2.3701    6.0675 C   0  0  0  0  0  0  0  0  0  0  0  0
    3.5729   -0.8066    4.8349 H   0  0  0  0  0  0  0  0  0  0  0  0
    2.6353   -1.9410    7.0574 H   0  0  0  0  0  0  0  0  0  0  0  0
    2.1285   -3.1723    5.8518 H   0  0  0  0  0  0  0  0  0  0  0  0
    3.8695   -2.7819    6.0594 H   0  0  0  0  0  0  0  0  0  0  0  0
  1  3  1  0  0  0  0
  1  7  1  0  0  0  0
  1  2  2  0  0  0  0
 42 43  1  0  0  0  0
 43 51  1  0  0  0  0
 43 44  2  0  0  0  0
  8  9  1  0  0  0  0
  9 17  1  0  0  0  0
  9 10  2  0  0  0  0
 18 19  1  0  0  0  0
 19 41  1  0  0  0  0
 19 20  2  0  0  0  0
 25 26  1  0  0  0  0
 25 27  1  0  0  0  0
 24 25  2  0  0  0  0
 42 45  1  0  0  0  0
  8 11  1  0  0  0  0
 51 52  1  0  0  0  0
 21 22  1  0  0  0  0
 22 23  1  0  0  0  0
 18 21  1  0  0  0  0
 23 24  1  0  0  0  0
 41 42  1  0  0  0  0
  7  8  1  0  0  0  0
 17 18  1  0  0  0  0
  3  4  1  0  0  0  0
  3  5  1  0  0  0  0
  3  6  1  0  0  0  0
 45 48  1  0  0  0  0
 45 49  1  0  0  0  0
 45 50  1  0  0  0  0
 11 14  1  0  0  0  0
 11 15  1  0  0  0  0
 11 16  1  0  0  0  0
 52 54  1  0  0  0  0
 52 55  1  0  0  0  0
 52 56  1  0  0  0  0
 22 32  1  0  0  0  0
 22 33  1  0  0  0  0
 21 30  1  0  0  0  0
 21 31  1  0  0  0  0
 23 34  1  0  0  0  0
 23 35  1  0  0  0  0
 42 47  1  0  0  0  0
  8 13  1  0  0  0  0
 18 29  1  0  0  0  0
 26 37  1  0  0  0  0
 26 38  1  0  0  0  0
 27 39  1  0  0  0  0
 27 40  1  0  0  0  0
 51 53  1  0  0  0  0
  7 12  1  0  0  0  0
 41 46  1  0  0  0  0
 17 28  1  0  0  0  0
 24 36  1  0  0  0  0
M  CHG  1  24   1
M  END
$$$$

  -OEChem-05262214473D

 56 55  0     1  0  0  0  0  0999 V2000
    0.7735   -5.8042   -2.0022 C   0  0  0  0  0  0  0  0  0  0  0  0
   -0.2086   -6.3825   -1.5519 O   0  0  0  0  0  0  0  0  0  0  0  0
    1.4751   -6.3646   -3.1946 C   0  0  0  0  0  0  0  0  0  0  0  0
    2.2765   -7.0687   -2.9186 H   0  0  0  0  0  0  0  0  0  0  0  0
    0.7988   -6.9360   -3.8504 H   0  0  0  0  0  0  0  0  0  0  0  0
    1.9556   -5.6216   -3.8511 H   0  0  0  0  0  0  0  0  0  0  0  0
    1.3322   -4.6359   -1.5106 N   0  0  0  0  0  0  0  0  0  0  0  0
    0.8124   -3.9290   -0.3698 C   0  0  2  0  0  0  0  0  0  0  0  0
    1.0666   -2.4424   -0.5818 C   0  0  0  0  0  0  0  0  0  0  0  0
    2.0598   -2.0076   -1.1610 O   0  0  0  0  0  0  0  0  0  0  0  0
    1.4560   -4.4118    0.9207 C   0  0  0  0  0  0  0  0  0  0  0  0
    2.1528   -4.2578   -1.9805 H   0  0  0  0  0  0  0  0  0  0  0  0
   -0.2667   -4.1160   -0.3467 H   0  0  0  0  0  0  0  0  0  0  0  0
    2.5374   -4.2329    0.9160 H   0  0  0  0  0  0  0  0  0  0  0  0
    1.0390   -3.8932    1.7903 H   0  0  0  0  0  0  0  0  0  0  0  0
    1.2976   -5.4871    1.0566 H   0  0  0  0  0  0  0  0  0  0  0  0
    0.0755   -1.6529   -0.0105 N   0  0  0  0  0  0  0  0  0  0  0  0
    0.1113   -0.2132   -0.0391 C   0  0  2  0  0  0  0  0  0  0  0  0
    1.1537    0.2395    0.9777 C   0  0  0  0  0  0  0  0  0  0  0  0
    2.0119    1.0828    0.7256 O   0  0  0  0  0  0  0  0  0  0  0  0
   -1.2537    0.4033    0.2828 C   0  0  0  0  0  0  0  0  0  0  0  0
   -2.2964    0.1138   -0.8036 C   0  0  0  0  0  0  0  0  0  0  0  0
   -3.6531    0.7298   -0.4779 C   0  0  0  0  0  0  0  0  0  0  0  0
   -4.6499    0.4320   -1.5040 N   0  3  0  0  0  0  0  0  0  0  0  0
   -5.9809    0.8383   -1.3931 C   0  0  0  0  0  0  0  0  0  0  0  0
   -6.8753    0.5190   -2.4093 N   0  0  0  0  0  0  0  0  0  0  0  0
   -6.4346    1.5555   -0.2910 N   0  0  0  0  0  0  0  0  0  0  0  0
   -0.7323   -2.1024    0.4149 H   0  0  0  0  0  0  0  0  0  0  0  0
    0.4421    0.0763   -1.0431 H   0  0  0  0  0  0  0  0  0  0  0  0
   -1.1455    1.4882    0.4015 H   0  0  0  0  0  0  0  0  0  0  0  0
   -1.6161    0.0212    1.2464 H   0  0  0  0  0  0  0  0  0  0  0  0
   -1.9407    0.4994   -1.7665 H   0  0  0  0  0  0  0  0  0  0  0  0
   -2.4244   -0.9694   -0.9113 H   0  0  0  0  0  0  0  0  0  0  0  0
   -4.0262    0.3205    0.4659 H   0  0  0  0  0  0  0  0  0  0  0  0
   -3.5763    1.8174   -0.3841 H   0  0  0  0  0  0  0  0  0  0  0  0
   -4.3765   -0.0903   -2.3345 H   0  0  0  0  0  0  0  0  0  0  0  0
   -7.8516    0.8002   -2.3594 H   0  0  0  0  0  0  0  0  0  0  0  0
   -6.5770   -0.0043   -3.2288 H   0  0  0  0  0  0  0  0  0  0  0  0
   -7.4028    1.8538   -0.2054 H   0  0  0  0  0  0  0  0  0  0  0  0
   -5.8034    1.8028    0.4675 H   0  0  0  0  0  0  0  0  0  0  0  0
    1.0419   -0.4444    2.1803 N   0  0  0  0  0  0  0  0  0  0  0  0
    1.9421   -0.2346    3.2907 C   0  0  2  0  0  0  0  0  0  0  0  0
    2.0885   -1.5560    4.0336 C   0  0  0  0  0  0  0  0  0  0  0  0
    1.1730   -2.3690    4.1431 O   0  0  0  0  0  0  0  0  0  0  0  0
    1.4313    0.8568    4.2185 C   0  0  0  0  0  0  0  0  0  0  0  0
    0.2794   -1.1027    2.3101 H   0  0  0  0  0  0  0  0  0  0  0  0
    2.9088    0.0543    2.8640 H   0  0  0  0  0  0  0  0  0  0  0  0
    0.4635    0.5853    4.6556 H   0  0  0  0  0  0  0  0  0  0  0  0
    2.1286    1.0344    5.0439 H   0  0  0  0  0  0  0  0  0  0  0  0
    1.2983    1.7989    3.6758 H   0  0  0  0  0  0  0  0  0  0  0  0
    3.3487   -1.7013    4.5967 N   0  0  0  0  0  0  0  0  0  0  0  0
    3.7213   -2.8507    5.3879 C   0  0  0  0  0  0  0  0  0  0  0  0
    4.0586   -0.9963    4.4214 H   0  0  0  0  0  0  0  0  0  0  0  0
    3.5312   -2.6419    6.4511 H   0  0  0  0  0  0  0  0  0  0  0  0
    3.1263   -3.7208    5.0732 H   0  0  0  0  0  0  0  0  0  0  0  0
    4.7902   -3.0653    5.2419 H   0  0  0  0  0  0  0  0  0  0  0  0
  1  3  1  0  0  0  0
  1  7  1  0  0  0  0
  1  2  2  0  0  0  0
 42 43  1  0  0  0  0
 43 51  1  0  0  0  0
 43 44  2  0  0  0  0
  8  9  1  0  0  0  0
  9 17  1  0  0  0  0
  9 10  2  0  0  0  0
 18 19  1  0  0  0  0
 19 41  1  0  0  0  0
 19 20  2  0  0  0  0
 25 26  1  0  0  0  0
 25 27  1  0  0  0  0
 24 25  2  0  0  0  0
 42 45  1  0  0  0  0
  8 11  1  0  0  0  0
 51 52  1  0  0  0  0
 21 22  1  0  0  0  0
 22 23  1  0  0  0  0
 18 21  1  0  0  0  0
 23 24  1  0  0  0  0
 41 42  1  0  0  0  0
  7  8  1  0  0  0  0
 17 18  1  0  0  0  0
  3  4  1  0  0  0  0
  3  5  1  0  0  0  0
  3  6  1  0  0  0  0
 45 48  1  0  0  0  0
 45 49  1  0  0  0  0
 45 50  1  0  0  0  0
 11 14  1  0  0  0  0
 11 15  1  0  0  0  0
 11 16  1  0  0  0  0
 52 54  1  0  0  0  0
 52 55  1  0  0  0  0
 52 56  1  0  0  0  0
 22 32  1  0  0  0  0
 22 33  1  0  0  0  0
 21 30  1  0  0  0  0
 21 31  1  0  0  0  0
 23 34  1  0  0  0  0
 23 35  1  0  0  0  0
 42 47  1  0  0  0  0
  8 13  1  0  0  0  0
 18 29  1  0  0  0  0
 26 37  1  0  0  0  0
 26 38  1  0  0  0  0
 27 39  1  0  0  0  0
 27 40  1  0  0  0  0
 51 53  1  0  0  0  0
  7 12  1  0  0  0  0
 41 46  1  0  0  0  0
 17 28  1  0  0  0  0
 24 36  1  0  0  0  0
M  CHG  1  24   1
M  END
$$$$

  -OEChem-05262214473D

 56 55  0     1  0  0  0  0  0999 V2000
    0.7735   -5.8042   -2.0022 C   0  0  0  0  0  0  0  0  0  0  0  0
   -0.2086   -6.3825   -1.5519 O   0  0  0  0  0  0  0  0  0  0  0  0
    1.4751   -6.3646   -3.1946 C   0  0  0  0  0  0  0  0  0  0  0  0
    2.2765   -7.0687   -2.9186 H   0  0  0  0  0  0  0  0  0  0  0  0
    0.7988   -6.9360   -3.8504 H   0  0  0  0  0  0  0  0  0  0  0  0
    1.9556   -5.6216   -3.8511 H   0  0  0  0  0  0  0  0  0  0  0  0
    1.3322   -4.6359   -1.5106 N   0  0  0  0  0  0  0  0  0  0  0  0
    0.8124   -3.9290   -0.3698 C   0  0  2  0  0  0  0  0  0  0  0  0
    1.0666   -2.4424   -0.5818 C   0  0  0  0  0  0  0  0  0  0  0  0
    2.0598   -2.0076   -1.1610 O   0  0  0  0  0  0  0  0  0  0  0  0
    1.4560   -4.4118    0.9207 C   0  0  0  0  0  0  0  0  0  0  0  0
    2.1528   -4.2578   -1.9805 H   0  0  0  0  0  0  0  0  0  0  0  0
   -0.2667   -4.1160   -0.3467 H   0  0  0  0  0  0  0  0  0  0  0  0
    2.5374   -4.2329    0.9160 H   0  0  0  0  0  0  0  0  0  0  0  0
    1.0390   -3.8932    1.7903 H   0  0  0  0  0  0  0  0  0  0  0  0
    1.2976   -5.4871    1.0566 H   0  0  0  0  0  0  0  0  0  0  0  0
    0.0755   -1.6529   -0.0105 N   0  0  0  0  0  0  0  0  0  0  0  0
    0.1113   -0.2132   -0.0391 C   0  0  2  0  0  0  0  0  0  0  0  0
    1.1537    0.2395    0.9777 C   0  0  0  0  0  0  0  0  0  0  0  0
    1.8334    1.2535    0.8326 O   0  0  0  0  0  0  0  0  0  0  0  0
   -1.2537    0.4033    0.2828 C   0  0  0  0  0  0  0  0  0  0  0  0
   -2.2964    0.1138   -0.8036 C   0  0  0  0  0  0  0  0  0  0  0  0
   -3.6531    0.7298   -0.4779 C   0  0  0  0  0  0  0  0  0  0  0  0
   -4.6499    0.4320   -1.5040 N   0  3  0  0  0  0  0  0  0  0  0  0
   -5.9809    0.8383   -1.3931 C   0  0  0  0  0  0  0  0  0  0  0  0
   -6.8753    0.5190   -2.4093 N   0  0  0  0  0  0  0  0  0  0  0  0
   -6.4346    1.5555   -0.2910 N   0  0  0  0  0  0  0  0  0  0  0  0
   -0.7323   -2.1024    0.4149 H   0  0  0  0  0  0  0  0  0  0  0  0
    0.4421    0.0763   -1.0431 H   0  0  0  0  0  0  0  0  0  0  0  0
   -1.1455    1.4882    0.4015 H   0  0  0  0  0  0  0  0  0  0  0  0
   -1.6161    0.0212    1.2464 H   0  0  0  0  0  0  0  0  0  0  0  0
   -1.9407    0.4994   -1.7665 H   0  0  0  0  0  0  0  0  0  0  0  0
   -2.4244   -0.9694   -0.9113 H   0  0  0  0  0  0  0  0  0  0  0  0
   -4.0262    0.3205    0.4659 H   0  0  0  0  0  0  0  0  0  0  0  0
   -3.5763    1.8174   -0.3841 H   0  0  0  0  0  0  0  0  0  0  0  0
   -4.3765   -0.0903   -2.3345 H   0  0  0  0  0  0  0  0  0  0  0  0
   -7.8516    0.8002   -2.3594 H   0  0  0  0  0  0  0  0  0  0  0  0
   -6.5770   -0.0043   -3.2288 H   0  0  0  0  0  0  0  0  0  0  0  0
   -7.4028    1.8538   -0.2054 H   0  0  0  0  0  0  0  0  0  0  0  0
   -5.8034    1.8028    0.4675 H   0  0  0  0  0  0  0  0  0  0  0  0
    1.2683   -0.6478    2.0388 N   0  0  0  0  0  0  0  0  0  0  0  0
    2.2200   -0.4719    3.1116 C   0  0  2  0  0  0  0  0  0  0  0  0
    2.6513   -1.8524    3.5887 C   0  0  0  0  0  0  0  0  0  0  0  0
    1.8972   -2.8231    3.6029 O   0  0  0  0  0  0  0  0  0  0  0  0
    1.6234    0.3360    4.2535 C   0  0  0  0  0  0  0  0  0  0  0  0
    0.6407   -1.4447    2.0920 H   0  0  0  0  0  0  0  0  0  0  0  0
    3.0819    0.0540    2.6867 H   0  0  0  0  0  0  0  0  0  0  0  0
    0.7585   -0.1752    4.6918 H   0  0  0  0  0  0  0  0  0  0  0  0
    2.3548    0.4927    5.0531 H   0  0  0  0  0  0  0  0  0  0  0  0
    1.2865    1.3173    3.9023 H   0  0  0  0  0  0  0  0  0  0  0  0
    3.9646   -1.8629    4.0372 N   0  0  0  0  0  0  0  0  0  0  0  0
    4.5940   -3.0443    4.5795 C   0  0  0  0  0  0  0  0  0  0  0  0
    4.5287   -1.0225    3.9512 H   0  0  0  0  0  0  0  0  0  0  0  0
    4.4710   -3.0570    5.6725 H   0  0  0  0  0  0  0  0  0  0  0  0
    4.1248   -3.9406    4.1474 H   0  0  0  0  0  0  0  0  0  0  0  0
    5.6655   -3.0355    4.3313 H   0  0  0  0  0  0  0  0  0  0  0  0
  1  3  1  0  0  0  0
  1  7  1  0  0  0  0
  1  2  2  0  0  0  0
 42 43  1  0  0  0  0
 43 51  1  0  0  0  0
 43 44  2  0  0  0  0
  8  9  1  0  0  0  0
  9 17  1  0  0  0  0
  9 10  2  0  0  0  0
 18 19  1  0  0  0  0
 19 41  1  0  0  0  0
 19 20  2  0  0  0  0
 25 26  1  0  0  0  0
 25 27  1  0  0  0  0
 24 25  2  0  0  0  0
 42 45  1  0  0  0  0
  8 11  1  0  0  0  0
 51 52  1  0  0  0  0
 21 22  1  0  0  0  0
 22 23  1  0  0  0  0
 18 21  1  0  0  0  0
 23 24  1  0  0  0  0
 41 42  1  0  0  0  0
  7  8  1  0  0  0  0
 17 18  1  0  0  0  0
  3  4  1  0  0  0  0
  3  5  1  0  0  0  0
  3  6  1  0  0  0  0
 45 48  1  0  0  0  0
 45 49  1  0  0  0  0
 45 50  1  0  0  0  0
 11 14  1  0  0  0  0
 11 15  1  0  0  0  0
 11 16  1  0  0  0  0
 52 54  1  0  0  0  0
 52 55  1  0  0  0  0
 52 56  1  0  0  0  0
 22 32  1  0  0  0  0
 22 33  1  0  0  0  0
 21 30  1  0  0  0  0
 21 31  1  0  0  0  0
 23 34  1  0  0  0  0
 23 35  1  0  0  0  0
 42 47  1  0  0  0  0
  8 13  1  0  0  0  0
 18 29  1  0  0  0  0
 26 37  1  0  0  0  0
 26 38  1  0  0  0  0
 27 39  1  0  0  0  0
 27 40  1  0  0  0  0
 51 53  1  0  0  0  0
  7 12  1  0  0  0  0
 41 46  1  0  0  0  0
 17 28  1  0  0  0  0
 24 36  1  0  0  0  0
M  CHG  1  24   1
M  END
$$$$

  -OEChem-05262214473D

 56 55  0     1  0  0  0  0  0999 V2000
    0.7735   -5.8042   -2.0022 C   0  0  0  0  0  0  0  0  0  0  0  0
   -0.2086   -6.3825   -1.5519 O   0  0  0  0  0  0  0  0  0  0  0  0
    1.4751   -6.3646   -3.1946 C   0  0  0  0  0  0  0  0  0  0  0  0
    2.2765   -7.0687   -2.9186 H   0  0  0  0  0  0  0  0  0  0  0  0
    0.7988   -6.9360   -3.8504 H   0  0  0  0  0  0  0  0  0  0  0  0
    1.9556   -5.6216   -3.8511 H   0  0  0  0  0  0  0  0  0  0  0  0
    1.3322   -4.6359   -1.5106 N   0  0  0  0  0  0  0  0  0  0  0  0
    0.8124   -3.9290   -0.3698 C   0  0  2  0  0  0  0  0  0  0  0  0
    1.0666   -2.4424   -0.5818 C   0  0  0  0  0  0  0  0  0  0  0  0
    2.0598   -2.0076   -1.1610 O   0  0  0  0  0  0  0  0  0  0  0  0
    1.4560   -4.4118    0.9207 C   0  0  0  0  0  0  0  0  0  0  0  0
    2.1528   -4.2578   -1.9805 H   0  0  0  0  0  0  0  0  0  0  0  0
   -0.2667   -4.1160   -0.3467 H   0  0  0  0  0  0  0  0  0  0  0  0
    2.5374   -4.2329    0.9160 H   0  0  0  0  0  0  0  0  0  0  0  0
    1.0390   -3.8932    1.7903 H   0  0  0  0  0  0  0  0  0  0  0  0
    1.2976   -5.4871    1.0566 H   0  0  0  0  0  0  0  0  0  0  0  0
    0.0755   -1.6529   -0.0105 N   0  0  0  0  0  0  0  0  0  0  0  0
    0.1113   -0.2132   -0.0391 C   0  0  2  0  0  0  0  0  0  0  0  0
    1.1537    0.2395    0.9777 C   0  0  0  0  0  0  0  0  0  0  0  0
    1.6396    1.3687    0.9800 O   0  0  0  0  0  0  0  0  0  0  0  0
   -1.2537    0.4033    0.2828 C   0  0  0  0  0  0  0  0  0  0  0  0
   -2.2964    0.1138   -0.8036 C   0  0  0  0  0  0  0  0  0  0  0  0
   -3.6531    0.7298   -0.4779 C   0  0  0  0  0  0  0  0  0  0  0  0
   -4.6499    0.4320   -1.5040 N   0  3  0  0  0  0  0  0  0  0  0  0
   -5.9809    0.8383   -1.3931 C   0  0  0  0  0  0  0  0  0  0  0  0
   -6.8753    0.5190   -2.4093 N   0  0  0  0  0  0  0  0  0  0  0  0
   -6.4346    1.5555   -0.2910 N   0  0  0  0  0  0  0  0  0  0  0  0
   -0.7323   -2.1024    0.4149 H   0  0  0  0  0  0  0  0  0  0  0  0
    0.4421    0.0763   -1.0431 H   0  0  0  0  0  0  0  0  0  0  0  0
   -1.1455    1.4882    0.4015 H   0  0  0  0  0  0  0  0  0  0  0  0
   -1.6161    0.0212    1.2464 H   0  0  0  0  0  0  0  0  0  0  0  0
   -1.9407    0.4994   -1.7665 H   0  0  0  0  0  0  0  0  0  0  0  0
   -2.4244   -0.9694   -0.9113 H   0  0  0  0  0  0  0  0  0  0  0  0
   -4.0262    0.3205    0.4659 H   0  0  0  0  0  0  0  0  0  0  0  0
   -3.5763    1.8174   -0.3841 H   0  0  0  0  0  0  0  0  0  0  0  0
   -4.3765   -0.0903   -2.3345 H   0  0  0  0  0  0  0  0  0  0  0  0
   -7.8516    0.8002   -2.3594 H   0  0  0  0  0  0  0  0  0  0  0  0
   -6.5770   -0.0043   -3.2288 H   0  0  0  0  0  0  0  0  0  0  0  0
   -7.4028    1.8538   -0.2054 H   0  0  0  0  0  0  0  0  0  0  0  0
   -5.8034    1.8028    0.4675 H   0  0  0  0  0  0  0  0  0  0  0  0
    1.5113   -0.7803    1.8487 N   0  0  0  0  0  0  0  0  0  0  0  0
    2.5156   -0.6216    2.8751 C   0  0  2  0  0  0  0  0  0  0  0  0
    3.2118   -1.9630    3.0633 C   0  0  0  0  0  0  0  0  0  0  0  0
    2.6336   -3.0413    2.9451 O   0  0  0  0  0  0  0  0  0  0  0  0
    1.9015   -0.1402    4.1804 C   0  0  0  0  0  0  0  0  0  0  0  0
    1.0320   -1.6740    1.7930 H   0  0  0  0  0  0  0  0  0  0  0  0
    3.2355    0.1151    2.5021 H   0  0  0  0  0  0  0  0  0  0  0  0
    1.1775   -0.8653    4.5696 H   0  0  0  0  0  0  0  0  0  0  0  0
    2.6675    0.0069    4.9489 H   0  0  0  0  0  0  0  0  0  0  0  0
    1.3757    0.8100    4.0367 H   0  0  0  0  0  0  0  0  0  0  0  0
    4.5445   -1.8136    3.4209 N   0  0  0  0  0  0  0  0  0  0  0  0
    5.4082   -2.9377    3.6973 C   0  0  0  0  0  0  0  0  0  0  0  0
    4.9512   -0.8835    3.4563 H   0  0  0  0  0  0  0  0  0  0  0  0
    5.3906   -3.1581    4.7749 H   0  0  0  0  0  0  0  0  0  0  0  0
    5.0562   -3.8168    3.1376 H   0  0  0  0  0  0  0  0  0  0  0  0
    6.4360   -2.6946    3.3897 H   0  0  0  0  0  0  0  0  0  0  0  0
  1  3  1  0  0  0  0
  1  7  1  0  0  0  0
  1  2  2  0  0  0  0
 42 43  1  0  0  0  0
 43 51  1  0  0  0  0
 43 44  2  0  0  0  0
  8  9  1  0  0  0  0
  9 17  1  0  0  0  0
  9 10  2  0  0  0  0
 18 19  1  0  0  0  0
 19 41  1  0  0  0  0
 19 20  2  0  0  0  0
 25 26  1  0  0  0  0
 25 27  1  0  0  0  0
 24 25  2  0  0  0  0
 42 45  1  0  0  0  0
  8 11  1  0  0  0  0
 51 52  1  0  0  0  0
 21 22  1  0  0  0  0
 22 23  1  0  0  0  0
 18 21  1  0  0  0  0
 23 24  1  0  0  0  0
 41 42  1  0  0  0  0
  7  8  1  0  0  0  0
 17 18  1  0  0  0  0
  3  4  1  0  0  0  0
  3  5  1  0  0  0  0
  3  6  1  0  0  0  0
 45 48  1  0  0  0  0
 45 49  1  0  0  0  0
 45 50  1  0  0  0  0
 11 14  1  0  0  0  0
 11 15  1  0  0  0  0
 11 16  1  0  0  0  0
 52 54  1  0  0  0  0
 52 55  1  0  0  0  0
 52 56  1  0  0  0  0
 22 32  1  0  0  0  0
 22 33  1  0  0  0  0
 21 30  1  0  0  0  0
 21 31  1  0  0  0  0
 23 34  1  0  0  0  0
 23 35  1  0  0  0  0
 42 47  1  0  0  0  0
  8 13  1  0  0  0  0
 18 29  1  0  0  0  0
 26 37  1  0  0  0  0
 26 38  1  0  0  0  0
 27 39  1  0  0  0  0
 27 40  1  0  0  0  0
 51 53  1  0  0  0  0
  7 12  1  0  0  0  0
 41 46  1  0  0  0  0
 17 28  1  0  0  0  0
 24 36  1  0  0  0  0
M  CHG  1  24   1
M  END
$$$$

  -OEChem-05262214473D

 56 55  0     1  0  0  0  0  0999 V2000
    0.7735   -5.8042   -2.0022 C   0  0  0  0  0  0  0  0  0  0  0  0
   -0.2086   -6.3825   -1.5519 O   0  0  0  0  0  0  0  0  0  0  0  0
    1.4751   -6.3646   -3.1946 C   0  0  0  0  0  0  0  0  0  0  0  0
    2.2765   -7.0687   -2.9186 H   0  0  0  0  0  0  0  0  0  0  0  0
    0.7988   -6.9360   -3.8504 H   0  0  0  0  0  0  0  0  0  0  0  0
    1.9556   -5.6216   -3.8511 H   0  0  0  0  0  0  0  0  0  0  0  0
    1.3322   -4.6359   -1.5106 N   0  0  0  0  0  0  0  0  0  0  0  0
    0.8124   -3.9290   -0.3698 C   0  0  2  0  0  0  0  0  0  0  0  0
    1.0666   -2.4424   -0.5818 C   0  0  0  0  0  0  0  0  0  0  0  0
    2.0598   -2.0076   -1.1610 O   0  0  0  0  0  0  0  0  0  0  0  0
    1.4560   -4.4118    0.9207 C   0  0  0  0  0  0  0  0  0  0  0  0
    2.1528   -4.2578   -1.9805 H   0  0  0  0  0  0  0  0  0  0  0  0
   -0.2667   -4.1160   -0.3467 H   0  0  0  0  0  0  0  0  0  0  0  0
    2.5374   -4.2329    0.9160 H   0  0  0  0  0  0  0  0  0  0  0  0
    1.0390   -3.8932    1.7903 H   0  0  0  0  0  0  0  0  0  0  0  0
    1.2976   -5.4871    1.0566 H   0  0  0  0  0  0  0  0  0  0  0  0
    0.0755   -1.6529   -0.0105 N   0  0  0  0  0  0  0  0  0  0  0  0
    0.1113   -0.2132   -0.0391 C   0  0  2  0  0  0  0  0  0  0  0  0
    1.1537    0.2395    0.9777 C   0  0  0  0  0  0  0  0  0  0  0  0
    1.4440    1.4205    1.1575 O   0  0  0  0  0  0  0  0  0  0  0  0
   -1.2537    0.4033    0.2828 C   0  0  0  0  0  0  0  0  0  0  0  0
   -2.2964    0.1138   -0.8036 C   0  0  0  0  0  0  0  0  0  0  0  0
   -3.6531    0.7298   -0.4779 C   0  0  0  0  0  0  0  0  0  0  0  0
   -4.6499    0.4320   -1.5040 N   0  3  0  0  0  0  0  0  0  0  0  0
   -5.9809    0.8383   -1.3931 C   0  0  0  0  0  0  0  0  0  0  0  0
   -6.8753    0.5190   -2.4093 N   0  0  0  0  0  0  0  0  0  0  0  0
   -6.4346    1.5555   -0.2910 N   0  0  0  0  0  0  0  0  0  0  0  0
   -0.7323   -2.1024    0.4149 H   0  0  0  0  0  0  0  0  0  0  0  0
    0.4421    0.0763   -1.0431 H   0  0  0  0  0  0  0  0  0  0  0  0
   -1.1455    1.4882    0.4015 H   0  0  0  0  0  0  0  0  0  0  0  0
   -1.6161    0.0212    1.2464 H   0  0  0  0  0  0  0  0  0  0  0  0
   -1.9407    0.4994   -1.7665 H   0  0  0  0  0  0  0  0  0  0  0  0
   -2.4244   -0.9694   -0.9113 H   0  0  0  0  0  0  0  0  0  0  0  0
   -4.0262    0.3205    0.4659 H   0  0  0  0  0  0  0  0  0  0  0  0
   -3.5763    1.8174   -0.3841 H   0  0  0  0  0  0  0  0  0  0  0  0
   -4.3765   -0.0903   -2.3345 H   0  0  0  0  0  0  0  0  0  0  0  0
   -7.8516    0.8002   -2.3594 H   0  0  0  0  0  0  0  0  0  0  0  0
   -6.5770   -0.0043   -3.2288 H   0  0  0  0  0  0  0  0  0  0  0  0
   -7.4028    1.8538   -0.2054 H   0  0  0  0  0  0  0  0  0  0  0  0
   -5.8034    1.8028    0.4675 H   0  0  0  0  0  0  0  0  0  0  0  0
    1.7542   -0.8326    1.6230 N   0  0  0  0  0  0  0  0  0  0  0  0
    2.8088   -0.6733    2.5976 C   0  0  2  0  0  0  0  0  0  0  0  0
    3.7320   -1.8800    2.4931 C   0  0  0  0  0  0  0  0  0  0  0  0
    3.3320   -3.0085    2.2146 O   0  0  0  0  0  0  0  0  0  0  0  0
    2.2466   -0.5392    4.0043 C   0  0  0  0  0  0  0  0  0  0  0  0
    1.4265   -1.7752    1.4336 H   0  0  0  0  0  0  0  0  0  0  0  0
    3.3591    0.2332    2.3228 H   0  0  0  0  0  0  0  0  0  0  0  0
    1.6918   -1.4380    4.2973 H   0  0  0  0  0  0  0  0  0  0  0  0
    3.0454   -0.3899    4.7382 H   0  0  0  0  0  0  0  0  0  0  0  0
    1.5597    0.3115    4.0700 H   0  0  0  0  0  0  0  0  0  0  0  0
    5.0487   -1.5570    2.7897 N   0  0  0  0  0  0  0  0  0  0  0  0
    6.1085   -2.5381    2.8015 C   0  0  0  0  0  0  0  0  0  0  0  0
    5.2972   -0.5888    2.9703 H   0  0  0  0  0  0  0  0  0  0  0  0
    6.2272   -2.9382    3.8192 H   0  0  0  0  0  0  0  0  0  0  0  0
    5.8568   -3.3578    2.1125 H   0  0  0  0  0  0  0  0  0  0  0  0
    7.0489   -2.0658    2.4813 H   0  0  0  0  0  0  0  0  0  0  0  0
  1  3  1  0  0  0  0
  1  7  1  0  0  0  0
  1  2  2  0  0  0  0
 42 43  1  0  0  0  0
 43 51  1  0  0  0  0
 43 44  2  0  0  0  0
  8  9  1  0  0  0  0
  9 17  1  0  0  0  0
  9 10  2  0  0  0  0
 18 19  1  0  0  0  0
 19 41  1  0  0  0  0
 19 20  2  0  0  0  0
 25 26  1  0  0  0  0
 25 27  1  0  0  0  0
 24 25  2  0  0  0  0
 42 45  1  0  0  0  0
  8 11  1  0  0  0  0
 51 52  1  0  0  0  0
 21 22  1  0  0  0  0
 22 23  1  0  0  0  0
 18 21  1  0  0  0  0
 23 24  1  0  0  0  0
 41 42  1  0  0  0  0
  7  8  1  0  0  0  0
 17 18  1  0  0  0  0
  3  4  1  0  0  0  0
  3  5  1  0  0  0  0
  3  6  1  0  0  0  0
 45 48  1  0  0  0  0
 45 49  1  0  0  0  0
 45 50  1  0  0  0  0
 11 14  1  0  0  0  0
 11 15  1  0  0  0  0
 11 16  1  0  0  0  0
 52 54  1  0  0  0  0
 52 55  1  0  0  0  0
 52 56  1  0  0  0  0
 22 32  1  0  0  0  0
 22 33  1  0  0  0  0
 21 30  1  0  0  0  0
 21 31  1  0  0  0  0
 23 34  1  0  0  0  0
 23 35  1  0  0  0  0
 42 47  1  0  0  0  0
  8 13  1  0  0  0  0
 18 29  1  0  0  0  0
 26 37  1  0  0  0  0
 26 38  1  0  0  0  0
 27 39  1  0  0  0  0
 27 40  1  0  0  0  0
 51 53  1  0  0  0  0
  7 12  1  0  0  0  0
 41 46  1  0  0  0  0
 17 28  1  0  0  0  0
 24 36  1  0  0  0  0
M  CHG  1  24   1
M  END
$$$$

  -OEChem-05262214473D

 56 55  0     1  0  0  0  0  0999 V2000
    0.7735   -5.8042   -2.0022 C   0  0  0  0  0  0  0  0  0  0  0  0
   -0.2086   -6.3825   -1.5519 O   0  0  0  0  0  0  0  0  0  0  0  0
    1.4751   -6.3646   -3.1946 C   0  0  0  0  0  0  0  0  0  0  0  0
    2.2765   -7.0687   -2.9186 H   0  0  0  0  0  0  0  0  0  0  0  0
    0.7988   -6.9360   -3.8504 H   0  0  0  0  0  0  0  0  0  0  0  0
    1.9556   -5.6216   -3.8511 H   0  0  0  0  0  0  0  0  0  0  0  0
    1.3322   -4.6359   -1.5106 N   0  0  0  0  0  0  0  0  0  0  0  0
    0.8124   -3.9290   -0.3698 C   0  0  2  0  0  0  0  0  0  0  0  0
    1.0666   -2.4424   -0.5818 C   0  0  0  0  0  0  0  0  0  0  0  0
    2.0598   -2.0076   -1.1610 O   0  0  0  0  0  0  0  0  0  0  0  0
    1.4560   -4.4118    0.9207 C   0  0  0  0  0  0  0  0  0  0  0  0
    2.1528   -4.2578   -1.9805 H   0  0  0  0  0  0  0  0  0  0  0  0
   -0.2667   -4.1160   -0.3467 H   0  0  0  0  0  0  0  0  0  0  0  0
    2.5374   -4.2329    0.9160 H   0  0  0  0  0  0  0  0  0  0  0  0
    1.0390   -3.8932    1.7903 H   0  0  0  0  0  0  0  0  0  0  0  0
    1.2976   -5.4871    1.0566 H   0  0  0  0  0  0  0  0  0  0  0  0
    0.0755   -1.6529   -0.0105 N   0  0  0  0  0  0  0  0  0  0  0  0
    0.1113   -0.2132   -0.0391 C   0  0  2  0  0  0  0  0  0  0  0  0
    1.1537    0.2395    0.9777 C   0  0  0  0  0  0  0  0  0  0  0  0
    1.2597    1.4053    1.3532 O   0  0  0  0  0  0  0  0  0  0  0  0
   -1.2537    0.4033    0.2828 C   0  0  0  0  0  0  0  0  0  0  0  0
   -2.2964    0.1138   -0.8036 C   0  0  0  0  0  0  0  0  0  0  0  0
   -3.6531    0.7298   -0.4779 C   0  0  0  0  0  0  0  0  0  0  0  0
   -4.6499    0.4320   -1.5040 N   0  3  0  0  0  0  0  0  0  0  0  0
   -5.9809    0.8383   -1.3931 C   0  0  0  0  0  0  0  0  0  0  0  0
   -6.8753    0.5190   -2.4093 N   0  0  0  0  0  0  0  0  0  0  0  0
   -6.4346    1.5555   -0.2910 N   0  0  0  0  0  0  0  0  0  0  0  0
   -0.7323   -2.1024    0.4149 H   0  0  0  0  0  0  0  0  0  0  0  0
    0.4421    0.0763   -1.0431 H   0  0  0  0  0  0  0  0  0  0  0  0
   -1.1455    1.4882    0.4015 H   0  0  0  0  0  0  0  0  0  0  0  0
   -1.6161    0.0212    1.2464 H   0  0  0  0  0  0  0  0  0  0  0  0
   -1.9407    0.4994   -1.7665 H   0  0  0  0  0  0  0  0  0  0  0  0
   -2.4244   -0.9694   -0.9113 H   0  0  0  0  0  0  0  0  0  0  0  0
   -4.0262    0.3205    0.4659 H   0  0  0  0  0  0  0  0  0  0  0  0
   -3.5763    1.8174   -0.3841 H   0  0  0  0  0  0  0  0  0  0  0  0
   -4.3765   -0.0903   -2.3345 H   0  0  0  0  0  0  0  0  0  0  0  0
   -7.8516    0.8002   -2.3594 H   0  0  0  0  0  0  0  0  0  0  0  0
   -6.5770   -0.0043   -3.2288 H   0  0  0  0  0  0  0  0  0  0  0  0
   -7.4028    1.8538   -0.2054 H   0  0  0  0  0  0  0  0  0  0  0  0
   -5.8034    1.8028    0.4675 H   0  0  0  0  0  0  0  0  0  0  0  0
    1.9805   -0.8013    1.3771 N   0  0  0  0  0  0  0  0  0  0  0  0
    3.0796   -0.6235    2.2978 C   0  0  2  0  0  0  0  0  0  0  0  0
    4.1763   -1.6092    1.9171 C   0  0  0  0  0  0  0  0  0  0  0  0
    3.9448   -2.7271    1.4611 O   0  0  0  0  0  0  0  0  0  0  0  0
    2.6353   -0.8338    3.7370 C   0  0  0  0  0  0  0  0  0  0  0  0
    1.7974   -1.7412    1.0382 H   0  0  0  0  0  0  0  0  0  0  0  0
    3.4443    0.4003    2.1609 H   0  0  0  0  0  0  0  0  0  0  0  0
    2.2666   -1.8541    3.8934 H   0  0  0  0  0  0  0  0  0  0  0  0
    3.4627   -0.6707    4.4355 H   0  0  0  0  0  0  0  0  0  0  0  0
    1.8261   -0.1440    3.9998 H   0  0  0  0  0  0  0  0  0  0  0  0
    5.4430   -1.1104    2.1867 N   0  0  0  0  0  0  0  0  0  0  0  0
    6.6472   -1.8728    1.9530 C   0  0  0  0  0  0  0  0  0  0  0  0
    5.5433   -0.1584    2.5264 H   0  0  0  0  0  0  0  0  0  0  0  0
    6.9241   -2.4123    2.8708 H   0  0  0  0  0  0  0  0  0  0  0  0
    6.4722   -2.5950    1.1420 H   0  0  0  0  0  0  0  0  0  0  0  0
    7.4627   -1.1918    1.6680 H   0  0  0  0  0  0  0  0  0  0  0  0
  1  3  1  0  0  0  0
  1  7  1  0  0  0  0
  1  2  2  0  0  0  0
 42 43  1  0  0  0  0
 43 51  1  0  0  0  0
 43 44  2  0  0  0  0
  8  9  1  0  0  0  0
  9 17  1  0  0  0  0
  9 10  2  0  0  0  0
 18 19  1  0  0  0  0
 19 41  1  0  0  0  0
 19 20  2  0  0  0  0
 25 26  1  0  0  0  0
 25 27  1  0  0  0  0
 24 25  2  0  0  0  0
 42 45  1  0  0  0  0
  8 11  1  0  0  0  0
 51 52  1  0  0  0  0
 21 22  1  0  0  0  0
 22 23  1  0  0  0  0
 18 21  1  0  0  0  0
 23 24  1  0  0  0  0
 41 42  1  0  0  0  0
  7  8  1  0  0  0  0
 17 18  1  0  0  0  0
  3  4  1  0  0  0  0
  3  5  1  0  0  0  0
  3  6  1  0  0  0  0
 45 48  1  0  0  0  0
 45 49  1  0  0  0  0
 45 50  1  0  0  0  0
 11 14  1  0  0  0  0
 11 15  1  0  0  0  0
 11 16  1  0  0  0  0
 52 54  1  0  0  0  0
 52 55  1  0  0  0  0
 52 56  1  0  0  0  0
 22 32  1  0  0  0  0
 22 33  1  0  0  0  0
 21 30  1  0  0  0  0
 21 31  1  0  0  0  0
 23 34  1  0  0  0  0
 23 35  1  0  0  0  0
 42 47  1  0  0  0  0
  8 13  1  0  0  0  0
 18 29  1  0  0  0  0
 26 37  1  0  0  0  0
 26 38  1  0  0  0  0
 27 39  1  0  0  0  0
 27 40  1  0  0  0  0
 51 53  1  0  0  0  0
  7 12  1  0  0  0  0
 41 46  1  0  0  0  0
 17 28  1  0  0  0  0
 24 36  1  0  0  0  0
M  CHG  1  24   1
M  END
$$$$

  -OEChem-05262214473D

 56 55  0     1  0  0  0  0  0999 V2000
    0.7735   -5.8042   -2.0022 C   0  0  0  0  0  0  0  0  0  0  0  0
   -0.2086   -6.3825   -1.5519 O   0  0  0  0  0  0  0  0  0  0  0  0
    1.4751   -6.3646   -3.1946 C   0  0  0  0  0  0  0  0  0  0  0  0
    2.2765   -7.0687   -2.9186 H   0  0  0  0  0  0  0  0  0  0  0  0
    0.7988   -6.9360   -3.8504 H   0  0  0  0  0  0  0  0  0  0  0  0
    1.9556   -5.6216   -3.8511 H   0  0  0  0  0  0  0  0  0  0  0  0
    1.3322   -4.6359   -1.5106 N   0  0  0  0  0  0  0  0  0  0  0  0
    0.8124   -3.9290   -0.3698 C   0  0  2  0  0  0  0  0  0  0  0  0
    1.0666   -2.4424   -0.5818 C   0  0  0  0  0  0  0  0  0  0  0  0
    2.0598   -2.0076   -1.1610 O   0  0  0  0  0  0  0  0  0  0  0  0
    1.4560   -4.4118    0.9207 C   0  0  0  0  0  0  0  0  0  0  0  0
    2.1528   -4.2578   -1.9805 H   0  0  0  0  0  0  0  0  0  0  0  0
   -0.2667   -4.1160   -0.3467 H   0  0  0  0  0  0  0  0  0  0  0  0
    2.5374   -4.2329    0.9160 H   0  0  0  0  0  0  0  0  0  0  0  0
    1.0390   -3.8932    1.7903 H   0  0  0  0  0  0  0  0  0  0  0  0
    1.2976   -5.4871    1.0566 H   0  0  0  0  0  0  0  0  0  0  0  0
    0.0755   -1.6529   -0.0105 N   0  0  0  0  0  0  0  0  0  0  0  0
    0.1113   -0.2132   -0.0391 C   0  0  2  0  0  0  0  0  0  0  0  0
    1.1537    0.2395    0.9777 C   0  0  0  0  0  0  0  0  0  0  0  0
    1.0993    1.3241    1.5537 O   0  0  0  0  0  0  0  0  0  0  0  0
   -1.2537    0.4033    0.2828 C   0  0  0  0  0  0  0  0  0  0  0  0
   -2.2964    0.1138   -0.8036 C   0  0  0  0  0  0  0  0  0  0  0  0
   -3.6531    0.7298   -0.4779 C   0  0  0  0  0  0  0  0  0  0  0  0
   -4.6499    0.4320   -1.5040 N   0  3  0  0  0  0  0  0  0  0  0  0
   -5.9809    0.8383   -1.3931 C   0  0  0  0  0  0  0  0  0  0  0  0
   -6.8753    0.5190   -2.4093 N   0  0  0  0  0  0  0  0  0  0  0  0
   -6.4346    1.5555   -0.2910 N   0  0  0  0  0  0  0  0  0  0  0  0
   -0.7323   -2.1024    0.4149 H   0  0  0  0  0  0  0  0  0  0  0  0
    0.4421    0.0763   -1.0431 H   0  0  0  0  0  0  0  0  0  0  0  0
   -1.1455    1.4882    0.4015 H   0  0  0  0  0  0  0  0  0  0  0  0
   -1.6161    0.0212    1.2464 H   0  0  0  0  0  0  0  0  0  0  0  0
   -1.9407    0.4994   -1.7665 H   0  0  0  0  0  0  0  0  0  0  0  0
   -2.4244   -0.9694   -0.9113 H   0  0  0  0  0  0  0  0  0  0  0  0
   -4.0262    0.3205    0.4659 H   0  0  0  0  0  0  0  0  0  0  0  0
   -3.5763    1.8174   -0.3841 H   0  0  0  0  0  0  0  0  0  0  0  0
   -4.3765   -0.0903   -2.3345 H   0  0  0  0  0  0  0  0  0  0  0  0
   -7.8516    0.8002   -2.3594 H   0  0  0  0  0  0  0  0  0  0  0  0
   -6.5770   -0.0043   -3.2288 H   0  0  0  0  0  0  0  0  0  0  0  0
   -7.4028    1.8538   -0.2054 H   0  0  0  0  0  0  0  0  0  0  0  0
   -5.8034    1.8028    0.4675 H   0  0  0  0  0  0  0  0  0  0  0  0
    2.1748   -0.6886    1.1277 N   0  0  0  0  0  0  0  0  0  0  0  0
    3.3095   -0.4756    1.9963 C   0  0  2  0  0  0  0  0  0  0  0  0
    4.5145   -1.1691    1.3745 C   0  0  0  0  0  0  0  0  0  0  0  0
    4.4302   -2.2162    0.7360 O   0  0  0  0  0  0  0  0  0  0  0  0
    3.0411   -1.0041    3.3968 C   0  0  0  0  0  0  0  0  0  0  0  0
    2.1195   -1.5744    0.6339 H   0  0  0  0  0  0  0  0  0  0  0  0
    3.4854    0.6051    2.0277 H   0  0  0  0  0  0  0  0  0  0  0  0
    2.8626   -2.0855    3.3855 H   0  0  0  0  0  0  0  0  0  0  0  0
    3.8910   -0.8164    4.0613 H   0  0  0  0  0  0  0  0  0  0  0  0
    2.1566   -0.5257    3.8310 H   0  0  0  0  0  0  0  0  0  0  0  0
    5.7005   -0.5042    1.6529 N   0  0  0  0  0  0  0  0  0  0  0  0
    6.9875   -0.9871    1.2098 C   0  0  0  0  0  0  0  0  0  0  0  0
    5.6725    0.3783    2.1549 H   0  0  0  0  0  0  0  0  0  0  0  0
    7.4335   -1.6164    1.9942 H   0  0  0  0  0  0  0  0  0  0  0  0
    6.8604   -1.5802    0.2922 H   0  0  0  0  0  0  0  0  0  0  0  0
    7.6491   -0.1324    1.0053 H   0  0  0  0  0  0  0  0  0  0  0  0
  1  3  1  0  0  0  0
  1  7  1  0  0  0  0
  1  2  2  0  0  0  0
 42 43  1  0  0  0  0
 43 51  1  0  0  0  0
 43 44  2  0  0  0  0
  8  9  1  0  0  0  0
  9 17  1  0  0  0  0
  9 10  2  0  0  0  0
 18 19  1  0  0  0  0
 19 41  1  0  0  0  0
 19 20  2  0  0  0  0
 25 26  1  0  0  0  0
 25 27  1  0  0  0  0
 24 25  2  0  0  0  0
 42 45  1  0  0  0  0
  8 11  1  0  0  0  0
 51 52  1  0  0  0  0
 21 22  1  0  0  0  0
 22 23  1  0  0  0  0
 18 21  1  0  0  0  0
 23 24  1  0  0  0  0
 41 42  1  0  0  0  0
  7  8  1  0  0  0  0
 17 18  1  0  0  0  0
  3  4  1  0  0  0  0
  3  5  1  0  0  0  0
  3  6  1  0  0  0  0
 45 48  1  0  0  0  0
 45 49  1  0  0  0  0
 45 50  1  0  0  0  0
 11 14  1  0  0  0  0
 11 15  1  0  0  0  0
 11 16  1  0  0  0  0
 52 54  1  0  0  0  0
 52 55  1  0  0  0  0
 52 56  1  0  0  0  0
 22 32  1  0  0  0  0
 22 33  1  0  0  0  0
 21 30  1  0  0  0  0
 21 31  1  0  0  0  0
 23 34  1  0  0  0  0
 23 35  1  0  0  0  0
 42 47  1  0  0  0  0
  8 13  1  0  0  0  0
 18 29  1  0  0  0  0
 26 37  1  0  0  0  0
 26 38  1  0  0  0  0
 27 39  1  0  0  0  0
 27 40  1  0  0  0  0
 51 53  1  0  0  0  0
  7 12  1  0  0  0  0
 41 46  1  0  0  0  0
 17 28  1  0  0  0  0
 24 36  1  0  0  0  0
M  CHG  1  24   1
M  END
$$$$

  -OEChem-05262214473D

 56 55  0     1  0  0  0  0  0999 V2000
    0.7735   -5.8042   -2.0022 C   0  0  0  0  0  0  0  0  0  0  0  0
   -0.2086   -6.3825   -1.5519 O   0  0  0  0  0  0  0  0  0  0  0  0
    1.4751   -6.3646   -3.1946 C   0  0  0  0  0  0  0  0  0  0  0  0
    2.2765   -7.0687   -2.9186 H   0  0  0  0  0  0  0  0  0  0  0  0
    0.7988   -6.9360   -3.8504 H   0  0  0  0  0  0  0  0  0  0  0  0
    1.9556   -5.6216   -3.8511 H   0  0  0  0  0  0  0  0  0  0  0  0
    1.3322   -4.6359   -1.5106 N   0  0  0  0  0  0  0  0  0  0  0  0
    0.8124   -3.9290   -0.3698 C   0  0  2  0  0  0  0  0  0  0  0  0
    1.0666   -2.4424   -0.5818 C   0  0  0  0  0  0  0  0  0  0  0  0
    2.0598   -2.0076   -1.1610 O   0  0  0  0  0  0  0  0  0  0  0  0
    1.4560   -4.4118    0.9207 C   0  0  0  0  0  0  0  0  0  0  0  0
    2.1528   -4.2578   -1.9805 H   0  0  0  0  0  0  0  0  0  0  0  0
   -0.2667   -4.1160   -0.3467 H   0  0  0  0  0  0  0  0  0  0  0  0
    2.5374   -4.2329    0.9160 H   0  0  0  0  0  0  0  0  0  0  0  0
    1.0390   -3.8932    1.7903 H   0  0  0  0  0  0  0  0  0  0  0  0
    1.2976   -5.4871    1.0566 H   0  0  0  0  0  0  0  0  0  0  0  0
    0.0755   -1.6529   -0.0105 N   0  0  0  0  0  0  0  0  0  0  0  0
    0.1113   -0.2132   -0.0391 C   0  0  2  0  0  0  0  0  0  0  0  0
    1.1537    0.2395    0.9777 C   0  0  0  0  0  0  0  0  0  0  0  0
    0.9738    1.1826    1.7454 O   0  0  0  0  0  0  0  0  0  0  0  0
   -1.2537    0.4033    0.2828 C   0  0  0  0  0  0  0  0  0  0  0  0
   -2.2964    0.1138   -0.8036 C   0  0  0  0  0  0  0  0  0  0  0  0
   -3.6531    0.7298   -0.4779 C   0  0  0  0  0  0  0  0  0  0  0  0
   -4.6499    0.4320   -1.5040 N   0  3  0  0  0  0  0  0  0  0  0  0
   -5.9809    0.8383   -1.3931 C   0  0  0  0  0  0  0  0  0  0  0  0
   -6.8753    0.5190   -2.4093 N   0  0  0  0  0  0  0  0  0  0  0  0
   -6.4346    1.5555   -0.2910 N   0  0  0  0  0  0  0  0  0  0  0  0
   -0.7323   -2.1024    0.4149 H   0  0  0  0  0  0  0  0  0  0  0  0
    0.4421    0.0763   -1.0431 H   0  0  0  0  0  0  0  0  0  0  0  0
   -1.1455    1.4882    0.4015 H   0  0  0  0  0  0  0  0  0  0  0  0
   -1.6161    0.0212    1.2464 H   0  0  0  0  0  0  0  0  0  0  0  0
   -1.9407    0.4994   -1.7665 H   0  0  0  0  0  0  0  0  0  0  0  0
   -2.4244   -0.9694   -0.9113 H   0  0  0  0  0  0  0  0  0  0  0  0
   -4.0262    0.3205    0.4659 H   0  0  0  0  0  0  0  0  0  0  0  0
   -3.5763    1.8174   -0.3841 H   0  0  0  0  0  0  0  0  0  0  0  0
   -4.3765   -0.0903   -2.3345 H   0  0  0  0  0  0  0  0  0  0  0  0
   -7.8516    0.8002   -2.3594 H   0  0  0  0  0  0  0  0  0  0  0  0
   -6.5770   -0.0043   -3.2288 H   0  0  0  0  0  0  0  0  0  0  0  0
   -7.4028    1.8538   -0.2054 H   0  0  0  0  0  0  0  0  0  0  0  0
   -5.8034    1.8028    0.4675 H   0  0  0  0  0  0  0  0  0  0  0  0
    2.3239   -0.5020    0.8918 N   0  0  0  0  0  0  0  0  0  0  0  0
    3.4829   -0.2398    1.7135 C   0  0  2  0  0  0  0  0  0  0  0  0
    4.7235   -0.5896    0.9022 C   0  0  0  0  0  0  0  0  0  0  0  0
    4.7552   -1.5107    0.0887 O   0  0  0  0  0  0  0  0  0  0  0  0
    3.4363   -1.0383    3.0069 C   0  0  0  0  0  0  0  0  0  0  0  0
    2.3707   -1.2862    0.2480 H   0  0  0  0  0  0  0  0  0  0  0  0
    3.4795    0.8336    1.9320 H   0  0  0  0  0  0  0  0  0  0  0  0
    3.4391   -2.1163    2.8081 H   0  0  0  0  0  0  0  0  0  0  0  0
    4.3010   -0.8170    3.6412 H   0  0  0  0  0  0  0  0  0  0  0  0
    2.5287   -0.8075    3.5750 H   0  0  0  0  0  0  0  0  0  0  0  0
    5.8035    0.2201    1.2248 N   0  0  0  0  0  0  0  0  0  0  0  0
    7.1063    0.0586    0.6225 C   0  0  0  0  0  0  0  0  0  0  0  0
    5.6763    0.9848    1.8811 H   0  0  0  0  0  0  0  0  0  0  0  0
    7.7208   -0.6045    1.2491 H   0  0  0  0  0  0  0  0  0  0  0  0
    6.9950   -0.3827   -0.3789 H   0  0  0  0  0  0  0  0  0  0  0  0
    7.5953    1.0403    0.5383 H   0  0  0  0  0  0  0  0  0  0  0  0
  1  3  1  0  0  0  0
  1  7  1  0  0  0  0
  1  2  2  0  0  0  0
 42 43  1  0  0  0  0
 43 51  1  0  0  0  0
 43 44  2  0  0  0  0
  8  9  1  0  0  0  0
  9 17  1  0  0  0  0
  9 10  2  0  0  0  0
 18 19  1  0  0  0  0
 19 41  1  0  0  0  0
 19 20  2  0  0  0  0
 25 26  1  0  0  0  0
 25 27  1  0  0  0  0
 24 25  2  0  0  0  0
 42 45  1  0  0  0  0
  8 11  1  0  0  0  0
 51 52  1  0  0  0  0
 21 22  1  0  0  0  0
 22 23  1  0  0  0  0
 18 21  1  0  0  0  0
 23 24  1  0  0  0  0
 41 42  1  0  0  0  0
  7  8  1  0  0  0  0
 17 18  1  0  0  0  0
  3  4  1  0  0  0  0
  3  5  1  0  0  0  0
  3  6  1  0  0  0  0
 45 48  1  0  0  0  0
 45 49  1  0  0  0  0
 45 50  1  0  0  0  0
 11 14  1  0  0  0  0
 11 15  1  0  0  0  0
 11 16  1  0  0  0  0
 52 54  1  0  0  0  0
 52 55  1  0  0  0  0
 52 56  1  0  0  0  0
 22 32  1  0  0  0  0
 22 33  1  0  0  0  0
 21 30  1  0  0  0  0
 21 31  1  0  0  0  0
 23 34  1  0  0  0  0
 23 35  1  0  0  0  0
 42 47  1  0  0  0  0
  8 13  1  0  0  0  0
 18 29  1  0  0  0  0
 26 37  1  0  0  0  0
 26 38  1  0  0  0  0
 27 39  1  0  0  0  0
 27 40  1  0  0  0  0
 51 53  1  0  0  0  0
  7 12  1  0  0  0  0
 41 46  1  0  0  0  0
 17 28  1  0  0  0  0
 24 36  1  0  0  0  0
M  CHG  1  24   1
M  END
$$$$

  -OEChem-05262214473D

 56 55  0     1  0  0  0  0  0999 V2000
    0.7735   -5.8042   -2.0022 C   0  0  0  0  0  0  0  0  0  0  0  0
   -0.2086   -6.3825   -1.5519 O   0  0  0  0  0  0  0  0  0  0  0  0
    1.4751   -6.3646   -3.1946 C   0  0  0  0  0  0  0  0  0  0  0  0
    2.2765   -7.0687   -2.9186 H   0  0  0  0  0  0  0  0  0  0  0  0
    0.7988   -6.9360   -3.8504 H   0  0  0  0  0  0  0  0  0  0  0  0
    1.9556   -5.6216   -3.8511 H   0  0  0  0  0  0  0  0  0  0  0  0
    1.3322   -4.6359   -1.5106 N   0  0  0  0  0  0  0  0  0  0  0  0
    0.8124   -3.9290   -0.3698 C   0  0  2  0  0  0  0  0  0  0  0  0
    1.0666   -2.4424   -0.5818 C   0  0  0  0  0  0  0  0  0  0  0  0
    2.0598   -2.0076   -1.1610 O   0  0  0  0  0  0  0  0  0  0  0  0
    1.4560   -4.4118    0.9207 C   0  0  0  0  0  0  0  0  0  0  0  0
    2.1528   -4.2578   -1.9805 H   0  0  0  0  0  0  0  0  0  0  0  0
   -0.2667   -4.1160   -0.3467 H   0  0  0  0  0  0  0  0  0  0  0  0
    2.5374   -4.2329    0.9160 H   0  0  0  0  0  0  0  0  0  0  0  0
    1.0390   -3.8932    1.7903 H   0  0  0  0  0  0  0  0  0  0  0  0
    1.2976   -5.4871    1.0566 H   0  0  0  0  0  0  0  0  0  0  0  0
    0.0755   -1.6529   -0.0105 N   0  0  0  0  0  0  0  0  0  0  0  0
    0.1113   -0.2132   -0.0391 C   0  0  2  0  0  0  0  0  0  0  0  0
    1.1537    0.2395    0.9777 C   0  0  0  0  0  0  0  0  0  0  0  0
    0.8917    0.9904    1.9151 O   0  0  0  0  0  0  0  0  0  0  0  0
   -1.2537    0.4033    0.2828 C   0  0  0  0  0  0  0  0  0  0  0  0
   -2.2964    0.1138   -0.8036 C   0  0  0  0  0  0  0  0  0  0  0  0
   -3.6531    0.7298   -0.4779 C   0  0  0  0  0  0  0  0  0  0  0  0
   -4.6499    0.4320   -1.5040 N   0  3  0  0  0  0  0  0  0  0  0  0
   -5.9809    0.8383   -1.3931 C   0  0  0  0  0  0  0  0  0  0  0  0
   -6.8753    0.5190   -2.4093 N   0  0  0  0  0  0  0  0  0  0  0  0
   -6.4346    1.5555   -0.2910 N   0  0  0  0  0  0  0  0  0  0  0  0
   -0.7323   -2.1024    0.4149 H   0  0  0  0  0  0  0  0  0  0  0  0
    0.4421    0.0763   -1.0431 H   0  0  0  0  0  0  0  0  0  0  0  0
   -1.1455    1.4882    0.4015 H   0  0  0  0  0  0  0  0  0  0  0  0
   -1.6161    0.0212    1.2464 H   0  0  0  0  0  0  0  0  0  0  0  0
   -1.9407    0.4994   -1.7665 H   0  0  0  0  0  0  0  0  0  0  0  0
   -2.4244   -0.9694   -0.9113 H   0  0  0  0  0  0  0  0  0  0  0  0
   -4.0262    0.3205    0.4659 H   0  0  0  0  0  0  0  0  0  0  0  0
   -3.5763    1.8174   -0.3841 H   0  0  0  0  0  0  0  0  0  0  0  0
   -4.3765   -0.0903   -2.3345 H   0  0  0  0  0  0  0  0  0  0  0  0
   -7.8516    0.8002   -2.3594 H   0  0  0  0  0  0  0  0  0  0  0  0
   -6.5770   -0.0043   -3.2288 H   0  0  0  0  0  0  0  0  0  0  0  0
   -7.4028    1.8538   -0.2054 H   0  0  0  0  0  0  0  0  0  0  0  0
   -5.8034    1.8028    0.4675 H   0  0  0  0  0  0  0  0  0  0  0  0
    2.4175   -0.2543    0.6855 N   0  0  0  0  0  0  0  0  0  0  0  0
    3.5880    0.0680    1.4688 C   0  0  2  0  0  0  0  0  0  0  0  0
    4.7890    0.0897    0.5325 C   0  0  0  0  0  0  0  0  0  0  0  0
    4.8977   -0.6586   -0.4367 O   0  0  0  0  0  0  0  0  0  0  0  0
    3.7940   -0.9342    2.5939 C   0  0  0  0  0  0  0  0  0  0  0  0
    2.5339   -0.8962   -0.0930 H   0  0  0  0  0  0  0  0  0  0  0  0
    3.4270    1.0702    1.8805 H   0  0  0  0  0  0  0  0  0  0  0  0
    3.9570   -1.9443    2.2007 H   0  0  0  0  0  0  0  0  0  0  0  0
    4.6649   -0.6725    3.2038 H   0  0  0  0  0  0  0  0  0  0  0  0
    2.9171   -0.9701    3.2492 H   0  0  0  0  0  0  0  0  0  0  0  0
    5.7451    1.0133    0.9315 N   0  0  0  0  0  0  0  0  0  0  0  0
    6.9954    1.1931    0.2311 C   0  0  0  0  0  0  0  0  0  0  0  0
    5.5541    1.6197    1.7236 H   0  0  0  0  0  0  0  0  0  0  0  0
    7.7665    0.5543    0.6863 H   0  0  0  0  0  0  0  0  0  0  0  0
    6.8667    0.9159   -0.8256 H   0  0  0  0  0  0  0  0  0  0  0  0
    7.3051    2.2465    0.2987 H   0  0  0  0  0  0  0  0  0  0  0  0
  1  3  1  0  0  0  0
  1  7  1  0  0  0  0
  1  2  2  0  0  0  0
 42 43  1  0  0  0  0
 43 51  1  0  0  0  0
 43 44  2  0  0  0  0
  8  9  1  0  0  0  0
  9 17  1  0  0  0  0
  9 10  2  0  0  0  0
 18 19  1  0  0  0  0
 19 41  1  0  0  0  0
 19 20  2  0  0  0  0
 25 26  1  0  0  0  0
 25 27  1  0  0  0  0
 24 25  2  0  0  0  0
 42 45  1  0  0  0  0
  8 11  1  0  0  0  0
 51 52  1  0  0  0  0
 21 22  1  0  0  0  0
 22 23  1  0  0  0  0
 18 21  1  0  0  0  0
 23 24  1  0  0  0  0
 41 42  1  0  0  0  0
  7  8  1  0  0  0  0
 17 18  1  0  0  0  0
  3  4  1  0  0  0  0
  3  5  1  0  0  0  0
  3  6  1  0  0  0  0
 45 48  1  0  0  0  0
 45 49  1  0  0  0  0
 45 50  1  0  0  0  0
 11 14  1  0  0  0  0
 11 15  1  0  0  0  0
 11 16  1  0  0  0  0
 52 54  1  0  0  0  0
 52 55  1  0  0  0  0
 52 56  1  0  0  0  0
 22 32  1  0  0  0  0
 22 33  1  0  0  0  0
 21 30  1  0  0  0  0
 21 31  1  0  0  0  0
 23 34  1  0  0  0  0
 23 35  1  0  0  0  0
 42 47  1  0  0  0  0
  8 13  1  0  0  0  0
 18 29  1  0  0  0  0
 26 37  1  0  0  0  0
 26 38  1  0  0  0  0
 27 39  1  0  0  0  0
 27 40  1  0  0  0  0
 51 53  1  0  0  0  0
  7 12  1  0  0  0  0
 41 46  1  0  0  0  0
 17 28  1  0  0  0  0
 24 36  1  0  0  0  0
M  CHG  1  24   1
M  END
$$$$

  -OEChem-05262214473D

 56 55  0     1  0  0  0  0  0999 V2000
    0.7735   -5.8042   -2.0022 C   0  0  0  0  0  0  0  0  0  0  0  0
   -0.2086   -6.3825   -1.5519 O   0  0  0  0  0  0  0  0  0  0  0  0
    1.4751   -6.3646   -3.1946 C   0  0  0  0  0  0  0  0  0  0  0  0
    2.2765   -7.0687   -2.9186 H   0  0  0  0  0  0  0  0  0  0  0  0
    0.7988   -6.9360   -3.8504 H   0  0  0  0  0  0  0  0  0  0  0  0
    1.9556   -5.6216   -3.8511 H   0  0  0  0  0  0  0  0  0  0  0  0
    1.3322   -4.6359   -1.5106 N   0  0  0  0  0  0  0  0  0  0  0  0
    0.8124   -3.9290   -0.3698 C   0  0  2  0  0  0  0  0  0  0  0  0
    1.0666   -2.4424   -0.5818 C   0  0  0  0  0  0  0  0  0  0  0  0
    2.0598   -2.0076   -1.1610 O   0  0  0  0  0  0  0  0  0  0  0  0
    1.4560   -4.4118    0.9207 C   0  0  0  0  0  0  0  0  0  0  0  0
    2.1528   -4.2578   -1.9805 H   0  0  0  0  0  0  0  0  0  0  0  0
   -0.2667   -4.1160   -0.3467 H   0  0  0  0  0  0  0  0  0  0  0  0
    2.5374   -4.2329    0.9160 H   0  0  0  0  0  0  0  0  0  0  0  0
    1.0390   -3.8932    1.7903 H   0  0  0  0  0  0  0  0  0  0  0  0
    1.2976   -5.4871    1.0566 H   0  0  0  0  0  0  0  0  0  0  0  0
    0.0755   -1.6529   -0.0105 N   0  0  0  0  0  0  0  0  0  0  0  0
    0.1113   -0.2132   -0.0391 C   0  0  2  0  0  0  0  0  0  0  0  0
    1.1537    0.2395    0.9777 C   0  0  0  0  0  0  0  0  0  0  0  0
    0.8587    0.7605    2.0513 O   0  0  0  0  0  0  0  0  0  0  0  0
   -1.2537    0.4033    0.2828 C   0  0  0  0  0  0  0  0  0  0  0  0
   -2.2964    0.1138   -0.8036 C   0  0  0  0  0  0  0  0  0  0  0  0
   -3.6531    0.7298   -0.4779 C   0  0  0  0  0  0  0  0  0  0  0  0
   -4.6499    0.4320   -1.5040 N   0  3  0  0  0  0  0  0  0  0  0  0
   -5.9809    0.8383   -1.3931 C   0  0  0  0  0  0  0  0  0  0  0  0
   -6.8753    0.5190   -2.4093 N   0  0  0  0  0  0  0  0  0  0  0  0
   -6.4346    1.5555   -0.2910 N   0  0  0  0  0  0  0  0  0  0  0  0
   -0.7323   -2.1024    0.4149 H   0  0  0  0  0  0  0  0  0  0  0  0
    0.4421    0.0763   -1.0431 H   0  0  0  0  0  0  0  0  0  0  0  0
   -1.1455    1.4882    0.4015 H   0  0  0  0  0  0  0  0  0  0  0  0
   -1.6161    0.0212    1.2464 H   0  0  0  0  0  0  0  0  0  0  0  0
   -1.9407    0.4994   -1.7665 H   0  0  0  0  0  0  0  0  0  0  0  0
   -2.4244   -0.9694   -0.9113 H   0  0  0  0  0  0  0  0  0  0  0  0
   -4.0262    0.3205    0.4659 H   0  0  0  0  0  0  0  0  0  0  0  0
   -3.5763    1.8174   -0.3841 H   0  0  0  0  0  0  0  0  0  0  0  0
   -4.3765   -0.0903   -2.3345 H   0  0  0  0  0  0  0  0  0  0  0  0
   -7.8516    0.8002   -2.3594 H   0  0  0  0  0  0  0  0  0  0  0  0
   -6.5770   -0.0043   -3.2288 H   0  0  0  0  0  0  0  0  0  0  0  0
   -7.4028    1.8538   -0.2054 H   0  0  0  0  0  0  0  0  0  0  0  0
   -5.8034    1.8028    0.4675 H   0  0  0  0  0  0  0  0  0  0  0  0
    2.4494    0.0376    0.5229 N   0  0  0  0  0  0  0  0  0  0  0  0
    3.6176    0.4267    1.2787 C   0  0  2  0  0  0  0  0  0  0  0  0
    4.7067    0.8227    0.2905 C   0  0  0  0  0  0  0  0  0  0  0  0
    4.8478    0.2820   -0.8044 O   0  0  0  0  0  0  0  0  0  0  0  0
    4.0898   -0.6989    2.1859 C   0  0  0  0  0  0  0  0  0  0  0  0
    2.5981   -0.4310   -0.3660 H   0  0  0  0  0  0  0  0  0  0  0  0
    3.3315    1.2988    1.8766 H   0  0  0  0  0  0  0  0  0  0  0  0
    4.3808   -1.5814    1.6046 H   0  0  0  0  0  0  0  0  0  0  0  0
    4.9579   -0.3928    2.7789 H   0  0  0  0  0  0  0  0  0  0  0  0
    3.2953   -1.0026    2.8760 H   0  0  0  0  0  0  0  0  0  0  0  0
    5.5293    1.8212    0.7929 N   0  0  0  0  0  0  0  0  0  0  0  0
    6.6624    2.3391    0.0622 C   0  0  0  0  0  0  0  0  0  0  0  0
    5.3145    2.2397    1.6932 H   0  0  0  0  0  0  0  0  0  0  0  0
    7.5674    1.7811    0.3442 H   0  0  0  0  0  0  0  0  0  0  0  0
    6.4844    2.2272   -1.0175 H   0  0  0  0  0  0  0  0  0  0  0  0
    6.7983    3.4038    0.3030 H   0  0  0  0  0  0  0  0  0  0  0  0
  1  3  1  0  0  0  0
  1  7  1  0  0  0  0
  1  2  2  0  0  0  0
 42 43  1  0  0  0  0
 43 51  1  0  0  0  0
 43 44  2  0  0  0  0
  8  9  1  0  0  0  0
  9 17  1  0  0  0  0
  9 10  2  0  0  0  0
 18 19  1  0  0  0  0
 19 41  1  0  0  0  0
 19 20  2  0  0  0  0
 25 26  1  0  0  0  0
 25 27  1  0  0  0  0
 24 25  2  0  0  0  0
 42 45  1  0  0  0  0
  8 11  1  0  0  0  0
 51 52  1  0  0  0  0
 21 22  1  0  0  0  0
 22 23  1  0  0  0  0
 18 21  1  0  0  0  0
 23 24  1  0  0  0  0
 41 42  1  0  0  0  0
  7  8  1  0  0  0  0
 17 18  1  0  0  0  0
  3  4  1  0  0  0  0
  3  5  1  0  0  0  0
  3  6  1  0  0  0  0
 45 48  1  0  0  0  0
 45 49  1  0  0  0  0
 45 50  1  0  0  0  0
 11 14  1  0  0  0  0
 11 15  1  0  0  0  0
 11 16  1  0  0  0  0
 52 54  1  0  0  0  0
 52 55  1  0  0  0  0
 52 56  1  0  0  0  0
 22 32  1  0  0  0  0
 22 33  1  0  0  0  0
 21 30  1  0  0  0  0
 21 31  1  0  0  0  0
 23 34  1  0  0  0  0
 23 35  1  0  0  0  0
 42 47  1  0  0  0  0
  8 13  1  0  0  0  0
 18 29  1  0  0  0  0
 26 37  1  0  0  0  0
 26 38  1  0  0  0  0
 27 39  1  0  0  0  0
 27 40  1  0  0  0  0
 51 53  1  0  0  0  0
  7 12  1  0  0  0  0
 41 46  1  0  0  0  0
 17 28  1  0  0  0  0
 24 36  1  0  0  0  0
M  CHG  1  24   1
M  END
$$$$

  -OEChem-05262214473D

 56 55  0     1  0  0  0  0  0999 V2000
    0.7735   -5.8042   -2.0022 C   0  0  0  0  0  0  0  0  0  0  0  0
   -0.2086   -6.3825   -1.5519 O   0  0  0  0  0  0  0  0  0  0  0  0
    1.4751   -6.3646   -3.1946 C   0  0  0  0  0  0  0  0  0  0  0  0
    2.2765   -7.0687   -2.9186 H   0  0  0  0  0  0  0  0  0  0  0  0
    0.7988   -6.9360   -3.8504 H   0  0  0  0  0  0  0  0  0  0  0  0
    1.9556   -5.6216   -3.8511 H   0  0  0  0  0  0  0  0  0  0  0  0
    1.3322   -4.6359   -1.5106 N   0  0  0  0  0  0  0  0  0  0  0  0
    0.8124   -3.9290   -0.3698 C   0  0  2  0  0  0  0  0  0  0  0  0
    1.0666   -2.4424   -0.5818 C   0  0  0  0  0  0  0  0  0  0  0  0
    2.0598   -2.0076   -1.1610 O   0  0  0  0  0  0  0  0  0  0  0  0
    1.4560   -4.4118    0.9207 C   0  0  0  0  0  0  0  0  0  0  0  0
    2.1528   -4.2578   -1.9805 H   0  0  0  0  0  0  0  0  0  0  0  0
   -0.2667   -4.1160   -0.3467 H   0  0  0  0  0  0  0  0  0  0  0  0
    2.5374   -4.2329    0.9160 H   0  0  0  0  0  0  0  0  0  0  0  0
    1.0390   -3.8932    1.7903 H   0  0  0  0  0  0  0  0  0  0  0  0
    1.2976   -5.4871    1.0566 H   0  0  0  0  0  0  0  0  0  0  0  0
    0.0755   -1.6529   -0.0105 N   0  0  0  0  0  0  0  0  0  0  0  0
    0.1113   -0.2132   -0.0391 C   0  0  2  0  0  0  0  0  0  0  0  0
    1.1537    0.2395    0.9777 C   0  0  0  0  0  0  0  0  0  0  0  0
    0.8769    0.5087    2.1448 O   0  0  0  0  0  0  0  0  0  0  0  0
   -1.2537    0.4033    0.2828 C   0  0  0  0  0  0  0  0  0  0  0  0
   -2.2964    0.1138   -0.8036 C   0  0  0  0  0  0  0  0  0  0  0  0
   -3.6531    0.7298   -0.4779 C   0  0  0  0  0  0  0  0  0  0  0  0
   -4.6499    0.4320   -1.5040 N   0  3  0  0  0  0  0  0  0  0  0  0
   -5.9809    0.8383   -1.3931 C   0  0  0  0  0  0  0  0  0  0  0  0
   -6.8753    0.5190   -2.4093 N   0  0  0  0  0  0  0  0  0  0  0  0
   -6.4346    1.5555   -0.2910 N   0  0  0  0  0  0  0  0  0  0  0  0
   -0.7323   -2.1024    0.4149 H   0  0  0  0  0  0  0  0  0  0  0  0
    0.4421    0.0763   -1.0431 H   0  0  0  0  0  0  0  0  0  0  0  0
   -1.1455    1.4882    0.4015 H   0  0  0  0  0  0  0  0  0  0  0  0
   -1.6161    0.0212    1.2464 H   0  0  0  0  0  0  0  0  0  0  0  0
   -1.9407    0.4994   -1.7665 H   0  0  0  0  0  0  0  0  0  0  0  0
   -2.4244   -0.9694   -0.9113 H   0  0  0  0  0  0  0  0  0  0  0  0
   -4.0262    0.3205    0.4659 H   0  0  0  0  0  0  0  0  0  0  0  0
   -3.5763    1.8174   -0.3841 H   0  0  0  0  0  0  0  0  0  0  0  0
   -4.3765   -0.0903   -2.3345 H   0  0  0  0  0  0  0  0  0  0  0  0
   -7.8516    0.8002   -2.3594 H   0  0  0  0  0  0  0  0  0  0  0  0
   -6.5770   -0.0043   -3.2288 H   0  0  0  0  0  0  0  0  0  0  0  0
   -7.4028    1.8538   -0.2054 H   0  0  0  0  0  0  0  0  0  0  0  0
   -5.8034    1.8028    0.4675 H   0  0  0  0  0  0  0  0  0  0  0  0
    2.4173    0.3539    0.4150 N   0  0  0  0  0  0  0  0  0  0  0  0
    3.5697    0.8119    1.1563 C   0  0  2  0  0  0  0  0  0  0  0  0
    4.4822    1.5592    0.1928 C   0  0  0  0  0  0  0  0  0  0  0  0
    4.6091    1.2471   -0.9893 O   0  0  0  0  0  0  0  0  0  0  0  0
    4.3036   -0.3483    1.8106 C   0  0  0  0  0  0  0  0  0  0  0  0
    2.5589    0.0778   -0.5522 H   0  0  0  0  0  0  0  0  0  0  0  0
    3.1995    1.5039    1.9206 H   0  0  0  0  0  0  0  0  0  0  0  0
    4.6818   -1.0523    1.0605 H   0  0  0  0  0  0  0  0  0  0  0  0
    5.1600    0.0032    2.3955 H   0  0  0  0  0  0  0  0  0  0  0  0
    3.6375   -0.9026    2.4806 H   0  0  0  0  0  0  0  0  0  0  0  0
    5.1708    2.5889    0.8187 N   0  0  0  0  0  0  0  0  0  0  0  0
    6.1300    3.4184    0.1274 C   0  0  0  0  0  0  0  0  0  0  0  0
    4.9737    2.8026    1.7919 H   0  0  0  0  0  0  0  0  0  0  0  0
    7.1371    2.9922    0.2461 H   0  0  0  0  0  0  0  0  0  0  0  0
    5.8740    3.4618   -0.9415 H   0  0  0  0  0  0  0  0  0  0  0  0
    6.1093    4.4334    0.5509 H   0  0  0  0  0  0  0  0  0  0  0  0
  1  3  1  0  0  0  0
  1  7  1  0  0  0  0
  1  2  2  0  0  0  0
 42 43  1  0  0  0  0
 43 51  1  0  0  0  0
 43 44  2  0  0  0  0
  8  9  1  0  0  0  0
  9 17  1  0  0  0  0
  9 10  2  0  0  0  0
 18 19  1  0  0  0  0
 19 41  1  0  0  0  0
 19 20  2  0  0  0  0
 25 26  1  0  0  0  0
 25 27  1  0  0  0  0
 24 25  2  0  0  0  0
 42 45  1  0  0  0  0
  8 11  1  0  0  0  0
 51 52  1  0  0  0  0
 21 22  1  0  0  0  0
 22 23  1  0  0  0  0
 18 21  1  0  0  0  0
 23 24  1  0  0  0  0
 41 42  1  0  0  0  0
  7  8  1  0  0  0  0
 17 18  1  0  0  0  0
  3  4  1  0  0  0  0
  3  5  1  0  0  0  0
  3  6  1  0  0  0  0
 45 48  1  0  0  0  0
 45 49  1  0  0  0  0
 45 50  1  0  0  0  0
 11 14  1  0  0  0  0
 11 15  1  0  0  0  0
 11 16  1  0  0  0  0
 52 54  1  0  0  0  0
 52 55  1  0  0  0  0
 52 56  1  0  0  0  0
 22 32  1  0  0  0  0
 22 33  1  0  0  0  0
 21 30  1  0  0  0  0
 21 31  1  0  0  0  0
 23 34  1  0  0  0  0
 23 35  1  0  0  0  0
 42 47  1  0  0  0  0
  8 13  1  0  0  0  0
 18 29  1  0  0  0  0
 26 37  1  0  0  0  0
 26 38  1  0  0  0  0
 27 39  1  0  0  0  0
 27 40  1  0  0  0  0
 51 53  1  0  0  0  0
  7 12  1  0  0  0  0
 41 46  1  0  0  0  0
 17 28  1  0  0  0  0
 24 36  1  0  0  0  0
M  CHG  1  24   1
M  END
$$$$

  -OEChem-05262214473D

 56 55  0     1  0  0  0  0  0999 V2000
    0.7735   -5.8042   -2.0022 C   0  0  0  0  0  0  0  0  0  0  0  0
   -0.2086   -6.3825   -1.5519 O   0  0  0  0  0  0  0  0  0  0  0  0
    1.4751   -6.3646   -3.1946 C   0  0  0  0  0  0  0  0  0  0  0  0
    2.2765   -7.0687   -2.9186 H   0  0  0  0  0  0  0  0  0  0  0  0
    0.7988   -6.9360   -3.8504 H   0  0  0  0  0  0  0  0  0  0  0  0
    1.9556   -5.6216   -3.8511 H   0  0  0  0  0  0  0  0  0  0  0  0
    1.3322   -4.6359   -1.5106 N   0  0  0  0  0  0  0  0  0  0  0  0
    0.8124   -3.9290   -0.3698 C   0  0  2  0  0  0  0  0  0  0  0  0
    1.0666   -2.4424   -0.5818 C   0  0  0  0  0  0  0  0  0  0  0  0
    2.0598   -2.0076   -1.1610 O   0  0  0  0  0  0  0  0  0  0  0  0
    1.4560   -4.4118    0.9207 C   0  0  0  0  0  0  0  0  0  0  0  0
    2.1528   -4.2578   -1.9805 H   0  0  0  0  0  0  0  0  0  0  0  0
   -0.2667   -4.1160   -0.3467 H   0  0  0  0  0  0  0  0  0  0  0  0
    2.5374   -4.2329    0.9160 H   0  0  0  0  0  0  0  0  0  0  0  0
    1.0390   -3.8932    1.7903 H   0  0  0  0  0  0  0  0  0  0  0  0
    1.2976   -5.4871    1.0566 H   0  0  0  0  0  0  0  0  0  0  0  0
    0.0755   -1.6529   -0.0105 N   0  0  0  0  0  0  0  0  0  0  0  0
    0.1113   -0.2132   -0.0391 C   0  0  2  0  0  0  0  0  0  0  0  0
    1.1537    0.2395    0.9777 C   0  0  0  0  0  0  0  0  0  0  0  0
    0.9451    0.2520    2.1891 O   0  0  0  0  0  0  0  0  0  0  0  0
   -1.2537    0.4033    0.2828 C   0  0  0  0  0  0  0  0  0  0  0  0
   -2.2964    0.1138   -0.8036 C   0  0  0  0  0  0  0  0  0  0  0  0
   -3.6531    0.7298   -0.4779 C   0  0  0  0  0  0  0  0  0  0  0  0
   -4.6499    0.4320   -1.5040 N   0  3  0  0  0  0  0  0  0  0  0  0
   -5.9809    0.8383   -1.3931 C   0  0  0  0  0  0  0  0  0  0  0  0
   -6.8753    0.5190   -2.4093 N   0  0  0  0  0  0  0  0  0  0  0  0
   -6.4346    1.5555   -0.2910 N   0  0  0  0  0  0  0  0  0  0  0  0
   -0.7323   -2.1024    0.4149 H   0  0  0  0  0  0  0  0  0  0  0  0
    0.4421    0.0763   -1.0431 H   0  0  0  0  0  0  0  0  0  0  0  0
   -1.1455    1.4882    0.4015 H   0  0  0  0  0  0  0  0  0  0  0  0
   -1.6161    0.0212    1.2464 H   0  0  0  0  0  0  0  0  0  0  0  0
   -1.9407    0.4994   -1.7665 H   0  0  0  0  0  0  0  0  0  0  0  0
   -2.4244   -0.9694   -0.9113 H   0  0  0  0  0  0  0  0  0  0  0  0
   -4.0262    0.3205    0.4659 H   0  0  0  0  0  0  0  0  0  0  0  0
   -3.5763    1.8174   -0.3841 H   0  0  0  0  0  0  0  0  0  0  0  0
   -4.3765   -0.0903   -2.3345 H   0  0  0  0  0  0  0  0  0  0  0  0
   -7.8516    0.8002   -2.3594 H   0  0  0  0  0  0  0  0  0  0  0  0
   -6.5770   -0.0043   -3.2288 H   0  0  0  0  0  0  0  0  0  0  0  0
   -7.4028    1.8538   -0.2054 H   0  0  0  0  0  0  0  0  0  0  0  0
   -5.8034    1.8028    0.4675 H   0  0  0  0  0  0  0  0  0  0  0  0
    2.3234    0.6729    0.3691 N   0  0  0  0  0  0  0  0  0  0  0  0
    3.4475    1.1974    1.1100 C   0  0  2  0  0  0  0  0  0  0  0  0
    4.1306    2.2492    0.2460 C   0  0  0  0  0  0  0  0  0  0  0  0
    4.1978    2.1707   -0.9789 O   0  0  0  0  0  0  0  0  0  0  0  0
    4.4207    0.0936    1.4938 C   0  0  0  0  0  0  0  0  0  0  0  0
    2.4188    0.5954   -0.6391 H   0  0  0  0  0  0  0  0  0  0  0  0
    3.0400    1.6713    2.0096 H   0  0  0  0  0  0  0  0  0  0  0  0
    4.8394   -0.3930    0.6053 H   0  0  0  0  0  0  0  0  0  0  0  0
    5.2574    0.4884    2.0796 H   0  0  0  0  0  0  0  0  0  0  0  0
    3.9205   -0.6771    2.0901 H   0  0  0  0  0  0  0  0  0  0  0  0
    4.6940    3.2640    1.0069 N   0  0  0  0  0  0  0  0  0  0  0  0
    5.4344    4.3576    0.4223 C   0  0  0  0  0  0  0  0  0  0  0  0
    4.5549    3.2701    2.0131 H   0  0  0  0  0  0  0  0  0  0  0  0
    6.5048    4.1051    0.3987 H   0  0  0  0  0  0  0  0  0  0  0  0
    5.0772    4.5356   -0.6028 H   0  0  0  0  0  0  0  0  0  0  0  0
    5.2851    5.2652    1.0254 H   0  0  0  0  0  0  0  0  0  0  0  0
  1  3  1  0  0  0  0
  1  7  1  0  0  0  0
  1  2  2  0  0  0  0
 42 43  1  0  0  0  0
 43 51  1  0  0  0  0
 43 44  2  0  0  0  0
  8  9  1  0  0  0  0
  9 17  1  0  0  0  0
  9 10  2  0  0  0  0
 18 19  1  0  0  0  0
 19 41  1  0  0  0  0
 19 20  2  0  0  0  0
 25 26  1  0  0  0  0
 25 27  1  0  0  0  0
 24 25  2  0  0  0  0
 42 45  1  0  0  0  0
  8 11  1  0  0  0  0
 51 52  1  0  0  0  0
 21 22  1  0  0  0  0
 22 23  1  0  0  0  0
 18 21  1  0  0  0  0
 23 24  1  0  0  0  0
 41 42  1  0  0  0  0
  7  8  1  0  0  0  0
 17 18  1  0  0  0  0
  3  4  1  0  0  0  0
  3  5  1  0  0  0  0
  3  6  1  0  0  0  0
 45 48  1  0  0  0  0
 45 49  1  0  0  0  0
 45 50  1  0  0  0  0
 11 14  1  0  0  0  0
 11 15  1  0  0  0  0
 11 16  1  0  0  0  0
 52 54  1  0  0  0  0
 52 55  1  0  0  0  0
 52 56  1  0  0  0  0
 22 32  1  0  0  0  0
 22 33  1  0  0  0  0
 21 30  1  0  0  0  0
 21 31  1  0  0  0  0
 23 34  1  0  0  0  0
 23 35  1  0  0  0  0
 42 47  1  0  0  0  0
  8 13  1  0  0  0  0
 18 29  1  0  0  0  0
 26 37  1  0  0  0  0
 26 38  1  0  0  0  0
 27 39  1  0  0  0  0
 27 40  1  0  0  0  0
 51 53  1  0  0  0  0
  7 12  1  0  0  0  0
 41 46  1  0  0  0  0
 17 28  1  0  0  0  0
 24 36  1  0  0  0  0
M  CHG  1  24   1
M  END
$$$$

  -OEChem-05262214473D

 56 55  0     1  0  0  0  0  0999 V2000
    0.7735   -5.8042   -2.0022 C   0  0  0  0  0  0  0  0  0  0  0  0
   -0.2086   -6.3825   -1.5519 O   0  0  0  0  0  0  0  0  0  0  0  0
    1.4751   -6.3646   -3.1946 C   0  0  0  0  0  0  0  0  0  0  0  0
    2.2765   -7.0687   -2.9186 H   0  0  0  0  0  0  0  0  0  0  0  0
    0.7988   -6.9360   -3.8504 H   0  0  0  0  0  0  0  0  0  0  0  0
    1.9556   -5.6216   -3.8511 H   0  0  0  0  0  0  0  0  0  0  0  0
    1.3322   -4.6359   -1.5106 N   0  0  0  0  0  0  0  0  0  0  0  0
    0.8124   -3.9290   -0.3698 C   0  0  2  0  0  0  0  0  0  0  0  0
    1.0666   -2.4424   -0.5818 C   0  0  0  0  0  0  0  0  0  0  0  0
    2.0598   -2.0076   -1.1610 O   0  0  0  0  0  0  0  0  0  0  0  0
    1.4560   -4.4118    0.9207 C   0  0  0  0  0  0  0  0  0  0  0  0
    2.1528   -4.2578   -1.9805 H   0  0  0  0  0  0  0  0  0  0  0  0
   -0.2667   -4.1160   -0.3467 H   0  0  0  0  0  0  0  0  0  0  0  0
    2.5374   -4.2329    0.9160 H   0  0  0  0  0  0  0  0  0  0  0  0
    1.0390   -3.8932    1.7903 H   0  0  0  0  0  0  0  0  0  0  0  0
    1.2976   -5.4871    1.0566 H   0  0  0  0  0  0  0  0  0  0  0  0
    0.0755   -1.6529   -0.0105 N   0  0  0  0  0  0  0  0  0  0  0  0
    0.1113   -0.2132   -0.0391 C   0  0  2  0  0  0  0  0  0  0  0  0
    1.1537    0.2395    0.9777 C   0  0  0  0  0  0  0  0  0  0  0  0
    1.0587    0.0080    2.1813 O   0  0  0  0  0  0  0  0  0  0  0  0
   -1.2537    0.4033    0.2828 C   0  0  0  0  0  0  0  0  0  0  0  0
   -2.2964    0.1138   -0.8036 C   0  0  0  0  0  0  0  0  0  0  0  0
   -3.6531    0.7298   -0.4779 C   0  0  0  0  0  0  0  0  0  0  0  0
   -4.6499    0.4320   -1.5040 N   0  3  0  0  0  0  0  0  0  0  0  0
   -5.9809    0.8383   -1.3931 C   0  0  0  0  0  0  0  0  0  0  0  0
   -6.8753    0.5190   -2.4093 N   0  0  0  0  0  0  0  0  0  0  0  0
   -6.4346    1.5555   -0.2910 N   0  0  0  0  0  0  0  0  0  0  0  0
   -0.7323   -2.1024    0.4149 H   0  0  0  0  0  0  0  0  0  0  0  0
    0.4421    0.0763   -1.0431 H   0  0  0  0  0  0  0  0  0  0  0  0
   -1.1455    1.4882    0.4015 H   0  0  0  0  0  0  0  0  0  0  0  0
   -1.6161    0.0212    1.2464 H   0  0  0  0  0  0  0  0  0  0  0  0
   -1.9407    0.4994   -1.7665 H   0  0  0  0  0  0  0  0  0  0  0  0
   -2.4244   -0.9694   -0.9113 H   0  0  0  0  0  0  0  0  0  0  0  0
   -4.0262    0.3205    0.4659 H   0  0  0  0  0  0  0  0  0  0  0  0
   -3.5763    1.8174   -0.3841 H   0  0  0  0  0  0  0  0  0  0  0  0
   -4.3765   -0.0903   -2.3345 H   0  0  0  0  0  0  0  0  0  0  0  0
   -7.8516    0.8002   -2.3594 H   0  0  0  0  0  0  0  0  0  0  0  0
   -6.5770   -0.0043   -3.2288 H   0  0  0  0  0  0  0  0  0  0  0  0
   -7.4028    1.8538   -0.2054 H   0  0  0  0  0  0  0  0  0  0  0  0
   -5.8034    1.8028    0.4675 H   0  0  0  0  0  0  0  0  0  0  0  0
    2.1742    0.9729    0.3885 N   0  0  0  0  0  0  0  0  0  0  0  0
    3.2594    1.5568    1.1428 C   0  0  2  0  0  0  0  0  0  0  0  0
    3.6760    2.8456    0.4464 C   0  0  0  0  0  0  0  0  0  0  0  0
    3.6419    2.9900   -0.7738 O   0  0  0  0  0  0  0  0  0  0  0  0
    4.4332    0.5967    1.2570 C   0  0  0  0  0  0  0  0  0  0  0  0
    2.1876    1.0865   -0.6207 H   0  0  0  0  0  0  0  0  0  0  0  0
    2.8639    1.7898    2.1374 H   0  0  0  0  0  0  0  0  0  0  0  0
    4.8429    0.3516    0.2703 H   0  0  0  0  0  0  0  0  0  0  0  0
    5.2434    1.0297    1.8529 H   0  0  0  0  0  0  0  0  0  0  0  0
    4.1248   -0.3413    1.7311 H   0  0  0  0  0  0  0  0  0  0  0  0
    4.1313    3.8005    1.3448 N   0  0  0  0  0  0  0  0  0  0  0  0
    4.6232    5.0925    0.9267 C   0  0  0  0  0  0  0  0  0  0  0  0
    4.0868    3.6102    2.3416 H   0  0  0  0  0  0  0  0  0  0  0  0
    5.7138    5.0440    0.7916 H   0  0  0  0  0  0  0  0  0  0  0  0
    4.1483    5.3753   -0.0244 H   0  0  0  0  0  0  0  0  0  0  0  0
    4.3819    5.8425    1.6943 H   0  0  0  0  0  0  0  0  0  0  0  0
  1  3  1  0  0  0  0
  1  7  1  0  0  0  0
  1  2  2  0  0  0  0
 42 43  1  0  0  0  0
 43 51  1  0  0  0  0
 43 44  2  0  0  0  0
  8  9  1  0  0  0  0
  9 17  1  0  0  0  0
  9 10  2  0  0  0  0
 18 19  1  0  0  0  0
 19 41  1  0  0  0  0
 19 20  2  0  0  0  0
 25 26  1  0  0  0  0
 25 27  1  0  0  0  0
 24 25  2  0  0  0  0
 42 45  1  0  0  0  0
  8 11  1  0  0  0  0
 51 52  1  0  0  0  0
 21 22  1  0  0  0  0
 22 23  1  0  0  0  0
 18 21  1  0  0  0  0
 23 24  1  0  0  0  0
 41 42  1  0  0  0  0
  7  8  1  0  0  0  0
 17 18  1  0  0  0  0
  3  4  1  0  0  0  0
  3  5  1  0  0  0  0
  3  6  1  0  0  0  0
 45 48  1  0  0  0  0
 45 49  1  0  0  0  0
 45 50  1  0  0  0  0
 11 14  1  0  0  0  0
 11 15  1  0  0  0  0
 11 16  1  0  0  0  0
 52 54  1  0  0  0  0
 52 55  1  0  0  0  0
 52 56  1  0  0  0  0
 22 32  1  0  0  0  0
 22 33  1  0  0  0  0
 21 30  1  0  0  0  0
 21 31  1  0  0  0  0
 23 34  1  0  0  0  0
 23 35  1  0  0  0  0
 42 47  1  0  0  0  0
  8 13  1  0  0  0  0
 18 29  1  0  0  0  0
 26 37  1  0  0  0  0
 26 38  1  0  0  0  0
 27 39  1  0  0  0  0
 27 40  1  0  0  0  0
 51 53  1  0  0  0  0
  7 12  1  0  0  0  0
 41 46  1  0  0  0  0
 17 28  1  0  0  0  0
 24 36  1  0  0  0  0
M  CHG  1  24   1
M  END
$$$$

  -OEChem-05262214473D

 56 55  0     1  0  0  0  0  0999 V2000
    0.7735   -5.8042   -2.0022 C   0  0  0  0  0  0  0  0  0  0  0  0
   -0.2086   -6.3825   -1.5519 O   0  0  0  0  0  0  0  0  0  0  0  0
    1.4751   -6.3646   -3.1946 C   0  0  0  0  0  0  0  0  0  0  0  0
    2.2765   -7.0687   -2.9186 H   0  0  0  0  0  0  0  0  0  0  0  0
    0.7988   -6.9360   -3.8504 H   0  0  0  0  0  0  0  0  0  0  0  0
    1.9556   -5.6216   -3.8511 H   0  0  0  0  0  0  0  0  0  0  0  0
    1.3322   -4.6359   -1.5106 N   0  0  0  0  0  0  0  0  0  0  0  0
    0.8124   -3.9290   -0.3698 C   0  0  2  0  0  0  0  0  0  0  0  0
    1.0666   -2.4424   -0.5818 C   0  0  0  0  0  0  0  0  0  0  0  0
    2.0598   -2.0076   -1.1610 O   0  0  0  0  0  0  0  0  0  0  0  0
    1.4560   -4.4118    0.9207 C   0  0  0  0  0  0  0  0  0  0  0  0
    2.1528   -4.2578   -1.9805 H   0  0  0  0  0  0  0  0  0  0  0  0
   -0.2667   -4.1160   -0.3467 H   0  0  0  0  0  0  0  0  0  0  0  0
    2.5374   -4.2329    0.9160 H   0  0  0  0  0  0  0  0  0  0  0  0
    1.0390   -3.8932    1.7903 H   0  0  0  0  0  0  0  0  0  0  0  0
    1.2976   -5.4871    1.0566 H   0  0  0  0  0  0  0  0  0  0  0  0
    0.0755   -1.6529   -0.0105 N   0  0  0  0  0  0  0  0  0  0  0  0
    0.1113   -0.2132   -0.0391 C   0  0  2  0  0  0  0  0  0  0  0  0
    1.1537    0.2395    0.9777 C   0  0  0  0  0  0  0  0  0  0  0  0
    1.2100   -0.2066    2.1218 O   0  0  0  0  0  0  0  0  0  0  0  0
   -1.2537    0.4033    0.2828 C   0  0  0  0  0  0  0  0  0  0  0  0
   -2.2964    0.1138   -0.8036 C   0  0  0  0  0  0  0  0  0  0  0  0
   -3.6531    0.7298   -0.4779 C   0  0  0  0  0  0  0  0  0  0  0  0
   -4.6499    0.4320   -1.5040 N   0  3  0  0  0  0  0  0  0  0  0  0
   -5.9809    0.8383   -1.3931 C   0  0  0  0  0  0  0  0  0  0  0  0
   -6.8753    0.5190   -2.4093 N   0  0  0  0  0  0  0  0  0  0  0  0
   -6.4346    1.5555   -0.2910 N   0  0  0  0  0  0  0  0  0  0  0  0
   -0.7323   -2.1024    0.4149 H   0  0  0  0  0  0  0  0  0  0  0  0
    0.4421    0.0763   -1.0431 H   0  0  0  0  0  0  0  0  0  0  0  0
   -1.1455    1.4882    0.4015 H   0  0  0  0  0  0  0  0  0  0  0  0
   -1.6161    0.0212    1.2464 H   0  0  0  0  0  0  0  0  0  0  0  0
   -1.9407    0.4994   -1.7665 H   0  0  0  0  0  0  0  0  0  0  0  0
   -2.4244   -0.9694   -0.9113 H   0  0  0  0  0  0  0  0  0  0  0  0
   -4.0262    0.3205    0.4659 H   0  0  0  0  0  0  0  0  0  0  0  0
   -3.5763    1.8174   -0.3841 H   0  0  0  0  0  0  0  0  0  0  0  0
   -4.3765   -0.0903   -2.3345 H   0  0  0  0  0  0  0  0  0  0  0  0
   -7.8516    0.8002   -2.3594 H   0  0  0  0  0  0  0  0  0  0  0  0
   -6.5770   -0.0043   -3.2288 H   0  0  0  0  0  0  0  0  0  0  0  0
   -7.4028    1.8538   -0.2054 H   0  0  0  0  0  0  0  0  0  0  0  0
   -5.8034    1.8028    0.4675 H   0  0  0  0  0  0  0  0  0  0  0  0
    1.9797    1.2336    0.4718 N   0  0  0  0  0  0  0  0  0  0  0  0
    3.0182    1.8657    1.2525 C   0  0  2  0  0  0  0  0  0  0  0  0
    3.1494    3.3078    0.7805 C   0  0  0  0  0  0  0  0  0  0  0  0
    2.9792    3.6492   -0.3881 O   0  0  0  0  0  0  0  0  0  0  0  0
    4.3403    1.1268    1.1162 C   0  0  0  0  0  0  0  0  0  0  0  0
    1.8808    1.5178   -0.4983 H   0  0  0  0  0  0  0  0  0  0  0  0
    2.6831    1.8512    2.2953 H   0  0  0  0  0  0  0  0  0  0  0  0
    4.6920    1.1307    0.0781 H   0  0  0  0  0  0  0  0  0  0  0  0
    5.1191    1.5903    1.7307 H   0  0  0  0  0  0  0  0  0  0  0  0
    4.2367    0.0819    1.4280 H   0  0  0  0  0  0  0  0  0  0  0  0
    3.5213    4.1619    1.8093 N   0  0  0  0  0  0  0  0  0  0  0  0
    3.7515    5.5731    1.6062 C   0  0  0  0  0  0  0  0  0  0  0  0
    3.6011    3.7999    2.7550 H   0  0  0  0  0  0  0  0  0  0  0  0
    4.8179    5.7449    1.3979 H   0  0  0  0  0  0  0  0  0  0  0  0
    3.1505    5.9237    0.7542 H   0  0  0  0  0  0  0  0  0  0  0  0
    3.4613    6.1259    2.5119 H   0  0  0  0  0  0  0  0  0  0  0  0
  1  3  1  0  0  0  0
  1  7  1  0  0  0  0
  1  2  2  0  0  0  0
 42 43  1  0  0  0  0
 43 51  1  0  0  0  0
 43 44  2  0  0  0  0
  8  9  1  0  0  0  0
  9 17  1  0  0  0  0
  9 10  2  0  0  0  0
 18 19  1  0  0  0  0
 19 41  1  0  0  0  0
 19 20  2  0  0  0  0
 25 26  1  0  0  0  0
 25 27  1  0  0  0  0
 24 25  2  0  0  0  0
 42 45  1  0  0  0  0
  8 11  1  0  0  0  0
 51 52  1  0  0  0  0
 21 22  1  0  0  0  0
 22 23  1  0  0  0  0
 18 21  1  0  0  0  0
 23 24  1  0  0  0  0
 41 42  1  0  0  0  0
  7  8  1  0  0  0  0
 17 18  1  0  0  0  0
  3  4  1  0  0  0  0
  3  5  1  0  0  0  0
  3  6  1  0  0  0  0
 45 48  1  0  0  0  0
 45 49  1  0  0  0  0
 45 50  1  0  0  0  0
 11 14  1  0  0  0  0
 11 15  1  0  0  0  0
 11 16  1  0  0  0  0
 52 54  1  0  0  0  0
 52 55  1  0  0  0  0
 52 56  1  0  0  0  0
 22 32  1  0  0  0  0
 22 33  1  0  0  0  0
 21 30  1  0  0  0  0
 21 31  1  0  0  0  0
 23 34  1  0  0  0  0
 23 35  1  0  0  0  0
 42 47  1  0  0  0  0
  8 13  1  0  0  0  0
 18 29  1  0  0  0  0
 26 37  1  0  0  0  0
 26 38  1  0  0  0  0
 27 39  1  0  0  0  0
 27 40  1  0  0  0  0
 51 53  1  0  0  0  0
  7 12  1  0  0  0  0
 41 46  1  0  0  0  0
 17 28  1  0  0  0  0
 24 36  1  0  0  0  0
M  CHG  1  24   1
M  END
$$$$

  -OEChem-05262214473D

 56 55  0     1  0  0  0  0  0999 V2000
    0.7735   -5.8042   -2.0022 C   0  0  0  0  0  0  0  0  0  0  0  0
   -0.2086   -6.3825   -1.5519 O   0  0  0  0  0  0  0  0  0  0  0  0
    1.4751   -6.3646   -3.1946 C   0  0  0  0  0  0  0  0  0  0  0  0
    2.2765   -7.0687   -2.9186 H   0  0  0  0  0  0  0  0  0  0  0  0
    0.7988   -6.9360   -3.8504 H   0  0  0  0  0  0  0  0  0  0  0  0
    1.9556   -5.6216   -3.8511 H   0  0  0  0  0  0  0  0  0  0  0  0
    1.3322   -4.6359   -1.5106 N   0  0  0  0  0  0  0  0  0  0  0  0
    0.8124   -3.9290   -0.3698 C   0  0  2  0  0  0  0  0  0  0  0  0
    1.0666   -2.4424   -0.5818 C   0  0  0  0  0  0  0  0  0  0  0  0
    2.0598   -2.0076   -1.1610 O   0  0  0  0  0  0  0  0  0  0  0  0
    1.4560   -4.4118    0.9207 C   0  0  0  0  0  0  0  0  0  0  0  0
    2.1528   -4.2578   -1.9805 H   0  0  0  0  0  0  0  0  0  0  0  0
   -0.2667   -4.1160   -0.3467 H   0  0  0  0  0  0  0  0  0  0  0  0
    2.5374   -4.2329    0.9160 H   0  0  0  0  0  0  0  0  0  0  0  0
    1.0390   -3.8932    1.7903 H   0  0  0  0  0  0  0  0  0  0  0  0
    1.2976   -5.4871    1.0566 H   0  0  0  0  0  0  0  0  0  0  0  0
    0.0755   -1.6529   -0.0105 N   0  0  0  0  0  0  0  0  0  0  0  0
    0.1113   -0.2132   -0.0391 C   0  0  2  0  0  0  0  0  0  0  0  0
    1.1537    0.2395    0.9777 C   0  0  0  0  0  0  0  0  0  0  0  0
    1.3885   -0.3774    2.0148 O   0  0  0  0  0  0  0  0  0  0  0  0
   -1.2537    0.4033    0.2828 C   0  0  0  0  0  0  0  0  0  0  0  0
   -2.2964    0.1138   -0.8036 C   0  0  0  0  0  0  0  0  0  0  0  0
   -3.6531    0.7298   -0.4779 C   0  0  0  0  0  0  0  0  0  0  0  0
   -4.6499    0.4320   -1.5040 N   0  3  0  0  0  0  0  0  0  0  0  0
   -5.9809    0.8383   -1.3931 C   0  0  0  0  0  0  0  0  0  0  0  0
   -6.8753    0.5190   -2.4093 N   0  0  0  0  0  0  0  0  0  0  0  0
   -6.4346    1.5555   -0.2910 N   0  0  0  0  0  0  0  0  0  0  0  0
   -0.7323   -2.1024    0.4149 H   0  0  0  0  0  0  0  0  0  0  0  0
    0.4421    0.0763   -1.0431 H   0  0  0  0  0  0  0  0  0  0  0  0
   -1.1455    1.4882    0.4015 H   0  0  0  0  0  0  0  0  0  0  0  0
   -1.6161    0.0212    1.2464 H   0  0  0  0  0  0  0  0  0  0  0  0
   -1.9407    0.4994   -1.7665 H   0  0  0  0  0  0  0  0  0  0  0  0
   -2.4244   -0.9694   -0.9113 H   0  0  0  0  0  0  0  0  0  0  0  0
   -4.0262    0.3205    0.4659 H   0  0  0  0  0  0  0  0  0  0  0  0
   -3.5763    1.8174   -0.3841 H   0  0  0  0  0  0  0  0  0  0  0  0
   -4.3765   -0.0903   -2.3345 H   0  0  0  0  0  0  0  0  0  0  0  0
   -7.8516    0.8002   -2.3594 H   0  0  0  0  0  0  0  0  0  0  0  0
   -6.5770   -0.0043   -3.2288 H   0  0  0  0  0  0  0  0  0  0  0  0
   -7.4028    1.8538   -0.2054 H   0  0  0  0  0  0  0  0  0  0  0  0
   -5.8034    1.8028    0.4675 H   0  0  0  0  0  0  0  0  0  0  0  0
    1.7533    1.4370    0.6133 N   0  0  0  0  0  0  0  0  0  0  0  0
    2.7403    2.1031    1.4316 C   0  0  2  0  0  0  0  0  0  0  0  0
    2.5867    3.6042    1.2254 C   0  0  0  0  0  0  0  0  0  0  0  0
    2.2551    4.1034    0.1521 O   0  0  0  0  0  0  0  0  0  0  0  0
    4.1483    1.6476    1.0812 C   0  0  0  0  0  0  0  0  0  0  0  0
    1.5195    1.8597   -0.2802 H   0  0  0  0  0  0  0  0  0  0  0  0
    2.5100    1.8515    2.4726 H   0  0  0  0  0  0  0  0  0  0  0  0
    4.3970    1.8912    0.0418 H   0  0  0  0  0  0  0  0  0  0  0  0
    4.8929    2.1319    1.7215 H   0  0  0  0  0  0  0  0  0  0  0  0
    4.2485    0.5635    1.2016 H   0  0  0  0  0  0  0  0  0  0  0  0
    2.9053    4.3234    2.3688 N   0  0  0  0  0  0  0  0  0  0  0  0
    2.8788    5.7668    2.4147 C   0  0  0  0  0  0  0  0  0  0  0  0
    3.1310    3.8261    3.2252 H   0  0  0  0  0  0  0  0  0  0  0  0
    3.8781    6.1601    2.1765 H   0  0  0  0  0  0  0  0  0  0  0  0
    2.1520    6.1436    1.6800 H   0  0  0  0  0  0  0  0  0  0  0  0
    2.5859    6.0962    3.4225 H   0  0  0  0  0  0  0  0  0  0  0  0
  1  3  1  0  0  0  0
  1  7  1  0  0  0  0
  1  2  2  0  0  0  0
 42 43  1  0  0  0  0
 43 51  1  0  0  0  0
 43 44  2  0  0  0  0
  8  9  1  0  0  0  0
  9 17  1  0  0  0  0
  9 10  2  0  0  0  0
 18 19  1  0  0  0  0
 19 41  1  0  0  0  0
 19 20  2  0  0  0  0
 25 26  1  0  0  0  0
 25 27  1  0  0  0  0
 24 25  2  0  0  0  0
 42 45  1  0  0  0  0
  8 11  1  0  0  0  0
 51 52  1  0  0  0  0
 21 22  1  0  0  0  0
 22 23  1  0  0  0  0
 18 21  1  0  0  0  0
 23 24  1  0  0  0  0
 41 42  1  0  0  0  0
  7  8  1  0  0  0  0
 17 18  1  0  0  0  0
  3  4  1  0  0  0  0
  3  5  1  0  0  0  0
  3  6  1  0  0  0  0
 45 48  1  0  0  0  0
 45 49  1  0  0  0  0
 45 50  1  0  0  0  0
 11 14  1  0  0  0  0
 11 15  1  0  0  0  0
 11 16  1  0  0  0  0
 52 54  1  0  0  0  0
 52 55  1  0  0  0  0
 52 56  1  0  0  0  0
 22 32  1  0  0  0  0
 22 33  1  0  0  0  0
 21 30  1  0  0  0  0
 21 31  1  0  0  0  0
 23 34  1  0  0  0  0
 23 35  1  0  0  0  0
 42 47  1  0  0  0  0
  8 13  1  0  0  0  0
 18 29  1  0  0  0  0
 26 37  1  0  0  0  0
 26 38  1  0  0  0  0
 27 39  1  0  0  0  0
 27 40  1  0  0  0  0
 51 53  1  0  0  0  0
  7 12  1  0  0  0  0
 41 46  1  0  0  0  0
 17 28  1  0  0  0  0
 24 36  1  0  0  0  0
M  CHG  1  24   1
M  END
$$$$

  -OEChem-05262214473D

 56 55  0     1  0  0  0  0  0999 V2000
    0.7735   -5.8042   -2.0022 C   0  0  0  0  0  0  0  0  0  0  0  0
   -0.2086   -6.3825   -1.5519 O   0  0  0  0  0  0  0  0  0  0  0  0
    1.4751   -6.3646   -3.1946 C   0  0  0  0  0  0  0  0  0  0  0  0
    2.2765   -7.0687   -2.9186 H   0  0  0  0  0  0  0  0  0  0  0  0
    0.7988   -6.9360   -3.8504 H   0  0  0  0  0  0  0  0  0  0  0  0
    1.9556   -5.6216   -3.8511 H   0  0  0  0  0  0  0  0  0  0  0  0
    1.3322   -4.6359   -1.5106 N   0  0  0  0  0  0  0  0  0  0  0  0
    0.8124   -3.9290   -0.3698 C   0  0  2  0  0  0  0  0  0  0  0  0
    1.0666   -2.4424   -0.5818 C   0  0  0  0  0  0  0  0  0  0  0  0
    2.0598   -2.0076   -1.1610 O   0  0  0  0  0  0  0  0  0  0  0  0
    1.4560   -4.4118    0.9207 C   0  0  0  0  0  0  0  0  0  0  0  0
    2.1528   -4.2578   -1.9805 H   0  0  0  0  0  0  0  0  0  0  0  0
   -0.2667   -4.1160   -0.3467 H   0  0  0  0  0  0  0  0  0  0  0  0
    2.5374   -4.2329    0.9160 H   0  0  0  0  0  0  0  0  0  0  0  0
    1.0390   -3.8932    1.7903 H   0  0  0  0  0  0  0  0  0  0  0  0
    1.2976   -5.4871    1.0566 H   0  0  0  0  0  0  0  0  0  0  0  0
    0.0755   -1.6529   -0.0105 N   0  0  0  0  0  0  0  0  0  0  0  0
    0.1113   -0.2132   -0.0391 C   0  0  2  0  0  0  0  0  0  0  0  0
    1.1537    0.2395    0.9777 C   0  0  0  0  0  0  0  0  0  0  0  0
    1.5823   -0.4925    1.8675 O   0  0  0  0  0  0  0  0  0  0  0  0
   -1.2537    0.4033    0.2828 C   0  0  0  0  0  0  0  0  0  0  0  0
   -2.2964    0.1138   -0.8036 C   0  0  0  0  0  0  0  0  0  0  0  0
   -3.6531    0.7298   -0.4779 C   0  0  0  0  0  0  0  0  0  0  0  0
   -4.6499    0.4320   -1.5040 N   0  3  0  0  0  0  0  0  0  0  0  0
   -5.9809    0.8383   -1.3931 C   0  0  0  0  0  0  0  0  0  0  0  0
   -6.8753    0.5190   -2.4093 N   0  0  0  0  0  0  0  0  0  0  0  0
   -6.4346    1.5555   -0.2910 N   0  0  0  0  0  0  0  0  0  0  0  0
   -0.7323   -2.1024    0.4149 H   0  0  0  0  0  0  0  0  0  0  0  0
    0.4421    0.0763   -1.0431 H   0  0  0  0  0  0  0  0  0  0  0  0
   -1.1455    1.4882    0.4015 H   0  0  0  0  0  0  0  0  0  0  0  0
   -1.6161    0.0212    1.2464 H   0  0  0  0  0  0  0  0  0  0  0  0
   -1.9407    0.4994   -1.7665 H   0  0  0  0  0  0  0  0  0  0  0  0
   -2.4244   -0.9694   -0.9113 H   0  0  0  0  0  0  0  0  0  0  0  0
   -4.0262    0.3205    0.4659 H   0  0  0  0  0  0  0  0  0  0  0  0
   -3.5763    1.8174   -0.3841 H   0  0  0  0  0  0  0  0  0  0  0  0
   -4.3765   -0.0903   -2.3345 H   0  0  0  0  0  0  0  0  0  0  0  0
   -7.8516    0.8002   -2.3594 H   0  0  0  0  0  0  0  0  0  0  0  0
   -6.5770   -0.0043   -3.2288 H   0  0  0  0  0  0  0  0  0  0  0  0
   -7.4028    1.8538   -0.2054 H   0  0  0  0  0  0  0  0  0  0  0  0
   -5.8034    1.8028    0.4675 H   0  0  0  0  0  0  0  0  0  0  0  0
    1.5104    1.5694    0.8034 N   0  0  0  0  0  0  0  0  0  0  0  0
    2.4447    2.2527    1.6681 C   0  0  2  0  0  0  0  0  0  0  0  0
    2.0261    3.7147    1.7508 C   0  0  0  0  0  0  0  0  0  0  0  0
    1.5187    4.3215    0.8099 O   0  0  0  0  0  0  0  0  0  0  0  0
    3.8702    2.1237    1.1543 C   0  0  0  0  0  0  0  0  0  0  0  0
    1.1283    2.0891    0.0188 H   0  0  0  0  0  0  0  0  0  0  0  0
    2.3564    1.7904    2.6573 H   0  0  0  0  0  0  0  0  0  0  0  0
    3.9781    2.5813    0.1641 H   0  0  0  0  0  0  0  0  0  0  0  0
    4.5802    2.6177    1.8257 H   0  0  0  0  0  0  0  0  0  0  0  0
    4.1593    1.0708    1.0671 H   0  0  0  0  0  0  0  0  0  0  0  0
    2.3254    4.2742    2.9852 N   0  0  0  0  0  0  0  0  0  0  0  0
    2.0646    5.6601    3.2968 C   0  0  0  0  0  0  0  0  0  0  0  0
    2.7085    3.6871    3.7202 H   0  0  0  0  0  0  0  0  0  0  0  0
    2.9586    6.2611    3.0741 H   0  0  0  0  0  0  0  0  0  0  0  0
    1.2206    6.0198    2.6899 H   0  0  0  0  0  0  0  0  0  0  0  0
    1.8155    5.7552    4.3640 H   0  0  0  0  0  0  0  0  0  0  0  0
  1  3  1  0  0  0  0
  1  7  1  0  0  0  0
  1  2  2  0  0  0  0
 42 43  1  0  0  0  0
 43 51  1  0  0  0  0
 43 44  2  0  0  0  0
  8  9  1  0  0  0  0
  9 17  1  0  0  0  0
  9 10  2  0  0  0  0
 18 19  1  0  0  0  0
 19 41  1  0  0  0  0
 19 20  2  0  0  0  0
 25 26  1  0  0  0  0
 25 27  1  0  0  0  0
 24 25  2  0  0  0  0
 42 45  1  0  0  0  0
  8 11  1  0  0  0  0
 51 52  1  0  0  0  0
 21 22  1  0  0  0  0
 22 23  1  0  0  0  0
 18 21  1  0  0  0  0
 23 24  1  0  0  0  0
 41 42  1  0  0  0  0
  7  8  1  0  0  0  0
 17 18  1  0  0  0  0
  3  4  1  0  0  0  0
  3  5  1  0  0  0  0
  3  6  1  0  0  0  0
 45 48  1  0  0  0  0
 45 49  1  0  0  0  0
 45 50  1  0  0  0  0
 11 14  1  0  0  0  0
 11 15  1  0  0  0  0
 11 16  1  0  0  0  0
 52 54  1  0  0  0  0
 52 55  1  0  0  0  0
 52 56  1  0  0  0  0
 22 32  1  0  0  0  0
 22 33  1  0  0  0  0
 21 30  1  0  0  0  0
 21 31  1  0  0  0  0
 23 34  1  0  0  0  0
 23 35  1  0  0  0  0
 42 47  1  0  0  0  0
  8 13  1  0  0  0  0
 18 29  1  0  0  0  0
 26 37  1  0  0  0  0
 26 38  1  0  0  0  0
 27 39  1  0  0  0  0
 27 40  1  0  0  0  0
 51 53  1  0  0  0  0
  7 12  1  0  0  0  0
 41 46  1  0  0  0  0
 17 28  1  0  0  0  0
 24 36  1  0  0  0  0
M  CHG  1  24   1
M  END
$$$$

  -OEChem-05262214473D

 56 55  0     1  0  0  0  0  0999 V2000
    0.7735   -5.8042   -2.0022 C   0  0  0  0  0  0  0  0  0  0  0  0
   -0.2086   -6.3825   -1.5519 O   0  0  0  0  0  0  0  0  0  0  0  0
    1.4751   -6.3646   -3.1946 C   0  0  0  0  0  0  0  0  0  0  0  0
    2.2765   -7.0687   -2.9186 H   0  0  0  0  0  0  0  0  0  0  0  0
    0.7988   -6.9360   -3.8504 H   0  0  0  0  0  0  0  0  0  0  0  0
    1.9556   -5.6216   -3.8511 H   0  0  0  0  0  0  0  0  0  0  0  0
    1.3322   -4.6359   -1.5106 N   0  0  0  0  0  0  0  0  0  0  0  0
    0.8124   -3.9290   -0.3698 C   0  0  2  0  0  0  0  0  0  0  0  0
    1.0666   -2.4424   -0.5818 C   0  0  0  0  0  0  0  0  0  0  0  0
    2.0598   -2.0076   -1.1610 O   0  0  0  0  0  0  0  0  0  0  0  0
    1.4560   -4.4118    0.9207 C   0  0  0  0  0  0  0  0  0  0  0  0
    2.1528   -4.2578   -1.9805 H   0  0  0  0  0  0  0  0  0  0  0  0
   -0.2667   -4.1160   -0.3467 H   0  0  0  0  0  0  0  0  0  0  0  0
    2.5374   -4.2329    0.9160 H   0  0  0  0  0  0  0  0  0  0  0  0
    1.0390   -3.8932    1.7903 H   0  0  0  0  0  0  0  0  0  0  0  0
    1.2976   -5.4871    1.0566 H   0  0  0  0  0  0  0  0  0  0  0  0
    0.0755   -1.6529   -0.0105 N   0  0  0  0  0  0  0  0  0  0  0  0
    0.1113   -0.2132   -0.0391 C   0  0  2  0  0  0  0  0  0  0  0  0
    1.3840    0.2278    0.6760 C   0  0  0  0  0  0  0  0  0  0  0  0
    2.1665   -0.5638    1.1980 O   0  0  0  0  0  0  0  0  0  0  0  0
   -1.1203    0.4069    0.6286 C   0  0  0  0  0  0  0  0  0  0  0  0
   -2.4102    0.1296   -0.1528 C   0  0  0  0  0  0  0  0  0  0  0  0
   -3.6327    0.7491    0.5163 C   0  0  0  0  0  0  0  0  0  0  0  0
   -4.8628    0.4629   -0.2186 N   0  3  0  0  0  0  0  0  0  0  0  0
   -6.1174    0.8741    0.2351 C   0  0  0  0  0  0  0  0  0  0  0  0
   -7.2461    0.5659   -0.5169 N   0  0  0  0  0  0  0  0  0  0  0  0
   -6.2663    1.5854    1.4213 N   0  0  0  0  0  0  0  0  0  0  0  0
   -0.7323   -2.1024    0.4149 H   0  0  0  0  0  0  0  0  0  0  0  0
    0.1728    0.0820   -1.0928 H   0  0  0  0  0  0  0  0  0  0  0  0
   -0.9785    1.4904    0.7215 H   0  0  0  0  0  0  0  0  0  0  0  0
   -1.2233    0.0195    1.6508 H   0  0  0  0  0  0  0  0  0  0  0  0
   -2.3133    0.5205   -1.1727 H   0  0  0  0  0  0  0  0  0  0  0  0
   -2.5682   -0.9523   -0.2300 H   0  0  0  0  0  0  0  0  0  0  0  0
   -3.7514    0.3347    1.5222 H   0  0  0  0  0  0  0  0  0  0  0  0
   -3.5278    1.8356    0.5933 H   0  0  0  0  0  0  0  0  0  0  0  0
   -4.8166   -0.0547   -1.0946 H   0  0  0  0  0  0  0  0  0  0  0  0
   -8.1746    0.8510   -0.2145 H   0  0  0  0  0  0  0  0  0  0  0  0
   -7.1730    0.0471   -1.3887 H   0  0  0  0  0  0  0  0  0  0  0  0
   -7.1776    1.8872    1.7561 H   0  0  0  0  0  0  0  0  0  0  0  0
   -5.4588    1.8246    1.9920 H   0  0  0  0  0  0  0  0  0  0  0  0
    1.5154    1.6092    0.7042 N   0  0  0  0  0  0  0  0  0  0  0  0
    2.6105    2.2814    1.3647 C   0  0  2  0  0  0  0  0  0  0  0  0
    2.0920    3.6089    1.9020 C   0  0  0  0  0  0  0  0  0  0  0  0
    1.2317    4.2743    1.3291 O   0  0  0  0  0  0  0  0  0  0  0  0
    3.7795    2.4982    0.4164 C   0  0  0  0  0  0  0  0  0  0  0  0
    0.8349    2.1845    0.2168 H   0  0  0  0  0  0  0  0  0  0  0  0
    2.9157    1.6426    2.2007 H   0  0  0  0  0  0  0  0  0  0  0  0
    3.4927    3.1360   -0.4276 H   0  0  0  0  0  0  0  0  0  0  0  0
    4.6193    2.9821    0.9260 H   0  0  0  0  0  0  0  0  0  0  0  0
    4.1319    1.5449    0.0080 H   0  0  0  0  0  0  0  0  0  0  0  0
    2.7339    3.9840    3.0739 N   0  0  0  0  0  0  0  0  0  0  0  0
    2.4491    5.2248    3.7560 C   0  0  0  0  0  0  0  0  0  0  0  0
    3.4056    3.3523    3.5000 H   0  0  0  0  0  0  0  0  0  0  0  0
    3.1434    6.0034    3.4071 H   0  0  0  0  0  0  0  0  0  0  0  0
    1.4152    5.5326    3.5406 H   0  0  0  0  0  0  0  0  0  0  0  0
    2.5713    5.0837    4.8400 H   0  0  0  0  0  0  0  0  0  0  0  0
  1  3  1  0  0  0  0
  1  7  1  0  0  0  0
  1  2  2  0  0  0  0
 42 43  1  0  0  0  0
 43 51  1  0  0  0  0
 43 44  2  0  0  0  0
  8  9  1  0  0  0  0
  9 17  1  0  0  0  0
  9 10  2  0  0  0  0
 18 19  1  0  0  0  0
 19 41  1  0  0  0  0
 19 20  2  0  0  0  0
 25 26  1  0  0  0  0
 25 27  1  0  0  0  0
 24 25  2  0  0  0  0
 42 45  1  0  0  0  0
  8 11  1  0  0  0  0
 51 52  1  0  0  0  0
 21 22  1  0  0  0  0
 22 23  1  0  0  0  0
 18 21  1  0  0  0  0
 23 24  1  0  0  0  0
 41 42  1  0  0  0  0
  7  8  1  0  0  0  0
 17 18  1  0  0  0  0
  3  4  1  0  0  0  0
  3  5  1  0  0  0  0
  3  6  1  0  0  0  0
 45 48  1  0  0  0  0
 45 49  1  0  0  0  0
 45 50  1  0  0  0  0
 11 14  1  0  0  0  0
 11 15  1  0  0  0  0
 11 16  1  0  0  0  0
 52 54  1  0  0  0  0
 52 55  1  0  0  0  0
 52 56  1  0  0  0  0
 22 32  1  0  0  0  0
 22 33  1  0  0  0  0
 21 30  1  0  0  0  0
 21 31  1  0  0  0  0
 23 34  1  0  0  0  0
 23 35  1  0  0  0  0
 42 47  1  0  0  0  0
  8 13  1  0  0  0  0
 18 29  1  0  0  0  0
 26 37  1  0  0  0  0
 26 38  1  0  0  0  0
 27 39  1  0  0  0  0
 27 40  1  0  0  0  0
 51 53  1  0  0  0  0
  7 12  1  0  0  0  0
 41 46  1  0  0  0  0
 17 28  1  0  0  0  0
 24 36  1  0  0  0  0
M  CHG  1  24   1
M  END
$$$$

  -OEChem-05262214473D

 56 55  0     1  0  0  0  0  0999 V2000
    0.7735   -5.8042   -2.0022 C   0  0  0  0  0  0  0  0  0  0  0  0
   -0.2086   -6.3825   -1.5519 O   0  0  0  0  0  0  0  0  0  0  0  0
    1.4751   -6.3646   -3.1946 C   0  0  0  0  0  0  0  0  0  0  0  0
    2.2765   -7.0687   -2.9186 H   0  0  0  0  0  0  0  0  0  0  0  0
    0.7988   -6.9360   -3.8504 H   0  0  0  0  0  0  0  0  0  0  0  0
    1.9556   -5.6216   -3.8511 H   0  0  0  0  0  0  0  0  0  0  0  0
    1.3322   -4.6359   -1.5106 N   0  0  0  0  0  0  0  0  0  0  0  0
    0.8124   -3.9290   -0.3698 C   0  0  2  0  0  0  0  0  0  0  0  0
    1.0666   -2.4424   -0.5818 C   0  0  0  0  0  0  0  0  0  0  0  0
    2.0598   -2.0076   -1.1610 O   0  0  0  0  0  0  0  0  0  0  0  0
    1.4560   -4.4118    0.9207 C   0  0  0  0  0  0  0  0  0  0  0  0
    2.1528   -4.2578   -1.9805 H   0  0  0  0  0  0  0  0  0  0  0  0
   -0.2667   -4.1160   -0.3467 H   0  0  0  0  0  0  0  0  0  0  0  0
    2.5374   -4.2329    0.9160 H   0  0  0  0  0  0  0  0  0  0  0  0
    1.0390   -3.8932    1.7903 H   0  0  0  0  0  0  0  0  0  0  0  0
    1.2976   -5.4871    1.0566 H   0  0  0  0  0  0  0  0  0  0  0  0
    0.0755   -1.6529   -0.0105 N   0  0  0  0  0  0  0  0  0  0  0  0
    0.1113   -0.2132   -0.0391 C   0  0  2  0  0  0  0  0  0  0  0  0
    1.3840    0.2278    0.6760 C   0  0  0  0  0  0  0  0  0  0  0  0
    2.2940   -0.5480    0.9613 O   0  0  0  0  0  0  0  0  0  0  0  0
   -1.1203    0.4069    0.6286 C   0  0  0  0  0  0  0  0  0  0  0  0
   -2.4102    0.1296   -0.1528 C   0  0  0  0  0  0  0  0  0  0  0  0
   -3.6327    0.7491    0.5163 C   0  0  0  0  0  0  0  0  0  0  0  0
   -4.8628    0.4629   -0.2186 N   0  3  0  0  0  0  0  0  0  0  0  0
   -6.1174    0.8741    0.2351 C   0  0  0  0  0  0  0  0  0  0  0  0
   -7.2461    0.5659   -0.5169 N   0  0  0  0  0  0  0  0  0  0  0  0
   -6.2663    1.5854    1.4213 N   0  0  0  0  0  0  0  0  0  0  0  0
   -0.7323   -2.1024    0.4149 H   0  0  0  0  0  0  0  0  0  0  0  0
    0.1728    0.0820   -1.0928 H   0  0  0  0  0  0  0  0  0  0  0  0
   -0.9785    1.4904    0.7215 H   0  0  0  0  0  0  0  0  0  0  0  0
   -1.2233    0.0195    1.6508 H   0  0  0  0  0  0  0  0  0  0  0  0
   -2.3133    0.5205   -1.1727 H   0  0  0  0  0  0  0  0  0  0  0  0
   -2.5682   -0.9523   -0.2300 H   0  0  0  0  0  0  0  0  0  0  0  0
   -3.7514    0.3347    1.5222 H   0  0  0  0  0  0  0  0  0  0  0  0
   -3.5278    1.8356    0.5933 H   0  0  0  0  0  0  0  0  0  0  0  0
   -4.8166   -0.0547   -1.0946 H   0  0  0  0  0  0  0  0  0  0  0  0
   -8.1746    0.8510   -0.2145 H   0  0  0  0  0  0  0  0  0  0  0  0
   -7.1730    0.0471   -1.3887 H   0  0  0  0  0  0  0  0  0  0  0  0
   -7.1776    1.8872    1.7561 H   0  0  0  0  0  0  0  0  0  0  0  0
   -5.4588    1.8246    1.9920 H   0  0  0  0  0  0  0  0  0  0  0  0
    1.3603    1.5771    1.0001 N   0  0  0  0  0  0  0  0  0  0  0  0
    2.4262    2.2307    1.7240 C   0  0  2  0  0  0  0  0  0  0  0  0
    1.8102    3.3359    2.5718 C   0  0  0  0  0  0  0  0  0  0  0  0
    0.8330    3.9902    2.2139 O   0  0  0  0  0  0  0  0  0  0  0  0
    3.4749    2.7926    0.7769 C   0  0  0  0  0  0  0  0  0  0  0  0
    0.5787    2.1493    0.6945 H   0  0  0  0  0  0  0  0  0  0  0  0
    2.8742    1.4747    2.3781 H   0  0  0  0  0  0  0  0  0  0  0  0
    3.0445    3.5518    0.1136 H   0  0  0  0  0  0  0  0  0  0  0  0
    4.2962    3.2625    1.3280 H   0  0  0  0  0  0  0  0  0  0  0  0
    3.8955    2.0011    0.1473 H   0  0  0  0  0  0  0  0  0  0  0  0
    2.5063    3.5348    3.7558 N   0  0  0  0  0  0  0  0  0  0  0  0
    2.1442    4.5558    4.7110 C   0  0  0  0  0  0  0  0  0  0  0  0
    3.2801    2.9199    3.9899 H   0  0  0  0  0  0  0  0  0  0  0  0
    2.7125    5.4738    4.5005 H   0  0  0  0  0  0  0  0  0  0  0  0
    1.0672    4.7655    4.6328 H   0  0  0  0  0  0  0  0  0  0  0  0
    2.3768    4.2058    5.7276 H   0  0  0  0  0  0  0  0  0  0  0  0
  1  3  1  0  0  0  0
  1  7  1  0  0  0  0
  1  2  2  0  0  0  0
 42 43  1  0  0  0  0
 43 51  1  0  0  0  0
 43 44  2  0  0  0  0
  8  9  1  0  0  0  0
  9 17  1  0  0  0  0
  9 10  2  0  0  0  0
 18 19  1  0  0  0  0
 19 41  1  0  0  0  0
 19 20  2  0  0  0  0
 25 26  1  0  0  0  0
 25 27  1  0  0  0  0
 24 25  2  0  0  0  0
 42 45  1  0  0  0  0
  8 11  1  0  0  0  0
 51 52  1  0  0  0  0
 21 22  1  0  0  0  0
 22 23  1  0  0  0  0
 18 21  1  0  0  0  0
 23 24  1  0  0  0  0
 41 42  1  0  0  0  0
  7  8  1  0  0  0  0
 17 18  1  0  0  0  0
  3  4  1  0  0  0  0
  3  5  1  0  0  0  0
  3  6  1  0  0  0  0
 45 48  1  0  0  0  0
 45 49  1  0  0  0  0
 45 50  1  0  0  0  0
 11 14  1  0  0  0  0
 11 15  1  0  0  0  0
 11 16  1  0  0  0  0
 52 54  1  0  0  0  0
 52 55  1  0  0  0  0
 52 56  1  0  0  0  0
 22 32  1  0  0  0  0
 22 33  1  0  0  0  0
 21 30  1  0  0  0  0
 21 31  1  0  0  0  0
 23 34  1  0  0  0  0
 23 35  1  0  0  0  0
 42 47  1  0  0  0  0
  8 13  1  0  0  0  0
 18 29  1  0  0  0  0
 26 37  1  0  0  0  0
 26 38  1  0  0  0  0
 27 39  1  0  0  0  0
 27 40  1  0  0  0  0
 51 53  1  0  0  0  0
  7 12  1  0  0  0  0
 41 46  1  0  0  0  0
 17 28  1  0  0  0  0
 24 36  1  0  0  0  0
M  CHG  1  24   1
M  END
$$$$

  -OEChem-05262214473D

 56 55  0     1  0  0  0  0  0999 V2000
    0.7735   -5.8042   -2.0022 C   0  0  0  0  0  0  0  0  0  0  0  0
   -0.2086   -6.3825   -1.5519 O   0  0  0  0  0  0  0  0  0  0  0  0
    1.4751   -6.3646   -3.1946 C   0  0  0  0  0  0  0  0  0  0  0  0
    2.2765   -7.0687   -2.9186 H   0  0  0  0  0  0  0  0  0  0  0  0
    0.7988   -6.9360   -3.8504 H   0  0  0  0  0  0  0  0  0  0  0  0
    1.9556   -5.6216   -3.8511 H   0  0  0  0  0  0  0  0  0  0  0  0
    1.3322   -4.6359   -1.5106 N   0  0  0  0  0  0  0  0  0  0  0  0
    0.8124   -3.9290   -0.3698 C   0  0  2  0  0  0  0  0  0  0  0  0
    1.0666   -2.4424   -0.5818 C   0  0  0  0  0  0  0  0  0  0  0  0
    2.0598   -2.0076   -1.1610 O   0  0  0  0  0  0  0  0  0  0  0  0
    1.4560   -4.4118    0.9207 C   0  0  0  0  0  0  0  0  0  0  0  0
    2.1528   -4.2578   -1.9805 H   0  0  0  0  0  0  0  0  0  0  0  0
   -0.2667   -4.1160   -0.3467 H   0  0  0  0  0  0  0  0  0  0  0  0
    2.5374   -4.2329    0.9160 H   0  0  0  0  0  0  0  0  0  0  0  0
    1.0390   -3.8932    1.7903 H   0  0  0  0  0  0  0  0  0  0  0  0
    1.2976   -5.4871    1.0566 H   0  0  0  0  0  0  0  0  0  0  0  0
    0.0755   -1.6529   -0.0105 N   0  0  0  0  0  0  0  0  0  0  0  0
    0.1113   -0.2132   -0.0391 C   0  0  2  0  0  0  0  0  0  0  0  0
    1.3840    0.2278    0.6760 C   0  0  0  0  0  0  0  0  0  0  0  0
    2.3975   -0.4661    0.7266 O   0  0  0  0  0  0  0  0  0  0  0  0
   -1.1203    0.4069    0.6286 C   0  0  0  0  0  0  0  0  0  0  0  0
   -2.4102    0.1296   -0.1528 C   0  0  0  0  0  0  0  0  0  0  0  0
   -3.6327    0.7491    0.5163 C   0  0  0  0  0  0  0  0  0  0  0  0
   -4.8628    0.4629   -0.2186 N   0  3  0  0  0  0  0  0  0  0  0  0
   -6.1174    0.8741    0.2351 C   0  0  0  0  0  0  0  0  0  0  0  0
   -7.2461    0.5659   -0.5169 N   0  0  0  0  0  0  0  0  0  0  0  0
   -6.2663    1.5854    1.4213 N   0  0  0  0  0  0  0  0  0  0  0  0
   -0.7323   -2.1024    0.4149 H   0  0  0  0  0  0  0  0  0  0  0  0
    0.1728    0.0820   -1.0928 H   0  0  0  0  0  0  0  0  0  0  0  0
   -0.9785    1.4904    0.7215 H   0  0  0  0  0  0  0  0  0  0  0  0
   -1.2233    0.0195    1.6508 H   0  0  0  0  0  0  0  0  0  0  0  0
   -2.3133    0.5205   -1.1727 H   0  0  0  0  0  0  0  0  0  0  0  0
   -2.5682   -0.9523   -0.2300 H   0  0  0  0  0  0  0  0  0  0  0  0
   -3.7514    0.3347    1.5222 H   0  0  0  0  0  0  0  0  0  0  0  0
   -3.5278    1.8356    0.5933 H   0  0  0  0  0  0  0  0  0  0  0  0
   -4.8166   -0.0547   -1.0946 H   0  0  0  0  0  0  0  0  0  0  0  0
   -8.1746    0.8510   -0.2145 H   0  0  0  0  0  0  0  0  0  0  0  0
   -7.1730    0.0471   -1.3887 H   0  0  0  0  0  0  0  0  0  0  0  0
   -7.1776    1.8872    1.7561 H   0  0  0  0  0  0  0  0  0  0  0  0
   -5.4588    1.8246    1.9920 H   0  0  0  0  0  0  0  0  0  0  0  0
    1.2364    1.4634    1.2907 N   0  0  0  0  0  0  0  0  0  0  0  0
    2.2812    2.0817    2.0740 C   0  0  2  0  0  0  0  0  0  0  0  0
    1.6213    2.8934    3.1809 C   0  0  0  0  0  0  0  0  0  0  0  0
    0.5486    3.4762    3.0369 O   0  0  0  0  0  0  0  0  0  0  0  0
    3.1719    2.9622    1.2114 C   0  0  0  0  0  0  0  0  0  0  0  0
    0.3712    1.9811    1.1675 H   0  0  0  0  0  0  0  0  0  0  0  0
    2.8678    1.2691    2.5163 H   0  0  0  0  0  0  0  0  0  0  0  0
    2.6016    3.7821    0.7597 H   0  0  0  0  0  0  0  0  0  0  0  0
    3.9802    3.4074    1.8010 H   0  0  0  0  0  0  0  0  0  0  0  0
    3.6223    2.3830    0.3981 H   0  0  0  0  0  0  0  0  0  0  0  0
    2.3921    2.9260    4.3345 N   0  0  0  0  0  0  0  0  0  0  0  0
    2.0024    3.6663    5.5118 C   0  0  0  0  0  0  0  0  0  0  0  0
    3.2481    2.3811    4.3791 H   0  0  0  0  0  0  0  0  0  0  0  0
    2.4424    4.6738    5.4745 H   0  0  0  0  0  0  0  0  0  0  0  0
    0.9059    3.7464    5.5482 H   0  0  0  0  0  0  0  0  0  0  0  0
    2.3618    3.1425    6.4098 H   0  0  0  0  0  0  0  0  0  0  0  0
  1  3  1  0  0  0  0
  1  7  1  0  0  0  0
  1  2  2  0  0  0  0
 42 43  1  0  0  0  0
 43 51  1  0  0  0  0
 43 44  2  0  0  0  0
  8  9  1  0  0  0  0
  9 17  1  0  0  0  0
  9 10  2  0  0  0  0
 18 19  1  0  0  0  0
 19 41  1  0  0  0  0
 19 20  2  0  0  0  0
 25 26  1  0  0  0  0
 25 27  1  0  0  0  0
 24 25  2  0  0  0  0
 42 45  1  0  0  0  0
  8 11  1  0  0  0  0
 51 52  1  0  0  0  0
 21 22  1  0  0  0  0
 22 23  1  0  0  0  0
 18 21  1  0  0  0  0
 23 24  1  0  0  0  0
 41 42  1  0  0  0  0
  7  8  1  0  0  0  0
 17 18  1  0  0  0  0
  3  4  1  0  0  0  0
  3  5  1  0  0  0  0
  3  6  1  0  0  0  0
 45 48  1  0  0  0  0
 45 49  1  0  0  0  0
 45 50  1  0  0  0  0
 11 14  1  0  0  0  0
 11 15  1  0  0  0  0
 11 16  1  0  0  0  0
 52 54  1  0  0  0  0
 52 55  1  0  0  0  0
 52 56  1  0  0  0  0
 22 32  1  0  0  0  0
 22 33  1  0  0  0  0
 21 30  1  0  0  0  0
 21 31  1  0  0  0  0
 23 34  1  0  0  0  0
 23 35  1  0  0  0  0
 42 47  1  0  0  0  0
  8 13  1  0  0  0  0
 18 29  1  0  0  0  0
 26 37  1  0  0  0  0
 26 38  1  0  0  0  0
 27 39  1  0  0  0  0
 27 40  1  0  0  0  0
 51 53  1  0  0  0  0
  7 12  1  0  0  0  0
 41 46  1  0  0  0  0
 17 28  1  0  0  0  0
 24 36  1  0  0  0  0
M  CHG  1  24   1
M  END
$$$$

  -OEChem-05262214473D

 56 55  0     1  0  0  0  0  0999 V2000
    0.7735   -5.8042   -2.0022 C   0  0  0  0  0  0  0  0  0  0  0  0
   -0.2086   -6.3825   -1.5519 O   0  0  0  0  0  0  0  0  0  0  0  0
    1.4751   -6.3646   -3.1946 C   0  0  0  0  0  0  0  0  0  0  0  0
    2.2765   -7.0687   -2.9186 H   0  0  0  0  0  0  0  0  0  0  0  0
    0.7988   -6.9360   -3.8504 H   0  0  0  0  0  0  0  0  0  0  0  0
    1.9556   -5.6216   -3.8511 H   0  0  0  0  0  0  0  0  0  0  0  0
    1.3322   -4.6359   -1.5106 N   0  0  0  0  0  0  0  0  0  0  0  0
    0.8124   -3.9290   -0.3698 C   0  0  2  0  0  0  0  0  0  0  0  0
    1.0666   -2.4424   -0.5818 C   0  0  0  0  0  0  0  0  0  0  0  0
    2.0598   -2.0076   -1.1610 O   0  0  0  0  0  0  0  0  0  0  0  0
    1.4560   -4.4118    0.9207 C   0  0  0  0  0  0  0  0  0  0  0  0
    2.1528   -4.2578   -1.9805 H   0  0  0  0  0  0  0  0  0  0  0  0
   -0.2667   -4.1160   -0.3467 H   0  0  0  0  0  0  0  0  0  0  0  0
    2.5374   -4.2329    0.9160 H   0  0  0  0  0  0  0  0  0  0  0  0
    1.0390   -3.8932    1.7903 H   0  0  0  0  0  0  0  0  0  0  0  0
    1.2976   -5.4871    1.0566 H   0  0  0  0  0  0  0  0  0  0  0  0
    0.0755   -1.6529   -0.0105 N   0  0  0  0  0  0  0  0  0  0  0  0
    0.1113   -0.2132   -0.0391 C   0  0  2  0  0  0  0  0  0  0  0  0
    1.3840    0.2278    0.6760 C   0  0  0  0  0  0  0  0  0  0  0  0
    2.4700   -0.3238    0.5099 O   0  0  0  0  0  0  0  0  0  0  0  0
   -1.1203    0.4069    0.6286 C   0  0  0  0  0  0  0  0  0  0  0  0
   -2.4102    0.1296   -0.1528 C   0  0  0  0  0  0  0  0  0  0  0  0
   -3.6327    0.7491    0.5163 C   0  0  0  0  0  0  0  0  0  0  0  0
   -4.8628    0.4629   -0.2186 N   0  3  0  0  0  0  0  0  0  0  0  0
   -6.1174    0.8741    0.2351 C   0  0  0  0  0  0  0  0  0  0  0  0
   -7.2461    0.5659   -0.5169 N   0  0  0  0  0  0  0  0  0  0  0  0
   -6.2663    1.5854    1.4213 N   0  0  0  0  0  0  0  0  0  0  0  0
   -0.7323   -2.1024    0.4149 H   0  0  0  0  0  0  0  0  0  0  0  0
    0.1728    0.0820   -1.0928 H   0  0  0  0  0  0  0  0  0  0  0  0
   -0.9785    1.4904    0.7215 H   0  0  0  0  0  0  0  0  0  0  0  0
   -1.2233    0.0195    1.6508 H   0  0  0  0  0  0  0  0  0  0  0  0
   -2.3133    0.5205   -1.1727 H   0  0  0  0  0  0  0  0  0  0  0  0
   -2.5682   -0.9523   -0.2300 H   0  0  0  0  0  0  0  0  0  0  0  0
   -3.7514    0.3347    1.5222 H   0  0  0  0  0  0  0  0  0  0  0  0
   -3.5278    1.8356    0.5933 H   0  0  0  0  0  0  0  0  0  0  0  0
   -4.8166   -0.0547   -1.0946 H   0  0  0  0  0  0  0  0  0  0  0  0
   -8.1746    0.8510   -0.2145 H   0  0  0  0  0  0  0  0  0  0  0  0
   -7.1730    0.0471   -1.3887 H   0  0  0  0  0  0  0  0  0  0  0  0
   -7.1776    1.8872    1.7561 H   0  0  0  0  0  0  0  0  0  0  0  0
   -5.4588    1.8246    1.9920 H   0  0  0  0  0  0  0  0  0  0  0  0
    1.1523    1.2758    1.5560 N   0  0  0  0  0  0  0  0  0  0  0  0
    2.1854    1.8446    2.3906 C   0  0  2  0  0  0  0  0  0  0  0  0
    1.5381    2.3115    3.6878 C   0  0  0  0  0  0  0  0  0  0  0  0
    0.3979    2.7675    3.7422 O   0  0  0  0  0  0  0  0  0  0  0  0
    2.8912    2.9954    1.6905 C   0  0  0  0  0  0  0  0  0  0  0  0
    0.2267    1.6912    1.6035 H   0  0  0  0  0  0  0  0  0  0  0  0
    2.8969    1.0400    2.6058 H   0  0  0  0  0  0  0  0  0  0  0  0
    2.1942    3.8112    1.4667 H   0  0  0  0  0  0  0  0  0  0  0  0
    3.6927    3.4068    2.3129 H   0  0  0  0  0  0  0  0  0  0  0  0
    3.3307    2.6646    0.7433 H   0  0  0  0  0  0  0  0  0  0  0  0
    2.3990    2.1991    4.7705 N   0  0  0  0  0  0  0  0  0  0  0  0
    2.0334    2.6169    6.1039 C   0  0  0  0  0  0  0  0  0  0  0  0
    3.3118    1.7727    4.6411 H   0  0  0  0  0  0  0  0  0  0  0  0
    2.3515    3.6579    6.2627 H   0  0  0  0  0  0  0  0  0  0  0  0
    0.9424    2.5447    6.2244 H   0  0  0  0  0  0  0  0  0  0  0  0
    2.5275    1.9662    6.8403 H   0  0  0  0  0  0  0  0  0  0  0  0
  1  3  1  0  0  0  0
  1  7  1  0  0  0  0
  1  2  2  0  0  0  0
 42 43  1  0  0  0  0
 43 51  1  0  0  0  0
 43 44  2  0  0  0  0
  8  9  1  0  0  0  0
  9 17  1  0  0  0  0
  9 10  2  0  0  0  0
 18 19  1  0  0  0  0
 19 41  1  0  0  0  0
 19 20  2  0  0  0  0
 25 26  1  0  0  0  0
 25 27  1  0  0  0  0
 24 25  2  0  0  0  0
 42 45  1  0  0  0  0
  8 11  1  0  0  0  0
 51 52  1  0  0  0  0
 21 22  1  0  0  0  0
 22 23  1  0  0  0  0
 18 21  1  0  0  0  0
 23 24  1  0  0  0  0
 41 42  1  0  0  0  0
  7  8  1  0  0  0  0
 17 18  1  0  0  0  0
  3  4  1  0  0  0  0
  3  5  1  0  0  0  0
  3  6  1  0  0  0  0
 45 48  1  0  0  0  0
 45 49  1  0  0  0  0
 45 50  1  0  0  0  0
 11 14  1  0  0  0  0
 11 15  1  0  0  0  0
 11 16  1  0  0  0  0
 52 54  1  0  0  0  0
 52 55  1  0  0  0  0
 52 56  1  0  0  0  0
 22 32  1  0  0  0  0
 22 33  1  0  0  0  0
 21 30  1  0  0  0  0
 21 31  1  0  0  0  0
 23 34  1  0  0  0  0
 23 35  1  0  0  0  0
 42 47  1  0  0  0  0
  8 13  1  0  0  0  0
 18 29  1  0  0  0  0
 26 37  1  0  0  0  0
 26 38  1  0  0  0  0
 27 39  1  0  0  0  0
 27 40  1  0  0  0  0
 51 53  1  0  0  0  0
  7 12  1  0  0  0  0
 41 46  1  0  0  0  0
 17 28  1  0  0  0  0
 24 36  1  0  0  0  0
M  CHG  1  24   1
M  END
$$$$

  -OEChem-05262214473D

 56 55  0     1  0  0  0  0  0999 V2000
    0.7735   -5.8042   -2.0022 C   0  0  0  0  0  0  0  0  0  0  0  0
   -0.2086   -6.3825   -1.5519 O   0  0  0  0  0  0  0  0  0  0  0  0
    1.4751   -6.3646   -3.1946 C   0  0  0  0  0  0  0  0  0  0  0  0
    2.2765   -7.0687   -2.9186 H   0  0  0  0  0  0  0  0  0  0  0  0
    0.7988   -6.9360   -3.8504 H   0  0  0  0  0  0  0  0  0  0  0  0
    1.9556   -5.6216   -3.8511 H   0  0  0  0  0  0  0  0  0  0  0  0
    1.3322   -4.6359   -1.5106 N   0  0  0  0  0  0  0  0  0  0  0  0
    0.8124   -3.9290   -0.3698 C   0  0  2  0  0  0  0  0  0  0  0  0
    1.0666   -2.4424   -0.5818 C   0  0  0  0  0  0  0  0  0  0  0  0
    2.0598   -2.0076   -1.1610 O   0  0  0  0  0  0  0  0  0  0  0  0
    1.4560   -4.4118    0.9207 C   0  0  0  0  0  0  0  0  0  0  0  0
    2.1528   -4.2578   -1.9805 H   0  0  0  0  0  0  0  0  0  0  0  0
   -0.2667   -4.1160   -0.3467 H   0  0  0  0  0  0  0  0  0  0  0  0
    2.5374   -4.2329    0.9160 H   0  0  0  0  0  0  0  0  0  0  0  0
    1.0390   -3.8932    1.7903 H   0  0  0  0  0  0  0  0  0  0  0  0
    1.2976   -5.4871    1.0566 H   0  0  0  0  0  0  0  0  0  0  0  0
    0.0755   -1.6529   -0.0105 N   0  0  0  0  0  0  0  0  0  0  0  0
    0.1113   -0.2132   -0.0391 C   0  0  2  0  0  0  0  0  0  0  0  0
    1.3840    0.2278    0.6760 C   0  0  0  0  0  0  0  0  0  0  0  0
    2.5065   -0.1307    0.3258 O   0  0  0  0  0  0  0  0  0  0  0  0
   -1.1203    0.4069    0.6286 C   0  0  0  0  0  0  0  0  0  0  0  0
   -2.4102    0.1296   -0.1528 C   0  0  0  0  0  0  0  0  0  0  0  0
   -3.6327    0.7491    0.5163 C   0  0  0  0  0  0  0  0  0  0  0  0
   -4.8628    0.4629   -0.2186 N   0  3  0  0  0  0  0  0  0  0  0  0
   -6.1174    0.8741    0.2351 C   0  0  0  0  0  0  0  0  0  0  0  0
   -7.2461    0.5659   -0.5169 N   0  0  0  0  0  0  0  0  0  0  0  0
   -6.2663    1.5854    1.4213 N   0  0  0  0  0  0  0  0  0  0  0  0
   -0.7323   -2.1024    0.4149 H   0  0  0  0  0  0  0  0  0  0  0  0
    0.1728    0.0820   -1.0928 H   0  0  0  0  0  0  0  0  0  0  0  0
   -0.9785    1.4904    0.7215 H   0  0  0  0  0  0  0  0  0  0  0  0
   -1.2233    0.0195    1.6508 H   0  0  0  0  0  0  0  0  0  0  0  0
   -2.3133    0.5205   -1.1727 H   0  0  0  0  0  0  0  0  0  0  0  0
   -2.5682   -0.9523   -0.2300 H   0  0  0  0  0  0  0  0  0  0  0  0
   -3.7514    0.3347    1.5222 H   0  0  0  0  0  0  0  0  0  0  0  0
   -3.5278    1.8356    0.5933 H   0  0  0  0  0  0  0  0  0  0  0  0
   -4.8166   -0.0547   -1.0946 H   0  0  0  0  0  0  0  0  0  0  0  0
   -8.1746    0.8510   -0.2145 H   0  0  0  0  0  0  0  0  0  0  0  0
   -7.1730    0.0471   -1.3887 H   0  0  0  0  0  0  0  0  0  0  0  0
   -7.1776    1.8872    1.7561 H   0  0  0  0  0  0  0  0  0  0  0  0
   -5.4588    1.8246    1.9920 H   0  0  0  0  0  0  0  0  0  0  0  0
    1.1137    1.0270    1.7781 N   0  0  0  0  0  0  0  0  0  0  0  0
    2.1454    1.5356    2.6525 C   0  0  2  0  0  0  0  0  0  0  0  0
    1.5663    1.6298    4.0579 C   0  0  0  0  0  0  0  0  0  0  0  0
    0.3911    1.9123    4.2817 O   0  0  0  0  0  0  0  0  0  0  0  0
    2.6520    2.8899    2.1814 C   0  0  0  0  0  0  0  0  0  0  0  0
    0.1548    1.2994    1.9729 H   0  0  0  0  0  0  0  0  0  0  0  0
    2.9595    0.8028    2.6406 H   0  0  0  0  0  0  0  0  0  0  0  0
    1.8501    3.6372    2.1864 H   0  0  0  0  0  0  0  0  0  0  0  0
    3.4535    3.2607    2.8287 H   0  0  0  0  0  0  0  0  0  0  0  0
    3.0408    2.8266    1.1593 H   0  0  0  0  0  0  0  0  0  0  0  0
    2.5265    1.4036    5.0342 N   0  0  0  0  0  0  0  0  0  0  0  0
    2.2350    1.4792    6.4467 C   0  0  0  0  0  0  0  0  0  0  0  0
    3.4666    1.1362    4.7579 H   0  0  0  0  0  0  0  0  0  0  0  0
    2.4461    2.4953    6.8114 H   0  0  0  0  0  0  0  0  0  0  0  0
    1.1741    1.2423    6.6152 H   0  0  0  0  0  0  0  0  0  0  0  0
    2.8626    0.7572    6.9897 H   0  0  0  0  0  0  0  0  0  0  0  0
  1  3  1  0  0  0  0
  1  7  1  0  0  0  0
  1  2  2  0  0  0  0
 42 43  1  0  0  0  0
 43 51  1  0  0  0  0
 43 44  2  0  0  0  0
  8  9  1  0  0  0  0
  9 17  1  0  0  0  0
  9 10  2  0  0  0  0
 18 19  1  0  0  0  0
 19 41  1  0  0  0  0
 19 20  2  0  0  0  0
 25 26  1  0  0  0  0
 25 27  1  0  0  0  0
 24 25  2  0  0  0  0
 42 45  1  0  0  0  0
  8 11  1  0  0  0  0
 51 52  1  0  0  0  0
 21 22  1  0  0  0  0
 22 23  1  0  0  0  0
 18 21  1  0  0  0  0
 23 24  1  0  0  0  0
 41 42  1  0  0  0  0
  7  8  1  0  0  0  0
 17 18  1  0  0  0  0
  3  4  1  0  0  0  0
  3  5  1  0  0  0  0
  3  6  1  0  0  0  0
 45 48  1  0  0  0  0
 45 49  1  0  0  0  0
 45 50  1  0  0  0  0
 11 14  1  0  0  0  0
 11 15  1  0  0  0  0
 11 16  1  0  0  0  0
 52 54  1  0  0  0  0
 52 55  1  0  0  0  0
 52 56  1  0  0  0  0
 22 32  1  0  0  0  0
 22 33  1  0  0  0  0
 21 30  1  0  0  0  0
 21 31  1  0  0  0  0
 23 34  1  0  0  0  0
 23 35  1  0  0  0  0
 42 47  1  0  0  0  0
  8 13  1  0  0  0  0
 18 29  1  0  0  0  0
 26 37  1  0  0  0  0
 26 38  1  0  0  0  0
 27 39  1  0  0  0  0
 27 40  1  0  0  0  0
 51 53  1  0  0  0  0
  7 12  1  0  0  0  0
 41 46  1  0  0  0  0
 17 28  1  0  0  0  0
 24 36  1  0  0  0  0
M  CHG  1  24   1
M  END
$$$$

  -OEChem-05262214473D

 56 55  0     1  0  0  0  0  0999 V2000
    0.7735   -5.8042   -2.0022 C   0  0  0  0  0  0  0  0  0  0  0  0
   -0.2086   -6.3825   -1.5519 O   0  0  0  0  0  0  0  0  0  0  0  0
    1.4751   -6.3646   -3.1946 C   0  0  0  0  0  0  0  0  0  0  0  0
    2.2765   -7.0687   -2.9186 H   0  0  0  0  0  0  0  0  0  0  0  0
    0.7988   -6.9360   -3.8504 H   0  0  0  0  0  0  0  0  0  0  0  0
    1.9556   -5.6216   -3.8511 H   0  0  0  0  0  0  0  0  0  0  0  0
    1.3322   -4.6359   -1.5106 N   0  0  0  0  0  0  0  0  0  0  0  0
    0.8124   -3.9290   -0.3698 C   0  0  2  0  0  0  0  0  0  0  0  0
    1.0666   -2.4424   -0.5818 C   0  0  0  0  0  0  0  0  0  0  0  0
    2.0598   -2.0076   -1.1610 O   0  0  0  0  0  0  0  0  0  0  0  0
    1.4560   -4.4118    0.9207 C   0  0  0  0  0  0  0  0  0  0  0  0
    2.1528   -4.2578   -1.9805 H   0  0  0  0  0  0  0  0  0  0  0  0
   -0.2667   -4.1160   -0.3467 H   0  0  0  0  0  0  0  0  0  0  0  0
    2.5374   -4.2329    0.9160 H   0  0  0  0  0  0  0  0  0  0  0  0
    1.0390   -3.8932    1.7903 H   0  0  0  0  0  0  0  0  0  0  0  0
    1.2976   -5.4871    1.0566 H   0  0  0  0  0  0  0  0  0  0  0  0
    0.0755   -1.6529   -0.0105 N   0  0  0  0  0  0  0  0  0  0  0  0
    0.1113   -0.2132   -0.0391 C   0  0  2  0  0  0  0  0  0  0  0  0
    1.3840    0.2278    0.6760 C   0  0  0  0  0  0  0  0  0  0  0  0
    2.5046    0.1000    0.1870 O   0  0  0  0  0  0  0  0  0  0  0  0
   -1.1203    0.4069    0.6286 C   0  0  0  0  0  0  0  0  0  0  0  0
   -2.4102    0.1296   -0.1528 C   0  0  0  0  0  0  0  0  0  0  0  0
   -3.6327    0.7491    0.5163 C   0  0  0  0  0  0  0  0  0  0  0  0
   -4.8628    0.4629   -0.2186 N   0  3  0  0  0  0  0  0  0  0  0  0
   -6.1174    0.8741    0.2351 C   0  0  0  0  0  0  0  0  0  0  0  0
   -7.2461    0.5659   -0.5169 N   0  0  0  0  0  0  0  0  0  0  0  0
   -6.2663    1.5854    1.4213 N   0  0  0  0  0  0  0  0  0  0  0  0
   -0.7323   -2.1024    0.4149 H   0  0  0  0  0  0  0  0  0  0  0  0
    0.1728    0.0820   -1.0928 H   0  0  0  0  0  0  0  0  0  0  0  0
   -0.9785    1.4904    0.7215 H   0  0  0  0  0  0  0  0  0  0  0  0
   -1.2233    0.0195    1.6508 H   0  0  0  0  0  0  0  0  0  0  0  0
   -2.3133    0.5205   -1.1727 H   0  0  0  0  0  0  0  0  0  0  0  0
   -2.5682   -0.9523   -0.2300 H   0  0  0  0  0  0  0  0  0  0  0  0
   -3.7514    0.3347    1.5222 H   0  0  0  0  0  0  0  0  0  0  0  0
   -3.5278    1.8356    0.5933 H   0  0  0  0  0  0  0  0  0  0  0  0
   -4.8166   -0.0547   -1.0946 H   0  0  0  0  0  0  0  0  0  0  0  0
   -8.1746    0.8510   -0.2145 H   0  0  0  0  0  0  0  0  0  0  0  0
   -7.1730    0.0471   -1.3887 H   0  0  0  0  0  0  0  0  0  0  0  0
   -7.1776    1.8872    1.7561 H   0  0  0  0  0  0  0  0  0  0  0  0
   -5.4588    1.8246    1.9920 H   0  0  0  0  0  0  0  0  0  0  0  0
    1.1233    0.7341    1.9417 N   0  0  0  0  0  0  0  0  0  0  0  0
    2.1638    1.1756    2.8416 C   0  0  2  0  0  0  0  0  0  0  0  0
    1.7040    0.8948    4.2661 C   0  0  0  0  0  0  0  0  0  0  0  0
    0.5287    0.9689    4.6185 O   0  0  0  0  0  0  0  0  0  0  0  0
    2.4704    2.6529    2.6507 C   0  0  0  0  0  0  0  0  0  0  0  0
    0.1606    0.8326    2.2504 H   0  0  0  0  0  0  0  0  0  0  0  0
    3.0514    0.5737    2.6184 H   0  0  0  0  0  0  0  0  0  0  0  0
    1.5927    3.2719    2.8698 H   0  0  0  0  0  0  0  0  0  0  0  0
    3.2787    2.9792    3.3133 H   0  0  0  0  0  0  0  0  0  0  0  0
    2.7722    2.8580    1.6179 H   0  0  0  0  0  0  0  0  0  0  0  0
    2.7659    0.5938    5.1075 N   0  0  0  0  0  0  0  0  0  0  0  0
    2.5934    0.3306    6.5171 C   0  0  0  0  0  0  0  0  0  0  0  0
    3.7023    0.5149    4.7217 H   0  0  0  0  0  0  0  0  0  0  0  0
    2.7195    1.2653    7.0832 H   0  0  0  0  0  0  0  0  0  0  0  0
    1.5852   -0.0719    6.6941 H   0  0  0  0  0  0  0  0  0  0  0  0
    3.3441   -0.4023    6.8477 H   0  0  0  0  0  0  0  0  0  0  0  0
  1  3  1  0  0  0  0
  1  7  1  0  0  0  0
  1  2  2  0  0  0  0
 42 43  1  0  0  0  0
 43 51  1  0  0  0  0
 43 44  2  0  0  0  0
  8  9  1  0  0  0  0
  9 17  1  0  0  0  0
  9 10  2  0  0  0  0
 18 19  1  0  0  0  0
 19 41  1  0  0  0  0
 19 20  2  0  0  0  0
 25 26  1  0  0  0  0
 25 27  1  0  0  0  0
 24 25  2  0  0  0  0
 42 45  1  0  0  0  0
  8 11  1  0  0  0  0
 51 52  1  0  0  0  0
 21 22  1  0  0  0  0
 22 23  1  0  0  0  0
 18 21  1  0  0  0  0
 23 24  1  0  0  0  0
 41 42  1  0  0  0  0
  7  8  1  0  0  0  0
 17 18  1  0  0  0  0
  3  4  1  0  0  0  0
  3  5  1  0  0  0  0
  3  6  1  0  0  0  0
 45 48  1  0  0  0  0
 45 49  1  0  0  0  0
 45 50  1  0  0  0  0
 11 14  1  0  0  0  0
 11 15  1  0  0  0  0
 11 16  1  0  0  0  0
 52 54  1  0  0  0  0
 52 55  1  0  0  0  0
 52 56  1  0  0  0  0
 22 32  1  0  0  0  0
 22 33  1  0  0  0  0
 21 30  1  0  0  0  0
 21 31  1  0  0  0  0
 23 34  1  0  0  0  0
 23 35  1  0  0  0  0
 42 47  1  0  0  0  0
  8 13  1  0  0  0  0
 18 29  1  0  0  0  0
 26 37  1  0  0  0  0
 26 38  1  0  0  0  0
 27 39  1  0  0  0  0
 27 40  1  0  0  0  0
 51 53  1  0  0  0  0
  7 12  1  0  0  0  0
 41 46  1  0  0  0  0
 17 28  1  0  0  0  0
 24 36  1  0  0  0  0
M  CHG  1  24   1
M  END
$$$$

  -OEChem-05262214473D

 56 55  0     1  0  0  0  0  0999 V2000
    0.7735   -5.8042   -2.0022 C   0  0  0  0  0  0  0  0  0  0  0  0
   -0.2086   -6.3825   -1.5519 O   0  0  0  0  0  0  0  0  0  0  0  0
    1.4751   -6.3646   -3.1946 C   0  0  0  0  0  0  0  0  0  0  0  0
    2.2765   -7.0687   -2.9186 H   0  0  0  0  0  0  0  0  0  0  0  0
    0.7988   -6.9360   -3.8504 H   0  0  0  0  0  0  0  0  0  0  0  0
    1.9556   -5.6216   -3.8511 H   0  0  0  0  0  0  0  0  0  0  0  0
    1.3322   -4.6359   -1.5106 N   0  0  0  0  0  0  0  0  0  0  0  0
    0.8124   -3.9290   -0.3698 C   0  0  2  0  0  0  0  0  0  0  0  0
    1.0666   -2.4424   -0.5818 C   0  0  0  0  0  0  0  0  0  0  0  0
    2.0598   -2.0076   -1.1610 O   0  0  0  0  0  0  0  0  0  0  0  0
    1.4560   -4.4118    0.9207 C   0  0  0  0  0  0  0  0  0  0  0  0
    2.1528   -4.2578   -1.9805 H   0  0  0  0  0  0  0  0  0  0  0  0
   -0.2667   -4.1160   -0.3467 H   0  0  0  0  0  0  0  0  0  0  0  0
    2.5374   -4.2329    0.9160 H   0  0  0  0  0  0  0  0  0  0  0  0
    1.0390   -3.8932    1.7903 H   0  0  0  0  0  0  0  0  0  0  0  0
    1.2976   -5.4871    1.0566 H   0  0  0  0  0  0  0  0  0  0  0  0
    0.0755   -1.6529   -0.0105 N   0  0  0  0  0  0  0  0  0  0  0  0
    0.1113   -0.2132   -0.0391 C   0  0  2  0  0  0  0  0  0  0  0  0
    1.3840    0.2278    0.6760 C   0  0  0  0  0  0  0  0  0  0  0  0
    2.4643    0.3526    0.1029 O   0  0  0  0  0  0  0  0  0  0  0  0
   -1.1203    0.4069    0.6286 C   0  0  0  0  0  0  0  0  0  0  0  0
   -2.4102    0.1296   -0.1528 C   0  0  0  0  0  0  0  0  0  0  0  0
   -3.6327    0.7491    0.5163 C   0  0  0  0  0  0  0  0  0  0  0  0
   -4.8628    0.4629   -0.2186 N   0  3  0  0  0  0  0  0  0  0  0  0
   -6.1174    0.8741    0.2351 C   0  0  0  0  0  0  0  0  0  0  0  0
   -7.2461    0.5659   -0.5169 N   0  0  0  0  0  0  0  0  0  0  0  0
   -6.2663    1.5854    1.4213 N   0  0  0  0  0  0  0  0  0  0  0  0
   -0.7323   -2.1024    0.4149 H   0  0  0  0  0  0  0  0  0  0  0  0
    0.1728    0.0820   -1.0928 H   0  0  0  0  0  0  0  0  0  0  0  0
   -0.9785    1.4904    0.7215 H   0  0  0  0  0  0  0  0  0  0  0  0
   -1.2233    0.0195    1.6508 H   0  0  0  0  0  0  0  0  0  0  0  0
   -2.3133    0.5205   -1.1727 H   0  0  0  0  0  0  0  0  0  0  0  0
   -2.5682   -0.9523   -0.2300 H   0  0  0  0  0  0  0  0  0  0  0  0
   -3.7514    0.3347    1.5222 H   0  0  0  0  0  0  0  0  0  0  0  0
   -3.5278    1.8356    0.5933 H   0  0  0  0  0  0  0  0  0  0  0  0
   -4.8166   -0.0547   -1.0946 H   0  0  0  0  0  0  0  0  0  0  0  0
   -8.1746    0.8510   -0.2145 H   0  0  0  0  0  0  0  0  0  0  0  0
   -7.1730    0.0471   -1.3887 H   0  0  0  0  0  0  0  0  0  0  0  0
   -7.1776    1.8872    1.7561 H   0  0  0  0  0  0  0  0  0  0  0  0
   -5.4588    1.8246    1.9920 H   0  0  0  0  0  0  0  0  0  0  0  0
    1.1803    0.4170    2.0358 N   0  0  0  0  0  0  0  0  0  0  0  0
    2.2394    0.7894    2.9452 C   0  0  2  0  0  0  0  0  0  0  0  0
    1.9418    0.1566    4.2982 C   0  0  0  0  0  0  0  0  0  0  0  0
    0.8013    0.0015    4.7298 O   0  0  0  0  0  0  0  0  0  0  0  0
    2.3588    2.3006    3.0664 C   0  0  0  0  0  0  0  0  0  0  0  0
    0.2437    0.3223    2.4173 H   0  0  0  0  0  0  0  0  0  0  0  0
    3.1663    0.3685    2.5405 H   0  0  0  0  0  0  0  0  0  0  0  0
    1.4395    2.7402    3.4702 H   0  0  0  0  0  0  0  0  0  0  0  0
    3.1803    2.5814    3.7337 H   0  0  0  0  0  0  0  0  0  0  0  0
    2.5433    2.7567    2.0877 H   0  0  0  0  0  0  0  0  0  0  0  0
    3.1010   -0.1752    4.9854 N   0  0  0  0  0  0  0  0  0  0  0  0
    3.0843   -0.7505    6.3101 C   0  0  0  0  0  0  0  0  0  0  0  0
    4.0025   -0.0487    4.5350 H   0  0  0  0  0  0  0  0  0  0  0  0
    3.1533    0.0517    7.0597 H   0  0  0  0  0  0  0  0  0  0  0  0
    2.1477   -1.3086    6.4556 H   0  0  0  0  0  0  0  0  0  0  0  0
    3.9394   -1.4331    6.4241 H   0  0  0  0  0  0  0  0  0  0  0  0
  1  3  1  0  0  0  0
  1  7  1  0  0  0  0
  1  2  2  0  0  0  0
 42 43  1  0  0  0  0
 43 51  1  0  0  0  0
 43 44  2  0  0  0  0
  8  9  1  0  0  0  0
  9 17  1  0  0  0  0
  9 10  2  0  0  0  0
 18 19  1  0  0  0  0
 19 41  1  0  0  0  0
 19 20  2  0  0  0  0
 25 26  1  0  0  0  0
 25 27  1  0  0  0  0
 24 25  2  0  0  0  0
 42 45  1  0  0  0  0
  8 11  1  0  0  0  0
 51 52  1  0  0  0  0
 21 22  1  0  0  0  0
 22 23  1  0  0  0  0
 18 21  1  0  0  0  0
 23 24  1  0  0  0  0
 41 42  1  0  0  0  0
  7  8  1  0  0  0  0
 17 18  1  0  0  0  0
  3  4  1  0  0  0  0
  3  5  1  0  0  0  0
  3  6  1  0  0  0  0
 45 48  1  0  0  0  0
 45 49  1  0  0  0  0
 45 50  1  0  0  0  0
 11 14  1  0  0  0  0
 11 15  1  0  0  0  0
 11 16  1  0  0  0  0
 52 54  1  0  0  0  0
 52 55  1  0  0  0  0
 52 56  1  0  0  0  0
 22 32  1  0  0  0  0
 22 33  1  0  0  0  0
 21 30  1  0  0  0  0
 21 31  1  0  0  0  0
 23 34  1  0  0  0  0
 23 35  1  0  0  0  0
 42 47  1  0  0  0  0
  8 13  1  0  0  0  0
 18 29  1  0  0  0  0
 26 37  1  0  0  0  0
 26 38  1  0  0  0  0
 27 39  1  0  0  0  0
 27 40  1  0  0  0  0
 51 53  1  0  0  0  0
  7 12  1  0  0  0  0
 41 46  1  0  0  0  0
 17 28  1  0  0  0  0
 24 36  1  0  0  0  0
M  CHG  1  24   1
M  END
$$$$

  -OEChem-05262214473D

 56 55  0     1  0  0  0  0  0999 V2000
    0.7735   -5.8042   -2.0022 C   0  0  0  0  0  0  0  0  0  0  0  0
   -0.2086   -6.3825   -1.5519 O   0  0  0  0  0  0  0  0  0  0  0  0
    1.4751   -6.3646   -3.1946 C   0  0  0  0  0  0  0  0  0  0  0  0
    2.2765   -7.0687   -2.9186 H   0  0  0  0  0  0  0  0  0  0  0  0
    0.7988   -6.9360   -3.8504 H   0  0  0  0  0  0  0  0  0  0  0  0
    1.9556   -5.6216   -3.8511 H   0  0  0  0  0  0  0  0  0  0  0  0
    1.3322   -4.6359   -1.5106 N   0  0  0  0  0  0  0  0  0  0  0  0
    0.8124   -3.9290   -0.3698 C   0  0  2  0  0  0  0  0  0  0  0  0
    1.0666   -2.4424   -0.5818 C   0  0  0  0  0  0  0  0  0  0  0  0
    2.0598   -2.0076   -1.1610 O   0  0  0  0  0  0  0  0  0  0  0  0
    1.4560   -4.4118    0.9207 C   0  0  0  0  0  0  0  0  0  0  0  0
    2.1528   -4.2578   -1.9805 H   0  0  0  0  0  0  0  0  0  0  0  0
   -0.2667   -4.1160   -0.3467 H   0  0  0  0  0  0  0  0  0  0  0  0
    2.5374   -4.2329    0.9160 H   0  0  0  0  0  0  0  0  0  0  0  0
    1.0390   -3.8932    1.7903 H   0  0  0  0  0  0  0  0  0  0  0  0
    1.2976   -5.4871    1.0566 H   0  0  0  0  0  0  0  0  0  0  0  0
    0.0755   -1.6529   -0.0105 N   0  0  0  0  0  0  0  0  0  0  0  0
    0.1113   -0.2132   -0.0391 C   0  0  2  0  0  0  0  0  0  0  0  0
    1.3840    0.2278    0.6760 C   0  0  0  0  0  0  0  0  0  0  0  0
    2.3885    0.6098    0.0792 O   0  0  0  0  0  0  0  0  0  0  0  0
   -1.1203    0.4069    0.6286 C   0  0  0  0  0  0  0  0  0  0  0  0
   -2.4102    0.1296   -0.1528 C   0  0  0  0  0  0  0  0  0  0  0  0
   -3.6327    0.7491    0.5163 C   0  0  0  0  0  0  0  0  0  0  0  0
   -4.8628    0.4629   -0.2186 N   0  3  0  0  0  0  0  0  0  0  0  0
   -6.1174    0.8741    0.2351 C   0  0  0  0  0  0  0  0  0  0  0  0
   -7.2461    0.5659   -0.5169 N   0  0  0  0  0  0  0  0  0  0  0  0
   -6.2663    1.5854    1.4213 N   0  0  0  0  0  0  0  0  0  0  0  0
   -0.7323   -2.1024    0.4149 H   0  0  0  0  0  0  0  0  0  0  0  0
    0.1728    0.0820   -1.0928 H   0  0  0  0  0  0  0  0  0  0  0  0
   -0.9785    1.4904    0.7215 H   0  0  0  0  0  0  0  0  0  0  0  0
   -1.2233    0.0195    1.6508 H   0  0  0  0  0  0  0  0  0  0  0  0
   -2.3133    0.5205   -1.1727 H   0  0  0  0  0  0  0  0  0  0  0  0
   -2.5682   -0.9523   -0.2300 H   0  0  0  0  0  0  0  0  0  0  0  0
   -3.7514    0.3347    1.5222 H   0  0  0  0  0  0  0  0  0  0  0  0
   -3.5278    1.8356    0.5933 H   0  0  0  0  0  0  0  0  0  0  0  0
   -4.8166   -0.0547   -1.0946 H   0  0  0  0  0  0  0  0  0  0  0  0
   -8.1746    0.8510   -0.2145 H   0  0  0  0  0  0  0  0  0  0  0  0
   -7.1730    0.0471   -1.3887 H   0  0  0  0  0  0  0  0  0  0  0  0
   -7.1776    1.8872    1.7561 H   0  0  0  0  0  0  0  0  0  0  0  0
   -5.4588    1.8246    1.9920 H   0  0  0  0  0  0  0  0  0  0  0  0
    1.2809    0.0972    2.0539 N   0  0  0  0  0  0  0  0  0  0  0  0
    2.3671    0.4030    2.9561 C   0  0  2  0  0  0  0  0  0  0  0  0
    2.2635   -0.5345    4.1519 C   0  0  0  0  0  0  0  0  0  0  0  0
    1.1904   -0.9238    4.6080 O   0  0  0  0  0  0  0  0  0  0  0  0
    2.3250    1.8569    3.4002 C   0  0  0  0  0  0  0  0  0  0  0  0
    0.3983   -0.1965    2.4620 H   0  0  0  0  0  0  0  0  0  0  0  0
    3.2964    0.2010    2.4123 H   0  0  0  0  0  0  0  0  0  0  0  0
    1.4011    2.0783    3.9468 H   0  0  0  0  0  0  0  0  0  0  0  0
    3.1651    2.0944    4.0612 H   0  0  0  0  0  0  0  0  0  0  0  0
    2.3696    2.5296    2.5368 H   0  0  0  0  0  0  0  0  0  0  0  0
    3.5088   -0.8510    4.6764 N   0  0  0  0  0  0  0  0  0  0  0  0
    3.6743   -1.6905    5.8400 C   0  0  0  0  0  0  0  0  0  0  0  0
    4.3470   -0.5164    4.2103 H   0  0  0  0  0  0  0  0  0  0  0  0
    3.7179   -1.0629    6.7423 H   0  0  0  0  0  0  0  0  0  0  0  0
    2.8233   -2.3833    5.9161 H   0  0  0  0  0  0  0  0  0  0  0  0
    4.6077   -2.2650    5.7477 H   0  0  0  0  0  0  0  0  0  0  0  0
  1  3  1  0  0  0  0
  1  7  1  0  0  0  0
  1  2  2  0  0  0  0
 42 43  1  0  0  0  0
 43 51  1  0  0  0  0
 43 44  2  0  0  0  0
  8  9  1  0  0  0  0
  9 17  1  0  0  0  0
  9 10  2  0  0  0  0
 18 19  1  0  0  0  0
 19 41  1  0  0  0  0
 19 20  2  0  0  0  0
 25 26  1  0  0  0  0
 25 27  1  0  0  0  0
 24 25  2  0  0  0  0
 42 45  1  0  0  0  0
  8 11  1  0  0  0  0
 51 52  1  0  0  0  0
 21 22  1  0  0  0  0
 22 23  1  0  0  0  0
 18 21  1  0  0  0  0
 23 24  1  0  0  0  0
 41 42  1  0  0  0  0
  7  8  1  0  0  0  0
 17 18  1  0  0  0  0
  3  4  1  0  0  0  0
  3  5  1  0  0  0  0
  3  6  1  0  0  0  0
 45 48  1  0  0  0  0
 45 49  1  0  0  0  0
 45 50  1  0  0  0  0
 11 14  1  0  0  0  0
 11 15  1  0  0  0  0
 11 16  1  0  0  0  0
 52 54  1  0  0  0  0
 52 55  1  0  0  0  0
 52 56  1  0  0  0  0
 22 32  1  0  0  0  0
 22 33  1  0  0  0  0
 21 30  1  0  0  0  0
 21 31  1  0  0  0  0
 23 34  1  0  0  0  0
 23 35  1  0  0  0  0
 42 47  1  0  0  0  0
  8 13  1  0  0  0  0
 18 29  1  0  0  0  0
 26 37  1  0  0  0  0
 26 38  1  0  0  0  0
 27 39  1  0  0  0  0
 27 40  1  0  0  0  0
 51 53  1  0  0  0  0
  7 12  1  0  0  0  0
 41 46  1  0  0  0  0
 17 28  1  0  0  0  0
 24 36  1  0  0  0  0
M  CHG  1  24   1
M  END
$$$$

  -OEChem-05262214473D

 56 55  0     1  0  0  0  0  0999 V2000
    0.7735   -5.8042   -2.0022 C   0  0  0  0  0  0  0  0  0  0  0  0
   -0.2086   -6.3825   -1.5519 O   0  0  0  0  0  0  0  0  0  0  0  0
    1.4751   -6.3646   -3.1946 C   0  0  0  0  0  0  0  0  0  0  0  0
    2.2765   -7.0687   -2.9186 H   0  0  0  0  0  0  0  0  0  0  0  0
    0.7988   -6.9360   -3.8504 H   0  0  0  0  0  0  0  0  0  0  0  0
    1.9556   -5.6216   -3.8511 H   0  0  0  0  0  0  0  0  0  0  0  0
    1.3322   -4.6359   -1.5106 N   0  0  0  0  0  0  0  0  0  0  0  0
    0.8124   -3.9290   -0.3698 C   0  0  2  0  0  0  0  0  0  0  0  0
    1.0666   -2.4424   -0.5818 C   0  0  0  0  0  0  0  0  0  0  0  0
    2.0598   -2.0076   -1.1610 O   0  0  0  0  0  0  0  0  0  0  0  0
    1.4560   -4.4118    0.9207 C   0  0  0  0  0  0  0  0  0  0  0  0
    2.1528   -4.2578   -1.9805 H   0  0  0  0  0  0  0  0  0  0  0  0
   -0.2667   -4.1160   -0.3467 H   0  0  0  0  0  0  0  0  0  0  0  0
    2.5374   -4.2329    0.9160 H   0  0  0  0  0  0  0  0  0  0  0  0
    1.0390   -3.8932    1.7903 H   0  0  0  0  0  0  0  0  0  0  0  0
    1.2976   -5.4871    1.0566 H   0  0  0  0  0  0  0  0  0  0  0  0
    0.0755   -1.6529   -0.0105 N   0  0  0  0  0  0  0  0  0  0  0  0
    0.1113   -0.2132   -0.0391 C   0  0  2  0  0  0  0  0  0  0  0  0
    1.3840    0.2278    0.6760 C   0  0  0  0  0  0  0  0  0  0  0  0
    2.2822    0.8542    0.1175 O   0  0  0  0  0  0  0  0  0  0  0  0
   -1.1203    0.4069    0.6286 C   0  0  0  0  0  0  0  0  0  0  0  0
   -2.4102    0.1296   -0.1528 C   0  0  0  0  0  0  0  0  0  0  0  0
   -3.6327    0.7491    0.5163 C   0  0  0  0  0  0  0  0  0  0  0  0
   -4.8628    0.4629   -0.2186 N   0  3  0  0  0  0  0  0  0  0  0  0
   -6.1174    0.8741    0.2351 C   0  0  0  0  0  0  0  0  0  0  0  0
   -7.2461    0.5659   -0.5169 N   0  0  0  0  0  0  0  0  0  0  0  0
   -6.2663    1.5854    1.4213 N   0  0  0  0  0  0  0  0  0  0  0  0
   -0.7323   -2.1024    0.4149 H   0  0  0  0  0  0  0  0  0  0  0  0
    0.1728    0.0820   -1.0928 H   0  0  0  0  0  0  0  0  0  0  0  0
   -0.9785    1.4904    0.7215 H   0  0  0  0  0  0  0  0  0  0  0  0
   -1.2233    0.0195    1.6508 H   0  0  0  0  0  0  0  0  0  0  0  0
   -2.3133    0.5205   -1.1727 H   0  0  0  0  0  0  0  0  0  0  0  0
   -2.5682   -0.9523   -0.2300 H   0  0  0  0  0  0  0  0  0  0  0  0
   -3.7514    0.3347    1.5222 H   0  0  0  0  0  0  0  0  0  0  0  0
   -3.5278    1.8356    0.5933 H   0  0  0  0  0  0  0  0  0  0  0  0
   -4.8166   -0.0547   -1.0946 H   0  0  0  0  0  0  0  0  0  0  0  0
   -8.1746    0.8510   -0.2145 H   0  0  0  0  0  0  0  0  0  0  0  0
   -7.1730    0.0471   -1.3887 H   0  0  0  0  0  0  0  0  0  0  0  0
   -7.1776    1.8872    1.7561 H   0  0  0  0  0  0  0  0  0  0  0  0
   -5.4588    1.8246    1.9920 H   0  0  0  0  0  0  0  0  0  0  0  0
    1.4182   -0.2033    1.9949 N   0  0  0  0  0  0  0  0  0  0  0  0
    2.5382    0.0430    2.8737 C   0  0  2  0  0  0  0  0  0  0  0  0
    2.6472   -1.1314    3.8372 C   0  0  0  0  0  0  0  0  0  0  0  0
    1.6695   -1.7440    4.2614 O   0  0  0  0  0  0  0  0  0  0  0  0
    2.3711    1.3522    3.6293 C   0  0  0  0  0  0  0  0  0  0  0  0
    0.6140   -0.6885    2.3816 H   0  0  0  0  0  0  0  0  0  0  0  0
    3.4327    0.0826    2.2426 H   0  0  0  0  0  0  0  0  0  0  0  0
    1.4799    1.3314    4.2671 H   0  0  0  0  0  0  0  0  0  0  0  0
    3.2339    1.5514    4.2734 H   0  0  0  0  0  0  0  0  0  0  0  0
    2.2631    2.1921    2.9345 H   0  0  0  0  0  0  0  0  0  0  0  0
    3.9617   -1.3875    4.2013 N   0  0  0  0  0  0  0  0  0  0  0  0
    4.3230   -2.4253    5.1386 C   0  0  0  0  0  0  0  0  0  0  0  0
    4.7123   -0.8562    3.7699 H   0  0  0  0  0  0  0  0  0  0  0  0
    4.3747   -2.0023    6.1528 H   0  0  0  0  0  0  0  0  0  0  0  0
    3.5659   -3.2228    5.1123 H   0  0  0  0  0  0  0  0  0  0  0  0
    5.3037   -2.8414    4.8646 H   0  0  0  0  0  0  0  0  0  0  0  0
  1  3  1  0  0  0  0
  1  7  1  0  0  0  0
  1  2  2  0  0  0  0
 42 43  1  0  0  0  0
 43 51  1  0  0  0  0
 43 44  2  0  0  0  0
  8  9  1  0  0  0  0
  9 17  1  0  0  0  0
  9 10  2  0  0  0  0
 18 19  1  0  0  0  0
 19 41  1  0  0  0  0
 19 20  2  0  0  0  0
 25 26  1  0  0  0  0
 25 27  1  0  0  0  0
 24 25  2  0  0  0  0
 42 45  1  0  0  0  0
  8 11  1  0  0  0  0
 51 52  1  0  0  0  0
 21 22  1  0  0  0  0
 22 23  1  0  0  0  0
 18 21  1  0  0  0  0
 23 24  1  0  0  0  0
 41 42  1  0  0  0  0
  7  8  1  0  0  0  0
 17 18  1  0  0  0  0
  3  4  1  0  0  0  0
  3  5  1  0  0  0  0
  3  6  1  0  0  0  0
 45 48  1  0  0  0  0
 45 49  1  0  0  0  0
 45 50  1  0  0  0  0
 11 14  1  0  0  0  0
 11 15  1  0  0  0  0
 11 16  1  0  0  0  0
 52 54  1  0  0  0  0
 52 55  1  0  0  0  0
 52 56  1  0  0  0  0
 22 32  1  0  0  0  0
 22 33  1  0  0  0  0
 21 30  1  0  0  0  0
 21 31  1  0  0  0  0
 23 34  1  0  0  0  0
 23 35  1  0  0  0  0
 42 47  1  0  0  0  0
  8 13  1  0  0  0  0
 18 29  1  0  0  0  0
 26 37  1  0  0  0  0
 26 38  1  0  0  0  0
 27 39  1  0  0  0  0
 27 40  1  0  0  0  0
 51 53  1  0  0  0  0
  7 12  1  0  0  0  0
 41 46  1  0  0  0  0
 17 28  1  0  0  0  0
 24 36  1  0  0  0  0
M  CHG  1  24   1
M  END
$$$$

  -OEChem-05262214473D

 56 55  0     1  0  0  0  0  0999 V2000
    0.7735   -5.8042   -2.0022 C   0  0  0  0  0  0  0  0  0  0  0  0
   -0.2086   -6.3825   -1.5519 O   0  0  0  0  0  0  0  0  0  0  0  0
    1.4751   -6.3646   -3.1946 C   0  0  0  0  0  0  0  0  0  0  0  0
    2.2765   -7.0687   -2.9186 H   0  0  0  0  0  0  0  0  0  0  0  0
    0.7988   -6.9360   -3.8504 H   0  0  0  0  0  0  0  0  0  0  0  0
    1.9556   -5.6216   -3.8511 H   0  0  0  0  0  0  0  0  0  0  0  0
    1.3322   -4.6359   -1.5106 N   0  0  0  0  0  0  0  0  0  0  0  0
    0.8124   -3.9290   -0.3698 C   0  0  2  0  0  0  0  0  0  0  0  0
    1.0666   -2.4424   -0.5818 C   0  0  0  0  0  0  0  0  0  0  0  0
    2.0598   -2.0076   -1.1610 O   0  0  0  0  0  0  0  0  0  0  0  0
    1.4560   -4.4118    0.9207 C   0  0  0  0  0  0  0  0  0  0  0  0
    2.1528   -4.2578   -1.9805 H   0  0  0  0  0  0  0  0  0  0  0  0
   -0.2667   -4.1160   -0.3467 H   0  0  0  0  0  0  0  0  0  0  0  0
    2.5374   -4.2329    0.9160 H   0  0  0  0  0  0  0  0  0  0  0  0
    1.0390   -3.8932    1.7903 H   0  0  0  0  0  0  0  0  0  0  0  0
    1.2976   -5.4871    1.0566 H   0  0  0  0  0  0  0  0  0  0  0  0
    0.0755   -1.6529   -0.0105 N   0  0  0  0  0  0  0  0  0  0  0  0
    0.1113   -0.2132   -0.0391 C   0  0  2  0  0  0  0  0  0  0  0  0
    1.3840    0.2278    0.6760 C   0  0  0  0  0  0  0  0  0  0  0  0
    2.1528    1.0691    0.2153 O   0  0  0  0  0  0  0  0  0  0  0  0
   -1.1203    0.4069    0.6286 C   0  0  0  0  0  0  0  0  0  0  0  0
   -2.4102    0.1296   -0.1528 C   0  0  0  0  0  0  0  0  0  0  0  0
   -3.6327    0.7491    0.5163 C   0  0  0  0  0  0  0  0  0  0  0  0
   -4.8628    0.4629   -0.2186 N   0  3  0  0  0  0  0  0  0  0  0  0
   -6.1174    0.8741    0.2351 C   0  0  0  0  0  0  0  0  0  0  0  0
   -7.2461    0.5659   -0.5169 N   0  0  0  0  0  0  0  0  0  0  0  0
   -6.2663    1.5854    1.4213 N   0  0  0  0  0  0  0  0  0  0  0  0
   -0.7323   -2.1024    0.4149 H   0  0  0  0  0  0  0  0  0  0  0  0
    0.1728    0.0820   -1.0928 H   0  0  0  0  0  0  0  0  0  0  0  0
   -0.9785    1.4904    0.7215 H   0  0  0  0  0  0  0  0  0  0  0  0
   -1.2233    0.0195    1.6508 H   0  0  0  0  0  0  0  0  0  0  0  0
   -2.3133    0.5205   -1.1727 H   0  0  0  0  0  0  0  0  0  0  0  0
   -2.5682   -0.9523   -0.2300 H   0  0  0  0  0  0  0  0  0  0  0  0
   -3.7514    0.3347    1.5222 H   0  0  0  0  0  0  0  0  0  0  0  0
   -3.5278    1.8356    0.5933 H   0  0  0  0  0  0  0  0  0  0  0  0
   -4.8166   -0.0547   -1.0946 H   0  0  0  0  0  0  0  0  0  0  0  0
   -8.1746    0.8510   -0.2145 H   0  0  0  0  0  0  0  0  0  0  0  0
   -7.1730    0.0471   -1.3887 H   0  0  0  0  0  0  0  0  0  0  0  0
   -7.1776    1.8872    1.7561 H   0  0  0  0  0  0  0  0  0  0  0  0
   -5.4588    1.8246    1.9920 H   0  0  0  0  0  0  0  0  0  0  0  0
    1.5830   -0.4642    1.8626 N   0  0  0  0  0  0  0  0  0  0  0  0
    2.7410   -0.2662    2.7036 C   0  0  2  0  0  0  0  0  0  0  0  0
    3.0667   -1.5935    3.3756 C   0  0  0  0  0  0  0  0  0  0  0  0
    2.2058   -2.4033    3.7135 O   0  0  0  0  0  0  0  0  0  0  0  0
    2.4941    0.8208    3.7381 C   0  0  0  0  0  0  0  0  0  0  0  0
    0.8760   -1.1201    2.1815 H   0  0  0  0  0  0  0  0  0  0  0  0
    3.5661    0.0215    2.0430 H   0  0  0  0  0  0  0  0  0  0  0  0
    1.6707    0.5503    4.4092 H   0  0  0  0  0  0  0  0  0  0  0  0
    3.3822    0.9895    4.3561 H   0  0  0  0  0  0  0  0  0  0  0  0
    2.2309    1.7673    3.2538 H   0  0  0  0  0  0  0  0  0  0  0  0
    4.4287   -1.7482    3.5927 N   0  0  0  0  0  0  0  0  0  0  0  0
    4.9863   -2.9048    4.2539 C   0  0  0  0  0  0  0  0  0  0  0  0
    5.0733   -1.0450    3.2438 H   0  0  0  0  0  0  0  0  0  0  0  0
    5.0790   -2.7028    5.3312 H   0  0  0  0  0  0  0  0  0  0  0  0
    4.3250   -3.7700    4.0989 H   0  0  0  0  0  0  0  0  0  0  0  0
    5.9798   -3.1230    3.8351 H   0  0  0  0  0  0  0  0  0  0  0  0
  1  3  1  0  0  0  0
  1  7  1  0  0  0  0
  1  2  2  0  0  0  0
 42 43  1  0  0  0  0
 43 51  1  0  0  0  0
 43 44  2  0  0  0  0
  8  9  1  0  0  0  0
  9 17  1  0  0  0  0
  9 10  2  0  0  0  0
 18 19  1  0  0  0  0
 19 41  1  0  0  0  0
 19 20  2  0  0  0  0
 25 26  1  0  0  0  0
 25 27  1  0  0  0  0
 24 25  2  0  0  0  0
 42 45  1  0  0  0  0
  8 11  1  0  0  0  0
 51 52  1  0  0  0  0
 21 22  1  0  0  0  0
 22 23  1  0  0  0  0
 18 21  1  0  0  0  0
 23 24  1  0  0  0  0
 41 42  1  0  0  0  0
  7  8  1  0  0  0  0
 17 18  1  0  0  0  0
  3  4  1  0  0  0  0
  3  5  1  0  0  0  0
  3  6  1  0  0  0  0
 45 48  1  0  0  0  0
 45 49  1  0  0  0  0
 45 50  1  0  0  0  0
 11 14  1  0  0  0  0
 11 15  1  0  0  0  0
 11 16  1  0  0  0  0
 52 54  1  0  0  0  0
 52 55  1  0  0  0  0
 52 56  1  0  0  0  0
 22 32  1  0  0  0  0
 22 33  1  0  0  0  0
 21 30  1  0  0  0  0
 21 31  1  0  0  0  0
 23 34  1  0  0  0  0
 23 35  1  0  0  0  0
 42 47  1  0  0  0  0
  8 13  1  0  0  0  0
 18 29  1  0  0  0  0
 26 37  1  0  0  0  0
 26 38  1  0  0  0  0
 27 39  1  0  0  0  0
 27 40  1  0  0  0  0
 51 53  1  0  0  0  0
  7 12  1  0  0  0  0
 41 46  1  0  0  0  0
 17 28  1  0  0  0  0
 24 36  1  0  0  0  0
M  CHG  1  24   1
M  END
$$$$

  -OEChem-05262214473D

 56 55  0     1  0  0  0  0  0999 V2000
    0.7735   -5.8042   -2.0022 C   0  0  0  0  0  0  0  0  0  0  0  0
   -0.2086   -6.3825   -1.5519 O   0  0  0  0  0  0  0  0  0  0  0  0
    1.4751   -6.3646   -3.1946 C   0  0  0  0  0  0  0  0  0  0  0  0
    2.2765   -7.0687   -2.9186 H   0  0  0  0  0  0  0  0  0  0  0  0
    0.7988   -6.9360   -3.8504 H   0  0  0  0  0  0  0  0  0  0  0  0
    1.9556   -5.6216   -3.8511 H   0  0  0  0  0  0  0  0  0  0  0  0
    1.3322   -4.6359   -1.5106 N   0  0  0  0  0  0  0  0  0  0  0  0
    0.8124   -3.9290   -0.3698 C   0  0  2  0  0  0  0  0  0  0  0  0
    1.0666   -2.4424   -0.5818 C   0  0  0  0  0  0  0  0  0  0  0  0
    2.0598   -2.0076   -1.1610 O   0  0  0  0  0  0  0  0  0  0  0  0
    1.4560   -4.4118    0.9207 C   0  0  0  0  0  0  0  0  0  0  0  0
    2.1528   -4.2578   -1.9805 H   0  0  0  0  0  0  0  0  0  0  0  0
   -0.2667   -4.1160   -0.3467 H   0  0  0  0  0  0  0  0  0  0  0  0
    2.5374   -4.2329    0.9160 H   0  0  0  0  0  0  0  0  0  0  0  0
    1.0390   -3.8932    1.7903 H   0  0  0  0  0  0  0  0  0  0  0  0
    1.2976   -5.4871    1.0566 H   0  0  0  0  0  0  0  0  0  0  0  0
    0.0755   -1.6529   -0.0105 N   0  0  0  0  0  0  0  0  0  0  0  0
    0.1113   -0.2132   -0.0391 C   0  0  2  0  0  0  0  0  0  0  0  0
    1.3840    0.2278    0.6760 C   0  0  0  0  0  0  0  0  0  0  0  0
    2.0090    1.2399    0.3659 O   0  0  0  0  0  0  0  0  0  0  0  0
   -1.1203    0.4069    0.6286 C   0  0  0  0  0  0  0  0  0  0  0  0
   -2.4102    0.1296   -0.1528 C   0  0  0  0  0  0  0  0  0  0  0  0
   -3.6327    0.7491    0.5163 C   0  0  0  0  0  0  0  0  0  0  0  0
   -4.8628    0.4629   -0.2186 N   0  3  0  0  0  0  0  0  0  0  0  0
   -6.1174    0.8741    0.2351 C   0  0  0  0  0  0  0  0  0  0  0  0
   -7.2461    0.5659   -0.5169 N   0  0  0  0  0  0  0  0  0  0  0  0
   -6.2663    1.5854    1.4213 N   0  0  0  0  0  0  0  0  0  0  0  0
   -0.7323   -2.1024    0.4149 H   0  0  0  0  0  0  0  0  0  0  0  0
    0.1728    0.0820   -1.0928 H   0  0  0  0  0  0  0  0  0  0  0  0
   -0.9785    1.4904    0.7215 H   0  0  0  0  0  0  0  0  0  0  0  0
   -1.2233    0.0195    1.6508 H   0  0  0  0  0  0  0  0  0  0  0  0
   -2.3133    0.5205   -1.1727 H   0  0  0  0  0  0  0  0  0  0  0  0
   -2.5682   -0.9523   -0.2300 H   0  0  0  0  0  0  0  0  0  0  0  0
   -3.7514    0.3347    1.5222 H   0  0  0  0  0  0  0  0  0  0  0  0
   -3.5278    1.8356    0.5933 H   0  0  0  0  0  0  0  0  0  0  0  0
   -4.8166   -0.0547   -1.0946 H   0  0  0  0  0  0  0  0  0  0  0  0
   -8.1746    0.8510   -0.2145 H   0  0  0  0  0  0  0  0  0  0  0  0
   -7.1730    0.0471   -1.3887 H   0  0  0  0  0  0  0  0  0  0  0  0
   -7.1776    1.8872    1.7561 H   0  0  0  0  0  0  0  0  0  0  0  0
   -5.4588    1.8246    1.9920 H   0  0  0  0  0  0  0  0  0  0  0  0
    1.7638   -0.6676    1.6662 N   0  0  0  0  0  0  0  0  0  0  0  0
    2.9616   -0.5034    2.4572 C   0  0  2  0  0  0  0  0  0  0  0  0
    3.4934   -1.8892    2.7986 C   0  0  0  0  0  0  0  0  0  0  0  0
    2.7628   -2.8567    3.0018 O   0  0  0  0  0  0  0  0  0  0  0  0
    2.6856    0.2989    3.7193 C   0  0  0  0  0  0  0  0  0  0  0  0
    1.1666   -1.4621    1.8753 H   0  0  0  0  0  0  0  0  0  0  0  0
    3.6874    0.0218    1.8269 H   0  0  0  0  0  0  0  0  0  0  0  0
    1.9605   -0.2117    4.3635 H   0  0  0  0  0  0  0  0  0  0  0  0
    3.5999    0.4468    4.3034 H   0  0  0  0  0  0  0  0  0  0  0  0
    2.2752    1.2841    3.4728 H   0  0  0  0  0  0  0  0  0  0  0  0
    4.8780   -1.9084    2.8920 N   0  0  0  0  0  0  0  0  0  0  0  0
    5.6190   -3.0964    3.2462 C   0  0  0  0  0  0  0  0  0  0  0  0
    5.4056   -1.0699    2.6679 H   0  0  0  0  0  0  0  0  0  0  0  0
    5.7829   -3.1164    4.3337 H   0  0  0  0  0  0  0  0  0  0  0  0
    5.0488   -3.9875    2.9450 H   0  0  0  0  0  0  0  0  0  0  0  0
    6.5900   -3.0905    2.7292 H   0  0  0  0  0  0  0  0  0  0  0  0
  1  3  1  0  0  0  0
  1  7  1  0  0  0  0
  1  2  2  0  0  0  0
 42 43  1  0  0  0  0
 43 51  1  0  0  0  0
 43 44  2  0  0  0  0
  8  9  1  0  0  0  0
  9 17  1  0  0  0  0
  9 10  2  0  0  0  0
 18 19  1  0  0  0  0
 19 41  1  0  0  0  0
 19 20  2  0  0  0  0
 25 26  1  0  0  0  0
 25 27  1  0  0  0  0
 24 25  2  0  0  0  0
 42 45  1  0  0  0  0
  8 11  1  0  0  0  0
 51 52  1  0  0  0  0
 21 22  1  0  0  0  0
 22 23  1  0  0  0  0
 18 21  1  0  0  0  0
 23 24  1  0  0  0  0
 41 42  1  0  0  0  0
  7  8  1  0  0  0  0
 17 18  1  0  0  0  0
  3  4  1  0  0  0  0
  3  5  1  0  0  0  0
  3  6  1  0  0  0  0
 45 48  1  0  0  0  0
 45 49  1  0  0  0  0
 45 50  1  0  0  0  0
 11 14  1  0  0  0  0
 11 15  1  0  0  0  0
 11 16  1  0  0  0  0
 52 54  1  0  0  0  0
 52 55  1  0  0  0  0
 52 56  1  0  0  0  0
 22 32  1  0  0  0  0
 22 33  1  0  0  0  0
 21 30  1  0  0  0  0
 21 31  1  0  0  0  0
 23 34  1  0  0  0  0
 23 35  1  0  0  0  0
 42 47  1  0  0  0  0
  8 13  1  0  0  0  0
 18 29  1  0  0  0  0
 26 37  1  0  0  0  0
 26 38  1  0  0  0  0
 27 39  1  0  0  0  0
 27 40  1  0  0  0  0
 51 53  1  0  0  0  0
  7 12  1  0  0  0  0
 41 46  1  0  0  0  0
 17 28  1  0  0  0  0
 24 36  1  0  0  0  0
M  CHG  1  24   1
M  END
$$$$

  -OEChem-05262214473D

 56 55  0     1  0  0  0  0  0999 V2000
    0.7735   -5.8042   -2.0022 C   0  0  0  0  0  0  0  0  0  0  0  0
   -0.2086   -6.3825   -1.5519 O   0  0  0  0  0  0  0  0  0  0  0  0
    1.4751   -6.3646   -3.1946 C   0  0  0  0  0  0  0  0  0  0  0  0
    2.2765   -7.0687   -2.9186 H   0  0  0  0  0  0  0  0  0  0  0  0
    0.7988   -6.9360   -3.8504 H   0  0  0  0  0  0  0  0  0  0  0  0
    1.9556   -5.6216   -3.8511 H   0  0  0  0  0  0  0  0  0  0  0  0
    1.3322   -4.6359   -1.5106 N   0  0  0  0  0  0  0  0  0  0  0  0
    0.8124   -3.9290   -0.3698 C   0  0  2  0  0  0  0  0  0  0  0  0
    1.0666   -2.4424   -0.5818 C   0  0  0  0  0  0  0  0  0  0  0  0
    2.0598   -2.0076   -1.1610 O   0  0  0  0  0  0  0  0  0  0  0  0
    1.4560   -4.4118    0.9207 C   0  0  0  0  0  0  0  0  0  0  0  0
    2.1528   -4.2578   -1.9805 H   0  0  0  0  0  0  0  0  0  0  0  0
   -0.2667   -4.1160   -0.3467 H   0  0  0  0  0  0  0  0  0  0  0  0
    2.5374   -4.2329    0.9160 H   0  0  0  0  0  0  0  0  0  0  0  0
    1.0390   -3.8932    1.7903 H   0  0  0  0  0  0  0  0  0  0  0  0
    1.2976   -5.4871    1.0566 H   0  0  0  0  0  0  0  0  0  0  0  0
    0.0755   -1.6529   -0.0105 N   0  0  0  0  0  0  0  0  0  0  0  0
    0.1113   -0.2132   -0.0391 C   0  0  2  0  0  0  0  0  0  0  0  0
    1.3840    0.2278    0.6760 C   0  0  0  0  0  0  0  0  0  0  0  0
    1.8607    1.3548    0.5590 O   0  0  0  0  0  0  0  0  0  0  0  0
   -1.1203    0.4069    0.6286 C   0  0  0  0  0  0  0  0  0  0  0  0
   -2.4102    0.1296   -0.1528 C   0  0  0  0  0  0  0  0  0  0  0  0
   -3.6327    0.7491    0.5163 C   0  0  0  0  0  0  0  0  0  0  0  0
   -4.8628    0.4629   -0.2186 N   0  3  0  0  0  0  0  0  0  0  0  0
   -6.1174    0.8741    0.2351 C   0  0  0  0  0  0  0  0  0  0  0  0
   -7.2461    0.5659   -0.5169 N   0  0  0  0  0  0  0  0  0  0  0  0
   -6.2663    1.5854    1.4213 N   0  0  0  0  0  0  0  0  0  0  0  0
   -0.7323   -2.1024    0.4149 H   0  0  0  0  0  0  0  0  0  0  0  0
    0.1728    0.0820   -1.0928 H   0  0  0  0  0  0  0  0  0  0  0  0
   -0.9785    1.4904    0.7215 H   0  0  0  0  0  0  0  0  0  0  0  0
   -1.2233    0.0195    1.6508 H   0  0  0  0  0  0  0  0  0  0  0  0
   -2.3133    0.5205   -1.1727 H   0  0  0  0  0  0  0  0  0  0  0  0
   -2.5682   -0.9523   -0.2300 H   0  0  0  0  0  0  0  0  0  0  0  0
   -3.7514    0.3347    1.5222 H   0  0  0  0  0  0  0  0  0  0  0  0
   -3.5278    1.8356    0.5933 H   0  0  0  0  0  0  0  0  0  0  0  0
   -4.8166   -0.0547   -1.0946 H   0  0  0  0  0  0  0  0  0  0  0  0
   -8.1746    0.8510   -0.2145 H   0  0  0  0  0  0  0  0  0  0  0  0
   -7.1730    0.0471   -1.3887 H   0  0  0  0  0  0  0  0  0  0  0  0
   -7.1776    1.8872    1.7561 H   0  0  0  0  0  0  0  0  0  0  0  0
   -5.4588    1.8246    1.9920 H   0  0  0  0  0  0  0  0  0  0  0  0
    1.9485   -0.7997    1.4189 N   0  0  0  0  0  0  0  0  0  0  0  0
    3.1851   -0.6527    2.1515 C   0  0  2  0  0  0  0  0  0  0  0  0
    3.8983   -1.9983    2.1454 C   0  0  0  0  0  0  0  0  0  0  0  0
    3.3027   -3.0733    2.1747 O   0  0  0  0  0  0  0  0  0  0  0  0
    2.9324   -0.1779    3.5740 C   0  0  0  0  0  0  0  0  0  0  0  0
    1.4658   -1.6910    1.4840 H   0  0  0  0  0  0  0  0  0  0  0  0
    3.7884    0.0835    1.6092 H   0  0  0  0  0  0  0  0  0  0  0  0
    2.3294   -0.9027    4.1331 H   0  0  0  0  0  0  0  0  0  0  0  0
    3.8721   -0.0396    4.1190 H   0  0  0  0  0  0  0  0  0  0  0  0
    2.3931    0.7755    3.5767 H   0  0  0  0  0  0  0  0  0  0  0  0
    5.2789   -1.8573    2.1469 N   0  0  0  0  0  0  0  0  0  0  0  0
    6.1780   -2.9870    2.1840 C   0  0  0  0  0  0  0  0  0  0  0  0
    5.6865   -0.9292    2.0813 H   0  0  0  0  0  0  0  0  0  0  0  0
    6.4384   -3.2150    3.2281 H   0  0  0  0  0  0  0  0  0  0  0  0
    5.6879   -3.8606    1.7293 H   0  0  0  0  0  0  0  0  0  0  0  0
    7.0926   -2.7461    1.6224 H   0  0  0  0  0  0  0  0  0  0  0  0
  1  3  1  0  0  0  0
  1  7  1  0  0  0  0
  1  2  2  0  0  0  0
 42 43  1  0  0  0  0
 43 51  1  0  0  0  0
 43 44  2  0  0  0  0
  8  9  1  0  0  0  0
  9 17  1  0  0  0  0
  9 10  2  0  0  0  0
 18 19  1  0  0  0  0
 19 41  1  0  0  0  0
 19 20  2  0  0  0  0
 25 26  1  0  0  0  0
 25 27  1  0  0  0  0
 24 25  2  0  0  0  0
 42 45  1  0  0  0  0
  8 11  1  0  0  0  0
 51 52  1  0  0  0  0
 21 22  1  0  0  0  0
 22 23  1  0  0  0  0
 18 21  1  0  0  0  0
 23 24  1  0  0  0  0
 41 42  1  0  0  0  0
  7  8  1  0  0  0  0
 17 18  1  0  0  0  0
  3  4  1  0  0  0  0
  3  5  1  0  0  0  0
  3  6  1  0  0  0  0
 45 48  1  0  0  0  0
 45 49  1  0  0  0  0
 45 50  1  0  0  0  0
 11 14  1  0  0  0  0
 11 15  1  0  0  0  0
 11 16  1  0  0  0  0
 52 54  1  0  0  0  0
 52 55  1  0  0  0  0
 52 56  1  0  0  0  0
 22 32  1  0  0  0  0
 22 33  1  0  0  0  0
 21 30  1  0  0  0  0
 21 31  1  0  0  0  0
 23 34  1  0  0  0  0
 23 35  1  0  0  0  0
 42 47  1  0  0  0  0
  8 13  1  0  0  0  0
 18 29  1  0  0  0  0
 26 37  1  0  0  0  0
 26 38  1  0  0  0  0
 27 39  1  0  0  0  0
 27 40  1  0  0  0  0
 51 53  1  0  0  0  0
  7 12  1  0  0  0  0
 41 46  1  0  0  0  0
 17 28  1  0  0  0  0
 24 36  1  0  0  0  0
M  CHG  1  24   1
M  END
$$$$

  -OEChem-05262214473D

 56 55  0     1  0  0  0  0  0999 V2000
    0.7735   -5.8042   -2.0022 C   0  0  0  0  0  0  0  0  0  0  0  0
   -0.2086   -6.3825   -1.5519 O   0  0  0  0  0  0  0  0  0  0  0  0
    1.4751   -6.3646   -3.1946 C   0  0  0  0  0  0  0  0  0  0  0  0
    2.2765   -7.0687   -2.9186 H   0  0  0  0  0  0  0  0  0  0  0  0
    0.7988   -6.9360   -3.8504 H   0  0  0  0  0  0  0  0  0  0  0  0
    1.9556   -5.6216   -3.8511 H   0  0  0  0  0  0  0  0  0  0  0  0
    1.3322   -4.6359   -1.5106 N   0  0  0  0  0  0  0  0  0  0  0  0
    0.8124   -3.9290   -0.3698 C   0  0  2  0  0  0  0  0  0  0  0  0
    1.0666   -2.4424   -0.5818 C   0  0  0  0  0  0  0  0  0  0  0  0
    2.0598   -2.0076   -1.1610 O   0  0  0  0  0  0  0  0  0  0  0  0
    1.4560   -4.4118    0.9207 C   0  0  0  0  0  0  0  0  0  0  0  0
    2.1528   -4.2578   -1.9805 H   0  0  0  0  0  0  0  0  0  0  0  0
   -0.2667   -4.1160   -0.3467 H   0  0  0  0  0  0  0  0  0  0  0  0
    2.5374   -4.2329    0.9160 H   0  0  0  0  0  0  0  0  0  0  0  0
    1.0390   -3.8932    1.7903 H   0  0  0  0  0  0  0  0  0  0  0  0
    1.2976   -5.4871    1.0566 H   0  0  0  0  0  0  0  0  0  0  0  0
    0.0755   -1.6529   -0.0105 N   0  0  0  0  0  0  0  0  0  0  0  0
    0.1113   -0.2132   -0.0391 C   0  0  2  0  0  0  0  0  0  0  0  0
    1.3840    0.2278    0.6760 C   0  0  0  0  0  0  0  0  0  0  0  0
    1.7179    1.4061    0.7814 O   0  0  0  0  0  0  0  0  0  0  0  0
   -1.1203    0.4069    0.6286 C   0  0  0  0  0  0  0  0  0  0  0  0
   -2.4102    0.1296   -0.1528 C   0  0  0  0  0  0  0  0  0  0  0  0
   -3.6327    0.7491    0.5163 C   0  0  0  0  0  0  0  0  0  0  0  0
   -4.8628    0.4629   -0.2186 N   0  3  0  0  0  0  0  0  0  0  0  0
   -6.1174    0.8741    0.2351 C   0  0  0  0  0  0  0  0  0  0  0  0
   -7.2461    0.5659   -0.5169 N   0  0  0  0  0  0  0  0  0  0  0  0
   -6.2663    1.5854    1.4213 N   0  0  0  0  0  0  0  0  0  0  0  0
   -0.7323   -2.1024    0.4149 H   0  0  0  0  0  0  0  0  0  0  0  0
    0.1728    0.0820   -1.0928 H   0  0  0  0  0  0  0  0  0  0  0  0
   -0.9785    1.4904    0.7215 H   0  0  0  0  0  0  0  0  0  0  0  0
   -1.2233    0.0195    1.6508 H   0  0  0  0  0  0  0  0  0  0  0  0
   -2.3133    0.5205   -1.1727 H   0  0  0  0  0  0  0  0  0  0  0  0
   -2.5682   -0.9523   -0.2300 H   0  0  0  0  0  0  0  0  0  0  0  0
   -3.7514    0.3347    1.5222 H   0  0  0  0  0  0  0  0  0  0  0  0
   -3.5278    1.8356    0.5933 H   0  0  0  0  0  0  0  0  0  0  0  0
   -4.8166   -0.0547   -1.0946 H   0  0  0  0  0  0  0  0  0  0  0  0
   -8.1746    0.8510   -0.2145 H   0  0  0  0  0  0  0  0  0  0  0  0
   -7.1730    0.0471   -1.3887 H   0  0  0  0  0  0  0  0  0  0  0  0
   -7.1776    1.8872    1.7561 H   0  0  0  0  0  0  0  0  0  0  0  0
   -5.4588    1.8246    1.9920 H   0  0  0  0  0  0  0  0  0  0  0  0
    2.1245   -0.8515    1.1378 N   0  0  0  0  0  0  0  0  0  0  0  0
    3.3962   -0.7036    1.8073 C   0  0  2  0  0  0  0  0  0  0  0  0
    4.2537   -1.9136    1.4606 C   0  0  0  0  0  0  0  0  0  0  0  0
    3.7885   -3.0383    1.2886 O   0  0  0  0  0  0  0  0  0  0  0  0
    3.2179   -0.5771    3.3123 C   0  0  0  0  0  0  0  0  0  0  0  0
    1.7533   -1.7913    1.0342 H   0  0  0  0  0  0  0  0  0  0  0  0
    3.8621    0.2024    1.4047 H   0  0  0  0  0  0  0  0  0  0  0  0
    2.7524   -1.4756    3.7336 H   0  0  0  0  0  0  0  0  0  0  0  0
    4.1802   -0.4365    3.8154 H   0  0  0  0  0  0  0  0  0  0  0  0
    2.5765    0.2760    3.5584 H   0  0  0  0  0  0  0  0  0  0  0  0
    5.6043   -1.5983    1.4082 N   0  0  0  0  0  0  0  0  0  0  0  0
    6.6252   -2.5841    1.1398 C   0  0  0  0  0  0  0  0  0  0  0  0
    5.8968   -0.6325    1.5240 H   0  0  0  0  0  0  0  0  0  0  0  0
    7.0007   -2.9919    2.0899 H   0  0  0  0  0  0  0  0  0  0  0  0
    6.1989   -3.3978    0.5347 H   0  0  0  0  0  0  0  0  0  0  0  0
    7.4536   -2.1135    0.5900 H   0  0  0  0  0  0  0  0  0  0  0  0
  1  3  1  0  0  0  0
  1  7  1  0  0  0  0
  1  2  2  0  0  0  0
 42 43  1  0  0  0  0
 43 51  1  0  0  0  0
 43 44  2  0  0  0  0
  8  9  1  0  0  0  0
  9 17  1  0  0  0  0
  9 10  2  0  0  0  0
 18 19  1  0  0  0  0
 19 41  1  0  0  0  0
 19 20  2  0  0  0  0
 25 26  1  0  0  0  0
 25 27  1  0  0  0  0
 24 25  2  0  0  0  0
 42 45  1  0  0  0  0
  8 11  1  0  0  0  0
 51 52  1  0  0  0  0
 21 22  1  0  0  0  0
 22 23  1  0  0  0  0
 18 21  1  0  0  0  0
 23 24  1  0  0  0  0
 41 42  1  0  0  0  0
  7  8  1  0  0  0  0
 17 18  1  0  0  0  0
  3  4  1  0  0  0  0
  3  5  1  0  0  0  0
  3  6  1  0  0  0  0
 45 48  1  0  0  0  0
 45 49  1  0  0  0  0
 45 50  1  0  0  0  0
 11 14  1  0  0  0  0
 11 15  1  0  0  0  0
 11 16  1  0  0  0  0
 52 54  1  0  0  0  0
 52 55  1  0  0  0  0
 52 56  1  0  0  0  0
 22 32  1  0  0  0  0
 22 33  1  0  0  0  0
 21 30  1  0  0  0  0
 21 31  1  0  0  0  0
 23 34  1  0  0  0  0
 23 35  1  0  0  0  0
 42 47  1  0  0  0  0
  8 13  1  0  0  0  0
 18 29  1  0  0  0  0
 26 37  1  0  0  0  0
 26 38  1  0  0  0  0
 27 39  1  0  0  0  0
 27 40  1  0  0  0  0
 51 53  1  0  0  0  0
  7 12  1  0  0  0  0
 41 46  1  0  0  0  0
 17 28  1  0  0  0  0
 24 36  1  0  0  0  0
M  CHG  1  24   1
M  END
$$$$

  -OEChem-05262214473D

 56 55  0     1  0  0  0  0  0999 V2000
    0.7735   -5.8042   -2.0022 C   0  0  0  0  0  0  0  0  0  0  0  0
   -0.2086   -6.3825   -1.5519 O   0  0  0  0  0  0  0  0  0  0  0  0
    1.4751   -6.3646   -3.1946 C   0  0  0  0  0  0  0  0  0  0  0  0
    2.2765   -7.0687   -2.9186 H   0  0  0  0  0  0  0  0  0  0  0  0
    0.7988   -6.9360   -3.8504 H   0  0  0  0  0  0  0  0  0  0  0  0
    1.9556   -5.6216   -3.8511 H   0  0  0  0  0  0  0  0  0  0  0  0
    1.3322   -4.6359   -1.5106 N   0  0  0  0  0  0  0  0  0  0  0  0
    0.8124   -3.9290   -0.3698 C   0  0  2  0  0  0  0  0  0  0  0  0
    1.0666   -2.4424   -0.5818 C   0  0  0  0  0  0  0  0  0  0  0  0
    2.0598   -2.0076   -1.1610 O   0  0  0  0  0  0  0  0  0  0  0  0
    1.4560   -4.4118    0.9207 C   0  0  0  0  0  0  0  0  0  0  0  0
    2.1528   -4.2578   -1.9805 H   0  0  0  0  0  0  0  0  0  0  0  0
   -0.2667   -4.1160   -0.3467 H   0  0  0  0  0  0  0  0  0  0  0  0
    2.5374   -4.2329    0.9160 H   0  0  0  0  0  0  0  0  0  0  0  0
    1.0390   -3.8932    1.7903 H   0  0  0  0  0  0  0  0  0  0  0  0
    1.2976   -5.4871    1.0566 H   0  0  0  0  0  0  0  0  0  0  0  0
    0.0755   -1.6529   -0.0105 N   0  0  0  0  0  0  0  0  0  0  0  0
    0.1113   -0.2132   -0.0391 C   0  0  2  0  0  0  0  0  0  0  0  0
    1.3840    0.2278    0.6760 C   0  0  0  0  0  0  0  0  0  0  0  0
    1.5904    1.3903    1.0181 O   0  0  0  0  0  0  0  0  0  0  0  0
   -1.1203    0.4069    0.6286 C   0  0  0  0  0  0  0  0  0  0  0  0
   -2.4102    0.1296   -0.1528 C   0  0  0  0  0  0  0  0  0  0  0  0
   -3.6327    0.7491    0.5163 C   0  0  0  0  0  0  0  0  0  0  0  0
   -4.8628    0.4629   -0.2186 N   0  3  0  0  0  0  0  0  0  0  0  0
   -6.1174    0.8741    0.2351 C   0  0  0  0  0  0  0  0  0  0  0  0
   -7.2461    0.5659   -0.5169 N   0  0  0  0  0  0  0  0  0  0  0  0
   -6.2663    1.5854    1.4213 N   0  0  0  0  0  0  0  0  0  0  0  0
   -0.7323   -2.1024    0.4149 H   0  0  0  0  0  0  0  0  0  0  0  0
    0.1728    0.0820   -1.0928 H   0  0  0  0  0  0  0  0  0  0  0  0
   -0.9785    1.4904    0.7215 H   0  0  0  0  0  0  0  0  0  0  0  0
   -1.2233    0.0195    1.6508 H   0  0  0  0  0  0  0  0  0  0  0  0
   -2.3133    0.5205   -1.1727 H   0  0  0  0  0  0  0  0  0  0  0  0
   -2.5682   -0.9523   -0.2300 H   0  0  0  0  0  0  0  0  0  0  0  0
   -3.7514    0.3347    1.5222 H   0  0  0  0  0  0  0  0  0  0  0  0
   -3.5278    1.8356    0.5933 H   0  0  0  0  0  0  0  0  0  0  0  0
   -4.8166   -0.0547   -1.0946 H   0  0  0  0  0  0  0  0  0  0  0  0
   -8.1746    0.8510   -0.2145 H   0  0  0  0  0  0  0  0  0  0  0  0
   -7.1730    0.0471   -1.3887 H   0  0  0  0  0  0  0  0  0  0  0  0
   -7.1776    1.8872    1.7561 H   0  0  0  0  0  0  0  0  0  0  0  0
   -5.4588    1.8246    1.9920 H   0  0  0  0  0  0  0  0  0  0  0  0
    2.2796   -0.8194    0.8419 N   0  0  0  0  0  0  0  0  0  0  0  0
    3.5805   -0.6529    1.4480 C   0  0  2  0  0  0  0  0  0  0  0  0
    4.5355   -1.6406    0.7908 C   0  0  0  0  0  0  0  0  0  0  0  0
    4.1872   -2.7542    0.4038 O   0  0  0  0  0  0  0  0  0  0  0  0
    3.5224   -0.8716    2.9518 C   0  0  0  0  0  0  0  0  0  0  0  0
    2.0095   -1.7561    0.5565 H   0  0  0  0  0  0  0  0  0  0  0  0
    3.9036    0.3703    1.2273 H   0  0  0  0  0  0  0  0  0  0  0  0
    3.2006   -1.8914    3.1924 H   0  0  0  0  0  0  0  0  0  0  0  0
    4.5033   -0.7170    3.4134 H   0  0  0  0  0  0  0  0  0  0  0  0
    2.8129   -0.1802    3.4190 H   0  0  0  0  0  0  0  0  0  0  0  0
    5.8318   -1.1491    0.7263 N   0  0  0  0  0  0  0  0  0  0  0  0
    6.9300   -1.9151    0.1848 C   0  0  0  0  0  0  0  0  0  0  0  0
    6.0222   -0.2000    1.0341 H   0  0  0  0  0  0  0  0  0  0  0  0
    7.4316   -2.4623    0.9965 H   0  0  0  0  0  0  0  0  0  0  0  0
    6.5469   -2.6307   -0.5576 H   0  0  0  0  0  0  0  0  0  0  0  0
    7.6481   -1.2356   -0.2976 H   0  0  0  0  0  0  0  0  0  0  0  0
  1  3  1  0  0  0  0
  1  7  1  0  0  0  0
  1  2  2  0  0  0  0
 42 43  1  0  0  0  0
 43 51  1  0  0  0  0
 43 44  2  0  0  0  0
  8  9  1  0  0  0  0
  9 17  1  0  0  0  0
  9 10  2  0  0  0  0
 18 19  1  0  0  0  0
 19 41  1  0  0  0  0
 19 20  2  0  0  0  0
 25 26  1  0  0  0  0
 25 27  1  0  0  0  0
 24 25  2  0  0  0  0
 42 45  1  0  0  0  0
  8 11  1  0  0  0  0
 51 52  1  0  0  0  0
 21 22  1  0  0  0  0
 22 23  1  0  0  0  0
 18 21  1  0  0  0  0
 23 24  1  0  0  0  0
 41 42  1  0  0  0  0
  7  8  1  0  0  0  0
 17 18  1  0  0  0  0
  3  4  1  0  0  0  0
  3  5  1  0  0  0  0
  3  6  1  0  0  0  0
 45 48  1  0  0  0  0
 45 49  1  0  0  0  0
 45 50  1  0  0  0  0
 11 14  1  0  0  0  0
 11 15  1  0  0  0  0
 11 16  1  0  0  0  0
 52 54  1  0  0  0  0
 52 55  1  0  0  0  0
 52 56  1  0  0  0  0
 22 32  1  0  0  0  0
 22 33  1  0  0  0  0
 21 30  1  0  0  0  0
 21 31  1  0  0  0  0
 23 34  1  0  0  0  0
 23 35  1  0  0  0  0
 42 47  1  0  0  0  0
  8 13  1  0  0  0  0
 18 29  1  0  0  0  0
 26 37  1  0  0  0  0
 26 38  1  0  0  0  0
 27 39  1  0  0  0  0
 27 40  1  0  0  0  0
 51 53  1  0  0  0  0
  7 12  1  0  0  0  0
 41 46  1  0  0  0  0
 17 28  1  0  0  0  0
 24 36  1  0  0  0  0
M  CHG  1  24   1
M  END
$$$$

  -OEChem-05262214473D

 56 55  0     1  0  0  0  0  0999 V2000
    0.7735   -5.8042   -2.0022 C   0  0  0  0  0  0  0  0  0  0  0  0
   -0.2086   -6.3825   -1.5519 O   0  0  0  0  0  0  0  0  0  0  0  0
    1.4751   -6.3646   -3.1946 C   0  0  0  0  0  0  0  0  0  0  0  0
    2.2765   -7.0687   -2.9186 H   0  0  0  0  0  0  0  0  0  0  0  0
    0.7988   -6.9360   -3.8504 H   0  0  0  0  0  0  0  0  0  0  0  0
    1.9556   -5.6216   -3.8511 H   0  0  0  0  0  0  0  0  0  0  0  0
    1.3322   -4.6359   -1.5106 N   0  0  0  0  0  0  0  0  0  0  0  0
    0.8124   -3.9290   -0.3698 C   0  0  2  0  0  0  0  0  0  0  0  0
    1.0666   -2.4424   -0.5818 C   0  0  0  0  0  0  0  0  0  0  0  0
    2.0598   -2.0076   -1.1610 O   0  0  0  0  0  0  0  0  0  0  0  0
    1.4560   -4.4118    0.9207 C   0  0  0  0  0  0  0  0  0  0  0  0
    2.1528   -4.2578   -1.9805 H   0  0  0  0  0  0  0  0  0  0  0  0
   -0.2667   -4.1160   -0.3467 H   0  0  0  0  0  0  0  0  0  0  0  0
    2.5374   -4.2329    0.9160 H   0  0  0  0  0  0  0  0  0  0  0  0
    1.0390   -3.8932    1.7903 H   0  0  0  0  0  0  0  0  0  0  0  0
    1.2976   -5.4871    1.0566 H   0  0  0  0  0  0  0  0  0  0  0  0
    0.0755   -1.6529   -0.0105 N   0  0  0  0  0  0  0  0  0  0  0  0
    0.1113   -0.2132   -0.0391 C   0  0  2  0  0  0  0  0  0  0  0  0
    1.3840    0.2278    0.6760 C   0  0  0  0  0  0  0  0  0  0  0  0
    1.4869    1.3085    1.2527 O   0  0  0  0  0  0  0  0  0  0  0  0
   -1.1203    0.4069    0.6286 C   0  0  0  0  0  0  0  0  0  0  0  0
   -2.4102    0.1296   -0.1528 C   0  0  0  0  0  0  0  0  0  0  0  0
   -3.6327    0.7491    0.5163 C   0  0  0  0  0  0  0  0  0  0  0  0
   -4.8628    0.4629   -0.2186 N   0  3  0  0  0  0  0  0  0  0  0  0
   -6.1174    0.8741    0.2351 C   0  0  0  0  0  0  0  0  0  0  0  0
   -7.2461    0.5659   -0.5169 N   0  0  0  0  0  0  0  0  0  0  0  0
   -6.2663    1.5854    1.4213 N   0  0  0  0  0  0  0  0  0  0  0  0
   -0.7323   -2.1024    0.4149 H   0  0  0  0  0  0  0  0  0  0  0  0
    0.1728    0.0820   -1.0928 H   0  0  0  0  0  0  0  0  0  0  0  0
   -0.9785    1.4904    0.7215 H   0  0  0  0  0  0  0  0  0  0  0  0
   -1.2233    0.0195    1.6508 H   0  0  0  0  0  0  0  0  0  0  0  0
   -2.3133    0.5205   -1.1727 H   0  0  0  0  0  0  0  0  0  0  0  0
   -2.5682   -0.9523   -0.2300 H   0  0  0  0  0  0  0  0  0  0  0  0
   -3.7514    0.3347    1.5222 H   0  0  0  0  0  0  0  0  0  0  0  0
   -3.5278    1.8356    0.5933 H   0  0  0  0  0  0  0  0  0  0  0  0
   -4.8166   -0.0547   -1.0946 H   0  0  0  0  0  0  0  0  0  0  0  0
   -8.1746    0.8510   -0.2145 H   0  0  0  0  0  0  0  0  0  0  0  0
   -7.1730    0.0471   -1.3887 H   0  0  0  0  0  0  0  0  0  0  0  0
   -7.1776    1.8872    1.7561 H   0  0  0  0  0  0  0  0  0  0  0  0
   -5.4588    1.8246    1.9920 H   0  0  0  0  0  0  0  0  0  0  0  0
    2.4035   -0.7057    0.5514 N   0  0  0  0  0  0  0  0  0  0  0  0
    3.7255   -0.5039    1.0981 C   0  0  2  0  0  0  0  0  0  0  0  0
    4.7245   -1.1981    0.1817 C   0  0  0  0  0  0  0  0  0  0  0  0
    4.4716   -2.2402   -0.4192 O   0  0  0  0  0  0  0  0  0  0  0  0
    3.8254   -1.0411    2.5173 C   0  0  0  0  0  0  0  0  0  0  0  0
    2.2170   -1.5878    0.0836 H   0  0  0  0  0  0  0  0  0  0  0  0
    3.9100    0.5759    1.0891 H   0  0  0  0  0  0  0  0  0  0  0  0
    3.6435   -2.1217    2.5463 H   0  0  0  0  0  0  0  0  0  0  0  0
    4.8193   -0.8618    2.9404 H   0  0  0  0  0  0  0  0  0  0  0  0
    3.0861   -0.5621    3.1682 H   0  0  0  0  0  0  0  0  0  0  0  0
    5.9461   -0.5403    0.1476 N   0  0  0  0  0  0  0  0  0  0  0  0
    7.0718   -1.0255   -0.6161 C   0  0  0  0  0  0  0  0  0  0  0  0
    6.0543    0.3388    0.6449 H   0  0  0  0  0  0  0  0  0  0  0  0
    7.7017   -1.6623    0.0225 H   0  0  0  0  0  0  0  0  0  0  0  0
    6.7081   -1.6116   -1.4730 H   0  0  0  0  0  0  0  0  0  0  0  0
    7.6630   -0.1723   -0.9799 H   0  0  0  0  0  0  0  0  0  0  0  0
  1  3  1  0  0  0  0
  1  7  1  0  0  0  0
  1  2  2  0  0  0  0
 42 43  1  0  0  0  0
 43 51  1  0  0  0  0
 43 44  2  0  0  0  0
  8  9  1  0  0  0  0
  9 17  1  0  0  0  0
  9 10  2  0  0  0  0
 18 19  1  0  0  0  0
 19 41  1  0  0  0  0
 19 20  2  0  0  0  0
 25 26  1  0  0  0  0
 25 27  1  0  0  0  0
 24 25  2  0  0  0  0
 42 45  1  0  0  0  0
  8 11  1  0  0  0  0
 51 52  1  0  0  0  0
 21 22  1  0  0  0  0
 22 23  1  0  0  0  0
 18 21  1  0  0  0  0
 23 24  1  0  0  0  0
 41 42  1  0  0  0  0
  7  8  1  0  0  0  0
 17 18  1  0  0  0  0
  3  4  1  0  0  0  0
  3  5  1  0  0  0  0
  3  6  1  0  0  0  0
 45 48  1  0  0  0  0
 45 49  1  0  0  0  0
 45 50  1  0  0  0  0
 11 14  1  0  0  0  0
 11 15  1  0  0  0  0
 11 16  1  0  0  0  0
 52 54  1  0  0  0  0
 52 55  1  0  0  0  0
 52 56  1  0  0  0  0
 22 32  1  0  0  0  0
 22 33  1  0  0  0  0
 21 30  1  0  0  0  0
 21 31  1  0  0  0  0
 23 34  1  0  0  0  0
 23 35  1  0  0  0  0
 42 47  1  0  0  0  0
  8 13  1  0  0  0  0
 18 29  1  0  0  0  0
 26 37  1  0  0  0  0
 26 38  1  0  0  0  0
 27 39  1  0  0  0  0
 27 40  1  0  0  0  0
 51 53  1  0  0  0  0
  7 12  1  0  0  0  0
 41 46  1  0  0  0  0
 17 28  1  0  0  0  0
 24 36  1  0  0  0  0
M  CHG  1  24   1
M  END
$$$$

  -OEChem-05262214473D

 56 55  0     1  0  0  0  0  0999 V2000
    0.7735   -5.8042   -2.0022 C   0  0  0  0  0  0  0  0  0  0  0  0
   -0.2086   -6.3825   -1.5519 O   0  0  0  0  0  0  0  0  0  0  0  0
    1.4751   -6.3646   -3.1946 C   0  0  0  0  0  0  0  0  0  0  0  0
    2.2765   -7.0687   -2.9186 H   0  0  0  0  0  0  0  0  0  0  0  0
    0.7988   -6.9360   -3.8504 H   0  0  0  0  0  0  0  0  0  0  0  0
    1.9556   -5.6216   -3.8511 H   0  0  0  0  0  0  0  0  0  0  0  0
    1.3322   -4.6359   -1.5106 N   0  0  0  0  0  0  0  0  0  0  0  0
    0.8124   -3.9290   -0.3698 C   0  0  2  0  0  0  0  0  0  0  0  0
    1.0666   -2.4424   -0.5818 C   0  0  0  0  0  0  0  0  0  0  0  0
    2.0598   -2.0076   -1.1610 O   0  0  0  0  0  0  0  0  0  0  0  0
    1.4560   -4.4118    0.9207 C   0  0  0  0  0  0  0  0  0  0  0  0
    2.1528   -4.2578   -1.9805 H   0  0  0  0  0  0  0  0  0  0  0  0
   -0.2667   -4.1160   -0.3467 H   0  0  0  0  0  0  0  0  0  0  0  0
    2.5374   -4.2329    0.9160 H   0  0  0  0  0  0  0  0  0  0  0  0
    1.0390   -3.8932    1.7903 H   0  0  0  0  0  0  0  0  0  0  0  0
    1.2976   -5.4871    1.0566 H   0  0  0  0  0  0  0  0  0  0  0  0
    0.0755   -1.6529   -0.0105 N   0  0  0  0  0  0  0  0  0  0  0  0
    0.1113   -0.2132   -0.0391 C   0  0  2  0  0  0  0  0  0  0  0  0
    1.3840    0.2278    0.6760 C   0  0  0  0  0  0  0  0  0  0  0  0
    1.4144    1.1662    1.4695 O   0  0  0  0  0  0  0  0  0  0  0  0
   -1.1203    0.4069    0.6286 C   0  0  0  0  0  0  0  0  0  0  0  0
   -2.4102    0.1296   -0.1528 C   0  0  0  0  0  0  0  0  0  0  0  0
   -3.6327    0.7491    0.5163 C   0  0  0  0  0  0  0  0  0  0  0  0
   -4.8628    0.4629   -0.2186 N   0  3  0  0  0  0  0  0  0  0  0  0
   -6.1174    0.8741    0.2351 C   0  0  0  0  0  0  0  0  0  0  0  0
   -7.2461    0.5659   -0.5169 N   0  0  0  0  0  0  0  0  0  0  0  0
   -6.2663    1.5854    1.4213 N   0  0  0  0  0  0  0  0  0  0  0  0
   -0.7323   -2.1024    0.4149 H   0  0  0  0  0  0  0  0  0  0  0  0
    0.1728    0.0820   -1.0928 H   0  0  0  0  0  0  0  0  0  0  0  0
   -0.9785    1.4904    0.7215 H   0  0  0  0  0  0  0  0  0  0  0  0
   -1.2233    0.0195    1.6508 H   0  0  0  0  0  0  0  0  0  0  0  0
   -2.3133    0.5205   -1.1727 H   0  0  0  0  0  0  0  0  0  0  0  0
   -2.5682   -0.9523   -0.2300 H   0  0  0  0  0  0  0  0  0  0  0  0
   -3.7514    0.3347    1.5222 H   0  0  0  0  0  0  0  0  0  0  0  0
   -3.5278    1.8356    0.5933 H   0  0  0  0  0  0  0  0  0  0  0  0
   -4.8166   -0.0547   -1.0946 H   0  0  0  0  0  0  0  0  0  0  0  0
   -8.1746    0.8510   -0.2145 H   0  0  0  0  0  0  0  0  0  0  0  0
   -7.1730    0.0471   -1.3887 H   0  0  0  0  0  0  0  0  0  0  0  0
   -7.1776    1.8872    1.7561 H   0  0  0  0  0  0  0  0  0  0  0  0
   -5.4588    1.8246    1.9920 H   0  0  0  0  0  0  0  0  0  0  0  0
    2.4876   -0.5181    0.2860 N   0  0  0  0  0  0  0  0  0  0  0  0
    3.8213   -0.2668    0.7814 C   0  0  2  0  0  0  0  0  0  0  0  0
    4.8077   -0.6162   -0.3252 C   0  0  0  0  0  0  0  0  0  0  0  0
    4.6224   -1.5315   -1.1245 O   0  0  0  0  0  0  0  0  0  0  0  0
    4.1061   -1.0743    2.0382 C   0  0  0  0  0  0  0  0  0  0  0  0
    2.3616   -1.2979   -0.3525 H   0  0  0  0  0  0  0  0  0  0  0  0
    3.8809    0.8051    0.9995 H   0  0  0  0  0  0  0  0  0  0  0  0
    4.0509   -2.1508    1.8392 H   0  0  0  0  0  0  0  0  0  0  0  0
    5.1067   -0.8612    2.4285 H   0  0  0  0  0  0  0  0  0  0  0  0
    3.3777   -0.8436    2.8231 H   0  0  0  0  0  0  0  0  0  0  0  0
    5.9392    0.1866   -0.2884 N   0  0  0  0  0  0  0  0  0  0  0  0
    7.0408    0.0238   -1.2081 C   0  0  0  0  0  0  0  0  0  0  0  0
    5.9906    0.9471    0.3829 H   0  0  0  0  0  0  0  0  0  0  0  0
    7.7926   -0.6464   -0.7657 H   0  0  0  0  0  0  0  0  0  0  0  0
    6.6717   -0.4099   -2.1491 H   0  0  0  0  0  0  0  0  0  0  0  0
    7.4973    1.0040   -1.4103 H   0  0  0  0  0  0  0  0  0  0  0  0
  1  3  1  0  0  0  0
  1  7  1  0  0  0  0
  1  2  2  0  0  0  0
 42 43  1  0  0  0  0
 43 51  1  0  0  0  0
 43 44  2  0  0  0  0
  8  9  1  0  0  0  0
  9 17  1  0  0  0  0
  9 10  2  0  0  0  0
 18 19  1  0  0  0  0
 19 41  1  0  0  0  0
 19 20  2  0  0  0  0
 25 26  1  0  0  0  0
 25 27  1  0  0  0  0
 24 25  2  0  0  0  0
 42 45  1  0  0  0  0
  8 11  1  0  0  0  0
 51 52  1  0  0  0  0
 21 22  1  0  0  0  0
 22 23  1  0  0  0  0
 18 21  1  0  0  0  0
 23 24  1  0  0  0  0
 41 42  1  0  0  0  0
  7  8  1  0  0  0  0
 17 18  1  0  0  0  0
  3  4  1  0  0  0  0
  3  5  1  0  0  0  0
  3  6  1  0  0  0  0
 45 48  1  0  0  0  0
 45 49  1  0  0  0  0
 45 50  1  0  0  0  0
 11 14  1  0  0  0  0
 11 15  1  0  0  0  0
 11 16  1  0  0  0  0
 52 54  1  0  0  0  0
 52 55  1  0  0  0  0
 52 56  1  0  0  0  0
 22 32  1  0  0  0  0
 22 33  1  0  0  0  0
 21 30  1  0  0  0  0
 21 31  1  0  0  0  0
 23 34  1  0  0  0  0
 23 35  1  0  0  0  0
 42 47  1  0  0  0  0
  8 13  1  0  0  0  0
 18 29  1  0  0  0  0
 26 37  1  0  0  0  0
 26 38  1  0  0  0  0
 27 39  1  0  0  0  0
 27 40  1  0  0  0  0
 51 53  1  0  0  0  0
  7 12  1  0  0  0  0
 41 46  1  0  0  0  0
 17 28  1  0  0  0  0
 24 36  1  0  0  0  0
M  CHG  1  24   1
M  END
$$$$

  -OEChem-05262214473D

 56 55  0     1  0  0  0  0  0999 V2000
    0.7735   -5.8042   -2.0022 C   0  0  0  0  0  0  0  0  0  0  0  0
   -0.2086   -6.3825   -1.5519 O   0  0  0  0  0  0  0  0  0  0  0  0
    1.4751   -6.3646   -3.1946 C   0  0  0  0  0  0  0  0  0  0  0  0
    2.2765   -7.0687   -2.9186 H   0  0  0  0  0  0  0  0  0  0  0  0
    0.7988   -6.9360   -3.8504 H   0  0  0  0  0  0  0  0  0  0  0  0
    1.9556   -5.6216   -3.8511 H   0  0  0  0  0  0  0  0  0  0  0  0
    1.3322   -4.6359   -1.5106 N   0  0  0  0  0  0  0  0  0  0  0  0
    0.8124   -3.9290   -0.3698 C   0  0  2  0  0  0  0  0  0  0  0  0
    1.0666   -2.4424   -0.5818 C   0  0  0  0  0  0  0  0  0  0  0  0
    2.0598   -2.0076   -1.1610 O   0  0  0  0  0  0  0  0  0  0  0  0
    1.4560   -4.4118    0.9207 C   0  0  0  0  0  0  0  0  0  0  0  0
    2.1528   -4.2578   -1.9805 H   0  0  0  0  0  0  0  0  0  0  0  0
   -0.2667   -4.1160   -0.3467 H   0  0  0  0  0  0  0  0  0  0  0  0
    2.5374   -4.2329    0.9160 H   0  0  0  0  0  0  0  0  0  0  0  0
    1.0390   -3.8932    1.7903 H   0  0  0  0  0  0  0  0  0  0  0  0
    1.2976   -5.4871    1.0566 H   0  0  0  0  0  0  0  0  0  0  0  0
    0.0755   -1.6529   -0.0105 N   0  0  0  0  0  0  0  0  0  0  0  0
    0.1113   -0.2132   -0.0391 C   0  0  2  0  0  0  0  0  0  0  0  0
    1.3840    0.2278    0.6760 C   0  0  0  0  0  0  0  0  0  0  0  0
    1.3779    0.9731    1.6536 O   0  0  0  0  0  0  0  0  0  0  0  0
   -1.1203    0.4069    0.6286 C   0  0  0  0  0  0  0  0  0  0  0  0
   -2.4102    0.1296   -0.1528 C   0  0  0  0  0  0  0  0  0  0  0  0
   -3.6327    0.7491    0.5163 C   0  0  0  0  0  0  0  0  0  0  0  0
   -4.8628    0.4629   -0.2186 N   0  3  0  0  0  0  0  0  0  0  0  0
   -6.1174    0.8741    0.2351 C   0  0  0  0  0  0  0  0  0  0  0  0
   -7.2461    0.5659   -0.5169 N   0  0  0  0  0  0  0  0  0  0  0  0
   -6.2663    1.5854    1.4213 N   0  0  0  0  0  0  0  0  0  0  0  0
   -0.7323   -2.1024    0.4149 H   0  0  0  0  0  0  0  0  0  0  0  0
    0.1728    0.0820   -1.0928 H   0  0  0  0  0  0  0  0  0  0  0  0
   -0.9785    1.4904    0.7215 H   0  0  0  0  0  0  0  0  0  0  0  0
   -1.2233    0.0195    1.6508 H   0  0  0  0  0  0  0  0  0  0  0  0
   -2.3133    0.5205   -1.1727 H   0  0  0  0  0  0  0  0  0  0  0  0
   -2.5682   -0.9523   -0.2300 H   0  0  0  0  0  0  0  0  0  0  0  0
   -3.7514    0.3347    1.5222 H   0  0  0  0  0  0  0  0  0  0  0  0
   -3.5278    1.8356    0.5933 H   0  0  0  0  0  0  0  0  0  0  0  0
   -4.8166   -0.0547   -1.0946 H   0  0  0  0  0  0  0  0  0  0  0  0
   -8.1746    0.8510   -0.2145 H   0  0  0  0  0  0  0  0  0  0  0  0
   -7.1730    0.0471   -1.3887 H   0  0  0  0  0  0  0  0  0  0  0  0
   -7.1776    1.8872    1.7561 H   0  0  0  0  0  0  0  0  0  0  0  0
   -5.4588    1.8246    1.9920 H   0  0  0  0  0  0  0  0  0  0  0  0
    2.5262   -0.2693    0.0640 N   0  0  0  0  0  0  0  0  0  0  0  0
    3.8614    0.0423    0.5196 C   0  0  2  0  0  0  0  0  0  0  0  0
    4.7794    0.0655   -0.6954 C   0  0  0  0  0  0  0  0  0  0  0  0
    4.6292   -0.6763   -1.6640 O   0  0  0  0  0  0  0  0  0  0  0  0
    4.3454   -0.9688    1.5473 C   0  0  0  0  0  0  0  0  0  0  0  0
    2.4334   -0.9062   -0.7219 H   0  0  0  0  0  0  0  0  0  0  0  0
    3.8183    1.0423    0.9647 H   0  0  0  0  0  0  0  0  0  0  0  0
    4.3950   -1.9768    1.1195 H   0  0  0  0  0  0  0  0  0  0  0  0
    5.3460   -0.7152    1.9127 H   0  0  0  0  0  0  0  0  0  0  0  0
    3.6676   -1.0056    2.4070 H   0  0  0  0  0  0  0  0  0  0  0  0
    5.8117    0.9821   -0.5520 N   0  0  0  0  0  0  0  0  0  0  0  0
    6.8393    1.1616   -1.5509 C   0  0  0  0  0  0  0  0  0  0  0  0
    5.8358    1.5836    0.2661 H   0  0  0  0  0  0  0  0  0  0  0  0
    7.6981    0.5162   -1.3144 H   0  0  0  0  0  0  0  0  0  0  0  0
    6.4400    0.8925   -2.5400 H   0  0  0  0  0  0  0  0  0  0  0  0
    7.1623    2.2130   -1.5597 H   0  0  0  0  0  0  0  0  0  0  0  0
  1  3  1  0  0  0  0
  1  7  1  0  0  0  0
  1  2  2  0  0  0  0
 42 43  1  0  0  0  0
 43 51  1  0  0  0  0
 43 44  2  0  0  0  0
  8  9  1  0  0  0  0
  9 17  1  0  0  0  0
  9 10  2  0  0  0  0
 18 19  1  0  0  0  0
 19 41  1  0  0  0  0
 19 20  2  0  0  0  0
 25 26  1  0  0  0  0
 25 27  1  0  0  0  0
 24 25  2  0  0  0  0
 42 45  1  0  0  0  0
  8 11  1  0  0  0  0
 51 52  1  0  0  0  0
 21 22  1  0  0  0  0
 22 23  1  0  0  0  0
 18 21  1  0  0  0  0
 23 24  1  0  0  0  0
 41 42  1  0  0  0  0
  7  8  1  0  0  0  0
 17 18  1  0  0  0  0
  3  4  1  0  0  0  0
  3  5  1  0  0  0  0
  3  6  1  0  0  0  0
 45 48  1  0  0  0  0
 45 49  1  0  0  0  0
 45 50  1  0  0  0  0
 11 14  1  0  0  0  0
 11 15  1  0  0  0  0
 11 16  1  0  0  0  0
 52 54  1  0  0  0  0
 52 55  1  0  0  0  0
 52 56  1  0  0  0  0
 22 32  1  0  0  0  0
 22 33  1  0  0  0  0
 21 30  1  0  0  0  0
 21 31  1  0  0  0  0
 23 34  1  0  0  0  0
 23 35  1  0  0  0  0
 42 47  1  0  0  0  0
  8 13  1  0  0  0  0
 18 29  1  0  0  0  0
 26 37  1  0  0  0  0
 26 38  1  0  0  0  0
 27 39  1  0  0  0  0
 27 40  1  0  0  0  0
 51 53  1  0  0  0  0
  7 12  1  0  0  0  0
 41 46  1  0  0  0  0
 17 28  1  0  0  0  0
 24 36  1  0  0  0  0
M  CHG  1  24   1
M  END
$$$$

  -OEChem-05262214473D

 56 55  0     1  0  0  0  0  0999 V2000
    0.7735   -5.8042   -2.0022 C   0  0  0  0  0  0  0  0  0  0  0  0
   -0.2086   -6.3825   -1.5519 O   0  0  0  0  0  0  0  0  0  0  0  0
    1.4751   -6.3646   -3.1946 C   0  0  0  0  0  0  0  0  0  0  0  0
    2.2765   -7.0687   -2.9186 H   0  0  0  0  0  0  0  0  0  0  0  0
    0.7988   -6.9360   -3.8504 H   0  0  0  0  0  0  0  0  0  0  0  0
    1.9556   -5.6216   -3.8511 H   0  0  0  0  0  0  0  0  0  0  0  0
    1.3322   -4.6359   -1.5106 N   0  0  0  0  0  0  0  0  0  0  0  0
    0.8124   -3.9290   -0.3698 C   0  0  2  0  0  0  0  0  0  0  0  0
    1.0666   -2.4424   -0.5818 C   0  0  0  0  0  0  0  0  0  0  0  0
    2.0598   -2.0076   -1.1610 O   0  0  0  0  0  0  0  0  0  0  0  0
    1.4560   -4.4118    0.9207 C   0  0  0  0  0  0  0  0  0  0  0  0
    2.1528   -4.2578   -1.9805 H   0  0  0  0  0  0  0  0  0  0  0  0
   -0.2667   -4.1160   -0.3467 H   0  0  0  0  0  0  0  0  0  0  0  0
    2.5374   -4.2329    0.9160 H   0  0  0  0  0  0  0  0  0  0  0  0
    1.0390   -3.8932    1.7903 H   0  0  0  0  0  0  0  0  0  0  0  0
    1.2976   -5.4871    1.0566 H   0  0  0  0  0  0  0  0  0  0  0  0
    0.0755   -1.6529   -0.0105 N   0  0  0  0  0  0  0  0  0  0  0  0
    0.1113   -0.2132   -0.0391 C   0  0  2  0  0  0  0  0  0  0  0  0
    1.3840    0.2278    0.6760 C   0  0  0  0  0  0  0  0  0  0  0  0
    1.3798    0.7424    1.7924 O   0  0  0  0  0  0  0  0  0  0  0  0
   -1.1203    0.4069    0.6286 C   0  0  0  0  0  0  0  0  0  0  0  0
   -2.4102    0.1296   -0.1528 C   0  0  0  0  0  0  0  0  0  0  0  0
   -3.6327    0.7491    0.5163 C   0  0  0  0  0  0  0  0  0  0  0  0
   -4.8628    0.4629   -0.2186 N   0  3  0  0  0  0  0  0  0  0  0  0
   -6.1174    0.8741    0.2351 C   0  0  0  0  0  0  0  0  0  0  0  0
   -7.2461    0.5659   -0.5169 N   0  0  0  0  0  0  0  0  0  0  0  0
   -6.2663    1.5854    1.4213 N   0  0  0  0  0  0  0  0  0  0  0  0
   -0.7323   -2.1024    0.4149 H   0  0  0  0  0  0  0  0  0  0  0  0
    0.1728    0.0820   -1.0928 H   0  0  0  0  0  0  0  0  0  0  0  0
   -0.9785    1.4904    0.7215 H   0  0  0  0  0  0  0  0  0  0  0  0
   -1.2233    0.0195    1.6508 H   0  0  0  0  0  0  0  0  0  0  0  0
   -2.3133    0.5205   -1.1727 H   0  0  0  0  0  0  0  0  0  0  0  0
   -2.5682   -0.9523   -0.2300 H   0  0  0  0  0  0  0  0  0  0  0  0
   -3.7514    0.3347    1.5222 H   0  0  0  0  0  0  0  0  0  0  0  0
   -3.5278    1.8356    0.5933 H   0  0  0  0  0  0  0  0  0  0  0  0
   -4.8166   -0.0547   -1.0946 H   0  0  0  0  0  0  0  0  0  0  0  0
   -8.1746    0.8510   -0.2145 H   0  0  0  0  0  0  0  0  0  0  0  0
   -7.1730    0.0471   -1.3887 H   0  0  0  0  0  0  0  0  0  0  0  0
   -7.1776    1.8872    1.7561 H   0  0  0  0  0  0  0  0  0  0  0  0
   -5.4588    1.8246    1.9920 H   0  0  0  0  0  0  0  0  0  0  0  0
    2.5166    0.0236   -0.0997 N   0  0  0  0  0  0  0  0  0  0  0  0
    3.8429    0.4022    0.3304 C   0  0  2  0  0  0  0  0  0  0  0  0
    4.6417    0.8005   -0.9036 C   0  0  0  0  0  0  0  0  0  0  0  0
    4.4916    0.2671   -2.0008 O   0  0  0  0  0  0  0  0  0  0  0  0
    4.5270   -0.7318    1.0780 C   0  0  0  0  0  0  0  0  0  0  0  0
    2.4276   -0.4393   -0.9994 H   0  0  0  0  0  0  0  0  0  0  0  0
    3.7264    1.2713    0.9870 H   0  0  0  0  0  0  0  0  0  0  0  0
    4.6524   -1.6115    0.4362 H   0  0  0  0  0  0  0  0  0  0  0  0
    5.5208   -0.4337    1.4281 H   0  0  0  0  0  0  0  0  0  0  0  0
    3.9362   -1.0370    1.9484 H   0  0  0  0  0  0  0  0  0  0  0  0
    5.5722    1.7919   -0.6253 N   0  0  0  0  0  0  0  0  0  0  0  0
    6.4808    2.3101   -1.6213 C   0  0  0  0  0  0  0  0  0  0  0  0
    5.6001    2.2049    0.3023 H   0  0  0  0  0  0  0  0  0  0  0  0
    7.4246    1.7462   -1.5862 H   0  0  0  0  0  0  0  0  0  0  0  0
    6.0289    2.2067   -2.6188 H   0  0  0  0  0  0  0  0  0  0  0  0
    6.6808    3.3725   -1.4177 H   0  0  0  0  0  0  0  0  0  0  0  0
  1  3  1  0  0  0  0
  1  7  1  0  0  0  0
  1  2  2  0  0  0  0
 42 43  1  0  0  0  0
 43 51  1  0  0  0  0
 43 44  2  0  0  0  0
  8  9  1  0  0  0  0
  9 17  1  0  0  0  0
  9 10  2  0  0  0  0
 18 19  1  0  0  0  0
 19 41  1  0  0  0  0
 19 20  2  0  0  0  0
 25 26  1  0  0  0  0
 25 27  1  0  0  0  0
 24 25  2  0  0  0  0
 42 45  1  0  0  0  0
  8 11  1  0  0  0  0
 51 52  1  0  0  0  0
 21 22  1  0  0  0  0
 22 23  1  0  0  0  0
 18 21  1  0  0  0  0
 23 24  1  0  0  0  0
 41 42  1  0  0  0  0
  7  8  1  0  0  0  0
 17 18  1  0  0  0  0
  3  4  1  0  0  0  0
  3  5  1  0  0  0  0
  3  6  1  0  0  0  0
 45 48  1  0  0  0  0
 45 49  1  0  0  0  0
 45 50  1  0  0  0  0
 11 14  1  0  0  0  0
 11 15  1  0  0  0  0
 11 16  1  0  0  0  0
 52 54  1  0  0  0  0
 52 55  1  0  0  0  0
 52 56  1  0  0  0  0
 22 32  1  0  0  0  0
 22 33  1  0  0  0  0
 21 30  1  0  0  0  0
 21 31  1  0  0  0  0
 23 34  1  0  0  0  0
 23 35  1  0  0  0  0
 42 47  1  0  0  0  0
  8 13  1  0  0  0  0
 18 29  1  0  0  0  0
 26 37  1  0  0  0  0
 26 38  1  0  0  0  0
 27 39  1  0  0  0  0
 27 40  1  0  0  0  0
 51 53  1  0  0  0  0
  7 12  1  0  0  0  0
 41 46  1  0  0  0  0
 17 28  1  0  0  0  0
 24 36  1  0  0  0  0
M  CHG  1  24   1
M  END
$$$$

  -OEChem-05262214473D

 56 55  0     1  0  0  0  0  0999 V2000
    0.7735   -5.8042   -2.0022 C   0  0  0  0  0  0  0  0  0  0  0  0
   -0.2086   -6.3825   -1.5519 O   0  0  0  0  0  0  0  0  0  0  0  0
    1.4751   -6.3646   -3.1946 C   0  0  0  0  0  0  0  0  0  0  0  0
    2.2765   -7.0687   -2.9186 H   0  0  0  0  0  0  0  0  0  0  0  0
    0.7988   -6.9360   -3.8504 H   0  0  0  0  0  0  0  0  0  0  0  0
    1.9556   -5.6216   -3.8511 H   0  0  0  0  0  0  0  0  0  0  0  0
    1.3322   -4.6359   -1.5106 N   0  0  0  0  0  0  0  0  0  0  0  0
    0.8124   -3.9290   -0.3698 C   0  0  2  0  0  0  0  0  0  0  0  0
    1.0666   -2.4424   -0.5818 C   0  0  0  0  0  0  0  0  0  0  0  0
    2.0598   -2.0076   -1.1610 O   0  0  0  0  0  0  0  0  0  0  0  0
    1.4560   -4.4118    0.9207 C   0  0  0  0  0  0  0  0  0  0  0  0
    2.1528   -4.2578   -1.9805 H   0  0  0  0  0  0  0  0  0  0  0  0
   -0.2667   -4.1160   -0.3467 H   0  0  0  0  0  0  0  0  0  0  0  0
    2.5374   -4.2329    0.9160 H   0  0  0  0  0  0  0  0  0  0  0  0
    1.0390   -3.8932    1.7903 H   0  0  0  0  0  0  0  0  0  0  0  0
    1.2976   -5.4871    1.0566 H   0  0  0  0  0  0  0  0  0  0  0  0
    0.0755   -1.6529   -0.0105 N   0  0  0  0  0  0  0  0  0  0  0  0
    0.1113   -0.2132   -0.0391 C   0  0  2  0  0  0  0  0  0  0  0  0
    1.3840    0.2278    0.6760 C   0  0  0  0  0  0  0  0  0  0  0  0
    1.4201    0.4898    1.8765 O   0  0  0  0  0  0  0  0  0  0  0  0
   -1.1203    0.4069    0.6286 C   0  0  0  0  0  0  0  0  0  0  0  0
   -2.4102    0.1296   -0.1528 C   0  0  0  0  0  0  0  0  0  0  0  0
   -3.6327    0.7491    0.5163 C   0  0  0  0  0  0  0  0  0  0  0  0
   -4.8628    0.4629   -0.2186 N   0  3  0  0  0  0  0  0  0  0  0  0
   -6.1174    0.8741    0.2351 C   0  0  0  0  0  0  0  0  0  0  0  0
   -7.2461    0.5659   -0.5169 N   0  0  0  0  0  0  0  0  0  0  0  0
   -6.2663    1.5854    1.4213 N   0  0  0  0  0  0  0  0  0  0  0  0
   -0.7323   -2.1024    0.4149 H   0  0  0  0  0  0  0  0  0  0  0  0
    0.1728    0.0820   -1.0928 H   0  0  0  0  0  0  0  0  0  0  0  0
   -0.9785    1.4904    0.7215 H   0  0  0  0  0  0  0  0  0  0  0  0
   -1.2233    0.0195    1.6508 H   0  0  0  0  0  0  0  0  0  0  0  0
   -2.3133    0.5205   -1.1727 H   0  0  0  0  0  0  0  0  0  0  0  0
   -2.5682   -0.9523   -0.2300 H   0  0  0  0  0  0  0  0  0  0  0  0
   -3.7514    0.3347    1.5222 H   0  0  0  0  0  0  0  0  0  0  0  0
   -3.5278    1.8356    0.5933 H   0  0  0  0  0  0  0  0  0  0  0  0
   -4.8166   -0.0547   -1.0946 H   0  0  0  0  0  0  0  0  0  0  0  0
   -8.1746    0.8510   -0.2145 H   0  0  0  0  0  0  0  0  0  0  0  0
   -7.1730    0.0471   -1.3887 H   0  0  0  0  0  0  0  0  0  0  0  0
   -7.1776    1.8872    1.7561 H   0  0  0  0  0  0  0  0  0  0  0  0
   -5.4588    1.8246    1.9920 H   0  0  0  0  0  0  0  0  0  0  0  0
    2.4596    0.3407   -0.1938 N   0  0  0  0  0  0  0  0  0  0  0  0
    3.7673    0.7885    0.2268 C   0  0  2  0  0  0  0  0  0  0  0  0
    4.4040    1.5387   -0.9356 C   0  0  0  0  0  0  0  0  0  0  0  0
    4.2189    1.2344   -2.1122 O   0  0  0  0  0  0  0  0  0  0  0  0
    4.6385   -0.3795    0.6623 C   0  0  0  0  0  0  0  0  0  0  0  0
    2.3446    0.0709   -1.1662 H   0  0  0  0  0  0  0  0  0  0  0  0
    3.6115    1.4766    1.0649 H   0  0  0  0  0  0  0  0  0  0  0  0
    4.8056   -1.0798   -0.1642 H   0  0  0  0  0  0  0  0  0  0  0  0
    5.6191   -0.0359    1.0077 H   0  0  0  0  0  0  0  0  0  0  0  0
    4.1651   -0.9357    1.4786 H   0  0  0  0  0  0  0  0  0  0  0  0
    5.2372    2.5609   -0.5033 N   0  0  0  0  0  0  0  0  0  0  0  0
    5.9899    3.3912   -1.4143 C   0  0  0  0  0  0  0  0  0  0  0  0
    5.2999    2.7686    0.4891 H   0  0  0  0  0  0  0  0  0  0  0  0
    6.9908    2.9598   -1.5627 H   0  0  0  0  0  0  0  0  0  0  0  0
    5.4664    3.4434   -2.3804 H   0  0  0  0  0  0  0  0  0  0  0  0
    6.0855    4.4033   -0.9941 H   0  0  0  0  0  0  0  0  0  0  0  0
  1  3  1  0  0  0  0
  1  7  1  0  0  0  0
  1  2  2  0  0  0  0
 42 43  1  0  0  0  0
 43 51  1  0  0  0  0
 43 44  2  0  0  0  0
  8  9  1  0  0  0  0
  9 17  1  0  0  0  0
  9 10  2  0  0  0  0
 18 19  1  0  0  0  0
 19 41  1  0  0  0  0
 19 20  2  0  0  0  0
 25 26  1  0  0  0  0
 25 27  1  0  0  0  0
 24 25  2  0  0  0  0
 42 45  1  0  0  0  0
  8 11  1  0  0  0  0
 51 52  1  0  0  0  0
 21 22  1  0  0  0  0
 22 23  1  0  0  0  0
 18 21  1  0  0  0  0
 23 24  1  0  0  0  0
 41 42  1  0  0  0  0
  7  8  1  0  0  0  0
 17 18  1  0  0  0  0
  3  4  1  0  0  0  0
  3  5  1  0  0  0  0
  3  6  1  0  0  0  0
 45 48  1  0  0  0  0
 45 49  1  0  0  0  0
 45 50  1  0  0  0  0
 11 14  1  0  0  0  0
 11 15  1  0  0  0  0
 11 16  1  0  0  0  0
 52 54  1  0  0  0  0
 52 55  1  0  0  0  0
 52 56  1  0  0  0  0
 22 32  1  0  0  0  0
 22 33  1  0  0  0  0
 21 30  1  0  0  0  0
 21 31  1  0  0  0  0
 23 34  1  0  0  0  0
 23 35  1  0  0  0  0
 42 47  1  0  0  0  0
  8 13  1  0  0  0  0
 18 29  1  0  0  0  0
 26 37  1  0  0  0  0
 26 38  1  0  0  0  0
 27 39  1  0  0  0  0
 27 40  1  0  0  0  0
 51 53  1  0  0  0  0
  7 12  1  0  0  0  0
 41 46  1  0  0  0  0
 17 28  1  0  0  0  0
 24 36  1  0  0  0  0
M  CHG  1  24   1
M  END
$$$$

  -OEChem-05262214473D

 56 55  0     1  0  0  0  0  0999 V2000
    0.7735   -5.8042   -2.0022 C   0  0  0  0  0  0  0  0  0  0  0  0
   -0.2086   -6.3825   -1.5519 O   0  0  0  0  0  0  0  0  0  0  0  0
    1.4751   -6.3646   -3.1946 C   0  0  0  0  0  0  0  0  0  0  0  0
    2.2765   -7.0687   -2.9186 H   0  0  0  0  0  0  0  0  0  0  0  0
    0.7988   -6.9360   -3.8504 H   0  0  0  0  0  0  0  0  0  0  0  0
    1.9556   -5.6216   -3.8511 H   0  0  0  0  0  0  0  0  0  0  0  0
    1.3322   -4.6359   -1.5106 N   0  0  0  0  0  0  0  0  0  0  0  0
    0.8124   -3.9290   -0.3698 C   0  0  2  0  0  0  0  0  0  0  0  0
    1.0666   -2.4424   -0.5818 C   0  0  0  0  0  0  0  0  0  0  0  0
    2.0598   -2.0076   -1.1610 O   0  0  0  0  0  0  0  0  0  0  0  0
    1.4560   -4.4118    0.9207 C   0  0  0  0  0  0  0  0  0  0  0  0
    2.1528   -4.2578   -1.9805 H   0  0  0  0  0  0  0  0  0  0  0  0
   -0.2667   -4.1160   -0.3467 H   0  0  0  0  0  0  0  0  0  0  0  0
    2.5374   -4.2329    0.9160 H   0  0  0  0  0  0  0  0  0  0  0  0
    1.0390   -3.8932    1.7903 H   0  0  0  0  0  0  0  0  0  0  0  0
    1.2976   -5.4871    1.0566 H   0  0  0  0  0  0  0  0  0  0  0  0
    0.0755   -1.6529   -0.0105 N   0  0  0  0  0  0  0  0  0  0  0  0
    0.1113   -0.2132   -0.0391 C   0  0  2  0  0  0  0  0  0  0  0  0
    1.3840    0.2278    0.6760 C   0  0  0  0  0  0  0  0  0  0  0  0
    1.4959    0.2326    1.9002 O   0  0  0  0  0  0  0  0  0  0  0  0
   -1.1203    0.4069    0.6286 C   0  0  0  0  0  0  0  0  0  0  0  0
   -2.4102    0.1296   -0.1528 C   0  0  0  0  0  0  0  0  0  0  0  0
   -3.6327    0.7491    0.5163 C   0  0  0  0  0  0  0  0  0  0  0  0
   -4.8628    0.4629   -0.2186 N   0  3  0  0  0  0  0  0  0  0  0  0
   -6.1174    0.8741    0.2351 C   0  0  0  0  0  0  0  0  0  0  0  0
   -7.2461    0.5659   -0.5169 N   0  0  0  0  0  0  0  0  0  0  0  0
   -6.2663    1.5854    1.4213 N   0  0  0  0  0  0  0  0  0  0  0  0
   -0.7323   -2.1024    0.4149 H   0  0  0  0  0  0  0  0  0  0  0  0
    0.1728    0.0820   -1.0928 H   0  0  0  0  0  0  0  0  0  0  0  0
   -0.9785    1.4904    0.7215 H   0  0  0  0  0  0  0  0  0  0  0  0
   -1.2233    0.0195    1.6508 H   0  0  0  0  0  0  0  0  0  0  0  0
   -2.3133    0.5205   -1.1727 H   0  0  0  0  0  0  0  0  0  0  0  0
   -2.5682   -0.9523   -0.2300 H   0  0  0  0  0  0  0  0  0  0  0  0
   -3.7514    0.3347    1.5222 H   0  0  0  0  0  0  0  0  0  0  0  0
   -3.5278    1.8356    0.5933 H   0  0  0  0  0  0  0  0  0  0  0  0
   -4.8166   -0.0547   -1.0946 H   0  0  0  0  0  0  0  0  0  0  0  0
   -8.1746    0.8510   -0.2145 H   0  0  0  0  0  0  0  0  0  0  0  0
   -7.1730    0.0471   -1.3887 H   0  0  0  0  0  0  0  0  0  0  0  0
   -7.1776    1.8872    1.7561 H   0  0  0  0  0  0  0  0  0  0  0  0
   -5.4588    1.8246    1.9920 H   0  0  0  0  0  0  0  0  0  0  0  0
    2.3590    0.6604   -0.2119 N   0  0  0  0  0  0  0  0  0  0  0  0
    3.6396    1.1748    0.2159 C   0  0  2  0  0  0  0  0  0  0  0  0
    4.0823    2.2298   -0.7893 C   0  0  0  0  0  0  0  0  0  0  0  0
    3.8298    2.1597   -1.9903 O   0  0  0  0  0  0  0  0  0  0  0  0
    4.6723    0.0642    0.3285 C   0  0  0  0  0  0  0  0  0  0  0  0
    2.1899    0.5897   -1.2110 H   0  0  0  0  0  0  0  0  0  0  0  0
    3.4815    1.6441    1.1930 H   0  0  0  0  0  0  0  0  0  0  0  0
    4.8440   -0.4179   -0.6408 H   0  0  0  0  0  0  0  0  0  0  0  0
    5.6344    0.4511    0.6802 H   0  0  0  0  0  0  0  0  0  0  0  0
    4.3387   -0.7086    1.0295 H   0  0  0  0  0  0  0  0  0  0  0  0
    4.8293    3.2367   -0.1942 N   0  0  0  0  0  0  0  0  0  0  0  0
    5.3999    4.3312   -0.9442 C   0  0  0  0  0  0  0  0  0  0  0  0
    4.9554    3.2362    0.8137 H   0  0  0  0  0  0  0  0  0  0  0  0
    6.4263    4.0744   -1.2453 H   0  0  0  0  0  0  0  0  0  0  0  0
    4.7908    4.5181   -1.8409 H   0  0  0  0  0  0  0  0  0  0  0  0
    5.4171    5.2352   -0.3177 H   0  0  0  0  0  0  0  0  0  0  0  0
  1  3  1  0  0  0  0
  1  7  1  0  0  0  0
  1  2  2  0  0  0  0
 42 43  1  0  0  0  0
 43 51  1  0  0  0  0
 43 44  2  0  0  0  0
  8  9  1  0  0  0  0
  9 17  1  0  0  0  0
  9 10  2  0  0  0  0
 18 19  1  0  0  0  0
 19 41  1  0  0  0  0
 19 20  2  0  0  0  0
 25 26  1  0  0  0  0
 25 27  1  0  0  0  0
 24 25  2  0  0  0  0
 42 45  1  0  0  0  0
  8 11  1  0  0  0  0
 51 52  1  0  0  0  0
 21 22  1  0  0  0  0
 22 23  1  0  0  0  0
 18 21  1  0  0  0  0
 23 24  1  0  0  0  0
 41 42  1  0  0  0  0
  7  8  1  0  0  0  0
 17 18  1  0  0  0  0
  3  4  1  0  0  0  0
  3  5  1  0  0  0  0
  3  6  1  0  0  0  0
 45 48  1  0  0  0  0
 45 49  1  0  0  0  0
 45 50  1  0  0  0  0
 11 14  1  0  0  0  0
 11 15  1  0  0  0  0
 11 16  1  0  0  0  0
 52 54  1  0  0  0  0
 52 55  1  0  0  0  0
 52 56  1  0  0  0  0
 22 32  1  0  0  0  0
 22 33  1  0  0  0  0
 21 30  1  0  0  0  0
 21 31  1  0  0  0  0
 23 34  1  0  0  0  0
 23 35  1  0  0  0  0
 42 47  1  0  0  0  0
  8 13  1  0  0  0  0
 18 29  1  0  0  0  0
 26 37  1  0  0  0  0
 26 38  1  0  0  0  0
 27 39  1  0  0  0  0
 27 40  1  0  0  0  0
 51 53  1  0  0  0  0
  7 12  1  0  0  0  0
 41 46  1  0  0  0  0
 17 28  1  0  0  0  0
 24 36  1  0  0  0  0
M  CHG  1  24   1
M  END
$$$$

  -OEChem-05262214473D

 56 55  0     1  0  0  0  0  0999 V2000
    0.7735   -5.8042   -2.0022 C   0  0  0  0  0  0  0  0  0  0  0  0
   -0.2086   -6.3825   -1.5519 O   0  0  0  0  0  0  0  0  0  0  0  0
    1.4751   -6.3646   -3.1946 C   0  0  0  0  0  0  0  0  0  0  0  0
    2.2765   -7.0687   -2.9186 H   0  0  0  0  0  0  0  0  0  0  0  0
    0.7988   -6.9360   -3.8504 H   0  0  0  0  0  0  0  0  0  0  0  0
    1.9556   -5.6216   -3.8511 H   0  0  0  0  0  0  0  0  0  0  0  0
    1.3322   -4.6359   -1.5106 N   0  0  0  0  0  0  0  0  0  0  0  0
    0.8124   -3.9290   -0.3698 C   0  0  2  0  0  0  0  0  0  0  0  0
    1.0666   -2.4424   -0.5818 C   0  0  0  0  0  0  0  0  0  0  0  0
    2.0598   -2.0076   -1.1610 O   0  0  0  0  0  0  0  0  0  0  0  0
    1.4560   -4.4118    0.9207 C   0  0  0  0  0  0  0  0  0  0  0  0
    2.1528   -4.2578   -1.9805 H   0  0  0  0  0  0  0  0  0  0  0  0
   -0.2667   -4.1160   -0.3467 H   0  0  0  0  0  0  0  0  0  0  0  0
    2.5374   -4.2329    0.9160 H   0  0  0  0  0  0  0  0  0  0  0  0
    1.0390   -3.8932    1.7903 H   0  0  0  0  0  0  0  0  0  0  0  0
    1.2976   -5.4871    1.0566 H   0  0  0  0  0  0  0  0  0  0  0  0
    0.0755   -1.6529   -0.0105 N   0  0  0  0  0  0  0  0  0  0  0  0
    0.1113   -0.2132   -0.0391 C   0  0  2  0  0  0  0  0  0  0  0  0
    1.3840    0.2278    0.6760 C   0  0  0  0  0  0  0  0  0  0  0  0
    1.6021   -0.0119    1.8618 O   0  0  0  0  0  0  0  0  0  0  0  0
   -1.1203    0.4069    0.6286 C   0  0  0  0  0  0  0  0  0  0  0  0
   -2.4102    0.1296   -0.1528 C   0  0  0  0  0  0  0  0  0  0  0  0
   -3.6327    0.7491    0.5163 C   0  0  0  0  0  0  0  0  0  0  0  0
   -4.8628    0.4629   -0.2186 N   0  3  0  0  0  0  0  0  0  0  0  0
   -6.1174    0.8741    0.2351 C   0  0  0  0  0  0  0  0  0  0  0  0
   -7.2461    0.5659   -0.5169 N   0  0  0  0  0  0  0  0  0  0  0  0
   -6.2663    1.5854    1.4213 N   0  0  0  0  0  0  0  0  0  0  0  0
   -0.7323   -2.1024    0.4149 H   0  0  0  0  0  0  0  0  0  0  0  0
    0.1728    0.0820   -1.0928 H   0  0  0  0  0  0  0  0  0  0  0  0
   -0.9785    1.4904    0.7215 H   0  0  0  0  0  0  0  0  0  0  0  0
   -1.2233    0.0195    1.6508 H   0  0  0  0  0  0  0  0  0  0  0  0
   -2.3133    0.5205   -1.1727 H   0  0  0  0  0  0  0  0  0  0  0  0
   -2.5682   -0.9523   -0.2300 H   0  0  0  0  0  0  0  0  0  0  0  0
   -3.7514    0.3347    1.5222 H   0  0  0  0  0  0  0  0  0  0  0  0
   -3.5278    1.8356    0.5933 H   0  0  0  0  0  0  0  0  0  0  0  0
   -4.8166   -0.0547   -1.0946 H   0  0  0  0  0  0  0  0  0  0  0  0
   -8.1746    0.8510   -0.2145 H   0  0  0  0  0  0  0  0  0  0  0  0
   -7.1730    0.0471   -1.3887 H   0  0  0  0  0  0  0  0  0  0  0  0
   -7.1776    1.8872    1.7561 H   0  0  0  0  0  0  0  0  0  0  0  0
   -5.4588    1.8246    1.9920 H   0  0  0  0  0  0  0  0  0  0  0  0
    2.2217    0.9610   -0.1528 N   0  0  0  0  0  0  0  0  0  0  0  0
    3.4685    1.5348    0.2983 C   0  0  2  0  0  0  0  0  0  0  0  0
    3.6986    2.8267   -0.4747 C   0  0  0  0  0  0  0  0  0  0  0  0
    3.3508    2.9800   -1.6437 O   0  0  0  0  0  0  0  0  0  0  0  0
    4.6262    0.5689    0.0994 C   0  0  0  0  0  0  0  0  0  0  0  0
    1.9742    1.0817   -1.1305 H   0  0  0  0  0  0  0  0  0  0  0  0
    3.3451    1.7624    1.3627 H   0  0  0  0  0  0  0  0  0  0  0  0
    4.7652    0.3290   -0.9611 H   0  0  0  0  0  0  0  0  0  0  0  0
    5.5655    0.9941    0.4679 H   0  0  0  0  0  0  0  0  0  0  0  0
    4.4453   -0.3711    0.6318 H   0  0  0  0  0  0  0  0  0  0  0  0
    4.3765    3.7732    0.2808 N   0  0  0  0  0  0  0  0  0  0  0  0
    4.7512    5.0660   -0.2429 C   0  0  0  0  0  0  0  0  0  0  0  0
    4.5901    3.5761    1.2541 H   0  0  0  0  0  0  0  0  0  0  0  0
    5.7694    5.0139   -0.6558 H   0  0  0  0  0  0  0  0  0  0  0  0
    4.0481    5.3576   -1.0370 H   0  0  0  0  0  0  0  0  0  0  0  0
    4.7212    5.8116    0.5654 H   0  0  0  0  0  0  0  0  0  0  0  0
  1  3  1  0  0  0  0
  1  7  1  0  0  0  0
  1  2  2  0  0  0  0
 42 43  1  0  0  0  0
 43 51  1  0  0  0  0
 43 44  2  0  0  0  0
  8  9  1  0  0  0  0
  9 17  1  0  0  0  0
  9 10  2  0  0  0  0
 18 19  1  0  0  0  0
 19 41  1  0  0  0  0
 19 20  2  0  0  0  0
 25 26  1  0  0  0  0
 25 27  1  0  0  0  0
 24 25  2  0  0  0  0
 42 45  1  0  0  0  0
  8 11  1  0  0  0  0
 51 52  1  0  0  0  0
 21 22  1  0  0  0  0
 22 23  1  0  0  0  0
 18 21  1  0  0  0  0
 23 24  1  0  0  0  0
 41 42  1  0  0  0  0
  7  8  1  0  0  0  0
 17 18  1  0  0  0  0
  3  4  1  0  0  0  0
  3  5  1  0  0  0  0
  3  6  1  0  0  0  0
 45 48  1  0  0  0  0
 45 49  1  0  0  0  0
 45 50  1  0  0  0  0
 11 14  1  0  0  0  0
 11 15  1  0  0  0  0
 11 16  1  0  0  0  0
 52 54  1  0  0  0  0
 52 55  1  0  0  0  0
 52 56  1  0  0  0  0
 22 32  1  0  0  0  0
 22 33  1  0  0  0  0
 21 30  1  0  0  0  0
 21 31  1  0  0  0  0
 23 34  1  0  0  0  0
 23 35  1  0  0  0  0
 42 47  1  0  0  0  0
  8 13  1  0  0  0  0
 18 29  1  0  0  0  0
 26 37  1  0  0  0  0
 26 38  1  0  0  0  0
 27 39  1  0  0  0  0
 27 40  1  0  0  0  0
 51 53  1  0  0  0  0
  7 12  1  0  0  0  0
 41 46  1  0  0  0  0
 17 28  1  0  0  0  0
 24 36  1  0  0  0  0
M  CHG  1  24   1
M  END
$$$$

  -OEChem-05262214473D

 56 55  0     1  0  0  0  0  0999 V2000
    0.7735   -5.8042   -2.0022 C   0  0  0  0  0  0  0  0  0  0  0  0
   -0.2086   -6.3825   -1.5519 O   0  0  0  0  0  0  0  0  0  0  0  0
    1.4751   -6.3646   -3.1946 C   0  0  0  0  0  0  0  0  0  0  0  0
    2.2765   -7.0687   -2.9186 H   0  0  0  0  0  0  0  0  0  0  0  0
    0.7988   -6.9360   -3.8504 H   0  0  0  0  0  0  0  0  0  0  0  0
    1.9556   -5.6216   -3.8511 H   0  0  0  0  0  0  0  0  0  0  0  0
    1.3322   -4.6359   -1.5106 N   0  0  0  0  0  0  0  0  0  0  0  0
    0.8124   -3.9290   -0.3698 C   0  0  2  0  0  0  0  0  0  0  0  0
    1.0666   -2.4424   -0.5818 C   0  0  0  0  0  0  0  0  0  0  0  0
    2.0598   -2.0076   -1.1610 O   0  0  0  0  0  0  0  0  0  0  0  0
    1.4560   -4.4118    0.9207 C   0  0  0  0  0  0  0  0  0  0  0  0
    2.1528   -4.2578   -1.9805 H   0  0  0  0  0  0  0  0  0  0  0  0
   -0.2667   -4.1160   -0.3467 H   0  0  0  0  0  0  0  0  0  0  0  0
    2.5374   -4.2329    0.9160 H   0  0  0  0  0  0  0  0  0  0  0  0
    1.0390   -3.8932    1.7903 H   0  0  0  0  0  0  0  0  0  0  0  0
    1.2976   -5.4871    1.0566 H   0  0  0  0  0  0  0  0  0  0  0  0
    0.0755   -1.6529   -0.0105 N   0  0  0  0  0  0  0  0  0  0  0  0
    0.1113   -0.2132   -0.0391 C   0  0  2  0  0  0  0  0  0  0  0  0
    1.3840    0.2278    0.6760 C   0  0  0  0  0  0  0  0  0  0  0  0
    1.7316   -0.2268    1.7640 O   0  0  0  0  0  0  0  0  0  0  0  0
   -1.1203    0.4069    0.6286 C   0  0  0  0  0  0  0  0  0  0  0  0
   -2.4102    0.1296   -0.1528 C   0  0  0  0  0  0  0  0  0  0  0  0
   -3.6327    0.7491    0.5163 C   0  0  0  0  0  0  0  0  0  0  0  0
   -4.8628    0.4629   -0.2186 N   0  3  0  0  0  0  0  0  0  0  0  0
   -6.1174    0.8741    0.2351 C   0  0  0  0  0  0  0  0  0  0  0  0
   -7.2461    0.5659   -0.5169 N   0  0  0  0  0  0  0  0  0  0  0  0
   -6.2663    1.5854    1.4213 N   0  0  0  0  0  0  0  0  0  0  0  0
   -0.7323   -2.1024    0.4149 H   0  0  0  0  0  0  0  0  0  0  0  0
    0.1728    0.0820   -1.0928 H   0  0  0  0  0  0  0  0  0  0  0  0
   -0.9785    1.4904    0.7215 H   0  0  0  0  0  0  0  0  0  0  0  0
   -1.2233    0.0195    1.6508 H   0  0  0  0  0  0  0  0  0  0  0  0
   -2.3133    0.5205   -1.1727 H   0  0  0  0  0  0  0  0  0  0  0  0
   -2.5682   -0.9523   -0.2300 H   0  0  0  0  0  0  0  0  0  0  0  0
   -3.7514    0.3347    1.5222 H   0  0  0  0  0  0  0  0  0  0  0  0
   -3.5278    1.8356    0.5933 H   0  0  0  0  0  0  0  0  0  0  0  0
   -4.8166   -0.0547   -1.0946 H   0  0  0  0  0  0  0  0  0  0  0  0
   -8.1746    0.8510   -0.2145 H   0  0  0  0  0  0  0  0  0  0  0  0
   -7.1730    0.0471   -1.3887 H   0  0  0  0  0  0  0  0  0  0  0  0
   -7.1776    1.8872    1.7561 H   0  0  0  0  0  0  0  0  0  0  0  0
   -5.4588    1.8246    1.9920 H   0  0  0  0  0  0  0  0  0  0  0  0
    2.0570    1.2218   -0.0206 N   0  0  0  0  0  0  0  0  0  0  0  0
    3.2658    1.8440    0.4685 C   0  0  2  0  0  0  0  0  0  0  0  0
    3.2791    3.2888   -0.0131 C   0  0  0  0  0  0  0  0  0  0  0  0
    2.8145    3.6393   -1.0958 O   0  0  0  0  0  0  0  0  0  0  0  0
    4.5032    1.1003   -0.0095 C   0  0  0  0  0  0  0  0  0  0  0  0
    1.7122    1.5134   -0.9304 H   0  0  0  0  0  0  0  0  0  0  0  0
    3.2118    1.8235    1.5624 H   0  0  0  0  0  0  0  0  0  0  0  0
    4.5744    1.1101   -1.1032 H   0  0  0  0  0  0  0  0  0  0  0  0
    5.4172    1.5561    0.3853 H   0  0  0  0  0  0  0  0  0  0  0  0
    4.4775    0.0537    0.3125 H   0  0  0  0  0  0  0  0  0  0  0  0
    3.9095    4.1339    0.8894 N   0  0  0  0  0  0  0  0  0  0  0  0
    4.0879    5.5456    0.6418 C   0  0  0  0  0  0  0  0  0  0  0  0
    4.2291    3.7648    1.7802 H   0  0  0  0  0  0  0  0  0  0  0  0
    5.0651    5.7143    0.1658 H   0  0  0  0  0  0  0  0  0  0  0  0
    3.2891    5.9048   -0.0236 H   0  0  0  0  0  0  0  0  0  0  0  0
    4.0451    6.0931    1.5949 H   0  0  0  0  0  0  0  0  0  0  0  0
  1  3  1  0  0  0  0
  1  7  1  0  0  0  0
  1  2  2  0  0  0  0
 42 43  1  0  0  0  0
 43 51  1  0  0  0  0
 43 44  2  0  0  0  0
  8  9  1  0  0  0  0
  9 17  1  0  0  0  0
  9 10  2  0  0  0  0
 18 19  1  0  0  0  0
 19 41  1  0  0  0  0
 19 20  2  0  0  0  0
 25 26  1  0  0  0  0
 25 27  1  0  0  0  0
 24 25  2  0  0  0  0
 42 45  1  0  0  0  0
  8 11  1  0  0  0  0
 51 52  1  0  0  0  0
 21 22  1  0  0  0  0
 22 23  1  0  0  0  0
 18 21  1  0  0  0  0
 23 24  1  0  0  0  0
 41 42  1  0  0  0  0
  7  8  1  0  0  0  0
 17 18  1  0  0  0  0
  3  4  1  0  0  0  0
  3  5  1  0  0  0  0
  3  6  1  0  0  0  0
 45 48  1  0  0  0  0
 45 49  1  0  0  0  0
 45 50  1  0  0  0  0
 11 14  1  0  0  0  0
 11 15  1  0  0  0  0
 11 16  1  0  0  0  0
 52 54  1  0  0  0  0
 52 55  1  0  0  0  0
 52 56  1  0  0  0  0
 22 32  1  0  0  0  0
 22 33  1  0  0  0  0
 21 30  1  0  0  0  0
 21 31  1  0  0  0  0
 23 34  1  0  0  0  0
 23 35  1  0  0  0  0
 42 47  1  0  0  0  0
  8 13  1  0  0  0  0
 18 29  1  0  0  0  0
 26 37  1  0  0  0  0
 26 38  1  0  0  0  0
 27 39  1  0  0  0  0
 27 40  1  0  0  0  0
 51 53  1  0  0  0  0
  7 12  1  0  0  0  0
 41 46  1  0  0  0  0
 17 28  1  0  0  0  0
 24 36  1  0  0  0  0
M  CHG  1  24   1
M  END
$$$$

  -OEChem-05262214473D

 56 55  0     1  0  0  0  0  0999 V2000
    0.7735   -5.8042   -2.0022 C   0  0  0  0  0  0  0  0  0  0  0  0
   -0.2086   -6.3825   -1.5519 O   0  0  0  0  0  0  0  0  0  0  0  0
    1.4751   -6.3646   -3.1946 C   0  0  0  0  0  0  0  0  0  0  0  0
    2.2765   -7.0687   -2.9186 H   0  0  0  0  0  0  0  0  0  0  0  0
    0.7988   -6.9360   -3.8504 H   0  0  0  0  0  0  0  0  0  0  0  0
    1.9556   -5.6216   -3.8511 H   0  0  0  0  0  0  0  0  0  0  0  0
    1.3322   -4.6359   -1.5106 N   0  0  0  0  0  0  0  0  0  0  0  0
    0.8124   -3.9290   -0.3698 C   0  0  2  0  0  0  0  0  0  0  0  0
    1.0666   -2.4424   -0.5818 C   0  0  0  0  0  0  0  0  0  0  0  0
    2.0598   -2.0076   -1.1610 O   0  0  0  0  0  0  0  0  0  0  0  0
    1.4560   -4.4118    0.9207 C   0  0  0  0  0  0  0  0  0  0  0  0
    2.1528   -4.2578   -1.9805 H   0  0  0  0  0  0  0  0  0  0  0  0
   -0.2667   -4.1160   -0.3467 H   0  0  0  0  0  0  0  0  0  0  0  0
    2.5374   -4.2329    0.9160 H   0  0  0  0  0  0  0  0  0  0  0  0
    1.0390   -3.8932    1.7903 H   0  0  0  0  0  0  0  0  0  0  0  0
    1.2976   -5.4871    1.0566 H   0  0  0  0  0  0  0  0  0  0  0  0
    0.0755   -1.6529   -0.0105 N   0  0  0  0  0  0  0  0  0  0  0  0
    0.1113   -0.2132   -0.0391 C   0  0  2  0  0  0  0  0  0  0  0  0
    1.3840    0.2278    0.6760 C   0  0  0  0  0  0  0  0  0  0  0  0
    1.8754   -0.3975    1.6135 O   0  0  0  0  0  0  0  0  0  0  0  0
   -1.1203    0.4069    0.6286 C   0  0  0  0  0  0  0  0  0  0  0  0
   -2.4102    0.1296   -0.1528 C   0  0  0  0  0  0  0  0  0  0  0  0
   -3.6327    0.7491    0.5163 C   0  0  0  0  0  0  0  0  0  0  0  0
   -4.8628    0.4629   -0.2186 N   0  3  0  0  0  0  0  0  0  0  0  0
   -6.1174    0.8741    0.2351 C   0  0  0  0  0  0  0  0  0  0  0  0
   -7.2461    0.5659   -0.5169 N   0  0  0  0  0  0  0  0  0  0  0  0
   -6.2663    1.5854    1.4213 N   0  0  0  0  0  0  0  0  0  0  0  0
   -0.7323   -2.1024    0.4149 H   0  0  0  0  0  0  0  0  0  0  0  0
    0.1728    0.0820   -1.0928 H   0  0  0  0  0  0  0  0  0  0  0  0
   -0.9785    1.4904    0.7215 H   0  0  0  0  0  0  0  0  0  0  0  0
   -1.2233    0.0195    1.6508 H   0  0  0  0  0  0  0  0  0  0  0  0
   -2.3133    0.5205   -1.1727 H   0  0  0  0  0  0  0  0  0  0  0  0
   -2.5682   -0.9523   -0.2300 H   0  0  0  0  0  0  0  0  0  0  0  0
   -3.7514    0.3347    1.5222 H   0  0  0  0  0  0  0  0  0  0  0  0
   -3.5278    1.8356    0.5933 H   0  0  0  0  0  0  0  0  0  0  0  0
   -4.8166   -0.0547   -1.0946 H   0  0  0  0  0  0  0  0  0  0  0  0
   -8.1746    0.8510   -0.2145 H   0  0  0  0  0  0  0  0  0  0  0  0
   -7.1730    0.0471   -1.3887 H   0  0  0  0  0  0  0  0  0  0  0  0
   -7.1776    1.8872    1.7561 H   0  0  0  0  0  0  0  0  0  0  0  0
   -5.4588    1.8246    1.9920 H   0  0  0  0  0  0  0  0  0  0  0  0
    1.8761    1.4253    0.1759 N   0  0  0  0  0  0  0  0  0  0  0  0
    3.0451    2.0813    0.7148 C   0  0  2  0  0  0  0  0  0  0  0  0
    2.8524    3.5845    0.5640 C   0  0  0  0  0  0  0  0  0  0  0  0
    2.2574    4.0927   -0.3841 O   0  0  0  0  0  0  0  0  0  0  0  0
    4.3118    1.6222    0.0094 C   0  0  0  0  0  0  0  0  0  0  0  0
    1.4217    1.8553   -0.6243 H   0  0  0  0  0  0  0  0  0  0  0  0
    3.0904    1.8232    1.7784 H   0  0  0  0  0  0  0  0  0  0  0  0
    4.2847    1.8721   -1.0575 H   0  0  0  0  0  0  0  0  0  0  0  0
    5.1996    2.0988    0.4380 H   0  0  0  0  0  0  0  0  0  0  0  0
    4.4332    0.5368    0.0935 H   0  0  0  0  0  0  0  0  0  0  0  0
    3.4602    4.2941    1.5902 N   0  0  0  0  0  0  0  0  0  0  0  0
    3.4552    5.7372    1.6496 C   0  0  0  0  0  0  0  0  0  0  0  0
    3.8968    3.7897    2.3562 H   0  0  0  0  0  0  0  0  0  0  0  0
    4.3612    6.1279    1.1633 H   0  0  0  0  0  0  0  0  0  0  0  0
    2.5653    6.1223    1.1302 H   0  0  0  0  0  0  0  0  0  0  0  0
    3.4349    6.0606    2.7008 H   0  0  0  0  0  0  0  0  0  0  0  0
  1  3  1  0  0  0  0
  1  7  1  0  0  0  0
  1  2  2  0  0  0  0
 42 43  1  0  0  0  0
 43 51  1  0  0  0  0
 43 44  2  0  0  0  0
  8  9  1  0  0  0  0
  9 17  1  0  0  0  0
  9 10  2  0  0  0  0
 18 19  1  0  0  0  0
 19 41  1  0  0  0  0
 19 20  2  0  0  0  0
 25 26  1  0  0  0  0
 25 27  1  0  0  0  0
 24 25  2  0  0  0  0
 42 45  1  0  0  0  0
  8 11  1  0  0  0  0
 51 52  1  0  0  0  0
 21 22  1  0  0  0  0
 22 23  1  0  0  0  0
 18 21  1  0  0  0  0
 23 24  1  0  0  0  0
 41 42  1  0  0  0  0
  7  8  1  0  0  0  0
 17 18  1  0  0  0  0
  3  4  1  0  0  0  0
  3  5  1  0  0  0  0
  3  6  1  0  0  0  0
 45 48  1  0  0  0  0
 45 49  1  0  0  0  0
 45 50  1  0  0  0  0
 11 14  1  0  0  0  0
 11 15  1  0  0  0  0
 11 16  1  0  0  0  0
 52 54  1  0  0  0  0
 52 55  1  0  0  0  0
 52 56  1  0  0  0  0
 22 32  1  0  0  0  0
 22 33  1  0  0  0  0
 21 30  1  0  0  0  0
 21 31  1  0  0  0  0
 23 34  1  0  0  0  0
 23 35  1  0  0  0  0
 42 47  1  0  0  0  0
  8 13  1  0  0  0  0
 18 29  1  0  0  0  0
 26 37  1  0  0  0  0
 26 38  1  0  0  0  0
 27 39  1  0  0  0  0
 27 40  1  0  0  0  0
 51 53  1  0  0  0  0
  7 12  1  0  0  0  0
 41 46  1  0  0  0  0
 17 28  1  0  0  0  0
 24 36  1  0  0  0  0
M  CHG  1  24   1
M  END
$$$$

  -OEChem-05262214473D

 56 55  0     1  0  0  0  0  0999 V2000
    0.7735   -5.8042   -2.0022 C   0  0  0  0  0  0  0  0  0  0  0  0
   -0.2086   -6.3825   -1.5519 O   0  0  0  0  0  0  0  0  0  0  0  0
    1.4751   -6.3646   -3.1946 C   0  0  0  0  0  0  0  0  0  0  0  0
    2.2765   -7.0687   -2.9186 H   0  0  0  0  0  0  0  0  0  0  0  0
    0.7988   -6.9360   -3.8504 H   0  0  0  0  0  0  0  0  0  0  0  0
    1.9556   -5.6216   -3.8511 H   0  0  0  0  0  0  0  0  0  0  0  0
    1.3322   -4.6359   -1.5106 N   0  0  0  0  0  0  0  0  0  0  0  0
    0.8124   -3.9290   -0.3698 C   0  0  2  0  0  0  0  0  0  0  0  0
    1.0666   -2.4424   -0.5818 C   0  0  0  0  0  0  0  0  0  0  0  0
    2.0598   -2.0076   -1.1610 O   0  0  0  0  0  0  0  0  0  0  0  0
    1.4560   -4.4118    0.9207 C   0  0  0  0  0  0  0  0  0  0  0  0
    2.1528   -4.2578   -1.9805 H   0  0  0  0  0  0  0  0  0  0  0  0
   -0.2667   -4.1160   -0.3467 H   0  0  0  0  0  0  0  0  0  0  0  0
    2.5374   -4.2329    0.9160 H   0  0  0  0  0  0  0  0  0  0  0  0
    1.0390   -3.8932    1.7903 H   0  0  0  0  0  0  0  0  0  0  0  0
    1.2976   -5.4871    1.0566 H   0  0  0  0  0  0  0  0  0  0  0  0
    0.0755   -1.6529   -0.0105 N   0  0  0  0  0  0  0  0  0  0  0  0
    0.1113   -0.2132   -0.0391 C   0  0  2  0  0  0  0  0  0  0  0  0
    1.3840    0.2278    0.6760 C   0  0  0  0  0  0  0  0  0  0  0  0
    2.0237   -0.5124    1.4204 O   0  0  0  0  0  0  0  0  0  0  0  0
   -1.1203    0.4069    0.6286 C   0  0  0  0  0  0  0  0  0  0  0  0
   -2.4102    0.1296   -0.1528 C   0  0  0  0  0  0  0  0  0  0  0  0
   -3.6327    0.7491    0.5163 C   0  0  0  0  0  0  0  0  0  0  0  0
   -4.8628    0.4629   -0.2186 N   0  3  0  0  0  0  0  0  0  0  0  0
   -6.1174    0.8741    0.2351 C   0  0  0  0  0  0  0  0  0  0  0  0
   -7.2461    0.5659   -0.5169 N   0  0  0  0  0  0  0  0  0  0  0  0
   -6.2663    1.5854    1.4213 N   0  0  0  0  0  0  0  0  0  0  0  0
   -0.7323   -2.1024    0.4149 H   0  0  0  0  0  0  0  0  0  0  0  0
    0.1728    0.0820   -1.0928 H   0  0  0  0  0  0  0  0  0  0  0  0
   -0.9785    1.4904    0.7215 H   0  0  0  0  0  0  0  0  0  0  0  0
   -1.2233    0.0195    1.6508 H   0  0  0  0  0  0  0  0  0  0  0  0
   -2.3133    0.5205   -1.1727 H   0  0  0  0  0  0  0  0  0  0  0  0
   -2.5682   -0.9523   -0.2300 H   0  0  0  0  0  0  0  0  0  0  0  0
   -3.7514    0.3347    1.5222 H   0  0  0  0  0  0  0  0  0  0  0  0
   -3.5278    1.8356    0.5933 H   0  0  0  0  0  0  0  0  0  0  0  0
   -4.8166   -0.0547   -1.0946 H   0  0  0  0  0  0  0  0  0  0  0  0
   -8.1746    0.8510   -0.2145 H   0  0  0  0  0  0  0  0  0  0  0  0
   -7.1730    0.0471   -1.3887 H   0  0  0  0  0  0  0  0  0  0  0  0
   -7.1776    1.8872    1.7561 H   0  0  0  0  0  0  0  0  0  0  0  0
   -5.4588    1.8246    1.9920 H   0  0  0  0  0  0  0  0  0  0  0  0
    1.6914    1.5574    0.4231 N   0  0  0  0  0  0  0  0  0  0  0  0
    2.8216    2.2305    1.0205 C   0  0  2  0  0  0  0  0  0  0  0  0
    2.4475    3.6936    1.2172 C   0  0  0  0  0  0  0  0  0  0  0  0
    1.7176    4.3092    0.4430 O   0  0  0  0  0  0  0  0  0  0  0  0
    4.0649    2.0990    0.1547 C   0  0  0  0  0  0  0  0  0  0  0  0
    1.1224    2.0842   -0.2330 H   0  0  0  0  0  0  0  0  0  0  0  0
    2.9895    1.7615    1.9962 H   0  0  0  0  0  0  0  0  0  0  0  0
    3.9157    2.5631   -0.8271 H   0  0  0  0  0  0  0  0  0  0  0  0
    4.9274    2.5851    0.6224 H   0  0  0  0  0  0  0  0  0  0  0  0
    4.3153    1.0455   -0.0104 H   0  0  0  0  0  0  0  0  0  0  0  0
    3.0592    4.2430    2.3352 N   0  0  0  0  0  0  0  0  0  0  0  0
    2.8962    5.6278    2.7118 C   0  0  0  0  0  0  0  0  0  0  0  0
    3.6159    3.6490    2.9428 H   0  0  0  0  0  0  0  0  0  0  0  0
    3.7058    6.2265    2.2689 H   0  0  0  0  0  0  0  0  0  0  0  0
    1.9261    5.9954    2.3459 H   0  0  0  0  0  0  0  0  0  0  0  0
    2.9322    5.7163    3.8076 H   0  0  0  0  0  0  0  0  0  0  0  0
  1  3  1  0  0  0  0
  1  7  1  0  0  0  0
  1  2  2  0  0  0  0
 42 43  1  0  0  0  0
 43 51  1  0  0  0  0
 43 44  2  0  0  0  0
  8  9  1  0  0  0  0
  9 17  1  0  0  0  0
  9 10  2  0  0  0  0
 18 19  1  0  0  0  0
 19 41  1  0  0  0  0
 19 20  2  0  0  0  0
 25 26  1  0  0  0  0
 25 27  1  0  0  0  0
 24 25  2  0  0  0  0
 42 45  1  0  0  0  0
  8 11  1  0  0  0  0
 51 52  1  0  0  0  0
 21 22  1  0  0  0  0
 22 23  1  0  0  0  0
 18 21  1  0  0  0  0
 23 24  1  0  0  0  0
 41 42  1  0  0  0  0
  7  8  1  0  0  0  0
 17 18  1  0  0  0  0
  3  4  1  0  0  0  0
  3  5  1  0  0  0  0
  3  6  1  0  0  0  0
 45 48  1  0  0  0  0
 45 49  1  0  0  0  0
 45 50  1  0  0  0  0
 11 14  1  0  0  0  0
 11 15  1  0  0  0  0
 11 16  1  0  0  0  0
 52 54  1  0  0  0  0
 52 55  1  0  0  0  0
 52 56  1  0  0  0  0
 22 32  1  0  0  0  0
 22 33  1  0  0  0  0
 21 30  1  0  0  0  0
 21 31  1  0  0  0  0
 23 34  1  0  0  0  0
 23 35  1  0  0  0  0
 42 47  1  0  0  0  0
  8 13  1  0  0  0  0
 18 29  1  0  0  0  0
 26 37  1  0  0  0  0
 26 38  1  0  0  0  0
 27 39  1  0  0  0  0
 27 40  1  0  0  0  0
 51 53  1  0  0  0  0
  7 12  1  0  0  0  0
 41 46  1  0  0  0  0
 17 28  1  0  0  0  0
 24 36  1  0  0  0  0
M  CHG  1  24   1
M  END
$$$$

  -OEChem-05262214473D

 56 55  0     1  0  0  0  0  0999 V2000
    0.7735   -5.8042   -2.0022 C   0  0  0  0  0  0  0  0  0  0  0  0
   -0.2086   -6.3825   -1.5519 O   0  0  0  0  0  0  0  0  0  0  0  0
    1.4751   -6.3646   -3.1946 C   0  0  0  0  0  0  0  0  0  0  0  0
    2.2765   -7.0687   -2.9186 H   0  0  0  0  0  0  0  0  0  0  0  0
    0.7988   -6.9360   -3.8504 H   0  0  0  0  0  0  0  0  0  0  0  0
    1.9556   -5.6216   -3.8511 H   0  0  0  0  0  0  0  0  0  0  0  0
    1.3322   -4.6359   -1.5106 N   0  0  0  0  0  0  0  0  0  0  0  0
    0.8124   -3.9290   -0.3698 C   0  0  2  0  0  0  0  0  0  0  0  0
    1.0666   -2.4424   -0.5818 C   0  0  0  0  0  0  0  0  0  0  0  0
    2.0598   -2.0076   -1.1610 O   0  0  0  0  0  0  0  0  0  0  0  0
    1.4560   -4.4118    0.9207 C   0  0  0  0  0  0  0  0  0  0  0  0
    2.1528   -4.2578   -1.9805 H   0  0  0  0  0  0  0  0  0  0  0  0
   -0.2667   -4.1160   -0.3467 H   0  0  0  0  0  0  0  0  0  0  0  0
    2.5374   -4.2329    0.9160 H   0  0  0  0  0  0  0  0  0  0  0  0
    1.0390   -3.8932    1.7903 H   0  0  0  0  0  0  0  0  0  0  0  0
    1.2976   -5.4871    1.0566 H   0  0  0  0  0  0  0  0  0  0  0  0
    0.0755   -1.6529   -0.0105 N   0  0  0  0  0  0  0  0  0  0  0  0
    0.1113   -0.2132   -0.0391 C   0  0  2  0  0  0  0  0  0  0  0  0
    1.5283    0.2172    0.3250 C   0  0  0  0  0  0  0  0  0  0  0  0
    2.4144   -0.5814    0.6221 O   0  0  0  0  0  0  0  0  0  0  0  0
   -0.9019    0.4074    0.9280 C   0  0  0  0  0  0  0  0  0  0  0  0
   -2.3516    0.1412    0.5054 C   0  0  0  0  0  0  0  0  0  0  0  0
   -3.3558    0.7612    1.4715 C   0  0  0  0  0  0  0  0  0  0  0  0
   -4.7357    0.4855    1.0782 N   0  3  0  0  0  0  0  0  0  0  0  0
   -5.8278    0.8989    1.8435 C   0  0  0  0  0  0  0  0  0  0  0  0
   -7.1145    0.6009    1.4073 N   0  0  0  0  0  0  0  0  0  0  0  0
   -5.6606    1.6023    3.0318 N   0  0  0  0  0  0  0  0  0  0  0  0
   -0.7323   -2.1024    0.4149 H   0  0  0  0  0  0  0  0  0  0  0  0
   -0.1000    0.0893   -1.0711 H   0  0  0  0  0  0  0  0  0  0  0  0
   -0.7344    1.4896    0.9873 H   0  0  0  0  0  0  0  0  0  0  0  0
   -0.7393    0.0132    1.9399 H   0  0  0  0  0  0  0  0  0  0  0  0
   -2.5196    0.5390   -0.5026 H   0  0  0  0  0  0  0  0  0  0  0  0
   -2.5307   -0.9394    0.4655 H   0  0  0  0  0  0  0  0  0  0  0  0
   -3.2127    0.3402    2.4715 H   0  0  0  0  0  0  0  0  0  0  0  0
   -3.2279    1.8467    1.5251 H   0  0  0  0  0  0  0  0  0  0  0  0
   -4.9209   -0.0260    0.2172 H   0  0  0  0  0  0  0  0  0  0  0  0
   -7.9314    0.8878    1.9412 H   0  0  0  0  0  0  0  0  0  0  0  0
   -7.2725    0.0881    0.5433 H   0  0  0  0  0  0  0  0  0  0  0  0
   -6.4524    1.9057    3.5928 H   0  0  0  0  0  0  0  0  0  0  0  0
   -4.7315    1.8340    3.3756 H   0  0  0  0  0  0  0  0  0  0  0  0
    1.6708    1.5978    0.3262 N   0  0  0  0  0  0  0  0  0  0  0  0
    2.9035    2.2606    0.6848 C   0  0  2  0  0  0  0  0  0  0  0  0
    2.5496    3.5864    1.3455 C   0  0  0  0  0  0  0  0  0  0  0  0
    1.5744    4.2596    1.0186 O   0  0  0  0  0  0  0  0  0  0  0  0
    3.7887    2.4791   -0.5324 C   0  0  0  0  0  0  0  0  0  0  0  0
    0.8909    2.1795    0.0347 H   0  0  0  0  0  0  0  0  0  0  0  0
    3.4107    1.6146    1.4096 H   0  0  0  0  0  0  0  0  0  0  0  0
    3.2972    3.1241   -1.2699 H   0  0  0  0  0  0  0  0  0  0  0  0
    4.7346    2.9557   -0.2547 H   0  0  0  0  0  0  0  0  0  0  0  0
    4.0177    1.5273   -1.0236 H   0  0  0  0  0  0  0  0  0  0  0  0
    3.4750    3.9504    2.3136 N   0  0  0  0  0  0  0  0  0  0  0  0
    3.3837    5.1876    3.0533 C   0  0  0  0  0  0  0  0  0  0  0  0
    4.2303    3.3128    2.5478 H   0  0  0  0  0  0  0  0  0  0  0  0
    3.9689    5.9656    2.5412 H   0  0  0  0  0  0  0  0  0  0  0  0
    2.3312    5.5012    3.1145 H   0  0  0  0  0  0  0  0  0  0  0  0
    3.7814    5.0382    4.0680 H   0  0  0  0  0  0  0  0  0  0  0  0
  1  3  1  0  0  0  0
  1  7  1  0  0  0  0
  1  2  2  0  0  0  0
 42 43  1  0  0  0  0
 43 51  1  0  0  0  0
 43 44  2  0  0  0  0
  8  9  1  0  0  0  0
  9 17  1  0  0  0  0
  9 10  2  0  0  0  0
 18 19  1  0  0  0  0
 19 41  1  0  0  0  0
 19 20  2  0  0  0  0
 25 26  1  0  0  0  0
 25 27  1  0  0  0  0
 24 25  2  0  0  0  0
 42 45  1  0  0  0  0
  8 11  1  0  0  0  0
 51 52  1  0  0  0  0
 21 22  1  0  0  0  0
 22 23  1  0  0  0  0
 18 21  1  0  0  0  0
 23 24  1  0  0  0  0
 41 42  1  0  0  0  0
  7  8  1  0  0  0  0
 17 18  1  0  0  0  0
  3  4  1  0  0  0  0
  3  5  1  0  0  0  0
  3  6  1  0  0  0  0
 45 48  1  0  0  0  0
 45 49  1  0  0  0  0
 45 50  1  0  0  0  0
 11 14  1  0  0  0  0
 11 15  1  0  0  0  0
 11 16  1  0  0  0  0
 52 54  1  0  0  0  0
 52 55  1  0  0  0  0
 52 56  1  0  0  0  0
 22 32  1  0  0  0  0
 22 33  1  0  0  0  0
 21 30  1  0  0  0  0
 21 31  1  0  0  0  0
 23 34  1  0  0  0  0
 23 35  1  0  0  0  0
 42 47  1  0  0  0  0
  8 13  1  0  0  0  0
 18 29  1  0  0  0  0
 26 37  1  0  0  0  0
 26 38  1  0  0  0  0
 27 39  1  0  0  0  0
 27 40  1  0  0  0  0
 51 53  1  0  0  0  0
  7 12  1  0  0  0  0
 41 46  1  0  0  0  0
 17 28  1  0  0  0  0
 24 36  1  0  0  0  0
M  CHG  1  24   1
M  END
$$$$

  -OEChem-05262214473D

 56 55  0     1  0  0  0  0  0999 V2000
    0.7735   -5.8042   -2.0022 C   0  0  0  0  0  0  0  0  0  0  0  0
   -0.2086   -6.3825   -1.5519 O   0  0  0  0  0  0  0  0  0  0  0  0
    1.4751   -6.3646   -3.1946 C   0  0  0  0  0  0  0  0  0  0  0  0
    2.2765   -7.0687   -2.9186 H   0  0  0  0  0  0  0  0  0  0  0  0
    0.7988   -6.9360   -3.8504 H   0  0  0  0  0  0  0  0  0  0  0  0
    1.9556   -5.6216   -3.8511 H   0  0  0  0  0  0  0  0  0  0  0  0
    1.3322   -4.6359   -1.5106 N   0  0  0  0  0  0  0  0  0  0  0  0
    0.8124   -3.9290   -0.3698 C   0  0  2  0  0  0  0  0  0  0  0  0
    1.0666   -2.4424   -0.5818 C   0  0  0  0  0  0  0  0  0  0  0  0
    2.0598   -2.0076   -1.1610 O   0  0  0  0  0  0  0  0  0  0  0  0
    1.4560   -4.4118    0.9207 C   0  0  0  0  0  0  0  0  0  0  0  0
    2.1528   -4.2578   -1.9805 H   0  0  0  0  0  0  0  0  0  0  0  0
   -0.2667   -4.1160   -0.3467 H   0  0  0  0  0  0  0  0  0  0  0  0
    2.5374   -4.2329    0.9160 H   0  0  0  0  0  0  0  0  0  0  0  0
    1.0390   -3.8932    1.7903 H   0  0  0  0  0  0  0  0  0  0  0  0
    1.2976   -5.4871    1.0566 H   0  0  0  0  0  0  0  0  0  0  0  0
    0.0755   -1.6529   -0.0105 N   0  0  0  0  0  0  0  0  0  0  0  0
    0.1113   -0.2132   -0.0391 C   0  0  2  0  0  0  0  0  0  0  0  0
    1.5283    0.2172    0.3250 C   0  0  0  0  0  0  0  0  0  0  0  0
    2.4764   -0.5645    0.3607 O   0  0  0  0  0  0  0  0  0  0  0  0
   -0.9019    0.4074    0.9280 C   0  0  0  0  0  0  0  0  0  0  0  0
   -2.3516    0.1412    0.5054 C   0  0  0  0  0  0  0  0  0  0  0  0
   -3.3558    0.7612    1.4715 C   0  0  0  0  0  0  0  0  0  0  0  0
   -4.7357    0.4855    1.0782 N   0  3  0  0  0  0  0  0  0  0  0  0
   -5.8278    0.8989    1.8435 C   0  0  0  0  0  0  0  0  0  0  0  0
   -7.1145    0.6009    1.4073 N   0  0  0  0  0  0  0  0  0  0  0  0
   -5.6606    1.6023    3.0318 N   0  0  0  0  0  0  0  0  0  0  0  0
   -0.7323   -2.1024    0.4149 H   0  0  0  0  0  0  0  0  0  0  0  0
   -0.1000    0.0893   -1.0711 H   0  0  0  0  0  0  0  0  0  0  0  0
   -0.7344    1.4896    0.9873 H   0  0  0  0  0  0  0  0  0  0  0  0
   -0.7393    0.0132    1.9399 H   0  0  0  0  0  0  0  0  0  0  0  0
   -2.5196    0.5390   -0.5026 H   0  0  0  0  0  0  0  0  0  0  0  0
   -2.5307   -0.9394    0.4655 H   0  0  0  0  0  0  0  0  0  0  0  0
   -3.2127    0.3402    2.4715 H   0  0  0  0  0  0  0  0  0  0  0  0
   -3.2279    1.8467    1.5251 H   0  0  0  0  0  0  0  0  0  0  0  0
   -4.9209   -0.0260    0.2172 H   0  0  0  0  0  0  0  0  0  0  0  0
   -7.9314    0.8878    1.9412 H   0  0  0  0  0  0  0  0  0  0  0  0
   -7.2725    0.0881    0.5433 H   0  0  0  0  0  0  0  0  0  0  0  0
   -6.4524    1.9057    3.5928 H   0  0  0  0  0  0  0  0  0  0  0  0
   -4.7315    1.8340    3.3756 H   0  0  0  0  0  0  0  0  0  0  0  0
    1.5973    1.5643    0.6520 N   0  0  0  0  0  0  0  0  0  0  0  0
    2.8181    2.2081    1.0792 C   0  0  2  0  0  0  0  0  0  0  0  0
    2.4490    3.3099    2.0638 C   0  0  0  0  0  0  0  0  0  0  0  0
    1.4164    3.9709    1.9747 O   0  0  0  0  0  0  0  0  0  0  0  0
    3.5895    2.7723   -0.1037 C   0  0  0  0  0  0  0  0  0  0  0  0
    0.7667    2.1420    0.5622 H   0  0  0  0  0  0  0  0  0  0  0  0
    3.4155    1.4455    1.5907 H   0  0  0  0  0  0  0  0  0  0  0  0
    3.0067    3.5380   -0.6287 H   0  0  0  0  0  0  0  0  0  0  0  0
    4.5282    3.2347    0.2188 H   0  0  0  0  0  0  0  0  0  0  0  0
    3.8282    1.9835   -0.8253 H   0  0  0  0  0  0  0  0  0  0  0  0
    3.4289    3.4974    3.0286 N   0  0  0  0  0  0  0  0  0  0  0  0
    3.3323    4.5131    4.0508 C   0  0  0  0  0  0  0  0  0  0  0  0
    4.2332    2.8774    3.0510 H   0  0  0  0  0  0  0  0  0  0  0  0
    3.8323    5.4301    3.7057 H   0  0  0  0  0  0  0  0  0  0  0  0
    2.2730    4.7279    4.2552 H   0  0  0  0  0  0  0  0  0  0  0  0
    3.8178    4.1548    4.9706 H   0  0  0  0  0  0  0  0  0  0  0  0
  1  3  1  0  0  0  0
  1  7  1  0  0  0  0
  1  2  2  0  0  0  0
 42 43  1  0  0  0  0
 43 51  1  0  0  0  0
 43 44  2  0  0  0  0
  8  9  1  0  0  0  0
  9 17  1  0  0  0  0
  9 10  2  0  0  0  0
 18 19  1  0  0  0  0
 19 41  1  0  0  0  0
 19 20  2  0  0  0  0
 25 26  1  0  0  0  0
 25 27  1  0  0  0  0
 24 25  2  0  0  0  0
 42 45  1  0  0  0  0
  8 11  1  0  0  0  0
 51 52  1  0  0  0  0
 21 22  1  0  0  0  0
 22 23  1  0  0  0  0
 18 21  1  0  0  0  0
 23 24  1  0  0  0  0
 41 42  1  0  0  0  0
  7  8  1  0  0  0  0
 17 18  1  0  0  0  0
  3  4  1  0  0  0  0
  3  5  1  0  0  0  0
  3  6  1  0  0  0  0
 45 48  1  0  0  0  0
 45 49  1  0  0  0  0
 45 50  1  0  0  0  0
 11 14  1  0  0  0  0
 11 15  1  0  0  0  0
 11 16  1  0  0  0  0
 52 54  1  0  0  0  0
 52 55  1  0  0  0  0
 52 56  1  0  0  0  0
 22 32  1  0  0  0  0
 22 33  1  0  0  0  0
 21 30  1  0  0  0  0
 21 31  1  0  0  0  0
 23 34  1  0  0  0  0
 23 35  1  0  0  0  0
 42 47  1  0  0  0  0
  8 13  1  0  0  0  0
 18 29  1  0  0  0  0
 26 37  1  0  0  0  0
 26 38  1  0  0  0  0
 27 39  1  0  0  0  0
 27 40  1  0  0  0  0
 51 53  1  0  0  0  0
  7 12  1  0  0  0  0
 41 46  1  0  0  0  0
 17 28  1  0  0  0  0
 24 36  1  0  0  0  0
M  CHG  1  24   1
M  END
$$$$

  -OEChem-05262214473D

 56 55  0     1  0  0  0  0  0999 V2000
    0.7735   -5.8042   -2.0022 C   0  0  0  0  0  0  0  0  0  0  0  0
   -0.2086   -6.3825   -1.5519 O   0  0  0  0  0  0  0  0  0  0  0  0
    1.4751   -6.3646   -3.1946 C   0  0  0  0  0  0  0  0  0  0  0  0
    2.2765   -7.0687   -2.9186 H   0  0  0  0  0  0  0  0  0  0  0  0
    0.7988   -6.9360   -3.8504 H   0  0  0  0  0  0  0  0  0  0  0  0
    1.9556   -5.6216   -3.8511 H   0  0  0  0  0  0  0  0  0  0  0  0
    1.3322   -4.6359   -1.5106 N   0  0  0  0  0  0  0  0  0  0  0  0
    0.8124   -3.9290   -0.3698 C   0  0  2  0  0  0  0  0  0  0  0  0
    1.0666   -2.4424   -0.5818 C   0  0  0  0  0  0  0  0  0  0  0  0
    2.0598   -2.0076   -1.1610 O   0  0  0  0  0  0  0  0  0  0  0  0
    1.4560   -4.4118    0.9207 C   0  0  0  0  0  0  0  0  0  0  0  0
    2.1528   -4.2578   -1.9805 H   0  0  0  0  0  0  0  0  0  0  0  0
   -0.2667   -4.1160   -0.3467 H   0  0  0  0  0  0  0  0  0  0  0  0
    2.5374   -4.2329    0.9160 H   0  0  0  0  0  0  0  0  0  0  0  0
    1.0390   -3.8932    1.7903 H   0  0  0  0  0  0  0  0  0  0  0  0
    1.2976   -5.4871    1.0566 H   0  0  0  0  0  0  0  0  0  0  0  0
    0.0755   -1.6529   -0.0105 N   0  0  0  0  0  0  0  0  0  0  0  0
    0.1113   -0.2132   -0.0391 C   0  0  2  0  0  0  0  0  0  0  0  0
    1.5283    0.2172    0.3250 C   0  0  0  0  0  0  0  0  0  0  0  0
    2.5162   -0.4814    0.1077 O   0  0  0  0  0  0  0  0  0  0  0  0
   -0.9019    0.4074    0.9280 C   0  0  0  0  0  0  0  0  0  0  0  0
   -2.3516    0.1412    0.5054 C   0  0  0  0  0  0  0  0  0  0  0  0
   -3.3558    0.7612    1.4715 C   0  0  0  0  0  0  0  0  0  0  0  0
   -4.7357    0.4855    1.0782 N   0  3  0  0  0  0  0  0  0  0  0  0
   -5.8278    0.8989    1.8435 C   0  0  0  0  0  0  0  0  0  0  0  0
   -7.1145    0.6009    1.4073 N   0  0  0  0  0  0  0  0  0  0  0  0
   -5.6606    1.6023    3.0318 N   0  0  0  0  0  0  0  0  0  0  0  0
   -0.7323   -2.1024    0.4149 H   0  0  0  0  0  0  0  0  0  0  0  0
   -0.1000    0.0893   -1.0711 H   0  0  0  0  0  0  0  0  0  0  0  0
   -0.7344    1.4896    0.9873 H   0  0  0  0  0  0  0  0  0  0  0  0
   -0.7393    0.0132    1.9399 H   0  0  0  0  0  0  0  0  0  0  0  0
   -2.5196    0.5390   -0.5026 H   0  0  0  0  0  0  0  0  0  0  0  0
   -2.5307   -0.9394    0.4655 H   0  0  0  0  0  0  0  0  0  0  0  0
   -3.2127    0.3402    2.4715 H   0  0  0  0  0  0  0  0  0  0  0  0
   -3.2279    1.8467    1.5251 H   0  0  0  0  0  0  0  0  0  0  0  0
   -4.9209   -0.0260    0.2172 H   0  0  0  0  0  0  0  0  0  0  0  0
   -7.9314    0.8878    1.9412 H   0  0  0  0  0  0  0  0  0  0  0  0
   -7.2725    0.0881    0.5433 H   0  0  0  0  0  0  0  0  0  0  0  0
   -6.4524    1.9057    3.5928 H   0  0  0  0  0  0  0  0  0  0  0  0
   -4.7315    1.8340    3.3756 H   0  0  0  0  0  0  0  0  0  0  0  0
    1.5521    1.4490    0.9640 N   0  0  0  0  0  0  0  0  0  0  0  0
    2.7677    2.0572    1.4539 C   0  0  2  0  0  0  0  0  0  0  0  0
    2.4214    2.8639    2.6985 C   0  0  0  0  0  0  0  0  0  0  0  0
    1.3515    3.4523    2.8403 O   0  0  0  0  0  0  0  0  0  0  0  0
    3.4102    2.9400    0.3954 C   0  0  0  0  0  0  0  0  0  0  0  0
    0.6876    1.9713    1.0718 H   0  0  0  0  0  0  0  0  0  0  0  0
    3.4439    1.2390    1.7247 H   0  0  0  0  0  0  0  0  0  0  0  0
    2.7474    3.7656    0.1113 H   0  0  0  0  0  0  0  0  0  0  0  0
    4.3461    3.3775    0.7583 H   0  0  0  0  0  0  0  0  0  0  0  0
    3.6314    2.3647   -0.5101 H   0  0  0  0  0  0  0  0  0  0  0  0
    3.4646    2.8850    3.6136 N   0  0  0  0  0  0  0  0  0  0  0  0
    3.3972    3.6185    4.8559 C   0  0  0  0  0  0  0  0  0  0  0  0
    4.2997    2.3360    3.4321 H   0  0  0  0  0  0  0  0  0  0  0  0
    3.8186    4.6243    4.7118 H   0  0  0  0  0  0  0  0  0  0  0  0
    2.3479    3.7030    5.1752 H   0  0  0  0  0  0  0  0  0  0  0  0
    3.9735    3.0867    5.6273 H   0  0  0  0  0  0  0  0  0  0  0  0
  1  3  1  0  0  0  0
  1  7  1  0  0  0  0
  1  2  2  0  0  0  0
 42 43  1  0  0  0  0
 43 51  1  0  0  0  0
 43 44  2  0  0  0  0
  8  9  1  0  0  0  0
  9 17  1  0  0  0  0
  9 10  2  0  0  0  0
 18 19  1  0  0  0  0
 19 41  1  0  0  0  0
 19 20  2  0  0  0  0
 25 26  1  0  0  0  0
 25 27  1  0  0  0  0
 24 25  2  0  0  0  0
 42 45  1  0  0  0  0
  8 11  1  0  0  0  0
 51 52  1  0  0  0  0
 21 22  1  0  0  0  0
 22 23  1  0  0  0  0
 18 21  1  0  0  0  0
 23 24  1  0  0  0  0
 41 42  1  0  0  0  0
  7  8  1  0  0  0  0
 17 18  1  0  0  0  0
  3  4  1  0  0  0  0
  3  5  1  0  0  0  0
  3  6  1  0  0  0  0
 45 48  1  0  0  0  0
 45 49  1  0  0  0  0
 45 50  1  0  0  0  0
 11 14  1  0  0  0  0
 11 15  1  0  0  0  0
 11 16  1  0  0  0  0
 52 54  1  0  0  0  0
 52 55  1  0  0  0  0
 52 56  1  0  0  0  0
 22 32  1  0  0  0  0
 22 33  1  0  0  0  0
 21 30  1  0  0  0  0
 21 31  1  0  0  0  0
 23 34  1  0  0  0  0
 23 35  1  0  0  0  0
 42 47  1  0  0  0  0
  8 13  1  0  0  0  0
 18 29  1  0  0  0  0
 26 37  1  0  0  0  0
 26 38  1  0  0  0  0
 27 39  1  0  0  0  0
 27 40  1  0  0  0  0
 51 53  1  0  0  0  0
  7 12  1  0  0  0  0
 41 46  1  0  0  0  0
 17 28  1  0  0  0  0
 24 36  1  0  0  0  0
M  CHG  1  24   1
M  END
$$$$

  -OEChem-05262214473D

 56 55  0     1  0  0  0  0  0999 V2000
    0.7735   -5.8042   -2.0022 C   0  0  0  0  0  0  0  0  0  0  0  0
   -0.2086   -6.3825   -1.5519 O   0  0  0  0  0  0  0  0  0  0  0  0
    1.4751   -6.3646   -3.1946 C   0  0  0  0  0  0  0  0  0  0  0  0
    2.2765   -7.0687   -2.9186 H   0  0  0  0  0  0  0  0  0  0  0  0
    0.7988   -6.9360   -3.8504 H   0  0  0  0  0  0  0  0  0  0  0  0
    1.9556   -5.6216   -3.8511 H   0  0  0  0  0  0  0  0  0  0  0  0
    1.3322   -4.6359   -1.5106 N   0  0  0  0  0  0  0  0  0  0  0  0
    0.8124   -3.9290   -0.3698 C   0  0  2  0  0  0  0  0  0  0  0  0
    1.0666   -2.4424   -0.5818 C   0  0  0  0  0  0  0  0  0  0  0  0
    2.0598   -2.0076   -1.1610 O   0  0  0  0  0  0  0  0  0  0  0  0
    1.4560   -4.4118    0.9207 C   0  0  0  0  0  0  0  0  0  0  0  0
    2.1528   -4.2578   -1.9805 H   0  0  0  0  0  0  0  0  0  0  0  0
   -0.2667   -4.1160   -0.3467 H   0  0  0  0  0  0  0  0  0  0  0  0
    2.5374   -4.2329    0.9160 H   0  0  0  0  0  0  0  0  0  0  0  0
    1.0390   -3.8932    1.7903 H   0  0  0  0  0  0  0  0  0  0  0  0
    1.2976   -5.4871    1.0566 H   0  0  0  0  0  0  0  0  0  0  0  0
    0.0755   -1.6529   -0.0105 N   0  0  0  0  0  0  0  0  0  0  0  0
    0.1113   -0.2132   -0.0391 C   0  0  2  0  0  0  0  0  0  0  0  0
    1.5283    0.2172    0.3250 C   0  0  0  0  0  0  0  0  0  0  0  0
    2.5310   -0.3379   -0.1197 O   0  0  0  0  0  0  0  0  0  0  0  0
   -0.9019    0.4074    0.9280 C   0  0  0  0  0  0  0  0  0  0  0  0
   -2.3516    0.1412    0.5054 C   0  0  0  0  0  0  0  0  0  0  0  0
   -3.3558    0.7612    1.4715 C   0  0  0  0  0  0  0  0  0  0  0  0
   -4.7357    0.4855    1.0782 N   0  3  0  0  0  0  0  0  0  0  0  0
   -5.8278    0.8989    1.8435 C   0  0  0  0  0  0  0  0  0  0  0  0
   -7.1145    0.6009    1.4073 N   0  0  0  0  0  0  0  0  0  0  0  0
   -5.6606    1.6023    3.0318 N   0  0  0  0  0  0  0  0  0  0  0  0
   -0.7323   -2.1024    0.4149 H   0  0  0  0  0  0  0  0  0  0  0  0
   -0.1000    0.0893   -1.0711 H   0  0  0  0  0  0  0  0  0  0  0  0
   -0.7344    1.4896    0.9873 H   0  0  0  0  0  0  0  0  0  0  0  0
   -0.7393    0.0132    1.9399 H   0  0  0  0  0  0  0  0  0  0  0  0
   -2.5196    0.5390   -0.5026 H   0  0  0  0  0  0  0  0  0  0  0  0
   -2.5307   -0.9394    0.4655 H   0  0  0  0  0  0  0  0  0  0  0  0
   -3.2127    0.3402    2.4715 H   0  0  0  0  0  0  0  0  0  0  0  0
   -3.2279    1.8467    1.5251 H   0  0  0  0  0  0  0  0  0  0  0  0
   -4.9209   -0.0260    0.2172 H   0  0  0  0  0  0  0  0  0  0  0  0
   -7.9314    0.8878    1.9412 H   0  0  0  0  0  0  0  0  0  0  0  0
   -7.2725    0.0881    0.5433 H   0  0  0  0  0  0  0  0  0  0  0  0
   -6.4524    1.9057    3.5928 H   0  0  0  0  0  0  0  0  0  0  0  0
   -4.7315    1.8340    3.3756 H   0  0  0  0  0  0  0  0  0  0  0  0
    1.5384    1.2599    1.2409 N   0  0  0  0  0  0  0  0  0  0  0  0
    2.7556    1.8183    1.7832 C   0  0  2  0  0  0  0  0  0  0  0  0
    2.4687    2.2787    3.2063 C   0  0  0  0  0  0  0  0  0  0  0  0
    1.3841    2.7392    3.5565 O   0  0  0  0  0  0  0  0  0  0  0  0
    3.2632    2.9710    0.9309 C   0  0  0  0  0  0  0  0  0  0  0  0
    0.6590    1.6789    1.5287 H   0  0  0  0  0  0  0  0  0  0  0  0
    3.4938    1.0091    1.8023 H   0  0  0  0  0  0  0  0  0  0  0  0
    2.5370    3.7914    0.8998 H   0  0  0  0  0  0  0  0  0  0  0  0
    4.2009    3.3745    1.3271 H   0  0  0  0  0  0  0  0  0  0  0  0
    3.4407    2.6450   -0.0996 H   0  0  0  0  0  0  0  0  0  0  0  0
    3.5797    2.1549    4.0288 N   0  0  0  0  0  0  0  0  0  0  0  0
    3.5739    2.5648    5.4137 C   0  0  0  0  0  0  0  0  0  0  0  0
    4.4253    1.7255    3.6651 H   0  0  0  0  0  0  0  0  0  0  0  0
    3.9286    3.6032    5.4908 H   0  0  0  0  0  0  0  0  0  0  0  0
    2.5508    2.4964    5.8120 H   0  0  0  0  0  0  0  0  0  0  0  0
    4.2378    1.9067    5.9935 H   0  0  0  0  0  0  0  0  0  0  0  0
  1  3  1  0  0  0  0
  1  7  1  0  0  0  0
  1  2  2  0  0  0  0
 42 43  1  0  0  0  0
 43 51  1  0  0  0  0
 43 44  2  0  0  0  0
  8  9  1  0  0  0  0
  9 17  1  0  0  0  0
  9 10  2  0  0  0  0
 18 19  1  0  0  0  0
 19 41  1  0  0  0  0
 19 20  2  0  0  0  0
 25 26  1  0  0  0  0
 25 27  1  0  0  0  0
 24 25  2  0  0  0  0
 42 45  1  0  0  0  0
  8 11  1  0  0  0  0
 51 52  1  0  0  0  0
 21 22  1  0  0  0  0
 22 23  1  0  0  0  0
 18 21  1  0  0  0  0
 23 24  1  0  0  0  0
 41 42  1  0  0  0  0
  7  8  1  0  0  0  0
 17 18  1  0  0  0  0
  3  4  1  0  0  0  0
  3  5  1  0  0  0  0
  3  6  1  0  0  0  0
 45 48  1  0  0  0  0
 45 49  1  0  0  0  0
 45 50  1  0  0  0  0
 11 14  1  0  0  0  0
 11 15  1  0  0  0  0
 11 16  1  0  0  0  0
 52 54  1  0  0  0  0
 52 55  1  0  0  0  0
 52 56  1  0  0  0  0
 22 32  1  0  0  0  0
 22 33  1  0  0  0  0
 21 30  1  0  0  0  0
 21 31  1  0  0  0  0
 23 34  1  0  0  0  0
 23 35  1  0  0  0  0
 42 47  1  0  0  0  0
  8 13  1  0  0  0  0
 18 29  1  0  0  0  0
 26 37  1  0  0  0  0
 26 38  1  0  0  0  0
 27 39  1  0  0  0  0
 27 40  1  0  0  0  0
 51 53  1  0  0  0  0
  7 12  1  0  0  0  0
 41 46  1  0  0  0  0
 17 28  1  0  0  0  0
 24 36  1  0  0  0  0
M  CHG  1  24   1
M  END
$$$$

  -OEChem-05262214473D

 56 55  0     1  0  0  0  0  0999 V2000
    0.7735   -5.8042   -2.0022 C   0  0  0  0  0  0  0  0  0  0  0  0
   -0.2086   -6.3825   -1.5519 O   0  0  0  0  0  0  0  0  0  0  0  0
    1.4751   -6.3646   -3.1946 C   0  0  0  0  0  0  0  0  0  0  0  0
    2.2765   -7.0687   -2.9186 H   0  0  0  0  0  0  0  0  0  0  0  0
    0.7988   -6.9360   -3.8504 H   0  0  0  0  0  0  0  0  0  0  0  0
    1.9556   -5.6216   -3.8511 H   0  0  0  0  0  0  0  0  0  0  0  0
    1.3322   -4.6359   -1.5106 N   0  0  0  0  0  0  0  0  0  0  0  0
    0.8124   -3.9290   -0.3698 C   0  0  2  0  0  0  0  0  0  0  0  0
    1.0666   -2.4424   -0.5818 C   0  0  0  0  0  0  0  0  0  0  0  0
    2.0598   -2.0076   -1.1610 O   0  0  0  0  0  0  0  0  0  0  0  0
    1.4560   -4.4118    0.9207 C   0  0  0  0  0  0  0  0  0  0  0  0
    2.1528   -4.2578   -1.9805 H   0  0  0  0  0  0  0  0  0  0  0  0
   -0.2667   -4.1160   -0.3467 H   0  0  0  0  0  0  0  0  0  0  0  0
    2.5374   -4.2329    0.9160 H   0  0  0  0  0  0  0  0  0  0  0  0
    1.0390   -3.8932    1.7903 H   0  0  0  0  0  0  0  0  0  0  0  0
    1.2976   -5.4871    1.0566 H   0  0  0  0  0  0  0  0  0  0  0  0
    0.0755   -1.6529   -0.0105 N   0  0  0  0  0  0  0  0  0  0  0  0
    0.1113   -0.2132   -0.0391 C   0  0  2  0  0  0  0  0  0  0  0  0
    1.5283    0.2172    0.3250 C   0  0  0  0  0  0  0  0  0  0  0  0
    2.5198   -0.1436   -0.3058 O   0  0  0  0  0  0  0  0  0  0  0  0
   -0.9019    0.4074    0.9280 C   0  0  0  0  0  0  0  0  0  0  0  0
   -2.3516    0.1412    0.5054 C   0  0  0  0  0  0  0  0  0  0  0  0
   -3.3558    0.7612    1.4715 C   0  0  0  0  0  0  0  0  0  0  0  0
   -4.7357    0.4855    1.0782 N   0  3  0  0  0  0  0  0  0  0  0  0
   -5.8278    0.8989    1.8435 C   0  0  0  0  0  0  0  0  0  0  0  0
   -7.1145    0.6009    1.4073 N   0  0  0  0  0  0  0  0  0  0  0  0
   -5.6606    1.6023    3.0318 N   0  0  0  0  0  0  0  0  0  0  0  0
   -0.7323   -2.1024    0.4149 H   0  0  0  0  0  0  0  0  0  0  0  0
   -0.1000    0.0893   -1.0711 H   0  0  0  0  0  0  0  0  0  0  0  0
   -0.7344    1.4896    0.9873 H   0  0  0  0  0  0  0  0  0  0  0  0
   -0.7393    0.0132    1.9399 H   0  0  0  0  0  0  0  0  0  0  0  0
   -2.5196    0.5390   -0.5026 H   0  0  0  0  0  0  0  0  0  0  0  0
   -2.5307   -0.9394    0.4655 H   0  0  0  0  0  0  0  0  0  0  0  0
   -3.2127    0.3402    2.4715 H   0  0  0  0  0  0  0  0  0  0  0  0
   -3.2279    1.8467    1.5251 H   0  0  0  0  0  0  0  0  0  0  0  0
   -4.9209   -0.0260    0.2172 H   0  0  0  0  0  0  0  0  0  0  0  0
   -7.9314    0.8878    1.9412 H   0  0  0  0  0  0  0  0  0  0  0  0
   -7.2725    0.0881    0.5433 H   0  0  0  0  0  0  0  0  0  0  0  0
   -6.4524    1.9057    3.5928 H   0  0  0  0  0  0  0  0  0  0  0  0
   -4.7315    1.8340    3.3756 H   0  0  0  0  0  0  0  0  0  0  0  0
    1.5571    1.0097    1.4640 N   0  0  0  0  0  0  0  0  0  0  0  0
    2.7828    1.5076    2.0447 C   0  0  2  0  0  0  0  0  0  0  0  0
    2.5876    1.5943    3.5526 C   0  0  0  0  0  0  0  0  0  0  0  0
    1.5120    1.8802    4.0744 O   0  0  0  0  0  0  0  0  0  0  0  0
    3.1584    2.8630    1.4664 C   0  0  0  0  0  0  0  0  0  0  0  0
    0.6829    1.2849    1.9018 H   0  0  0  0  0  0  0  0  0  0  0  0
    3.5618    0.7714    1.8184 H   0  0  0  0  0  0  0  0  0  0  0  0
    2.3897    3.6137    1.6830 H   0  0  0  0  0  0  0  0  0  0  0  0
    4.1023    3.2258    1.8864 H   0  0  0  0  0  0  0  0  0  0  0  0
    3.2693    2.8053    0.3782 H   0  0  0  0  0  0  0  0  0  0  0  0
    3.7663    1.3571    4.2459 N   0  0  0  0  0  0  0  0  0  0  0  0
    3.8505    1.4238    5.6862 C   0  0  0  0  0  0  0  0  0  0  0  0
    4.6013    1.0875    3.7343 H   0  0  0  0  0  0  0  0  0  0  0  0
    4.1548    2.4364    5.9897 H   0  0  0  0  0  0  0  0  0  0  0  0
    2.8679    1.1903    6.1220 H   0  0  0  0  0  0  0  0  0  0  0  0
    4.5928    0.6952    6.0441 H   0  0  0  0  0  0  0  0  0  0  0  0
  1  3  1  0  0  0  0
  1  7  1  0  0  0  0
  1  2  2  0  0  0  0
 42 43  1  0  0  0  0
 43 51  1  0  0  0  0
 43 44  2  0  0  0  0
  8  9  1  0  0  0  0
  9 17  1  0  0  0  0
  9 10  2  0  0  0  0
 18 19  1  0  0  0  0
 19 41  1  0  0  0  0
 19 20  2  0  0  0  0
 25 26  1  0  0  0  0
 25 27  1  0  0  0  0
 24 25  2  0  0  0  0
 42 45  1  0  0  0  0
  8 11  1  0  0  0  0
 51 52  1  0  0  0  0
 21 22  1  0  0  0  0
 22 23  1  0  0  0  0
 18 21  1  0  0  0  0
 23 24  1  0  0  0  0
 41 42  1  0  0  0  0
  7  8  1  0  0  0  0
 17 18  1  0  0  0  0
  3  4  1  0  0  0  0
  3  5  1  0  0  0  0
  3  6  1  0  0  0  0
 45 48  1  0  0  0  0
 45 49  1  0  0  0  0
 45 50  1  0  0  0  0
 11 14  1  0  0  0  0
 11 15  1  0  0  0  0
 11 16  1  0  0  0  0
 52 54  1  0  0  0  0
 52 55  1  0  0  0  0
 52 56  1  0  0  0  0
 22 32  1  0  0  0  0
 22 33  1  0  0  0  0
 21 30  1  0  0  0  0
 21 31  1  0  0  0  0
 23 34  1  0  0  0  0
 23 35  1  0  0  0  0
 42 47  1  0  0  0  0
  8 13  1  0  0  0  0
 18 29  1  0  0  0  0
 26 37  1  0  0  0  0
 26 38  1  0  0  0  0
 27 39  1  0  0  0  0
 27 40  1  0  0  0  0
 51 53  1  0  0  0  0
  7 12  1  0  0  0  0
 41 46  1  0  0  0  0
 17 28  1  0  0  0  0
 24 36  1  0  0  0  0
M  CHG  1  24   1
M  END
$$$$

  -OEChem-05262214473D

 56 55  0     1  0  0  0  0  0999 V2000
    0.7735   -5.8042   -2.0022 C   0  0  0  0  0  0  0  0  0  0  0  0
   -0.2086   -6.3825   -1.5519 O   0  0  0  0  0  0  0  0  0  0  0  0
    1.4751   -6.3646   -3.1946 C   0  0  0  0  0  0  0  0  0  0  0  0
    2.2765   -7.0687   -2.9186 H   0  0  0  0  0  0  0  0  0  0  0  0
    0.7988   -6.9360   -3.8504 H   0  0  0  0  0  0  0  0  0  0  0  0
    1.9556   -5.6216   -3.8511 H   0  0  0  0  0  0  0  0  0  0  0  0
    1.3322   -4.6359   -1.5106 N   0  0  0  0  0  0  0  0  0  0  0  0
    0.8124   -3.9290   -0.3698 C   0  0  2  0  0  0  0  0  0  0  0  0
    1.0666   -2.4424   -0.5818 C   0  0  0  0  0  0  0  0  0  0  0  0
    2.0598   -2.0076   -1.1610 O   0  0  0  0  0  0  0  0  0  0  0  0
    1.4560   -4.4118    0.9207 C   0  0  0  0  0  0  0  0  0  0  0  0
    2.1528   -4.2578   -1.9805 H   0  0  0  0  0  0  0  0  0  0  0  0
   -0.2667   -4.1160   -0.3467 H   0  0  0  0  0  0  0  0  0  0  0  0
    2.5374   -4.2329    0.9160 H   0  0  0  0  0  0  0  0  0  0  0  0
    1.0390   -3.8932    1.7903 H   0  0  0  0  0  0  0  0  0  0  0  0
    1.2976   -5.4871    1.0566 H   0  0  0  0  0  0  0  0  0  0  0  0
    0.0755   -1.6529   -0.0105 N   0  0  0  0  0  0  0  0  0  0  0  0
    0.1113   -0.2132   -0.0391 C   0  0  2  0  0  0  0  0  0  0  0  0
    1.5283    0.2172    0.3250 C   0  0  0  0  0  0  0  0  0  0  0  0
    2.4834    0.0881   -0.4381 O   0  0  0  0  0  0  0  0  0  0  0  0
   -0.9019    0.4074    0.9280 C   0  0  0  0  0  0  0  0  0  0  0  0
   -2.3516    0.1412    0.5054 C   0  0  0  0  0  0  0  0  0  0  0  0
   -3.3558    0.7612    1.4715 C   0  0  0  0  0  0  0  0  0  0  0  0
   -4.7357    0.4855    1.0782 N   0  3  0  0  0  0  0  0  0  0  0  0
   -5.8278    0.8989    1.8435 C   0  0  0  0  0  0  0  0  0  0  0  0
   -7.1145    0.6009    1.4073 N   0  0  0  0  0  0  0  0  0  0  0  0
   -5.6606    1.6023    3.0318 N   0  0  0  0  0  0  0  0  0  0  0  0
   -0.7323   -2.1024    0.4149 H   0  0  0  0  0  0  0  0  0  0  0  0
   -0.1000    0.0893   -1.0711 H   0  0  0  0  0  0  0  0  0  0  0  0
   -0.7344    1.4896    0.9873 H   0  0  0  0  0  0  0  0  0  0  0  0
   -0.7393    0.0132    1.9399 H   0  0  0  0  0  0  0  0  0  0  0  0
   -2.5196    0.5390   -0.5026 H   0  0  0  0  0  0  0  0  0  0  0  0
   -2.5307   -0.9394    0.4655 H   0  0  0  0  0  0  0  0  0  0  0  0
   -3.2127    0.3402    2.4715 H   0  0  0  0  0  0  0  0  0  0  0  0
   -3.2279    1.8467    1.5251 H   0  0  0  0  0  0  0  0  0  0  0  0
   -4.9209   -0.0260    0.2172 H   0  0  0  0  0  0  0  0  0  0  0  0
   -7.9314    0.8878    1.9412 H   0  0  0  0  0  0  0  0  0  0  0  0
   -7.2725    0.0881    0.5433 H   0  0  0  0  0  0  0  0  0  0  0  0
   -6.4524    1.9057    3.5928 H   0  0  0  0  0  0  0  0  0  0  0  0
   -4.7315    1.8340    3.3756 H   0  0  0  0  0  0  0  0  0  0  0  0
    1.6069    0.7156    1.6179 N   0  0  0  0  0  0  0  0  0  0  0  0
    2.8474    1.1462    2.2205 C   0  0  2  0  0  0  0  0  0  0  0  0
    2.7701    0.8572    3.7138 C   0  0  0  0  0  0  0  0  0  0  0  0
    1.7264    0.9339    4.3587 O   0  0  0  0  0  0  0  0  0  0  0  0
    3.1030    2.6235    1.9653 C   0  0  0  0  0  0  0  0  0  0  0  0
    0.7575    0.8160    2.1657 H   0  0  0  0  0  0  0  0  0  0  0  0
    3.6434    0.5421    1.7718 H   0  0  0  0  0  0  0  0  0  0  0  0
    2.3156    3.2447    2.4076 H   0  0  0  0  0  0  0  0  0  0  0  0
    4.0572    2.9416    2.3981 H   0  0  0  0  0  0  0  0  0  0  0  0
    3.1286    2.8346    0.8908 H   0  0  0  0  0  0  0  0  0  0  0  0
    4.0116    0.5457    4.2501 N   0  0  0  0  0  0  0  0  0  0  0  0
    4.2081    0.2732    5.6548 C   0  0  0  0  0  0  0  0  0  0  0  0
    4.8158    0.4656    3.6348 H   0  0  0  0  0  0  0  0  0  0  0  0
    4.4819    1.2033    6.1744 H   0  0  0  0  0  0  0  0  0  0  0  0
    3.2775   -0.1262    6.0843 H   0  0  0  0  0  0  0  0  0  0  0  0
    5.0143   -0.4652    5.7757 H   0  0  0  0  0  0  0  0  0  0  0  0
  1  3  1  0  0  0  0
  1  7  1  0  0  0  0
  1  2  2  0  0  0  0
 42 43  1  0  0  0  0
 43 51  1  0  0  0  0
 43 44  2  0  0  0  0
  8  9  1  0  0  0  0
  9 17  1  0  0  0  0
  9 10  2  0  0  0  0
 18 19  1  0  0  0  0
 19 41  1  0  0  0  0
 19 20  2  0  0  0  0
 25 26  1  0  0  0  0
 25 27  1  0  0  0  0
 24 25  2  0  0  0  0
 42 45  1  0  0  0  0
  8 11  1  0  0  0  0
 51 52  1  0  0  0  0
 21 22  1  0  0  0  0
 22 23  1  0  0  0  0
 18 21  1  0  0  0  0
 23 24  1  0  0  0  0
 41 42  1  0  0  0  0
  7  8  1  0  0  0  0
 17 18  1  0  0  0  0
  3  4  1  0  0  0  0
  3  5  1  0  0  0  0
  3  6  1  0  0  0  0
 45 48  1  0  0  0  0
 45 49  1  0  0  0  0
 45 50  1  0  0  0  0
 11 14  1  0  0  0  0
 11 15  1  0  0  0  0
 11 16  1  0  0  0  0
 52 54  1  0  0  0  0
 52 55  1  0  0  0  0
 52 56  1  0  0  0  0
 22 32  1  0  0  0  0
 22 33  1  0  0  0  0
 21 30  1  0  0  0  0
 21 31  1  0  0  0  0
 23 34  1  0  0  0  0
 23 35  1  0  0  0  0
 42 47  1  0  0  0  0
  8 13  1  0  0  0  0
 18 29  1  0  0  0  0
 26 37  1  0  0  0  0
 26 38  1  0  0  0  0
 27 39  1  0  0  0  0
 27 40  1  0  0  0  0
 51 53  1  0  0  0  0
  7 12  1  0  0  0  0
 41 46  1  0  0  0  0
 17 28  1  0  0  0  0
 24 36  1  0  0  0  0
M  CHG  1  24   1
M  END
$$$$

  -OEChem-05262214473D

 56 55  0     1  0  0  0  0  0999 V2000
    0.7735   -5.8042   -2.0022 C   0  0  0  0  0  0  0  0  0  0  0  0
   -0.2086   -6.3825   -1.5519 O   0  0  0  0  0  0  0  0  0  0  0  0
    1.4751   -6.3646   -3.1946 C   0  0  0  0  0  0  0  0  0  0  0  0
    2.2765   -7.0687   -2.9186 H   0  0  0  0  0  0  0  0  0  0  0  0
    0.7988   -6.9360   -3.8504 H   0  0  0  0  0  0  0  0  0  0  0  0
    1.9556   -5.6216   -3.8511 H   0  0  0  0  0  0  0  0  0  0  0  0
    1.3322   -4.6359   -1.5106 N   0  0  0  0  0  0  0  0  0  0  0  0
    0.8124   -3.9290   -0.3698 C   0  0  2  0  0  0  0  0  0  0  0  0
    1.0666   -2.4424   -0.5818 C   0  0  0  0  0  0  0  0  0  0  0  0
    2.0598   -2.0076   -1.1610 O   0  0  0  0  0  0  0  0  0  0  0  0
    1.4560   -4.4118    0.9207 C   0  0  0  0  0  0  0  0  0  0  0  0
    2.1528   -4.2578   -1.9805 H   0  0  0  0  0  0  0  0  0  0  0  0
   -0.2667   -4.1160   -0.3467 H   0  0  0  0  0  0  0  0  0  0  0  0
    2.5374   -4.2329    0.9160 H   0  0  0  0  0  0  0  0  0  0  0  0
    1.0390   -3.8932    1.7903 H   0  0  0  0  0  0  0  0  0  0  0  0
    1.2976   -5.4871    1.0566 H   0  0  0  0  0  0  0  0  0  0  0  0
    0.0755   -1.6529   -0.0105 N   0  0  0  0  0  0  0  0  0  0  0  0
    0.1113   -0.2132   -0.0391 C   0  0  2  0  0  0  0  0  0  0  0  0
    1.5283    0.2172    0.3250 C   0  0  0  0  0  0  0  0  0  0  0  0
    2.4243    0.3414   -0.5074 O   0  0  0  0  0  0  0  0  0  0  0  0
   -0.9019    0.4074    0.9280 C   0  0  0  0  0  0  0  0  0  0  0  0
   -2.3516    0.1412    0.5054 C   0  0  0  0  0  0  0  0  0  0  0  0
   -3.3558    0.7612    1.4715 C   0  0  0  0  0  0  0  0  0  0  0  0
   -4.7357    0.4855    1.0782 N   0  3  0  0  0  0  0  0  0  0  0  0
   -5.8278    0.8989    1.8435 C   0  0  0  0  0  0  0  0  0  0  0  0
   -7.1145    0.6009    1.4073 N   0  0  0  0  0  0  0  0  0  0  0  0
   -5.6606    1.6023    3.0318 N   0  0  0  0  0  0  0  0  0  0  0  0
   -0.7323   -2.1024    0.4149 H   0  0  0  0  0  0  0  0  0  0  0  0
   -0.1000    0.0893   -1.0711 H   0  0  0  0  0  0  0  0  0  0  0  0
   -0.7344    1.4896    0.9873 H   0  0  0  0  0  0  0  0  0  0  0  0
   -0.7393    0.0132    1.9399 H   0  0  0  0  0  0  0  0  0  0  0  0
   -2.5196    0.5390   -0.5026 H   0  0  0  0  0  0  0  0  0  0  0  0
   -2.5307   -0.9394    0.4655 H   0  0  0  0  0  0  0  0  0  0  0  0
   -3.2127    0.3402    2.4715 H   0  0  0  0  0  0  0  0  0  0  0  0
   -3.2279    1.8467    1.5251 H   0  0  0  0  0  0  0  0  0  0  0  0
   -4.9209   -0.0260    0.2172 H   0  0  0  0  0  0  0  0  0  0  0  0
   -7.9314    0.8878    1.9412 H   0  0  0  0  0  0  0  0  0  0  0  0
   -7.2725    0.0881    0.5433 H   0  0  0  0  0  0  0  0  0  0  0  0
   -6.4524    1.9057    3.5928 H   0  0  0  0  0  0  0  0  0  0  0  0
   -4.7315    1.8340    3.3756 H   0  0  0  0  0  0  0  0  0  0  0  0
    1.6844    0.3976    1.6922 N   0  0  0  0  0  0  0  0  0  0  0  0
    2.9449    0.7589    2.2988 C   0  0  2  0  0  0  0  0  0  0  0  0
    3.0036    0.1178    3.6790 C   0  0  0  0  0  0  0  0  0  0  0  0
    2.0127   -0.0354    4.3901 O   0  0  0  0  0  0  0  0  0  0  0  0
    3.1007    2.2687    2.3937 C   0  0  0  0  0  0  0  0  0  0  0  0
    0.8778    0.3043    2.3025 H   0  0  0  0  0  0  0  0  0  0  0  0
    3.7330    0.3369    1.6656 H   0  0  0  0  0  0  0  0  0  0  0  0
    2.3198    2.7094    3.0241 H   0  0  0  0  0  0  0  0  0  0  0  0
    4.0685    2.5413    2.8273 H   0  0  0  0  0  0  0  0  0  0  0  0
    3.0284    2.7310    1.4033 H   0  0  0  0  0  0  0  0  0  0  0  0
    4.2991   -0.2239    4.0411 N   0  0  0  0  0  0  0  0  0  0  0  0
    4.6223   -0.8085    5.3216 C   0  0  0  0  0  0  0  0  0  0  0  0
    5.0542   -0.0981    3.3734 H   0  0  0  0  0  0  0  0  0  0  0  0
    4.8876   -0.0120    6.0324 H   0  0  0  0  0  0  0  0  0  0  0  0
    3.7518   -1.3636    5.7013 H   0  0  0  0  0  0  0  0  0  0  0  0
    5.4735   -1.4956    5.2066 H   0  0  0  0  0  0  0  0  0  0  0  0
  1  3  1  0  0  0  0
  1  7  1  0  0  0  0
  1  2  2  0  0  0  0
 42 43  1  0  0  0  0
 43 51  1  0  0  0  0
 43 44  2  0  0  0  0
  8  9  1  0  0  0  0
  9 17  1  0  0  0  0
  9 10  2  0  0  0  0
 18 19  1  0  0  0  0
 19 41  1  0  0  0  0
 19 20  2  0  0  0  0
 25 26  1  0  0  0  0
 25 27  1  0  0  0  0
 24 25  2  0  0  0  0
 42 45  1  0  0  0  0
  8 11  1  0  0  0  0
 51 52  1  0  0  0  0
 21 22  1  0  0  0  0
 22 23  1  0  0  0  0
 18 21  1  0  0  0  0
 23 24  1  0  0  0  0
 41 42  1  0  0  0  0
  7  8  1  0  0  0  0
 17 18  1  0  0  0  0
  3  4  1  0  0  0  0
  3  5  1  0  0  0  0
  3  6  1  0  0  0  0
 45 48  1  0  0  0  0
 45 49  1  0  0  0  0
 45 50  1  0  0  0  0
 11 14  1  0  0  0  0
 11 15  1  0  0  0  0
 11 16  1  0  0  0  0
 52 54  1  0  0  0  0
 52 55  1  0  0  0  0
 52 56  1  0  0  0  0
 22 32  1  0  0  0  0
 22 33  1  0  0  0  0
 21 30  1  0  0  0  0
 21 31  1  0  0  0  0
 23 34  1  0  0  0  0
 23 35  1  0  0  0  0
 42 47  1  0  0  0  0
  8 13  1  0  0  0  0
 18 29  1  0  0  0  0
 26 37  1  0  0  0  0
 26 38  1  0  0  0  0
 27 39  1  0  0  0  0
 27 40  1  0  0  0  0
 51 53  1  0  0  0  0
  7 12  1  0  0  0  0
 41 46  1  0  0  0  0
 17 28  1  0  0  0  0
 24 36  1  0  0  0  0
M  CHG  1  24   1
M  END
$$$$

  -OEChem-05262214473D

 56 55  0     1  0  0  0  0  0999 V2000
    0.7735   -5.8042   -2.0022 C   0  0  0  0  0  0  0  0  0  0  0  0
   -0.2086   -6.3825   -1.5519 O   0  0  0  0  0  0  0  0  0  0  0  0
    1.4751   -6.3646   -3.1946 C   0  0  0  0  0  0  0  0  0  0  0  0
    2.2765   -7.0687   -2.9186 H   0  0  0  0  0  0  0  0  0  0  0  0
    0.7988   -6.9360   -3.8504 H   0  0  0  0  0  0  0  0  0  0  0  0
    1.9556   -5.6216   -3.8511 H   0  0  0  0  0  0  0  0  0  0  0  0
    1.3322   -4.6359   -1.5106 N   0  0  0  0  0  0  0  0  0  0  0  0
    0.8124   -3.9290   -0.3698 C   0  0  2  0  0  0  0  0  0  0  0  0
    1.0666   -2.4424   -0.5818 C   0  0  0  0  0  0  0  0  0  0  0  0
    2.0598   -2.0076   -1.1610 O   0  0  0  0  0  0  0  0  0  0  0  0
    1.4560   -4.4118    0.9207 C   0  0  0  0  0  0  0  0  0  0  0  0
    2.1528   -4.2578   -1.9805 H   0  0  0  0  0  0  0  0  0  0  0  0
   -0.2667   -4.1160   -0.3467 H   0  0  0  0  0  0  0  0  0  0  0  0
    2.5374   -4.2329    0.9160 H   0  0  0  0  0  0  0  0  0  0  0  0
    1.0390   -3.8932    1.7903 H   0  0  0  0  0  0  0  0  0  0  0  0
    1.2976   -5.4871    1.0566 H   0  0  0  0  0  0  0  0  0  0  0  0
    0.0755   -1.6529   -0.0105 N   0  0  0  0  0  0  0  0  0  0  0  0
    0.1113   -0.2132   -0.0391 C   0  0  2  0  0  0  0  0  0  0  0  0
    1.5283    0.2172    0.3250 C   0  0  0  0  0  0  0  0  0  0  0  0
    2.3465    0.5992   -0.5092 O   0  0  0  0  0  0  0  0  0  0  0  0
   -0.9019    0.4074    0.9280 C   0  0  0  0  0  0  0  0  0  0  0  0
   -2.3516    0.1412    0.5054 C   0  0  0  0  0  0  0  0  0  0  0  0
   -3.3558    0.7612    1.4715 C   0  0  0  0  0  0  0  0  0  0  0  0
   -4.7357    0.4855    1.0782 N   0  3  0  0  0  0  0  0  0  0  0  0
   -5.8278    0.8989    1.8435 C   0  0  0  0  0  0  0  0  0  0  0  0
   -7.1145    0.6009    1.4073 N   0  0  0  0  0  0  0  0  0  0  0  0
   -5.6606    1.6023    3.0318 N   0  0  0  0  0  0  0  0  0  0  0  0
   -0.7323   -2.1024    0.4149 H   0  0  0  0  0  0  0  0  0  0  0  0
   -0.1000    0.0893   -1.0711 H   0  0  0  0  0  0  0  0  0  0  0  0
   -0.7344    1.4896    0.9873 H   0  0  0  0  0  0  0  0  0  0  0  0
   -0.7393    0.0132    1.9399 H   0  0  0  0  0  0  0  0  0  0  0  0
   -2.5196    0.5390   -0.5026 H   0  0  0  0  0  0  0  0  0  0  0  0
   -2.5307   -0.9394    0.4655 H   0  0  0  0  0  0  0  0  0  0  0  0
   -3.2127    0.3402    2.4715 H   0  0  0  0  0  0  0  0  0  0  0  0
   -3.2279    1.8467    1.5251 H   0  0  0  0  0  0  0  0  0  0  0  0
   -4.9209   -0.0260    0.2172 H   0  0  0  0  0  0  0  0  0  0  0  0
   -7.9314    0.8878    1.9412 H   0  0  0  0  0  0  0  0  0  0  0  0
   -7.2725    0.0881    0.5433 H   0  0  0  0  0  0  0  0  0  0  0  0
   -6.4524    1.9057    3.5928 H   0  0  0  0  0  0  0  0  0  0  0  0
   -4.7315    1.8340    3.3756 H   0  0  0  0  0  0  0  0  0  0  0  0
    1.7843    0.0773    1.6819 N   0  0  0  0  0  0  0  0  0  0  0  0
    3.0688    0.3720    2.2741 C   0  0  2  0  0  0  0  0  0  0  0  0
    3.2724   -0.5736    3.4505 C   0  0  0  0  0  0  0  0  0  0  0  0
    2.3515   -0.9615    4.1665 O   0  0  0  0  0  0  0  0  0  0  0  0
    3.1517    1.8228    2.7223 C   0  0  0  0  0  0  0  0  0  0  0  0
    1.0356   -0.2155    2.3027 H   0  0  0  0  0  0  0  0  0  0  0  0
    3.8245    0.1698    1.5073 H   0  0  0  0  0  0  0  0  0  0  0  0
    2.4019    2.0443    3.4906 H   0  0  0  0  0  0  0  0  0  0  0  0
    4.1355    2.0520    3.1448 H   0  0  0  0  0  0  0  0  0  0  0  0
    2.9755    2.5014    1.8807 H   0  0  0  0  0  0  0  0  0  0  0  0
    4.6091   -0.8992    3.6331 N   0  0  0  0  0  0  0  0  0  0  0  0
    5.0648   -1.7476    4.7094 C   0  0  0  0  0  0  0  0  0  0  0  0
    5.3002   -0.5649    2.9680 H   0  0  0  0  0  0  0  0  0  0  0  0
    5.3441   -1.1266    5.5734 H   0  0  0  0  0  0  0  0  0  0  0  0
    4.2584   -2.4373    4.9992 H   0  0  0  0  0  0  0  0  0  0  0  0
    5.9392   -2.3255    4.3755 H   0  0  0  0  0  0  0  0  0  0  0  0
  1  3  1  0  0  0  0
  1  7  1  0  0  0  0
  1  2  2  0  0  0  0
 42 43  1  0  0  0  0
 43 51  1  0  0  0  0
 43 44  2  0  0  0  0
  8  9  1  0  0  0  0
  9 17  1  0  0  0  0
  9 10  2  0  0  0  0
 18 19  1  0  0  0  0
 19 41  1  0  0  0  0
 19 20  2  0  0  0  0
 25 26  1  0  0  0  0
 25 27  1  0  0  0  0
 24 25  2  0  0  0  0
 42 45  1  0  0  0  0
  8 11  1  0  0  0  0
 51 52  1  0  0  0  0
 21 22  1  0  0  0  0
 22 23  1  0  0  0  0
 18 21  1  0  0  0  0
 23 24  1  0  0  0  0
 41 42  1  0  0  0  0
  7  8  1  0  0  0  0
 17 18  1  0  0  0  0
  3  4  1  0  0  0  0
  3  5  1  0  0  0  0
  3  6  1  0  0  0  0
 45 48  1  0  0  0  0
 45 49  1  0  0  0  0
 45 50  1  0  0  0  0
 11 14  1  0  0  0  0
 11 15  1  0  0  0  0
 11 16  1  0  0  0  0
 52 54  1  0  0  0  0
 52 55  1  0  0  0  0
 52 56  1  0  0  0  0
 22 32  1  0  0  0  0
 22 33  1  0  0  0  0
 21 30  1  0  0  0  0
 21 31  1  0  0  0  0
 23 34  1  0  0  0  0
 23 35  1  0  0  0  0
 42 47  1  0  0  0  0
  8 13  1  0  0  0  0
 18 29  1  0  0  0  0
 26 37  1  0  0  0  0
 26 38  1  0  0  0  0
 27 39  1  0  0  0  0
 27 40  1  0  0  0  0
 51 53  1  0  0  0  0
  7 12  1  0  0  0  0
 41 46  1  0  0  0  0
 17 28  1  0  0  0  0
 24 36  1  0  0  0  0
M  CHG  1  24   1
M  END
$$$$

  -OEChem-05262214473D

 56 55  0     1  0  0  0  0  0999 V2000
    0.7735   -5.8042   -2.0022 C   0  0  0  0  0  0  0  0  0  0  0  0
   -0.2086   -6.3825   -1.5519 O   0  0  0  0  0  0  0  0  0  0  0  0
    1.4751   -6.3646   -3.1946 C   0  0  0  0  0  0  0  0  0  0  0  0
    2.2765   -7.0687   -2.9186 H   0  0  0  0  0  0  0  0  0  0  0  0
    0.7988   -6.9360   -3.8504 H   0  0  0  0  0  0  0  0  0  0  0  0
    1.9556   -5.6216   -3.8511 H   0  0  0  0  0  0  0  0  0  0  0  0
    1.3322   -4.6359   -1.5106 N   0  0  0  0  0  0  0  0  0  0  0  0
    0.8124   -3.9290   -0.3698 C   0  0  2  0  0  0  0  0  0  0  0  0
    1.0666   -2.4424   -0.5818 C   0  0  0  0  0  0  0  0  0  0  0  0
    2.0598   -2.0076   -1.1610 O   0  0  0  0  0  0  0  0  0  0  0  0
    1.4560   -4.4118    0.9207 C   0  0  0  0  0  0  0  0  0  0  0  0
    2.1528   -4.2578   -1.9805 H   0  0  0  0  0  0  0  0  0  0  0  0
   -0.2667   -4.1160   -0.3467 H   0  0  0  0  0  0  0  0  0  0  0  0
    2.5374   -4.2329    0.9160 H   0  0  0  0  0  0  0  0  0  0  0  0
    1.0390   -3.8932    1.7903 H   0  0  0  0  0  0  0  0  0  0  0  0
    1.2976   -5.4871    1.0566 H   0  0  0  0  0  0  0  0  0  0  0  0
    0.0755   -1.6529   -0.0105 N   0  0  0  0  0  0  0  0  0  0  0  0
    0.1113   -0.2132   -0.0391 C   0  0  2  0  0  0  0  0  0  0  0  0
    1.5283    0.2172    0.3250 C   0  0  0  0  0  0  0  0  0  0  0  0
    2.2552    0.8437   -0.4433 O   0  0  0  0  0  0  0  0  0  0  0  0
   -0.9019    0.4074    0.9280 C   0  0  0  0  0  0  0  0  0  0  0  0
   -2.3516    0.1412    0.5054 C   0  0  0  0  0  0  0  0  0  0  0  0
   -3.3558    0.7612    1.4715 C   0  0  0  0  0  0  0  0  0  0  0  0
   -4.7357    0.4855    1.0782 N   0  3  0  0  0  0  0  0  0  0  0  0
   -5.8278    0.8989    1.8435 C   0  0  0  0  0  0  0  0  0  0  0  0
   -7.1145    0.6009    1.4073 N   0  0  0  0  0  0  0  0  0  0  0  0
   -5.6606    1.6023    3.0318 N   0  0  0  0  0  0  0  0  0  0  0  0
   -0.7323   -2.1024    0.4149 H   0  0  0  0  0  0  0  0  0  0  0  0
   -0.1000    0.0893   -1.0711 H   0  0  0  0  0  0  0  0  0  0  0  0
   -0.7344    1.4896    0.9873 H   0  0  0  0  0  0  0  0  0  0  0  0
   -0.7393    0.0132    1.9399 H   0  0  0  0  0  0  0  0  0  0  0  0
   -2.5196    0.5390   -0.5026 H   0  0  0  0  0  0  0  0  0  0  0  0
   -2.5307   -0.9394    0.4655 H   0  0  0  0  0  0  0  0  0  0  0  0
   -3.2127    0.3402    2.4715 H   0  0  0  0  0  0  0  0  0  0  0  0
   -3.2279    1.8467    1.5251 H   0  0  0  0  0  0  0  0  0  0  0  0
   -4.9209   -0.0260    0.2172 H   0  0  0  0  0  0  0  0  0  0  0  0
   -7.9314    0.8878    1.9412 H   0  0  0  0  0  0  0  0  0  0  0  0
   -7.2725    0.0881    0.5433 H   0  0  0  0  0  0  0  0  0  0  0  0
   -6.4524    1.9057    3.5928 H   0  0  0  0  0  0  0  0  0  0  0  0
   -4.7315    1.8340    3.3756 H   0  0  0  0  0  0  0  0  0  0  0  0
    1.8999   -0.2234    1.5875 N   0  0  0  0  0  0  0  0  0  0  0  0
    3.2106    0.0118    2.1482 C   0  0  2  0  0  0  0  0  0  0  0  0
    3.5580   -1.1699    3.0438 C   0  0  0  0  0  0  0  0  0  0  0  0
    2.7196   -1.7813    3.7030 O   0  0  0  0  0  0  0  0  0  0  0  0
    3.2525    1.3163    2.9288 C   0  0  0  0  0  0  0  0  0  0  0  0
    1.2202   -0.7078    2.1663 H   0  0  0  0  0  0  0  0  0  0  0  0
    3.9116    0.0521    1.3074 H   0  0  0  0  0  0  0  0  0  0  0  0
    2.5565    1.2948    3.7753 H   0  0  0  0  0  0  0  0  0  0  0  0
    4.2537    1.5072    3.3289 H   0  0  0  0  0  0  0  0  0  0  0  0
    2.9734    2.1616    2.2905 H   0  0  0  0  0  0  0  0  0  0  0  0
    4.9204   -1.4342    3.0540 N   0  0  0  0  0  0  0  0  0  0  0  0
    5.5057   -2.4802    3.8599 C   0  0  0  0  0  0  0  0  0  0  0  0
    5.5370   -0.9031    2.4462 H   0  0  0  0  0  0  0  0  0  0  0  0
    5.8204   -2.0647    4.8286 H   0  0  0  0  0  0  0  0  0  0  0  0
    4.7627   -3.2743    4.0257 H   0  0  0  0  0  0  0  0  0  0  0  0
    6.3796   -2.8986    3.3392 H   0  0  0  0  0  0  0  0  0  0  0  0
  1  3  1  0  0  0  0
  1  7  1  0  0  0  0
  1  2  2  0  0  0  0
 42 43  1  0  0  0  0
 43 51  1  0  0  0  0
 43 44  2  0  0  0  0
  8  9  1  0  0  0  0
  9 17  1  0  0  0  0
  9 10  2  0  0  0  0
 18 19  1  0  0  0  0
 19 41  1  0  0  0  0
 19 20  2  0  0  0  0
 25 26  1  0  0  0  0
 25 27  1  0  0  0  0
 24 25  2  0  0  0  0
 42 45  1  0  0  0  0
  8 11  1  0  0  0  0
 51 52  1  0  0  0  0
 21 22  1  0  0  0  0
 22 23  1  0  0  0  0
 18 21  1  0  0  0  0
 23 24  1  0  0  0  0
 41 42  1  0  0  0  0
  7  8  1  0  0  0  0
 17 18  1  0  0  0  0
  3  4  1  0  0  0  0
  3  5  1  0  0  0  0
  3  6  1  0  0  0  0
 45 48  1  0  0  0  0
 45 49  1  0  0  0  0
 45 50  1  0  0  0  0
 11 14  1  0  0  0  0
 11 15  1  0  0  0  0
 11 16  1  0  0  0  0
 52 54  1  0  0  0  0
 52 55  1  0  0  0  0
 52 56  1  0  0  0  0
 22 32  1  0  0  0  0
 22 33  1  0  0  0  0
 21 30  1  0  0  0  0
 21 31  1  0  0  0  0
 23 34  1  0  0  0  0
 23 35  1  0  0  0  0
 42 47  1  0  0  0  0
  8 13  1  0  0  0  0
 18 29  1  0  0  0  0
 26 37  1  0  0  0  0
 26 38  1  0  0  0  0
 27 39  1  0  0  0  0
 27 40  1  0  0  0  0
 51 53  1  0  0  0  0
  7 12  1  0  0  0  0
 41 46  1  0  0  0  0
 17 28  1  0  0  0  0
 24 36  1  0  0  0  0
M  CHG  1  24   1
M  END
$$$$

  -OEChem-05262214473D

 56 55  0     1  0  0  0  0  0999 V2000
    0.7735   -5.8042   -2.0022 C   0  0  0  0  0  0  0  0  0  0  0  0
   -0.2086   -6.3825   -1.5519 O   0  0  0  0  0  0  0  0  0  0  0  0
    1.4751   -6.3646   -3.1946 C   0  0  0  0  0  0  0  0  0  0  0  0
    2.2765   -7.0687   -2.9186 H   0  0  0  0  0  0  0  0  0  0  0  0
    0.7988   -6.9360   -3.8504 H   0  0  0  0  0  0  0  0  0  0  0  0
    1.9556   -5.6216   -3.8511 H   0  0  0  0  0  0  0  0  0  0  0  0
    1.3322   -4.6359   -1.5106 N   0  0  0  0  0  0  0  0  0  0  0  0
    0.8124   -3.9290   -0.3698 C   0  0  2  0  0  0  0  0  0  0  0  0
    1.0666   -2.4424   -0.5818 C   0  0  0  0  0  0  0  0  0  0  0  0
    2.0598   -2.0076   -1.1610 O   0  0  0  0  0  0  0  0  0  0  0  0
    1.4560   -4.4118    0.9207 C   0  0  0  0  0  0  0  0  0  0  0  0
    2.1528   -4.2578   -1.9805 H   0  0  0  0  0  0  0  0  0  0  0  0
   -0.2667   -4.1160   -0.3467 H   0  0  0  0  0  0  0  0  0  0  0  0
    2.5374   -4.2329    0.9160 H   0  0  0  0  0  0  0  0  0  0  0  0
    1.0390   -3.8932    1.7903 H   0  0  0  0  0  0  0  0  0  0  0  0
    1.2976   -5.4871    1.0566 H   0  0  0  0  0  0  0  0  0  0  0  0
    0.0755   -1.6529   -0.0105 N   0  0  0  0  0  0  0  0  0  0  0  0
    0.1113   -0.2132   -0.0391 C   0  0  2  0  0  0  0  0  0  0  0  0
    1.5283    0.2172    0.3250 C   0  0  0  0  0  0  0  0  0  0  0  0
    2.1568    1.0585   -0.3141 O   0  0  0  0  0  0  0  0  0  0  0  0
   -0.9019    0.4074    0.9280 C   0  0  0  0  0  0  0  0  0  0  0  0
   -2.3516    0.1412    0.5054 C   0  0  0  0  0  0  0  0  0  0  0  0
   -3.3558    0.7612    1.4715 C   0  0  0  0  0  0  0  0  0  0  0  0
   -4.7357    0.4855    1.0782 N   0  3  0  0  0  0  0  0  0  0  0  0
   -5.8278    0.8989    1.8435 C   0  0  0  0  0  0  0  0  0  0  0  0
   -7.1145    0.6009    1.4073 N   0  0  0  0  0  0  0  0  0  0  0  0
   -5.6606    1.6023    3.0318 N   0  0  0  0  0  0  0  0  0  0  0  0
   -0.7323   -2.1024    0.4149 H   0  0  0  0  0  0  0  0  0  0  0  0
   -0.1000    0.0893   -1.0711 H   0  0  0  0  0  0  0  0  0  0  0  0
   -0.7344    1.4896    0.9873 H   0  0  0  0  0  0  0  0  0  0  0  0
   -0.7393    0.0132    1.9399 H   0  0  0  0  0  0  0  0  0  0  0  0
   -2.5196    0.5390   -0.5026 H   0  0  0  0  0  0  0  0  0  0  0  0
   -2.5307   -0.9394    0.4655 H   0  0  0  0  0  0  0  0  0  0  0  0
   -3.2127    0.3402    2.4715 H   0  0  0  0  0  0  0  0  0  0  0  0
   -3.2279    1.8467    1.5251 H   0  0  0  0  0  0  0  0  0  0  0  0
   -4.9209   -0.0260    0.2172 H   0  0  0  0  0  0  0  0  0  0  0  0
   -7.9314    0.8878    1.9412 H   0  0  0  0  0  0  0  0  0  0  0  0
   -7.2725    0.0881    0.5433 H   0  0  0  0  0  0  0  0  0  0  0  0
   -6.4524    1.9057    3.5928 H   0  0  0  0  0  0  0  0  0  0  0  0
   -4.7315    1.8340    3.3756 H   0  0  0  0  0  0  0  0  0  0  0  0
    2.0233   -0.4840    1.4157 N   0  0  0  0  0  0  0  0  0  0  0  0
    3.3606   -0.2970    1.9296 C   0  0  2  0  0  0  0  0  0  0  0  0
    3.8410   -1.6305    2.4868 C   0  0  0  0  0  0  0  0  0  0  0  0
    3.0920   -2.4390    3.0312 O   0  0  0  0  0  0  0  0  0  0  0  0
    3.3963    0.7836    2.9990 C   0  0  0  0  0  0  0  0  0  0  0  0
    1.4190   -1.1392    1.9028 H   0  0  0  0  0  0  0  0  0  0  0  0
    3.9885   -0.0082    1.0796 H   0  0  0  0  0  0  0  0  0  0  0  0
    2.7729    0.5119    3.8587 H   0  0  0  0  0  0  0  0  0  0  0  0
    4.4150    0.9441    3.3671 H   0  0  0  0  0  0  0  0  0  0  0  0
    3.0224    1.7347    2.6047 H   0  0  0  0  0  0  0  0  0  0  0  0
    5.2119   -1.7926    2.3433 N   0  0  0  0  0  0  0  0  0  0  0  0
    5.9147   -2.9563    2.8310 C   0  0  0  0  0  0  0  0  0  0  0  0
    5.7486   -1.0897    1.8435 H   0  0  0  0  0  0  0  0  0  0  0  0
    6.2841   -2.7623    3.8488 H   0  0  0  0  0  0  0  0  0  0  0  0
    5.2306   -3.8175    2.8473 H   0  0  0  0  0  0  0  0  0  0  0  0
    6.7647   -3.1757    2.1682 H   0  0  0  0  0  0  0  0  0  0  0  0
  1  3  1  0  0  0  0
  1  7  1  0  0  0  0
  1  2  2  0  0  0  0
 42 43  1  0  0  0  0
 43 51  1  0  0  0  0
 43 44  2  0  0  0  0
  8  9  1  0  0  0  0
  9 17  1  0  0  0  0
  9 10  2  0  0  0  0
 18 19  1  0  0  0  0
 19 41  1  0  0  0  0
 19 20  2  0  0  0  0
 25 26  1  0  0  0  0
 25 27  1  0  0  0  0
 24 25  2  0  0  0  0
 42 45  1  0  0  0  0
  8 11  1  0  0  0  0
 51 52  1  0  0  0  0
 21 22  1  0  0  0  0
 22 23  1  0  0  0  0
 18 21  1  0  0  0  0
 23 24  1  0  0  0  0
 41 42  1  0  0  0  0
  7  8  1  0  0  0  0
 17 18  1  0  0  0  0
  3  4  1  0  0  0  0
  3  5  1  0  0  0  0
  3  6  1  0  0  0  0
 45 48  1  0  0  0  0
 45 49  1  0  0  0  0
 45 50  1  0  0  0  0
 11 14  1  0  0  0  0
 11 15  1  0  0  0  0
 11 16  1  0  0  0  0
 52 54  1  0  0  0  0
 52 55  1  0  0  0  0
 52 56  1  0  0  0  0
 22 32  1  0  0  0  0
 22 33  1  0  0  0  0
 21 30  1  0  0  0  0
 21 31  1  0  0  0  0
 23 34  1  0  0  0  0
 23 35  1  0  0  0  0
 42 47  1  0  0  0  0
  8 13  1  0  0  0  0
 18 29  1  0  0  0  0
 26 37  1  0  0  0  0
 26 38  1  0  0  0  0
 27 39  1  0  0  0  0
 27 40  1  0  0  0  0
 51 53  1  0  0  0  0
  7 12  1  0  0  0  0
 41 46  1  0  0  0  0
 17 28  1  0  0  0  0
 24 36  1  0  0  0  0
M  CHG  1  24   1
M  END
$$$$

  -OEChem-05262214473D

 56 55  0     1  0  0  0  0  0999 V2000
    0.7735   -5.8042   -2.0022 C   0  0  0  0  0  0  0  0  0  0  0  0
   -0.2086   -6.3825   -1.5519 O   0  0  0  0  0  0  0  0  0  0  0  0
    1.4751   -6.3646   -3.1946 C   0  0  0  0  0  0  0  0  0  0  0  0
    2.2765   -7.0687   -2.9186 H   0  0  0  0  0  0  0  0  0  0  0  0
    0.7988   -6.9360   -3.8504 H   0  0  0  0  0  0  0  0  0  0  0  0
    1.9556   -5.6216   -3.8511 H   0  0  0  0  0  0  0  0  0  0  0  0
    1.3322   -4.6359   -1.5106 N   0  0  0  0  0  0  0  0  0  0  0  0
    0.8124   -3.9290   -0.3698 C   0  0  2  0  0  0  0  0  0  0  0  0
    1.0666   -2.4424   -0.5818 C   0  0  0  0  0  0  0  0  0  0  0  0
    2.0598   -2.0076   -1.1610 O   0  0  0  0  0  0  0  0  0  0  0  0
    1.4560   -4.4118    0.9207 C   0  0  0  0  0  0  0  0  0  0  0  0
    2.1528   -4.2578   -1.9805 H   0  0  0  0  0  0  0  0  0  0  0  0
   -0.2667   -4.1160   -0.3467 H   0  0  0  0  0  0  0  0  0  0  0  0
    2.5374   -4.2329    0.9160 H   0  0  0  0  0  0  0  0  0  0  0  0
    1.0390   -3.8932    1.7903 H   0  0  0  0  0  0  0  0  0  0  0  0
    1.2976   -5.4871    1.0566 H   0  0  0  0  0  0  0  0  0  0  0  0
    0.0755   -1.6529   -0.0105 N   0  0  0  0  0  0  0  0  0  0  0  0
    0.1113   -0.2132   -0.0391 C   0  0  2  0  0  0  0  0  0  0  0  0
    1.5283    0.2172    0.3250 C   0  0  0  0  0  0  0  0  0  0  0  0
    2.0579    1.2288   -0.1304 O   0  0  0  0  0  0  0  0  0  0  0  0
   -0.9019    0.4074    0.9280 C   0  0  0  0  0  0  0  0  0  0  0  0
   -2.3516    0.1412    0.5054 C   0  0  0  0  0  0  0  0  0  0  0  0
   -3.3558    0.7612    1.4715 C   0  0  0  0  0  0  0  0  0  0  0  0
   -4.7357    0.4855    1.0782 N   0  3  0  0  0  0  0  0  0  0  0  0
   -5.8278    0.8989    1.8435 C   0  0  0  0  0  0  0  0  0  0  0  0
   -7.1145    0.6009    1.4073 N   0  0  0  0  0  0  0  0  0  0  0  0
   -5.6606    1.6023    3.0318 N   0  0  0  0  0  0  0  0  0  0  0  0
   -0.7323   -2.1024    0.4149 H   0  0  0  0  0  0  0  0  0  0  0  0
   -0.1000    0.0893   -1.0711 H   0  0  0  0  0  0  0  0  0  0  0  0
   -0.7344    1.4896    0.9873 H   0  0  0  0  0  0  0  0  0  0  0  0
   -0.7393    0.0132    1.9399 H   0  0  0  0  0  0  0  0  0  0  0  0
   -2.5196    0.5390   -0.5026 H   0  0  0  0  0  0  0  0  0  0  0  0
   -2.5307   -0.9394    0.4655 H   0  0  0  0  0  0  0  0  0  0  0  0
   -3.2127    0.3402    2.4715 H   0  0  0  0  0  0  0  0  0  0  0  0
   -3.2279    1.8467    1.5251 H   0  0  0  0  0  0  0  0  0  0  0  0
   -4.9209   -0.0260    0.2172 H   0  0  0  0  0  0  0  0  0  0  0  0
   -7.9314    0.8878    1.9412 H   0  0  0  0  0  0  0  0  0  0  0  0
   -7.2725    0.0881    0.5433 H   0  0  0  0  0  0  0  0  0  0  0  0
   -6.4524    1.9057    3.5928 H   0  0  0  0  0  0  0  0  0  0  0  0
   -4.7315    1.8340    3.3756 H   0  0  0  0  0  0  0  0  0  0  0  0
    2.1459   -0.6868    1.1779 N   0  0  0  0  0  0  0  0  0  0  0  0
    3.5086   -0.5335    1.6332 C   0  0  2  0  0  0  0  0  0  0  0  0
    4.1022   -1.9239    1.8173 C   0  0  0  0  0  0  0  0  0  0  0  0
    3.4433   -2.8896    2.1970 O   0  0  0  0  0  0  0  0  0  0  0  0
    3.5732    0.2610    2.9283 C   0  0  0  0  0  0  0  0  0  0  0  0
    1.6184   -1.4802    1.5299 H   0  0  0  0  0  0  0  0  0  0  0  0
    4.0497   -0.0068    0.8396 H   0  0  0  0  0  0  0  0  0  0  0  0
    3.0363   -0.2510    3.7352 H   0  0  0  0  0  0  0  0  0  0  0  0
    4.6083    0.4008    3.2568 H   0  0  0  0  0  0  0  0  0  0  0  0
    3.1190    1.2497    2.8020 H   0  0  0  0  0  0  0  0  0  0  0  0
    5.4637   -1.9497    1.5492 N   0  0  0  0  0  0  0  0  0  0  0  0
    6.2640   -3.1434    1.6928 C   0  0  0  0  0  0  0  0  0  0  0  0
    5.9204   -1.1119    1.2011 H   0  0  0  0  0  0  0  0  0  0  0  0
    6.7035   -3.1718    2.7008 H   0  0  0  0  0  0  0  0  0  0  0  0
    5.6299   -4.0299    1.5443 H   0  0  0  0  0  0  0  0  0  0  0  0
    7.0682   -3.1379    0.9423 H   0  0  0  0  0  0  0  0  0  0  0  0
  1  3  1  0  0  0  0
  1  7  1  0  0  0  0
  1  2  2  0  0  0  0
 42 43  1  0  0  0  0
 43 51  1  0  0  0  0
 43 44  2  0  0  0  0
  8  9  1  0  0  0  0
  9 17  1  0  0  0  0
  9 10  2  0  0  0  0
 18 19  1  0  0  0  0
 19 41  1  0  0  0  0
 19 20  2  0  0  0  0
 25 26  1  0  0  0  0
 25 27  1  0  0  0  0
 24 25  2  0  0  0  0
 42 45  1  0  0  0  0
  8 11  1  0  0  0  0
 51 52  1  0  0  0  0
 21 22  1  0  0  0  0
 22 23  1  0  0  0  0
 18 21  1  0  0  0  0
 23 24  1  0  0  0  0
 41 42  1  0  0  0  0
  7  8  1  0  0  0  0
 17 18  1  0  0  0  0
  3  4  1  0  0  0  0
  3  5  1  0  0  0  0
  3  6  1  0  0  0  0
 45 48  1  0  0  0  0
 45 49  1  0  0  0  0
 45 50  1  0  0  0  0
 11 14  1  0  0  0  0
 11 15  1  0  0  0  0
 11 16  1  0  0  0  0
 52 54  1  0  0  0  0
 52 55  1  0  0  0  0
 52 56  1  0  0  0  0
 22 32  1  0  0  0  0
 22 33  1  0  0  0  0
 21 30  1  0  0  0  0
 21 31  1  0  0  0  0
 23 34  1  0  0  0  0
 23 35  1  0  0  0  0
 42 47  1  0  0  0  0
  8 13  1  0  0  0  0
 18 29  1  0  0  0  0
 26 37  1  0  0  0  0
 26 38  1  0  0  0  0
 27 39  1  0  0  0  0
 27 40  1  0  0  0  0
 51 53  1  0  0  0  0
  7 12  1  0  0  0  0
 41 46  1  0  0  0  0
 17 28  1  0  0  0  0
 24 36  1  0  0  0  0
M  CHG  1  24   1
M  END
$$$$

  -OEChem-05262214473D

 56 55  0     1  0  0  0  0  0999 V2000
    0.7735   -5.8042   -2.0022 C   0  0  0  0  0  0  0  0  0  0  0  0
   -0.2086   -6.3825   -1.5519 O   0  0  0  0  0  0  0  0  0  0  0  0
    1.4751   -6.3646   -3.1946 C   0  0  0  0  0  0  0  0  0  0  0  0
    2.2765   -7.0687   -2.9186 H   0  0  0  0  0  0  0  0  0  0  0  0
    0.7988   -6.9360   -3.8504 H   0  0  0  0  0  0  0  0  0  0  0  0
    1.9556   -5.6216   -3.8511 H   0  0  0  0  0  0  0  0  0  0  0  0
    1.3322   -4.6359   -1.5106 N   0  0  0  0  0  0  0  0  0  0  0  0
    0.8124   -3.9290   -0.3698 C   0  0  2  0  0  0  0  0  0  0  0  0
    1.0666   -2.4424   -0.5818 C   0  0  0  0  0  0  0  0  0  0  0  0
    2.0598   -2.0076   -1.1610 O   0  0  0  0  0  0  0  0  0  0  0  0
    1.4560   -4.4118    0.9207 C   0  0  0  0  0  0  0  0  0  0  0  0
    2.1528   -4.2578   -1.9805 H   0  0  0  0  0  0  0  0  0  0  0  0
   -0.2667   -4.1160   -0.3467 H   0  0  0  0  0  0  0  0  0  0  0  0
    2.5374   -4.2329    0.9160 H   0  0  0  0  0  0  0  0  0  0  0  0
    1.0390   -3.8932    1.7903 H   0  0  0  0  0  0  0  0  0  0  0  0
    1.2976   -5.4871    1.0566 H   0  0  0  0  0  0  0  0  0  0  0  0
    0.0755   -1.6529   -0.0105 N   0  0  0  0  0  0  0  0  0  0  0  0
    0.1113   -0.2132   -0.0391 C   0  0  2  0  0  0  0  0  0  0  0  0
    1.5283    0.2172    0.3250 C   0  0  0  0  0  0  0  0  0  0  0  0
    1.9652    1.3430    0.0951 O   0  0  0  0  0  0  0  0  0  0  0  0
   -0.9019    0.4074    0.9280 C   0  0  0  0  0  0  0  0  0  0  0  0
   -2.3516    0.1412    0.5054 C   0  0  0  0  0  0  0  0  0  0  0  0
   -3.3558    0.7612    1.4715 C   0  0  0  0  0  0  0  0  0  0  0  0
   -4.7357    0.4855    1.0782 N   0  3  0  0  0  0  0  0  0  0  0  0
   -5.8278    0.8989    1.8435 C   0  0  0  0  0  0  0  0  0  0  0  0
   -7.1145    0.6009    1.4073 N   0  0  0  0  0  0  0  0  0  0  0  0
   -5.6606    1.6023    3.0318 N   0  0  0  0  0  0  0  0  0  0  0  0
   -0.7323   -2.1024    0.4149 H   0  0  0  0  0  0  0  0  0  0  0  0
   -0.1000    0.0893   -1.0711 H   0  0  0  0  0  0  0  0  0  0  0  0
   -0.7344    1.4896    0.9873 H   0  0  0  0  0  0  0  0  0  0  0  0
   -0.7393    0.0132    1.9399 H   0  0  0  0  0  0  0  0  0  0  0  0
   -2.5196    0.5390   -0.5026 H   0  0  0  0  0  0  0  0  0  0  0  0
   -2.5307   -0.9394    0.4655 H   0  0  0  0  0  0  0  0  0  0  0  0
   -3.2127    0.3402    2.4715 H   0  0  0  0  0  0  0  0  0  0  0  0
   -3.2279    1.8467    1.5251 H   0  0  0  0  0  0  0  0  0  0  0  0
   -4.9209   -0.0260    0.2172 H   0  0  0  0  0  0  0  0  0  0  0  0
   -7.9314    0.8878    1.9412 H   0  0  0  0  0  0  0  0  0  0  0  0
   -7.2725    0.0881    0.5433 H   0  0  0  0  0  0  0  0  0  0  0  0
   -6.4524    1.9057    3.5928 H   0  0  0  0  0  0  0  0  0  0  0  0
   -4.7315    1.8340    3.3756 H   0  0  0  0  0  0  0  0  0  0  0  0
    2.2596   -0.8180    0.8906 N   0  0  0  0  0  0  0  0  0  0  0  0
    3.6445   -0.6815    1.2792 C   0  0  2  0  0  0  0  0  0  0  0  0
    4.3237   -2.0301    1.0810 C   0  0  0  0  0  0  0  0  0  0  0  0
    3.7495   -3.1027    1.2571 O   0  0  0  0  0  0  0  0  0  0  0  0
    3.7712   -0.2158    2.7213 C   0  0  0  0  0  0  0  0  0  0  0  0
    1.8048   -1.7076    1.0732 H   0  0  0  0  0  0  0  0  0  0  0  0
    4.0913    0.0560    0.6035 H   0  0  0  0  0  0  0  0  0  0  0  0
    3.3290   -0.9419    3.4132 H   0  0  0  0  0  0  0  0  0  0  0  0
    4.8206   -0.0854    3.0054 H   0  0  0  0  0  0  0  0  0  0  0  0
    3.2566    0.7399    2.8690 H   0  0  0  0  0  0  0  0  0  0  0  0
    5.6586   -1.8950    0.7261 N   0  0  0  0  0  0  0  0  0  0  0  0
    6.5298   -3.0288    0.5228 C   0  0  0  0  0  0  0  0  0  0  0  0
    6.0408   -0.9682    0.5626 H   0  0  0  0  0  0  0  0  0  0  0  0
    7.0501   -3.2653    1.4627 H   0  0  0  0  0  0  0  0  0  0  0  0
    5.9336   -3.8970    0.2054 H   0  0  0  0  0  0  0  0  0  0  0  0
    7.2695   -2.7879   -0.2549 H   0  0  0  0  0  0  0  0  0  0  0  0
  1  3  1  0  0  0  0
  1  7  1  0  0  0  0
  1  2  2  0  0  0  0
 42 43  1  0  0  0  0
 43 51  1  0  0  0  0
 43 44  2  0  0  0  0
  8  9  1  0  0  0  0
  9 17  1  0  0  0  0
  9 10  2  0  0  0  0
 18 19  1  0  0  0  0
 19 41  1  0  0  0  0
 19 20  2  0  0  0  0
 25 26  1  0  0  0  0
 25 27  1  0  0  0  0
 24 25  2  0  0  0  0
 42 45  1  0  0  0  0
  8 11  1  0  0  0  0
 51 52  1  0  0  0  0
 21 22  1  0  0  0  0
 22 23  1  0  0  0  0
 18 21  1  0  0  0  0
 23 24  1  0  0  0  0
 41 42  1  0  0  0  0
  7  8  1  0  0  0  0
 17 18  1  0  0  0  0
  3  4  1  0  0  0  0
  3  5  1  0  0  0  0
  3  6  1  0  0  0  0
 45 48  1  0  0  0  0
 45 49  1  0  0  0  0
 45 50  1  0  0  0  0
 11 14  1  0  0  0  0
 11 15  1  0  0  0  0
 11 16  1  0  0  0  0
 52 54  1  0  0  0  0
 52 55  1  0  0  0  0
 52 56  1  0  0  0  0
 22 32  1  0  0  0  0
 22 33  1  0  0  0  0
 21 30  1  0  0  0  0
 21 31  1  0  0  0  0
 23 34  1  0  0  0  0
 23 35  1  0  0  0  0
 42 47  1  0  0  0  0
  8 13  1  0  0  0  0
 18 29  1  0  0  0  0
 26 37  1  0  0  0  0
 26 38  1  0  0  0  0
 27 39  1  0  0  0  0
 27 40  1  0  0  0  0
 51 53  1  0  0  0  0
  7 12  1  0  0  0  0
 41 46  1  0  0  0  0
 17 28  1  0  0  0  0
 24 36  1  0  0  0  0
M  CHG  1  24   1
M  END
$$$$

  -OEChem-05262214473D

 56 55  0     1  0  0  0  0  0999 V2000
    0.7735   -5.8042   -2.0022 C   0  0  0  0  0  0  0  0  0  0  0  0
   -0.2086   -6.3825   -1.5519 O   0  0  0  0  0  0  0  0  0  0  0  0
    1.4751   -6.3646   -3.1946 C   0  0  0  0  0  0  0  0  0  0  0  0
    2.2765   -7.0687   -2.9186 H   0  0  0  0  0  0  0  0  0  0  0  0
    0.7988   -6.9360   -3.8504 H   0  0  0  0  0  0  0  0  0  0  0  0
    1.9556   -5.6216   -3.8511 H   0  0  0  0  0  0  0  0  0  0  0  0
    1.3322   -4.6359   -1.5106 N   0  0  0  0  0  0  0  0  0  0  0  0
    0.8124   -3.9290   -0.3698 C   0  0  2  0  0  0  0  0  0  0  0  0
    1.0666   -2.4424   -0.5818 C   0  0  0  0  0  0  0  0  0  0  0  0
    2.0598   -2.0076   -1.1610 O   0  0  0  0  0  0  0  0  0  0  0  0
    1.4560   -4.4118    0.9207 C   0  0  0  0  0  0  0  0  0  0  0  0
    2.1528   -4.2578   -1.9805 H   0  0  0  0  0  0  0  0  0  0  0  0
   -0.2667   -4.1160   -0.3467 H   0  0  0  0  0  0  0  0  0  0  0  0
    2.5374   -4.2329    0.9160 H   0  0  0  0  0  0  0  0  0  0  0  0
    1.0390   -3.8932    1.7903 H   0  0  0  0  0  0  0  0  0  0  0  0
    1.2976   -5.4871    1.0566 H   0  0  0  0  0  0  0  0  0  0  0  0
    0.0755   -1.6529   -0.0105 N   0  0  0  0  0  0  0  0  0  0  0  0
    0.1113   -0.2132   -0.0391 C   0  0  2  0  0  0  0  0  0  0  0  0
    1.5283    0.2172    0.3250 C   0  0  0  0  0  0  0  0  0  0  0  0
    1.8852    1.3933    0.3472 O   0  0  0  0  0  0  0  0  0  0  0  0
   -0.9019    0.4074    0.9280 C   0  0  0  0  0  0  0  0  0  0  0  0
   -2.3516    0.1412    0.5054 C   0  0  0  0  0  0  0  0  0  0  0  0
   -3.3558    0.7612    1.4715 C   0  0  0  0  0  0  0  0  0  0  0  0
   -4.7357    0.4855    1.0782 N   0  3  0  0  0  0  0  0  0  0  0  0
   -5.8278    0.8989    1.8435 C   0  0  0  0  0  0  0  0  0  0  0  0
   -7.1145    0.6009    1.4073 N   0  0  0  0  0  0  0  0  0  0  0  0
   -5.6606    1.6023    3.0318 N   0  0  0  0  0  0  0  0  0  0  0  0
   -0.7323   -2.1024    0.4149 H   0  0  0  0  0  0  0  0  0  0  0  0
   -0.1000    0.0893   -1.0711 H   0  0  0  0  0  0  0  0  0  0  0  0
   -0.7344    1.4896    0.9873 H   0  0  0  0  0  0  0  0  0  0  0  0
   -0.7393    0.0132    1.9399 H   0  0  0  0  0  0  0  0  0  0  0  0
   -2.5196    0.5390   -0.5026 H   0  0  0  0  0  0  0  0  0  0  0  0
   -2.5307   -0.9394    0.4655 H   0  0  0  0  0  0  0  0  0  0  0  0
   -3.2127    0.3402    2.4715 H   0  0  0  0  0  0  0  0  0  0  0  0
   -3.2279    1.8467    1.5251 H   0  0  0  0  0  0  0  0  0  0  0  0
   -4.9209   -0.0260    0.2172 H   0  0  0  0  0  0  0  0  0  0  0  0
   -7.9314    0.8878    1.9412 H   0  0  0  0  0  0  0  0  0  0  0  0
   -7.2725    0.0881    0.5433 H   0  0  0  0  0  0  0  0  0  0  0  0
   -6.4524    1.9057    3.5928 H   0  0  0  0  0  0  0  0  0  0  0  0
   -4.7315    1.8340    3.3756 H   0  0  0  0  0  0  0  0  0  0  0  0
    2.3565   -0.8685    0.5732 N   0  0  0  0  0  0  0  0  0  0  0  0
    3.7590   -0.7309    0.8918 C   0  0  2  0  0  0  0  0  0  0  0  0
    4.4904   -1.9420    0.3280 C   0  0  0  0  0  0  0  0  0  0  0  0
    3.9898   -3.0635    0.2757 O   0  0  0  0  0  0  0  0  0  0  0  0
    3.9768   -0.6144    2.3923 C   0  0  0  0  0  0  0  0  0  0  0  0
    1.9656   -1.8059    0.5638 H   0  0  0  0  0  0  0  0  0  0  0  0
    4.1104    0.1760    0.3876 H   0  0  0  0  0  0  0  0  0  0  0  0
    3.6308   -1.5138    2.9146 H   0  0  0  0  0  0  0  0  0  0  0  0
    5.0374   -0.4815    2.6302 H   0  0  0  0  0  0  0  0  0  0  0  0
    3.4260    0.2398    2.8009 H   0  0  0  0  0  0  0  0  0  0  0  0
    5.7833   -1.6322   -0.0701 N   0  0  0  0  0  0  0  0  0  0  0  0
    6.6941   -2.6204   -0.5992 C   0  0  0  0  0  0  0  0  0  0  0  0
    6.1016   -0.6685   -0.0284 H   0  0  0  0  0  0  0  0  0  0  0  0
    7.3001   -3.0366    0.2190 H   0  0  0  0  0  0  0  0  0  0  0  0
    6.1209   -3.4279   -1.0781 H   0  0  0  0  0  0  0  0  0  0  0  0
    7.3549   -2.1495   -1.3419 H   0  0  0  0  0  0  0  0  0  0  0  0
  1  3  1  0  0  0  0
  1  7  1  0  0  0  0
  1  2  2  0  0  0  0
 42 43  1  0  0  0  0
 43 51  1  0  0  0  0
 43 44  2  0  0  0  0
  8  9  1  0  0  0  0
  9 17  1  0  0  0  0
  9 10  2  0  0  0  0
 18 19  1  0  0  0  0
 19 41  1  0  0  0  0
 19 20  2  0  0  0  0
 25 26  1  0  0  0  0
 25 27  1  0  0  0  0
 24 25  2  0  0  0  0
 42 45  1  0  0  0  0
  8 11  1  0  0  0  0
 51 52  1  0  0  0  0
 21 22  1  0  0  0  0
 22 23  1  0  0  0  0
 18 21  1  0  0  0  0
 23 24  1  0  0  0  0
 41 42  1  0  0  0  0
  7  8  1  0  0  0  0
 17 18  1  0  0  0  0
  3  4  1  0  0  0  0
  3  5  1  0  0  0  0
  3  6  1  0  0  0  0
 45 48  1  0  0  0  0
 45 49  1  0  0  0  0
 45 50  1  0  0  0  0
 11 14  1  0  0  0  0
 11 15  1  0  0  0  0
 11 16  1  0  0  0  0
 52 54  1  0  0  0  0
 52 55  1  0  0  0  0
 52 56  1  0  0  0  0
 22 32  1  0  0  0  0
 22 33  1  0  0  0  0
 21 30  1  0  0  0  0
 21 31  1  0  0  0  0
 23 34  1  0  0  0  0
 23 35  1  0  0  0  0
 42 47  1  0  0  0  0
  8 13  1  0  0  0  0
 18 29  1  0  0  0  0
 26 37  1  0  0  0  0
 26 38  1  0  0  0  0
 27 39  1  0  0  0  0
 27 40  1  0  0  0  0
 51 53  1  0  0  0  0
  7 12  1  0  0  0  0
 41 46  1  0  0  0  0
 17 28  1  0  0  0  0
 24 36  1  0  0  0  0
M  CHG  1  24   1
M  END
$$$$

  -OEChem-05262214473D

 56 55  0     1  0  0  0  0  0999 V2000
    0.7735   -5.8042   -2.0022 C   0  0  0  0  0  0  0  0  0  0  0  0
   -0.2086   -6.3825   -1.5519 O   0  0  0  0  0  0  0  0  0  0  0  0
    1.4751   -6.3646   -3.1946 C   0  0  0  0  0  0  0  0  0  0  0  0
    2.2765   -7.0687   -2.9186 H   0  0  0  0  0  0  0  0  0  0  0  0
    0.7988   -6.9360   -3.8504 H   0  0  0  0  0  0  0  0  0  0  0  0
    1.9556   -5.6216   -3.8511 H   0  0  0  0  0  0  0  0  0  0  0  0
    1.3322   -4.6359   -1.5106 N   0  0  0  0  0  0  0  0  0  0  0  0
    0.8124   -3.9290   -0.3698 C   0  0  2  0  0  0  0  0  0  0  0  0
    1.0666   -2.4424   -0.5818 C   0  0  0  0  0  0  0  0  0  0  0  0
    2.0598   -2.0076   -1.1610 O   0  0  0  0  0  0  0  0  0  0  0  0
    1.4560   -4.4118    0.9207 C   0  0  0  0  0  0  0  0  0  0  0  0
    2.1528   -4.2578   -1.9805 H   0  0  0  0  0  0  0  0  0  0  0  0
   -0.2667   -4.1160   -0.3467 H   0  0  0  0  0  0  0  0  0  0  0  0
    2.5374   -4.2329    0.9160 H   0  0  0  0  0  0  0  0  0  0  0  0
    1.0390   -3.8932    1.7903 H   0  0  0  0  0  0  0  0  0  0  0  0
    1.2976   -5.4871    1.0566 H   0  0  0  0  0  0  0  0  0  0  0  0
    0.0755   -1.6529   -0.0105 N   0  0  0  0  0  0  0  0  0  0  0  0
    0.1113   -0.2132   -0.0391 C   0  0  2  0  0  0  0  0  0  0  0  0
    1.5283    0.2172    0.3250 C   0  0  0  0  0  0  0  0  0  0  0  0
    1.8231    1.3764    0.6087 O   0  0  0  0  0  0  0  0  0  0  0  0
   -0.9019    0.4074    0.9280 C   0  0  0  0  0  0  0  0  0  0  0  0
   -2.3516    0.1412    0.5054 C   0  0  0  0  0  0  0  0  0  0  0  0
   -3.3558    0.7612    1.4715 C   0  0  0  0  0  0  0  0  0  0  0  0
   -4.7357    0.4855    1.0782 N   0  3  0  0  0  0  0  0  0  0  0  0
   -5.8278    0.8989    1.8435 C   0  0  0  0  0  0  0  0  0  0  0  0
   -7.1145    0.6009    1.4073 N   0  0  0  0  0  0  0  0  0  0  0  0
   -5.6606    1.6023    3.0318 N   0  0  0  0  0  0  0  0  0  0  0  0
   -0.7323   -2.1024    0.4149 H   0  0  0  0  0  0  0  0  0  0  0  0
   -0.1000    0.0893   -1.0711 H   0  0  0  0  0  0  0  0  0  0  0  0
   -0.7344    1.4896    0.9873 H   0  0  0  0  0  0  0  0  0  0  0  0
   -0.7393    0.0132    1.9399 H   0  0  0  0  0  0  0  0  0  0  0  0
   -2.5196    0.5390   -0.5026 H   0  0  0  0  0  0  0  0  0  0  0  0
   -2.5307   -0.9394    0.4655 H   0  0  0  0  0  0  0  0  0  0  0  0
   -3.2127    0.3402    2.4715 H   0  0  0  0  0  0  0  0  0  0  0  0
   -3.2279    1.8467    1.5251 H   0  0  0  0  0  0  0  0  0  0  0  0
   -4.9209   -0.0260    0.2172 H   0  0  0  0  0  0  0  0  0  0  0  0
   -7.9314    0.8878    1.9412 H   0  0  0  0  0  0  0  0  0  0  0  0
   -7.2725    0.0881    0.5433 H   0  0  0  0  0  0  0  0  0  0  0  0
   -6.4524    1.9057    3.5928 H   0  0  0  0  0  0  0  0  0  0  0  0
   -4.7315    1.8340    3.3756 H   0  0  0  0  0  0  0  0  0  0  0  0
    2.4301   -0.8350    0.2474 N   0  0  0  0  0  0  0  0  0  0  0  0
    3.8444   -0.6784    0.4973 C   0  0  2  0  0  0  0  0  0  0  0  0
    4.5910   -1.6655   -0.3903 C   0  0  0  0  0  0  0  0  0  0  0  0
    4.1478   -2.7748   -0.6804 O   0  0  0  0  0  0  0  0  0  0  0  0
    4.1760   -0.9075    1.9637 C   0  0  0  0  0  0  0  0  0  0  0  0
    2.0897   -1.7684    0.0363 H   0  0  0  0  0  0  0  0  0  0  0  0
    4.1056    0.3450    0.2064 H   0  0  0  0  0  0  0  0  0  0  0  0
    3.9212   -1.9276    2.2734 H   0  0  0  0  0  0  0  0  0  0  0  0
    5.2438   -0.7604    2.1567 H   0  0  0  0  0  0  0  0  0  0  0  0
    3.6156   -0.2164    2.6026 H   0  0  0  0  0  0  0  0  0  0  0  0
    5.8294   -1.1791   -0.7851 N   0  0  0  0  0  0  0  0  0  0  0  0
    6.7455   -1.9459   -1.5967 C   0  0  0  0  0  0  0  0  0  0  0  0
    6.0987   -0.2331   -0.5316 H   0  0  0  0  0  0  0  0  0  0  0  0
    7.4367   -2.5011   -0.9455 H   0  0  0  0  0  0  0  0  0  0  0  0
    6.1791   -2.6546   -2.2188 H   0  0  0  0  0  0  0  0  0  0  0  0
    7.3185   -1.2661   -2.2445 H   0  0  0  0  0  0  0  0  0  0  0  0
  1  3  1  0  0  0  0
  1  7  1  0  0  0  0
  1  2  2  0  0  0  0
 42 43  1  0  0  0  0
 43 51  1  0  0  0  0
 43 44  2  0  0  0  0
  8  9  1  0  0  0  0
  9 17  1  0  0  0  0
  9 10  2  0  0  0  0
 18 19  1  0  0  0  0
 19 41  1  0  0  0  0
 19 20  2  0  0  0  0
 25 26  1  0  0  0  0
 25 27  1  0  0  0  0
 24 25  2  0  0  0  0
 42 45  1  0  0  0  0
  8 11  1  0  0  0  0
 51 52  1  0  0  0  0
 21 22  1  0  0  0  0
 22 23  1  0  0  0  0
 18 21  1  0  0  0  0
 23 24  1  0  0  0  0
 41 42  1  0  0  0  0
  7  8  1  0  0  0  0
 17 18  1  0  0  0  0
  3  4  1  0  0  0  0
  3  5  1  0  0  0  0
  3  6  1  0  0  0  0
 45 48  1  0  0  0  0
 45 49  1  0  0  0  0
 45 50  1  0  0  0  0
 11 14  1  0  0  0  0
 11 15  1  0  0  0  0
 11 16  1  0  0  0  0
 52 54  1  0  0  0  0
 52 55  1  0  0  0  0
 52 56  1  0  0  0  0
 22 32  1  0  0  0  0
 22 33  1  0  0  0  0
 21 30  1  0  0  0  0
 21 31  1  0  0  0  0
 23 34  1  0  0  0  0
 23 35  1  0  0  0  0
 42 47  1  0  0  0  0
  8 13  1  0  0  0  0
 18 29  1  0  0  0  0
 26 37  1  0  0  0  0
 26 38  1  0  0  0  0
 27 39  1  0  0  0  0
 27 40  1  0  0  0  0
 51 53  1  0  0  0  0
  7 12  1  0  0  0  0
 41 46  1  0  0  0  0
 17 28  1  0  0  0  0
 24 36  1  0  0  0  0
M  CHG  1  24   1
M  END
$$$$

  -OEChem-05262214473D

 56 55  0     1  0  0  0  0  0999 V2000
    0.7735   -5.8042   -2.0022 C   0  0  0  0  0  0  0  0  0  0  0  0
   -0.2086   -6.3825   -1.5519 O   0  0  0  0  0  0  0  0  0  0  0  0
    1.4751   -6.3646   -3.1946 C   0  0  0  0  0  0  0  0  0  0  0  0
    2.2765   -7.0687   -2.9186 H   0  0  0  0  0  0  0  0  0  0  0  0
    0.7988   -6.9360   -3.8504 H   0  0  0  0  0  0  0  0  0  0  0  0
    1.9556   -5.6216   -3.8511 H   0  0  0  0  0  0  0  0  0  0  0  0
    1.3322   -4.6359   -1.5106 N   0  0  0  0  0  0  0  0  0  0  0  0
    0.8124   -3.9290   -0.3698 C   0  0  2  0  0  0  0  0  0  0  0  0
    1.0666   -2.4424   -0.5818 C   0  0  0  0  0  0  0  0  0  0  0  0
    2.0598   -2.0076   -1.1610 O   0  0  0  0  0  0  0  0  0  0  0  0
    1.4560   -4.4118    0.9207 C   0  0  0  0  0  0  0  0  0  0  0  0
    2.1528   -4.2578   -1.9805 H   0  0  0  0  0  0  0  0  0  0  0  0
   -0.2667   -4.1160   -0.3467 H   0  0  0  0  0  0  0  0  0  0  0  0
    2.5374   -4.2329    0.9160 H   0  0  0  0  0  0  0  0  0  0  0  0
    1.0390   -3.8932    1.7903 H   0  0  0  0  0  0  0  0  0  0  0  0
    1.2976   -5.4871    1.0566 H   0  0  0  0  0  0  0  0  0  0  0  0
    0.0755   -1.6529   -0.0105 N   0  0  0  0  0  0  0  0  0  0  0  0
    0.1113   -0.2132   -0.0391 C   0  0  2  0  0  0  0  0  0  0  0  0
    1.5283    0.2172    0.3250 C   0  0  0  0  0  0  0  0  0  0  0  0
    1.7834    1.2933    0.8617 O   0  0  0  0  0  0  0  0  0  0  0  0
   -0.9019    0.4074    0.9280 C   0  0  0  0  0  0  0  0  0  0  0  0
   -2.3516    0.1412    0.5054 C   0  0  0  0  0  0  0  0  0  0  0  0
   -3.3558    0.7612    1.4715 C   0  0  0  0  0  0  0  0  0  0  0  0
   -4.7357    0.4855    1.0782 N   0  3  0  0  0  0  0  0  0  0  0  0
   -5.8278    0.8989    1.8435 C   0  0  0  0  0  0  0  0  0  0  0  0
   -7.1145    0.6009    1.4073 N   0  0  0  0  0  0  0  0  0  0  0  0
   -5.6606    1.6023    3.0318 N   0  0  0  0  0  0  0  0  0  0  0  0
   -0.7323   -2.1024    0.4149 H   0  0  0  0  0  0  0  0  0  0  0  0
   -0.1000    0.0893   -1.0711 H   0  0  0  0  0  0  0  0  0  0  0  0
   -0.7344    1.4896    0.9873 H   0  0  0  0  0  0  0  0  0  0  0  0
   -0.7393    0.0132    1.9399 H   0  0  0  0  0  0  0  0  0  0  0  0
   -2.5196    0.5390   -0.5026 H   0  0  0  0  0  0  0  0  0  0  0  0
   -2.5307   -0.9394    0.4655 H   0  0  0  0  0  0  0  0  0  0  0  0
   -3.2127    0.3402    2.4715 H   0  0  0  0  0  0  0  0  0  0  0  0
   -3.2279    1.8467    1.5251 H   0  0  0  0  0  0  0  0  0  0  0  0
   -4.9209   -0.0260    0.2172 H   0  0  0  0  0  0  0  0  0  0  0  0
   -7.9314    0.8878    1.9412 H   0  0  0  0  0  0  0  0  0  0  0  0
   -7.2725    0.0881    0.5433 H   0  0  0  0  0  0  0  0  0  0  0  0
   -6.4524    1.9057    3.5928 H   0  0  0  0  0  0  0  0  0  0  0  0
   -4.7315    1.8340    3.3756 H   0  0  0  0  0  0  0  0  0  0  0  0
    2.4752   -0.7198   -0.0646 N   0  0  0  0  0  0  0  0  0  0  0  0
    3.8949   -0.5275    0.1226 C   0  0  2  0  0  0  0  0  0  0  0  0
    4.6186   -1.2195   -1.0249 C   0  0  0  0  0  0  0  0  0  0  0  0
    4.2127   -2.2562   -1.5460 O   0  0  0  0  0  0  0  0  0  0  0  0
    4.3552   -1.0753    1.4646 C   0  0  0  0  0  0  0  0  0  0  0  0
    2.1688   -1.5977   -0.4733 H   0  0  0  0  0  0  0  0  0  0  0  0
    4.0773    0.5515    0.0725 H   0  0  0  0  0  0  0  0  0  0  0  0
    4.1805   -2.1552    1.5334 H   0  0  0  0  0  0  0  0  0  0  0  0
    5.4258   -0.9033    1.6172 H   0  0  0  0  0  0  0  0  0  0  0  0
    3.8124   -0.5977    2.2874 H   0  0  0  0  0  0  0  0  0  0  0  0
    5.7937   -0.5667   -1.3701 N   0  0  0  0  0  0  0  0  0  0  0  0
    6.6807   -1.0513   -2.4018 C   0  0  0  0  0  0  0  0  0  0  0  0
    6.0321    0.3083   -0.9127 H   0  0  0  0  0  0  0  0  0  0  0  0
    7.4505   -1.6953   -1.9516 H   0  0  0  0  0  0  0  0  0  0  0  0
    6.1042   -1.6297   -3.1388 H   0  0  0  0  0  0  0  0  0  0  0  0
    7.1628   -0.1980   -2.9012 H   0  0  0  0  0  0  0  0  0  0  0  0
  1  3  1  0  0  0  0
  1  7  1  0  0  0  0
  1  2  2  0  0  0  0
 42 43  1  0  0  0  0
 43 51  1  0  0  0  0
 43 44  2  0  0  0  0
  8  9  1  0  0  0  0
  9 17  1  0  0  0  0
  9 10  2  0  0  0  0
 18 19  1  0  0  0  0
 19 41  1  0  0  0  0
 19 20  2  0  0  0  0
 25 26  1  0  0  0  0
 25 27  1  0  0  0  0
 24 25  2  0  0  0  0
 42 45  1  0  0  0  0
  8 11  1  0  0  0  0
 51 52  1  0  0  0  0
 21 22  1  0  0  0  0
 22 23  1  0  0  0  0
 18 21  1  0  0  0  0
 23 24  1  0  0  0  0
 41 42  1  0  0  0  0
  7  8  1  0  0  0  0
 17 18  1  0  0  0  0
  3  4  1  0  0  0  0
  3  5  1  0  0  0  0
  3  6  1  0  0  0  0
 45 48  1  0  0  0  0
 45 49  1  0  0  0  0
 45 50  1  0  0  0  0
 11 14  1  0  0  0  0
 11 15  1  0  0  0  0
 11 16  1  0  0  0  0
 52 54  1  0  0  0  0
 52 55  1  0  0  0  0
 52 56  1  0  0  0  0
 22 32  1  0  0  0  0
 22 33  1  0  0  0  0
 21 30  1  0  0  0  0
 21 31  1  0  0  0  0
 23 34  1  0  0  0  0
 23 35  1  0  0  0  0
 42 47  1  0  0  0  0
  8 13  1  0  0  0  0
 18 29  1  0  0  0  0
 26 37  1  0  0  0  0
 26 38  1  0  0  0  0
 27 39  1  0  0  0  0
 27 40  1  0  0  0  0
 51 53  1  0  0  0  0
  7 12  1  0  0  0  0
 41 46  1  0  0  0  0
 17 28  1  0  0  0  0
 24 36  1  0  0  0  0
M  CHG  1  24   1
M  END
$$$$

  -OEChem-05262214473D

 56 55  0     1  0  0  0  0  0999 V2000
    0.7735   -5.8042   -2.0022 C   0  0  0  0  0  0  0  0  0  0  0  0
   -0.2086   -6.3825   -1.5519 O   0  0  0  0  0  0  0  0  0  0  0  0
    1.4751   -6.3646   -3.1946 C   0  0  0  0  0  0  0  0  0  0  0  0
    2.2765   -7.0687   -2.9186 H   0  0  0  0  0  0  0  0  0  0  0  0
    0.7988   -6.9360   -3.8504 H   0  0  0  0  0  0  0  0  0  0  0  0
    1.9556   -5.6216   -3.8511 H   0  0  0  0  0  0  0  0  0  0  0  0
    1.3322   -4.6359   -1.5106 N   0  0  0  0  0  0  0  0  0  0  0  0
    0.8124   -3.9290   -0.3698 C   0  0  2  0  0  0  0  0  0  0  0  0
    1.0666   -2.4424   -0.5818 C   0  0  0  0  0  0  0  0  0  0  0  0
    2.0598   -2.0076   -1.1610 O   0  0  0  0  0  0  0  0  0  0  0  0
    1.4560   -4.4118    0.9207 C   0  0  0  0  0  0  0  0  0  0  0  0
    2.1528   -4.2578   -1.9805 H   0  0  0  0  0  0  0  0  0  0  0  0
   -0.2667   -4.1160   -0.3467 H   0  0  0  0  0  0  0  0  0  0  0  0
    2.5374   -4.2329    0.9160 H   0  0  0  0  0  0  0  0  0  0  0  0
    1.0390   -3.8932    1.7903 H   0  0  0  0  0  0  0  0  0  0  0  0
    1.2976   -5.4871    1.0566 H   0  0  0  0  0  0  0  0  0  0  0  0
    0.0755   -1.6529   -0.0105 N   0  0  0  0  0  0  0  0  0  0  0  0
    0.1113   -0.2132   -0.0391 C   0  0  2  0  0  0  0  0  0  0  0  0
    1.5283    0.2172    0.3250 C   0  0  0  0  0  0  0  0  0  0  0  0
    1.7685    1.1498    1.0890 O   0  0  0  0  0  0  0  0  0  0  0  0
   -0.9019    0.4074    0.9280 C   0  0  0  0  0  0  0  0  0  0  0  0
   -2.3516    0.1412    0.5054 C   0  0  0  0  0  0  0  0  0  0  0  0
   -3.3558    0.7612    1.4715 C   0  0  0  0  0  0  0  0  0  0  0  0
   -4.7357    0.4855    1.0782 N   0  3  0  0  0  0  0  0  0  0  0  0
   -5.8278    0.8989    1.8435 C   0  0  0  0  0  0  0  0  0  0  0  0
   -7.1145    0.6009    1.4073 N   0  0  0  0  0  0  0  0  0  0  0  0
   -5.6606    1.6023    3.0318 N   0  0  0  0  0  0  0  0  0  0  0  0
   -0.7323   -2.1024    0.4149 H   0  0  0  0  0  0  0  0  0  0  0  0
   -0.1000    0.0893   -1.0711 H   0  0  0  0  0  0  0  0  0  0  0  0
   -0.7344    1.4896    0.9873 H   0  0  0  0  0  0  0  0  0  0  0  0
   -0.7393    0.0132    1.9399 H   0  0  0  0  0  0  0  0  0  0  0  0
   -2.5196    0.5390   -0.5026 H   0  0  0  0  0  0  0  0  0  0  0  0
   -2.5307   -0.9394    0.4655 H   0  0  0  0  0  0  0  0  0  0  0  0
   -3.2127    0.3402    2.4715 H   0  0  0  0  0  0  0  0  0  0  0  0
   -3.2279    1.8467    1.5251 H   0  0  0  0  0  0  0  0  0  0  0  0
   -4.9209   -0.0260    0.2172 H   0  0  0  0  0  0  0  0  0  0  0  0
   -7.9314    0.8878    1.9412 H   0  0  0  0  0  0  0  0  0  0  0  0
   -7.2725    0.0881    0.5433 H   0  0  0  0  0  0  0  0  0  0  0  0
   -6.4524    1.9057    3.5928 H   0  0  0  0  0  0  0  0  0  0  0  0
   -4.7315    1.8340    3.3756 H   0  0  0  0  0  0  0  0  0  0  0  0
    2.4889   -0.5306   -0.3416 N   0  0  0  0  0  0  0  0  0  0  0  0
    3.9069   -0.2886   -0.2066 C   0  0  2  0  0  0  0  0  0  0  0  0
    4.5713   -0.6343   -1.5327 C   0  0  0  0  0  0  0  0  0  0  0  0
    4.1801   -1.5431   -2.2622 O   0  0  0  0  0  0  0  0  0  0  0  0
    4.5022   -1.1062    0.9290 C   0  0  0  0  0  0  0  0  0  0  0  0
    2.1974   -1.3053   -0.9302 H   0  0  0  0  0  0  0  0  0  0  0  0
    4.0274    0.7814   -0.0052 H   0  0  0  0  0  0  0  0  0  0  0  0
    4.3910   -2.1810    0.7449 H   0  0  0  0  0  0  0  0  0  0  0  0
    5.5710   -0.9003    1.0484 H   0  0  0  0  0  0  0  0  0  0  0  0
    4.0030   -0.8780    1.8769 H   0  0  0  0  0  0  0  0  0  0  0  0
    5.6787    0.1633   -1.7853 N   0  0  0  0  0  0  0  0  0  0  0  0
    6.5039    0.0024   -2.9596 C   0  0  0  0  0  0  0  0  0  0  0  0
    5.9066    0.9188   -1.1457 H   0  0  0  0  0  0  0  0  0  0  0  0
    7.3405   -0.6742   -2.7306 H   0  0  0  0  0  0  0  0  0  0  0  0
    5.9013   -0.4231   -3.7756 H   0  0  0  0  0  0  0  0  0  0  0  0
    6.8984    0.9820   -3.2674 H   0  0  0  0  0  0  0  0  0  0  0  0
  1  3  1  0  0  0  0
  1  7  1  0  0  0  0
  1  2  2  0  0  0  0
 42 43  1  0  0  0  0
 43 51  1  0  0  0  0
 43 44  2  0  0  0  0
  8  9  1  0  0  0  0
  9 17  1  0  0  0  0
  9 10  2  0  0  0  0
 18 19  1  0  0  0  0
 19 41  1  0  0  0  0
 19 20  2  0  0  0  0
 25 26  1  0  0  0  0
 25 27  1  0  0  0  0
 24 25  2  0  0  0  0
 42 45  1  0  0  0  0
  8 11  1  0  0  0  0
 51 52  1  0  0  0  0
 21 22  1  0  0  0  0
 22 23  1  0  0  0  0
 18 21  1  0  0  0  0
 23 24  1  0  0  0  0
 41 42  1  0  0  0  0
  7  8  1  0  0  0  0
 17 18  1  0  0  0  0
  3  4  1  0  0  0  0
  3  5  1  0  0  0  0
  3  6  1  0  0  0  0
 45 48  1  0  0  0  0
 45 49  1  0  0  0  0
 45 50  1  0  0  0  0
 11 14  1  0  0  0  0
 11 15  1  0  0  0  0
 11 16  1  0  0  0  0
 52 54  1  0  0  0  0
 52 55  1  0  0  0  0
 52 56  1  0  0  0  0
 22 32  1  0  0  0  0
 22 33  1  0  0  0  0
 21 30  1  0  0  0  0
 21 31  1  0  0  0  0
 23 34  1  0  0  0  0
 23 35  1  0  0  0  0
 42 47  1  0  0  0  0
  8 13  1  0  0  0  0
 18 29  1  0  0  0  0
 26 37  1  0  0  0  0
 26 38  1  0  0  0  0
 27 39  1  0  0  0  0
 27 40  1  0  0  0  0
 51 53  1  0  0  0  0
  7 12  1  0  0  0  0
 41 46  1  0  0  0  0
 17 28  1  0  0  0  0
 24 36  1  0  0  0  0
M  CHG  1  24   1
M  END
$$$$

  -OEChem-05262214473D

 56 55  0     1  0  0  0  0  0999 V2000
    0.7735   -5.8042   -2.0022 C   0  0  0  0  0  0  0  0  0  0  0  0
   -0.2086   -6.3825   -1.5519 O   0  0  0  0  0  0  0  0  0  0  0  0
    1.4751   -6.3646   -3.1946 C   0  0  0  0  0  0  0  0  0  0  0  0
    2.2765   -7.0687   -2.9186 H   0  0  0  0  0  0  0  0  0  0  0  0
    0.7988   -6.9360   -3.8504 H   0  0  0  0  0  0  0  0  0  0  0  0
    1.9556   -5.6216   -3.8511 H   0  0  0  0  0  0  0  0  0  0  0  0
    1.3322   -4.6359   -1.5106 N   0  0  0  0  0  0  0  0  0  0  0  0
    0.8124   -3.9290   -0.3698 C   0  0  2  0  0  0  0  0  0  0  0  0
    1.0666   -2.4424   -0.5818 C   0  0  0  0  0  0  0  0  0  0  0  0
    2.0598   -2.0076   -1.1610 O   0  0  0  0  0  0  0  0  0  0  0  0
    1.4560   -4.4118    0.9207 C   0  0  0  0  0  0  0  0  0  0  0  0
    2.1528   -4.2578   -1.9805 H   0  0  0  0  0  0  0  0  0  0  0  0
   -0.2667   -4.1160   -0.3467 H   0  0  0  0  0  0  0  0  0  0  0  0
    2.5374   -4.2329    0.9160 H   0  0  0  0  0  0  0  0  0  0  0  0
    1.0390   -3.8932    1.7903 H   0  0  0  0  0  0  0  0  0  0  0  0
    1.2976   -5.4871    1.0566 H   0  0  0  0  0  0  0  0  0  0  0  0
    0.0755   -1.6529   -0.0105 N   0  0  0  0  0  0  0  0  0  0  0  0
    0.1113   -0.2132   -0.0391 C   0  0  2  0  0  0  0  0  0  0  0  0
    1.5283    0.2172    0.3250 C   0  0  0  0  0  0  0  0  0  0  0  0
    1.7797    0.9556    1.2751 O   0  0  0  0  0  0  0  0  0  0  0  0
   -0.9019    0.4074    0.9280 C   0  0  0  0  0  0  0  0  0  0  0  0
   -2.3516    0.1412    0.5054 C   0  0  0  0  0  0  0  0  0  0  0  0
   -3.3558    0.7612    1.4715 C   0  0  0  0  0  0  0  0  0  0  0  0
   -4.7357    0.4855    1.0782 N   0  3  0  0  0  0  0  0  0  0  0  0
   -5.8278    0.8989    1.8435 C   0  0  0  0  0  0  0  0  0  0  0  0
   -7.1145    0.6009    1.4073 N   0  0  0  0  0  0  0  0  0  0  0  0
   -5.6606    1.6023    3.0318 N   0  0  0  0  0  0  0  0  0  0  0  0
   -0.7323   -2.1024    0.4149 H   0  0  0  0  0  0  0  0  0  0  0  0
   -0.1000    0.0893   -1.0711 H   0  0  0  0  0  0  0  0  0  0  0  0
   -0.7344    1.4896    0.9873 H   0  0  0  0  0  0  0  0  0  0  0  0
   -0.7393    0.0132    1.9399 H   0  0  0  0  0  0  0  0  0  0  0  0
   -2.5196    0.5390   -0.5026 H   0  0  0  0  0  0  0  0  0  0  0  0
   -2.5307   -0.9394    0.4655 H   0  0  0  0  0  0  0  0  0  0  0  0
   -3.2127    0.3402    2.4715 H   0  0  0  0  0  0  0  0  0  0  0  0
   -3.2279    1.8467    1.5251 H   0  0  0  0  0  0  0  0  0  0  0  0
   -4.9209   -0.0260    0.2172 H   0  0  0  0  0  0  0  0  0  0  0  0
   -7.9314    0.8878    1.9412 H   0  0  0  0  0  0  0  0  0  0  0  0
   -7.2725    0.0881    0.5433 H   0  0  0  0  0  0  0  0  0  0  0  0
   -6.4524    1.9057    3.5928 H   0  0  0  0  0  0  0  0  0  0  0  0
   -4.7315    1.8340    3.3756 H   0  0  0  0  0  0  0  0  0  0  0  0
    2.4703   -0.2805   -0.5646 N   0  0  0  0  0  0  0  0  0  0  0  0
    3.8797    0.0221   -0.4681 C   0  0  2  0  0  0  0  0  0  0  0  0
    4.4524    0.0501   -1.8791 C   0  0  0  0  0  0  0  0  0  0  0  0
    4.0523   -0.6841   -2.7801 O   0  0  0  0  0  0  0  0  0  0  0  0
    4.6070   -0.9983    0.3936 C   0  0  0  0  0  0  0  0  0  0  0  0
    2.1736   -0.9113   -1.3033 H   0  0  0  0  0  0  0  0  0  0  0  0
    3.9593    1.0191   -0.0212 H   0  0  0  0  0  0  0  0  0  0  0  0
    4.5383   -2.0034   -0.0383 H   0  0  0  0  0  0  0  0  0  0  0  0
    5.6696   -0.7516    0.4891 H   0  0  0  0  0  0  0  0  0  0  0  0
    4.1745   -1.0383    1.3991 H   0  0  0  0  0  0  0  0  0  0  0  0
    5.4921    0.9612   -2.0024 N   0  0  0  0  0  0  0  0  0  0  0  0
    6.2273    1.1434   -3.2321 C   0  0  0  0  0  0  0  0  0  0  0  0
    5.7305    1.5568   -1.2149 H   0  0  0  0  0  0  0  0  0  0  0  0
    7.1142    0.4927   -3.2295 H   0  0  0  0  0  0  0  0  0  0  0  0
    5.5842    0.8830   -4.0857 H   0  0  0  0  0  0  0  0  0  0  0  0
    6.5434    2.1935   -3.3180 H   0  0  0  0  0  0  0  0  0  0  0  0
  1  3  1  0  0  0  0
  1  7  1  0  0  0  0
  1  2  2  0  0  0  0
 42 43  1  0  0  0  0
 43 51  1  0  0  0  0
 43 44  2  0  0  0  0
  8  9  1  0  0  0  0
  9 17  1  0  0  0  0
  9 10  2  0  0  0  0
 18 19  1  0  0  0  0
 19 41  1  0  0  0  0
 19 20  2  0  0  0  0
 25 26  1  0  0  0  0
 25 27  1  0  0  0  0
 24 25  2  0  0  0  0
 42 45  1  0  0  0  0
  8 11  1  0  0  0  0
 51 52  1  0  0  0  0
 21 22  1  0  0  0  0
 22 23  1  0  0  0  0
 18 21  1  0  0  0  0
 23 24  1  0  0  0  0
 41 42  1  0  0  0  0
  7  8  1  0  0  0  0
 17 18  1  0  0  0  0
  3  4  1  0  0  0  0
  3  5  1  0  0  0  0
  3  6  1  0  0  0  0
 45 48  1  0  0  0  0
 45 49  1  0  0  0  0
 45 50  1  0  0  0  0
 11 14  1  0  0  0  0
 11 15  1  0  0  0  0
 11 16  1  0  0  0  0
 52 54  1  0  0  0  0
 52 55  1  0  0  0  0
 52 56  1  0  0  0  0
 22 32  1  0  0  0  0
 22 33  1  0  0  0  0
 21 30  1  0  0  0  0
 21 31  1  0  0  0  0
 23 34  1  0  0  0  0
 23 35  1  0  0  0  0
 42 47  1  0  0  0  0
  8 13  1  0  0  0  0
 18 29  1  0  0  0  0
 26 37  1  0  0  0  0
 26 38  1  0  0  0  0
 27 39  1  0  0  0  0
 27 40  1  0  0  0  0
 51 53  1  0  0  0  0
  7 12  1  0  0  0  0
 41 46  1  0  0  0  0
 17 28  1  0  0  0  0
 24 36  1  0  0  0  0
M  CHG  1  24   1
M  END
$$$$

  -OEChem-05262214473D

 56 55  0     1  0  0  0  0  0999 V2000
    0.7735   -5.8042   -2.0022 C   0  0  0  0  0  0  0  0  0  0  0  0
   -0.2086   -6.3825   -1.5519 O   0  0  0  0  0  0  0  0  0  0  0  0
    1.4751   -6.3646   -3.1946 C   0  0  0  0  0  0  0  0  0  0  0  0
    2.2765   -7.0687   -2.9186 H   0  0  0  0  0  0  0  0  0  0  0  0
    0.7988   -6.9360   -3.8504 H   0  0  0  0  0  0  0  0  0  0  0  0
    1.9556   -5.6216   -3.8511 H   0  0  0  0  0  0  0  0  0  0  0  0
    1.3322   -4.6359   -1.5106 N   0  0  0  0  0  0  0  0  0  0  0  0
    0.8124   -3.9290   -0.3698 C   0  0  2  0  0  0  0  0  0  0  0  0
    1.0666   -2.4424   -0.5818 C   0  0  0  0  0  0  0  0  0  0  0  0
    2.0598   -2.0076   -1.1610 O   0  0  0  0  0  0  0  0  0  0  0  0
    1.4560   -4.4118    0.9207 C   0  0  0  0  0  0  0  0  0  0  0  0
    2.1528   -4.2578   -1.9805 H   0  0  0  0  0  0  0  0  0  0  0  0
   -0.2667   -4.1160   -0.3467 H   0  0  0  0  0  0  0  0  0  0  0  0
    2.5374   -4.2329    0.9160 H   0  0  0  0  0  0  0  0  0  0  0  0
    1.0390   -3.8932    1.7903 H   0  0  0  0  0  0  0  0  0  0  0  0
    1.2976   -5.4871    1.0566 H   0  0  0  0  0  0  0  0  0  0  0  0
    0.0755   -1.6529   -0.0105 N   0  0  0  0  0  0  0  0  0  0  0  0
    0.1113   -0.2132   -0.0391 C   0  0  2  0  0  0  0  0  0  0  0  0
    1.5283    0.2172    0.3250 C   0  0  0  0  0  0  0  0  0  0  0  0
    1.8161    0.7239    1.4074 O   0  0  0  0  0  0  0  0  0  0  0  0
   -0.9019    0.4074    0.9280 C   0  0  0  0  0  0  0  0  0  0  0  0
   -2.3516    0.1412    0.5054 C   0  0  0  0  0  0  0  0  0  0  0  0
   -3.3558    0.7612    1.4715 C   0  0  0  0  0  0  0  0  0  0  0  0
   -4.7357    0.4855    1.0782 N   0  3  0  0  0  0  0  0  0  0  0  0
   -5.8278    0.8989    1.8435 C   0  0  0  0  0  0  0  0  0  0  0  0
   -7.1145    0.6009    1.4073 N   0  0  0  0  0  0  0  0  0  0  0  0
   -5.6606    1.6023    3.0318 N   0  0  0  0  0  0  0  0  0  0  0  0
   -0.7323   -2.1024    0.4149 H   0  0  0  0  0  0  0  0  0  0  0  0
   -0.1000    0.0893   -1.0711 H   0  0  0  0  0  0  0  0  0  0  0  0
   -0.7344    1.4896    0.9873 H   0  0  0  0  0  0  0  0  0  0  0  0
   -0.7393    0.0132    1.9399 H   0  0  0  0  0  0  0  0  0  0  0  0
   -2.5196    0.5390   -0.5026 H   0  0  0  0  0  0  0  0  0  0  0  0
   -2.5307   -0.9394    0.4655 H   0  0  0  0  0  0  0  0  0  0  0  0
   -3.2127    0.3402    2.4715 H   0  0  0  0  0  0  0  0  0  0  0  0
   -3.2279    1.8467    1.5251 H   0  0  0  0  0  0  0  0  0  0  0  0
   -4.9209   -0.0260    0.2172 H   0  0  0  0  0  0  0  0  0  0  0  0
   -7.9314    0.8878    1.9412 H   0  0  0  0  0  0  0  0  0  0  0  0
   -7.2725    0.0881    0.5433 H   0  0  0  0  0  0  0  0  0  0  0  0
   -6.4524    1.9057    3.5928 H   0  0  0  0  0  0  0  0  0  0  0  0
   -4.7315    1.8340    3.3756 H   0  0  0  0  0  0  0  0  0  0  0  0
    2.4205    0.0137   -0.7185 N   0  0  0  0  0  0  0  0  0  0  0  0
    3.8152    0.3835   -0.6440 C   0  0  2  0  0  0  0  0  0  0  0  0
    4.2699    0.7872   -2.0403 C   0  0  0  0  0  0  0  0  0  0  0  0
    3.8379    0.2622   -3.0644 O   0  0  0  0  0  0  0  0  0  0  0  0
    4.6625   -0.7587   -0.1054 C   0  0  0  0  0  0  0  0  0  0  0  0
    2.0990   -0.4424   -1.5672 H   0  0  0  0  0  0  0  0  0  0  0  0
    3.8777    1.2484    0.0254 H   0  0  0  0  0  0  0  0  0  0  0  0
    4.6124   -1.6343   -0.7629 H   0  0  0  0  0  0  0  0  0  0  0  0
    5.7147   -0.4674   -0.0226 H   0  0  0  0  0  0  0  0  0  0  0  0
    4.3151   -1.0676    0.8865 H   0  0  0  0  0  0  0  0  0  0  0  0
    5.2467    1.7725   -2.0065 N   0  0  0  0  0  0  0  0  0  0  0  0
    5.8698    2.2939   -3.2007 C   0  0  0  0  0  0  0  0  0  0  0  0
    5.5160    2.1788   -1.1154 H   0  0  0  0  0  0  0  0  0  0  0  0
    6.7871    1.7257   -3.4142 H   0  0  0  0  0  0  0  0  0  0  0  0
    5.1746    2.1996   -4.0479 H   0  0  0  0  0  0  0  0  0  0  0  0
    6.1220    3.3539   -3.0496 H   0  0  0  0  0  0  0  0  0  0  0  0
  1  3  1  0  0  0  0
  1  7  1  0  0  0  0
  1  2  2  0  0  0  0
 42 43  1  0  0  0  0
 43 51  1  0  0  0  0
 43 44  2  0  0  0  0
  8  9  1  0  0  0  0
  9 17  1  0  0  0  0
  9 10  2  0  0  0  0
 18 19  1  0  0  0  0
 19 41  1  0  0  0  0
 19 20  2  0  0  0  0
 25 26  1  0  0  0  0
 25 27  1  0  0  0  0
 24 25  2  0  0  0  0
 42 45  1  0  0  0  0
  8 11  1  0  0  0  0
 51 52  1  0  0  0  0
 21 22  1  0  0  0  0
 22 23  1  0  0  0  0
 18 21  1  0  0  0  0
 23 24  1  0  0  0  0
 41 42  1  0  0  0  0
  7  8  1  0  0  0  0
 17 18  1  0  0  0  0
  3  4  1  0  0  0  0
  3  5  1  0  0  0  0
  3  6  1  0  0  0  0
 45 48  1  0  0  0  0
 45 49  1  0  0  0  0
 45 50  1  0  0  0  0
 11 14  1  0  0  0  0
 11 15  1  0  0  0  0
 11 16  1  0  0  0  0
 52 54  1  0  0  0  0
 52 55  1  0  0  0  0
 52 56  1  0  0  0  0
 22 32  1  0  0  0  0
 22 33  1  0  0  0  0
 21 30  1  0  0  0  0
 21 31  1  0  0  0  0
 23 34  1  0  0  0  0
 23 35  1  0  0  0  0
 42 47  1  0  0  0  0
  8 13  1  0  0  0  0
 18 29  1  0  0  0  0
 26 37  1  0  0  0  0
 26 38  1  0  0  0  0
 27 39  1  0  0  0  0
 27 40  1  0  0  0  0
 51 53  1  0  0  0  0
  7 12  1  0  0  0  0
 41 46  1  0  0  0  0
 17 28  1  0  0  0  0
 24 36  1  0  0  0  0
M  CHG  1  24   1
M  END
$$$$

  -OEChem-05262214473D

 56 55  0     1  0  0  0  0  0999 V2000
    0.7735   -5.8042   -2.0022 C   0  0  0  0  0  0  0  0  0  0  0  0
   -0.2086   -6.3825   -1.5519 O   0  0  0  0  0  0  0  0  0  0  0  0
    1.4751   -6.3646   -3.1946 C   0  0  0  0  0  0  0  0  0  0  0  0
    2.2765   -7.0687   -2.9186 H   0  0  0  0  0  0  0  0  0  0  0  0
    0.7988   -6.9360   -3.8504 H   0  0  0  0  0  0  0  0  0  0  0  0
    1.9556   -5.6216   -3.8511 H   0  0  0  0  0  0  0  0  0  0  0  0
    1.3322   -4.6359   -1.5106 N   0  0  0  0  0  0  0  0  0  0  0  0
    0.8124   -3.9290   -0.3698 C   0  0  2  0  0  0  0  0  0  0  0  0
    1.0666   -2.4424   -0.5818 C   0  0  0  0  0  0  0  0  0  0  0  0
    2.0598   -2.0076   -1.1610 O   0  0  0  0  0  0  0  0  0  0  0  0
    1.4560   -4.4118    0.9207 C   0  0  0  0  0  0  0  0  0  0  0  0
    2.1528   -4.2578   -1.9805 H   0  0  0  0  0  0  0  0  0  0  0  0
   -0.2667   -4.1160   -0.3467 H   0  0  0  0  0  0  0  0  0  0  0  0
    2.5374   -4.2329    0.9160 H   0  0  0  0  0  0  0  0  0  0  0  0
    1.0390   -3.8932    1.7903 H   0  0  0  0  0  0  0  0  0  0  0  0
    1.2976   -5.4871    1.0566 H   0  0  0  0  0  0  0  0  0  0  0  0
    0.0755   -1.6529   -0.0105 N   0  0  0  0  0  0  0  0  0  0  0  0
    0.1113   -0.2132   -0.0391 C   0  0  2  0  0  0  0  0  0  0  0  0
    1.5283    0.2172    0.3250 C   0  0  0  0  0  0  0  0  0  0  0  0
    1.8752    0.4705    1.4768 O   0  0  0  0  0  0  0  0  0  0  0  0
   -0.9019    0.4074    0.9280 C   0  0  0  0  0  0  0  0  0  0  0  0
   -2.3516    0.1412    0.5054 C   0  0  0  0  0  0  0  0  0  0  0  0
   -3.3558    0.7612    1.4715 C   0  0  0  0  0  0  0  0  0  0  0  0
   -4.7357    0.4855    1.0782 N   0  3  0  0  0  0  0  0  0  0  0  0
   -5.8278    0.8989    1.8435 C   0  0  0  0  0  0  0  0  0  0  0  0
   -7.1145    0.6009    1.4073 N   0  0  0  0  0  0  0  0  0  0  0  0
   -5.6606    1.6023    3.0318 N   0  0  0  0  0  0  0  0  0  0  0  0
   -0.7323   -2.1024    0.4149 H   0  0  0  0  0  0  0  0  0  0  0  0
   -0.1000    0.0893   -1.0711 H   0  0  0  0  0  0  0  0  0  0  0  0
   -0.7344    1.4896    0.9873 H   0  0  0  0  0  0  0  0  0  0  0  0
   -0.7393    0.0132    1.9399 H   0  0  0  0  0  0  0  0  0  0  0  0
   -2.5196    0.5390   -0.5026 H   0  0  0  0  0  0  0  0  0  0  0  0
   -2.5307   -0.9394    0.4655 H   0  0  0  0  0  0  0  0  0  0  0  0
   -3.2127    0.3402    2.4715 H   0  0  0  0  0  0  0  0  0  0  0  0
   -3.2279    1.8467    1.5251 H   0  0  0  0  0  0  0  0  0  0  0  0
   -4.9209   -0.0260    0.2172 H   0  0  0  0  0  0  0  0  0  0  0  0
   -7.9314    0.8878    1.9412 H   0  0  0  0  0  0  0  0  0  0  0  0
   -7.2725    0.0881    0.5433 H   0  0  0  0  0  0  0  0  0  0  0  0
   -6.4524    1.9057    3.5928 H   0  0  0  0  0  0  0  0  0  0  0  0
   -4.7315    1.8340    3.3756 H   0  0  0  0  0  0  0  0  0  0  0  0
    2.3430    0.3317   -0.7928 N   0  0  0  0  0  0  0  0  0  0  0  0
    3.7176    0.7708   -0.7222 C   0  0  2  0  0  0  0  0  0  0  0  0
    4.0364    1.5266   -2.0055 C   0  0  0  0  0  0  0  0  0  0  0  0
    3.5515    1.2315   -3.0958 O   0  0  0  0  0  0  0  0  0  0  0  0
    4.6648   -0.4039   -0.5337 C   0  0  0  0  0  0  0  0  0  0  0  0
    1.9787    0.0693   -1.7040 H   0  0  0  0  0  0  0  0  0  0  0  0
    3.7881    1.4536    0.1315 H   0  0  0  0  0  0  0  0  0  0  0  0
    4.6082   -1.0990   -1.3794 H   0  0  0  0  0  0  0  0  0  0  0  0
    5.7034   -0.0670   -0.4518 H   0  0  0  0  0  0  0  0  0  0  0  0
    4.4153   -0.9639    0.3740 H   0  0  0  0  0  0  0  0  0  0  0  0
    4.9592    2.5421   -1.7975 N   0  0  0  0  0  0  0  0  0  0  0  0
    5.4556    3.3756   -2.8675 C   0  0  0  0  0  0  0  0  0  0  0  0
    5.2777    2.7424   -0.8540 H   0  0  0  0  0  0  0  0  0  0  0  0
    6.3815    2.9410   -3.2722 H   0  0  0  0  0  0  0  0  0  0  0  0
    4.7003    3.4369   -3.6649 H   0  0  0  0  0  0  0  0  0  0  0  0
    5.6627    4.3842   -2.4805 H   0  0  0  0  0  0  0  0  0  0  0  0
  1  3  1  0  0  0  0
  1  7  1  0  0  0  0
  1  2  2  0  0  0  0
 42 43  1  0  0  0  0
 43 51  1  0  0  0  0
 43 44  2  0  0  0  0
  8  9  1  0  0  0  0
  9 17  1  0  0  0  0
  9 10  2  0  0  0  0
 18 19  1  0  0  0  0
 19 41  1  0  0  0  0
 19 20  2  0  0  0  0
 25 26  1  0  0  0  0
 25 27  1  0  0  0  0
 24 25  2  0  0  0  0
 42 45  1  0  0  0  0
  8 11  1  0  0  0  0
 51 52  1  0  0  0  0
 21 22  1  0  0  0  0
 22 23  1  0  0  0  0
 18 21  1  0  0  0  0
 23 24  1  0  0  0  0
 41 42  1  0  0  0  0
  7  8  1  0  0  0  0
 17 18  1  0  0  0  0
  3  4  1  0  0  0  0
  3  5  1  0  0  0  0
  3  6  1  0  0  0  0
 45 48  1  0  0  0  0
 45 49  1  0  0  0  0
 45 50  1  0  0  0  0
 11 14  1  0  0  0  0
 11 15  1  0  0  0  0
 11 16  1  0  0  0  0
 52 54  1  0  0  0  0
 52 55  1  0  0  0  0
 52 56  1  0  0  0  0
 22 32  1  0  0  0  0
 22 33  1  0  0  0  0
 21 30  1  0  0  0  0
 21 31  1  0  0  0  0
 23 34  1  0  0  0  0
 23 35  1  0  0  0  0
 42 47  1  0  0  0  0
  8 13  1  0  0  0  0
 18 29  1  0  0  0  0
 26 37  1  0  0  0  0
 26 38  1  0  0  0  0
 27 39  1  0  0  0  0
 27 40  1  0  0  0  0
 51 53  1  0  0  0  0
  7 12  1  0  0  0  0
 41 46  1  0  0  0  0
 17 28  1  0  0  0  0
 24 36  1  0  0  0  0
M  CHG  1  24   1
M  END
$$$$

  -OEChem-05262214473D

 56 55  0     1  0  0  0  0  0999 V2000
    0.7735   -5.8042   -2.0022 C   0  0  0  0  0  0  0  0  0  0  0  0
   -0.2086   -6.3825   -1.5519 O   0  0  0  0  0  0  0  0  0  0  0  0
    1.4751   -6.3646   -3.1946 C   0  0  0  0  0  0  0  0  0  0  0  0
    2.2765   -7.0687   -2.9186 H   0  0  0  0  0  0  0  0  0  0  0  0
    0.7988   -6.9360   -3.8504 H   0  0  0  0  0  0  0  0  0  0  0  0
    1.9556   -5.6216   -3.8511 H   0  0  0  0  0  0  0  0  0  0  0  0
    1.3322   -4.6359   -1.5106 N   0  0  0  0  0  0  0  0  0  0  0  0
    0.8124   -3.9290   -0.3698 C   0  0  2  0  0  0  0  0  0  0  0  0
    1.0666   -2.4424   -0.5818 C   0  0  0  0  0  0  0  0  0  0  0  0
    2.0598   -2.0076   -1.1610 O   0  0  0  0  0  0  0  0  0  0  0  0
    1.4560   -4.4118    0.9207 C   0  0  0  0  0  0  0  0  0  0  0  0
    2.1528   -4.2578   -1.9805 H   0  0  0  0  0  0  0  0  0  0  0  0
   -0.2667   -4.1160   -0.3467 H   0  0  0  0  0  0  0  0  0  0  0  0
    2.5374   -4.2329    0.9160 H   0  0  0  0  0  0  0  0  0  0  0  0
    1.0390   -3.8932    1.7903 H   0  0  0  0  0  0  0  0  0  0  0  0
    1.2976   -5.4871    1.0566 H   0  0  0  0  0  0  0  0  0  0  0  0
    0.0755   -1.6529   -0.0105 N   0  0  0  0  0  0  0  0  0  0  0  0
    0.1113   -0.2132   -0.0391 C   0  0  2  0  0  0  0  0  0  0  0  0
    1.5283    0.2172    0.3250 C   0  0  0  0  0  0  0  0  0  0  0  0
    1.9531    0.2128    1.4785 O   0  0  0  0  0  0  0  0  0  0  0  0
   -0.9019    0.4074    0.9280 C   0  0  0  0  0  0  0  0  0  0  0  0
   -2.3516    0.1412    0.5054 C   0  0  0  0  0  0  0  0  0  0  0  0
   -3.3558    0.7612    1.4715 C   0  0  0  0  0  0  0  0  0  0  0  0
   -4.7357    0.4855    1.0782 N   0  3  0  0  0  0  0  0  0  0  0  0
   -5.8278    0.8989    1.8435 C   0  0  0  0  0  0  0  0  0  0  0  0
   -7.1145    0.6009    1.4073 N   0  0  0  0  0  0  0  0  0  0  0  0
   -5.6606    1.6023    3.0318 N   0  0  0  0  0  0  0  0  0  0  0  0
   -0.7323   -2.1024    0.4149 H   0  0  0  0  0  0  0  0  0  0  0  0
   -0.1000    0.0893   -1.0711 H   0  0  0  0  0  0  0  0  0  0  0  0
   -0.7344    1.4896    0.9873 H   0  0  0  0  0  0  0  0  0  0  0  0
   -0.7393    0.0132    1.9399 H   0  0  0  0  0  0  0  0  0  0  0  0
   -2.5196    0.5390   -0.5026 H   0  0  0  0  0  0  0  0  0  0  0  0
   -2.5307   -0.9394    0.4655 H   0  0  0  0  0  0  0  0  0  0  0  0
   -3.2127    0.3402    2.4715 H   0  0  0  0  0  0  0  0  0  0  0  0
   -3.2279    1.8467    1.5251 H   0  0  0  0  0  0  0  0  0  0  0  0
   -4.9209   -0.0260    0.2172 H   0  0  0  0  0  0  0  0  0  0  0  0
   -7.9314    0.8878    1.9412 H   0  0  0  0  0  0  0  0  0  0  0  0
   -7.2725    0.0881    0.5433 H   0  0  0  0  0  0  0  0  0  0  0  0
   -6.4524    1.9057    3.5928 H   0  0  0  0  0  0  0  0  0  0  0  0
   -4.7315    1.8340    3.3756 H   0  0  0  0  0  0  0  0  0  0  0  0
    2.2430    0.6520   -0.7825 N   0  0  0  0  0  0  0  0  0  0  0  0
    3.5937    1.1577   -0.6976 C   0  0  2  0  0  0  0  0  0  0  0  0
    3.7676    2.2180   -1.7770 C   0  0  0  0  0  0  0  0  0  0  0  0
    3.2127    2.1576   -2.8722 O   0  0  0  0  0  0  0  0  0  0  0  0
    4.6138    0.0419   -0.8624 C   0  0  0  0  0  0  0  0  0  0  0  0
    1.8208    0.5891   -1.7042 H   0  0  0  0  0  0  0  0  0  0  0  0
    3.6966    1.6207    0.2899 H   0  0  0  0  0  0  0  0  0  0  0  0
    4.5260   -0.4339   -1.8459 H   0  0  0  0  0  0  0  0  0  0  0  0
    5.6364    0.4222   -0.7693 H   0  0  0  0  0  0  0  0  0  0  0  0
    4.4682   -0.7344   -0.1034 H   0  0  0  0  0  0  0  0  0  0  0  0
    4.6492    3.2174   -1.3896 N   0  0  0  0  0  0  0  0  0  0  0  0
    5.0130    4.3148   -2.2553 C   0  0  0  0  0  0  0  0  0  0  0  0
    5.0317    3.2092   -0.4486 H   0  0  0  0  0  0  0  0  0  0  0  0
    5.9249    4.0557   -2.8132 H   0  0  0  0  0  0  0  0  0  0  0  0
    4.1937    4.5106   -2.9628 H   0  0  0  0  0  0  0  0  0  0  0  0
    5.1971    5.2142   -1.6494 H   0  0  0  0  0  0  0  0  0  0  0  0
  1  3  1  0  0  0  0
  1  7  1  0  0  0  0
  1  2  2  0  0  0  0
 42 43  1  0  0  0  0
 43 51  1  0  0  0  0
 43 44  2  0  0  0  0
  8  9  1  0  0  0  0
  9 17  1  0  0  0  0
  9 10  2  0  0  0  0
 18 19  1  0  0  0  0
 19 41  1  0  0  0  0
 19 20  2  0  0  0  0
 25 26  1  0  0  0  0
 25 27  1  0  0  0  0
 24 25  2  0  0  0  0
 42 45  1  0  0  0  0
  8 11  1  0  0  0  0
 51 52  1  0  0  0  0
 21 22  1  0  0  0  0
 22 23  1  0  0  0  0
 18 21  1  0  0  0  0
 23 24  1  0  0  0  0
 41 42  1  0  0  0  0
  7  8  1  0  0  0  0
 17 18  1  0  0  0  0
  3  4  1  0  0  0  0
  3  5  1  0  0  0  0
  3  6  1  0  0  0  0
 45 48  1  0  0  0  0
 45 49  1  0  0  0  0
 45 50  1  0  0  0  0
 11 14  1  0  0  0  0
 11 15  1  0  0  0  0
 11 16  1  0  0  0  0
 52 54  1  0  0  0  0
 52 55  1  0  0  0  0
 52 56  1  0  0  0  0
 22 32  1  0  0  0  0
 22 33  1  0  0  0  0
 21 30  1  0  0  0  0
 21 31  1  0  0  0  0
 23 34  1  0  0  0  0
 23 35  1  0  0  0  0
 42 47  1  0  0  0  0
  8 13  1  0  0  0  0
 18 29  1  0  0  0  0
 26 37  1  0  0  0  0
 26 38  1  0  0  0  0
 27 39  1  0  0  0  0
 27 40  1  0  0  0  0
 51 53  1  0  0  0  0
  7 12  1  0  0  0  0
 41 46  1  0  0  0  0
 17 28  1  0  0  0  0
 24 36  1  0  0  0  0
M  CHG  1  24   1
M  END
$$$$

  -OEChem-05262214473D

 56 55  0     1  0  0  0  0  0999 V2000
    0.7735   -5.8042   -2.0022 C   0  0  0  0  0  0  0  0  0  0  0  0
   -0.2086   -6.3825   -1.5519 O   0  0  0  0  0  0  0  0  0  0  0  0
    1.4751   -6.3646   -3.1946 C   0  0  0  0  0  0  0  0  0  0  0  0
    2.2765   -7.0687   -2.9186 H   0  0  0  0  0  0  0  0  0  0  0  0
    0.7988   -6.9360   -3.8504 H   0  0  0  0  0  0  0  0  0  0  0  0
    1.9556   -5.6216   -3.8511 H   0  0  0  0  0  0  0  0  0  0  0  0
    1.3322   -4.6359   -1.5106 N   0  0  0  0  0  0  0  0  0  0  0  0
    0.8124   -3.9290   -0.3698 C   0  0  2  0  0  0  0  0  0  0  0  0
    1.0666   -2.4424   -0.5818 C   0  0  0  0  0  0  0  0  0  0  0  0
    2.0598   -2.0076   -1.1610 O   0  0  0  0  0  0  0  0  0  0  0  0
    1.4560   -4.4118    0.9207 C   0  0  0  0  0  0  0  0  0  0  0  0
    2.1528   -4.2578   -1.9805 H   0  0  0  0  0  0  0  0  0  0  0  0
   -0.2667   -4.1160   -0.3467 H   0  0  0  0  0  0  0  0  0  0  0  0
    2.5374   -4.2329    0.9160 H   0  0  0  0  0  0  0  0  0  0  0  0
    1.0390   -3.8932    1.7903 H   0  0  0  0  0  0  0  0  0  0  0  0
    1.2976   -5.4871    1.0566 H   0  0  0  0  0  0  0  0  0  0  0  0
    0.0755   -1.6529   -0.0105 N   0  0  0  0  0  0  0  0  0  0  0  0
    0.1113   -0.2132   -0.0391 C   0  0  2  0  0  0  0  0  0  0  0  0
    1.5283    0.2172    0.3250 C   0  0  0  0  0  0  0  0  0  0  0  0
    2.0443   -0.0318    1.4126 O   0  0  0  0  0  0  0  0  0  0  0  0
   -0.9019    0.4074    0.9280 C   0  0  0  0  0  0  0  0  0  0  0  0
   -2.3516    0.1412    0.5054 C   0  0  0  0  0  0  0  0  0  0  0  0
   -3.3558    0.7612    1.4715 C   0  0  0  0  0  0  0  0  0  0  0  0
   -4.7357    0.4855    1.0782 N   0  3  0  0  0  0  0  0  0  0  0  0
   -5.8278    0.8989    1.8435 C   0  0  0  0  0  0  0  0  0  0  0  0
   -7.1145    0.6009    1.4073 N   0  0  0  0  0  0  0  0  0  0  0  0
   -5.6606    1.6023    3.0318 N   0  0  0  0  0  0  0  0  0  0  0  0
   -0.7323   -2.1024    0.4149 H   0  0  0  0  0  0  0  0  0  0  0  0
   -0.1000    0.0893   -1.0711 H   0  0  0  0  0  0  0  0  0  0  0  0
   -0.7344    1.4896    0.9873 H   0  0  0  0  0  0  0  0  0  0  0  0
   -0.7393    0.0132    1.9399 H   0  0  0  0  0  0  0  0  0  0  0  0
   -2.5196    0.5390   -0.5026 H   0  0  0  0  0  0  0  0  0  0  0  0
   -2.5307   -0.9394    0.4655 H   0  0  0  0  0  0  0  0  0  0  0  0
   -3.2127    0.3402    2.4715 H   0  0  0  0  0  0  0  0  0  0  0  0
   -3.2279    1.8467    1.5251 H   0  0  0  0  0  0  0  0  0  0  0  0
   -4.9209   -0.0260    0.2172 H   0  0  0  0  0  0  0  0  0  0  0  0
   -7.9314    0.8878    1.9412 H   0  0  0  0  0  0  0  0  0  0  0  0
   -7.2725    0.0881    0.5433 H   0  0  0  0  0  0  0  0  0  0  0  0
   -6.4524    1.9057    3.5928 H   0  0  0  0  0  0  0  0  0  0  0  0
   -4.7315    1.8340    3.3756 H   0  0  0  0  0  0  0  0  0  0  0  0
    2.1274    0.9527   -0.6881 N   0  0  0  0  0  0  0  0  0  0  0  0
    3.4520    1.5179   -0.5716 C   0  0  2  0  0  0  0  0  0  0  0  0
    3.4820    2.8143   -1.3703 C   0  0  0  0  0  0  0  0  0  0  0  0
    2.8446    2.9774   -2.4087 O   0  0  0  0  0  0  0  0  0  0  0  0
    4.5130    0.5485   -1.0688 C   0  0  0  0  0  0  0  0  0  0  0  0
    1.6362    1.0814   -1.5678 H   0  0  0  0  0  0  0  0  0  0  0  0
    3.6095    1.7384    0.4898 H   0  0  0  0  0  0  0  0  0  0  0  0
    4.3715    0.3156   -2.1305 H   0  0  0  0  0  0  0  0  0  0  0  0
    5.5182    0.9670   -0.9534 H   0  0  0  0  0  0  0  0  0  0  0  0
    4.4703   -0.3945   -0.5132 H   0  0  0  0  0  0  0  0  0  0  0  0
    4.3379    3.7525   -0.8105 N   0  0  0  0  0  0  0  0  0  0  0  0
    4.5722    5.0474   -1.4058 C   0  0  0  0  0  0  0  0  0  0  0  0
    4.7949    3.5475    0.0732 H   0  0  0  0  0  0  0  0  0  0  0  0
    5.4486    4.9937   -2.0684 H   0  0  0  0  0  0  0  0  0  0  0  0
    3.6894    5.3476   -1.9893 H   0  0  0  0  0  0  0  0  0  0  0  0
    4.7567    5.7873   -0.6131 H   0  0  0  0  0  0  0  0  0  0  0  0
  1  3  1  0  0  0  0
  1  7  1  0  0  0  0
  1  2  2  0  0  0  0
 42 43  1  0  0  0  0
 43 51  1  0  0  0  0
 43 44  2  0  0  0  0
  8  9  1  0  0  0  0
  9 17  1  0  0  0  0
  9 10  2  0  0  0  0
 18 19  1  0  0  0  0
 19 41  1  0  0  0  0
 19 20  2  0  0  0  0
 25 26  1  0  0  0  0
 25 27  1  0  0  0  0
 24 25  2  0  0  0  0
 42 45  1  0  0  0  0
  8 11  1  0  0  0  0
 51 52  1  0  0  0  0
 21 22  1  0  0  0  0
 22 23  1  0  0  0  0
 18 21  1  0  0  0  0
 23 24  1  0  0  0  0
 41 42  1  0  0  0  0
  7  8  1  0  0  0  0
 17 18  1  0  0  0  0
  3  4  1  0  0  0  0
  3  5  1  0  0  0  0
  3  6  1  0  0  0  0
 45 48  1  0  0  0  0
 45 49  1  0  0  0  0
 45 50  1  0  0  0  0
 11 14  1  0  0  0  0
 11 15  1  0  0  0  0
 11 16  1  0  0  0  0
 52 54  1  0  0  0  0
 52 55  1  0  0  0  0
 52 56  1  0  0  0  0
 22 32  1  0  0  0  0
 22 33  1  0  0  0  0
 21 30  1  0  0  0  0
 21 31  1  0  0  0  0
 23 34  1  0  0  0  0
 23 35  1  0  0  0  0
 42 47  1  0  0  0  0
  8 13  1  0  0  0  0
 18 29  1  0  0  0  0
 26 37  1  0  0  0  0
 26 38  1  0  0  0  0
 27 39  1  0  0  0  0
 27 40  1  0  0  0  0
 51 53  1  0  0  0  0
  7 12  1  0  0  0  0
 41 46  1  0  0  0  0
 17 28  1  0  0  0  0
 24 36  1  0  0  0  0
M  CHG  1  24   1
M  END
$$$$

  -OEChem-05262214473D

 56 55  0     1  0  0  0  0  0999 V2000
    0.7735   -5.8042   -2.0022 C   0  0  0  0  0  0  0  0  0  0  0  0
   -0.2086   -6.3825   -1.5519 O   0  0  0  0  0  0  0  0  0  0  0  0
    1.4751   -6.3646   -3.1946 C   0  0  0  0  0  0  0  0  0  0  0  0
    2.2765   -7.0687   -2.9186 H   0  0  0  0  0  0  0  0  0  0  0  0
    0.7988   -6.9360   -3.8504 H   0  0  0  0  0  0  0  0  0  0  0  0
    1.9556   -5.6216   -3.8511 H   0  0  0  0  0  0  0  0  0  0  0  0
    1.3322   -4.6359   -1.5106 N   0  0  0  0  0  0  0  0  0  0  0  0
    0.8124   -3.9290   -0.3698 C   0  0  2  0  0  0  0  0  0  0  0  0
    1.0666   -2.4424   -0.5818 C   0  0  0  0  0  0  0  0  0  0  0  0
    2.0598   -2.0076   -1.1610 O   0  0  0  0  0  0  0  0  0  0  0  0
    1.4560   -4.4118    0.9207 C   0  0  0  0  0  0  0  0  0  0  0  0
    2.1528   -4.2578   -1.9805 H   0  0  0  0  0  0  0  0  0  0  0  0
   -0.2667   -4.1160   -0.3467 H   0  0  0  0  0  0  0  0  0  0  0  0
    2.5374   -4.2329    0.9160 H   0  0  0  0  0  0  0  0  0  0  0  0
    1.0390   -3.8932    1.7903 H   0  0  0  0  0  0  0  0  0  0  0  0
    1.2976   -5.4871    1.0566 H   0  0  0  0  0  0  0  0  0  0  0  0
    0.0755   -1.6529   -0.0105 N   0  0  0  0  0  0  0  0  0  0  0  0
    0.1113   -0.2132   -0.0391 C   0  0  2  0  0  0  0  0  0  0  0  0
    1.5283    0.2172    0.3250 C   0  0  0  0  0  0  0  0  0  0  0  0
    2.1427   -0.2466    1.2834 O   0  0  0  0  0  0  0  0  0  0  0  0
   -0.9019    0.4074    0.9280 C   0  0  0  0  0  0  0  0  0  0  0  0
   -2.3516    0.1412    0.5054 C   0  0  0  0  0  0  0  0  0  0  0  0
   -3.3558    0.7612    1.4715 C   0  0  0  0  0  0  0  0  0  0  0  0
   -4.7357    0.4855    1.0782 N   0  3  0  0  0  0  0  0  0  0  0  0
   -5.8278    0.8989    1.8435 C   0  0  0  0  0  0  0  0  0  0  0  0
   -7.1145    0.6009    1.4073 N   0  0  0  0  0  0  0  0  0  0  0  0
   -5.6606    1.6023    3.0318 N   0  0  0  0  0  0  0  0  0  0  0  0
   -0.7323   -2.1024    0.4149 H   0  0  0  0  0  0  0  0  0  0  0  0
   -0.1000    0.0893   -1.0711 H   0  0  0  0  0  0  0  0  0  0  0  0
   -0.7344    1.4896    0.9873 H   0  0  0  0  0  0  0  0  0  0  0  0
   -0.7393    0.0132    1.9399 H   0  0  0  0  0  0  0  0  0  0  0  0
   -2.5196    0.5390   -0.5026 H   0  0  0  0  0  0  0  0  0  0  0  0
   -2.5307   -0.9394    0.4655 H   0  0  0  0  0  0  0  0  0  0  0  0
   -3.2127    0.3402    2.4715 H   0  0  0  0  0  0  0  0  0  0  0  0
   -3.2279    1.8467    1.5251 H   0  0  0  0  0  0  0  0  0  0  0  0
   -4.9209   -0.0260    0.2172 H   0  0  0  0  0  0  0  0  0  0  0  0
   -7.9314    0.8878    1.9412 H   0  0  0  0  0  0  0  0  0  0  0  0
   -7.2725    0.0881    0.5433 H   0  0  0  0  0  0  0  0  0  0  0  0
   -6.4524    1.9057    3.5928 H   0  0  0  0  0  0  0  0  0  0  0  0
   -4.7315    1.8340    3.3756 H   0  0  0  0  0  0  0  0  0  0  0  0
    2.0041    1.2133   -0.5163 N   0  0  0  0  0  0  0  0  0  0  0  0
    3.3020    1.8267   -0.3530 C   0  0  2  0  0  0  0  0  0  0  0  0
    3.1990    3.2748   -0.8133 C   0  0  0  0  0  0  0  0  0  0  0  0
    2.4722    3.6350   -1.7369 O   0  0  0  0  0  0  0  0  0  0  0  0
    4.3692    1.0812   -1.1391 C   0  0  0  0  0  0  0  0  0  0  0  0
    1.4375    1.5128   -1.3043 H   0  0  0  0  0  0  0  0  0  0  0  0
    3.5327    1.7987    0.7175 H   0  0  0  0  0  0  0  0  0  0  0  0
    4.1551    1.0985   -2.2139 H   0  0  0  0  0  0  0  0  0  0  0  0
    5.3569    1.5302   -0.9916 H   0  0  0  0  0  0  0  0  0  0  0  0
    4.4214    0.0324   -0.8275 H   0  0  0  0  0  0  0  0  0  0  0  0
    4.0464    4.1108   -0.0997 N   0  0  0  0  0  0  0  0  0  0  0  0
    4.1631    5.5234   -0.3769 C   0  0  0  0  0  0  0  0  0  0  0  0
    4.5833    3.7340    0.6759 H   0  0  0  0  0  0  0  0  0  0  0  0
    4.9849    5.6913   -1.0886 H   0  0  0  0  0  0  0  0  0  0  0  0
    3.2215    5.8908   -0.8110 H   0  0  0  0  0  0  0  0  0  0  0  0
    4.3716    6.0644    0.5580 H   0  0  0  0  0  0  0  0  0  0  0  0
  1  3  1  0  0  0  0
  1  7  1  0  0  0  0
  1  2  2  0  0  0  0
 42 43  1  0  0  0  0
 43 51  1  0  0  0  0
 43 44  2  0  0  0  0
  8  9  1  0  0  0  0
  9 17  1  0  0  0  0
  9 10  2  0  0  0  0
 18 19  1  0  0  0  0
 19 41  1  0  0  0  0
 19 20  2  0  0  0  0
 25 26  1  0  0  0  0
 25 27  1  0  0  0  0
 24 25  2  0  0  0  0
 42 45  1  0  0  0  0
  8 11  1  0  0  0  0
 51 52  1  0  0  0  0
 21 22  1  0  0  0  0
 22 23  1  0  0  0  0
 18 21  1  0  0  0  0
 23 24  1  0  0  0  0
 41 42  1  0  0  0  0
  7  8  1  0  0  0  0
 17 18  1  0  0  0  0
  3  4  1  0  0  0  0
  3  5  1  0  0  0  0
  3  6  1  0  0  0  0
 45 48  1  0  0  0  0
 45 49  1  0  0  0  0
 45 50  1  0  0  0  0
 11 14  1  0  0  0  0
 11 15  1  0  0  0  0
 11 16  1  0  0  0  0
 52 54  1  0  0  0  0
 52 55  1  0  0  0  0
 52 56  1  0  0  0  0
 22 32  1  0  0  0  0
 22 33  1  0  0  0  0
 21 30  1  0  0  0  0
 21 31  1  0  0  0  0
 23 34  1  0  0  0  0
 23 35  1  0  0  0  0
 42 47  1  0  0  0  0
  8 13  1  0  0  0  0
 18 29  1  0  0  0  0
 26 37  1  0  0  0  0
 26 38  1  0  0  0  0
 27 39  1  0  0  0  0
 27 40  1  0  0  0  0
 51 53  1  0  0  0  0
  7 12  1  0  0  0  0
 41 46  1  0  0  0  0
 17 28  1  0  0  0  0
 24 36  1  0  0  0  0
M  CHG  1  24   1
M  END
$$$$

  -OEChem-05262214473D

 56 55  0     1  0  0  0  0  0999 V2000
    0.7735   -5.8042   -2.0022 C   0  0  0  0  0  0  0  0  0  0  0  0
   -0.2086   -6.3825   -1.5519 O   0  0  0  0  0  0  0  0  0  0  0  0
    1.4751   -6.3646   -3.1946 C   0  0  0  0  0  0  0  0  0  0  0  0
    2.2765   -7.0687   -2.9186 H   0  0  0  0  0  0  0  0  0  0  0  0
    0.7988   -6.9360   -3.8504 H   0  0  0  0  0  0  0  0  0  0  0  0
    1.9556   -5.6216   -3.8511 H   0  0  0  0  0  0  0  0  0  0  0  0
    1.3322   -4.6359   -1.5106 N   0  0  0  0  0  0  0  0  0  0  0  0
    0.8124   -3.9290   -0.3698 C   0  0  2  0  0  0  0  0  0  0  0  0
    1.0666   -2.4424   -0.5818 C   0  0  0  0  0  0  0  0  0  0  0  0
    2.0598   -2.0076   -1.1610 O   0  0  0  0  0  0  0  0  0  0  0  0
    1.4560   -4.4118    0.9207 C   0  0  0  0  0  0  0  0  0  0  0  0
    2.1528   -4.2578   -1.9805 H   0  0  0  0  0  0  0  0  0  0  0  0
   -0.2667   -4.1160   -0.3467 H   0  0  0  0  0  0  0  0  0  0  0  0
    2.5374   -4.2329    0.9160 H   0  0  0  0  0  0  0  0  0  0  0  0
    1.0390   -3.8932    1.7903 H   0  0  0  0  0  0  0  0  0  0  0  0
    1.2976   -5.4871    1.0566 H   0  0  0  0  0  0  0  0  0  0  0  0
    0.0755   -1.6529   -0.0105 N   0  0  0  0  0  0  0  0  0  0  0  0
    0.1113   -0.2132   -0.0391 C   0  0  2  0  0  0  0  0  0  0  0  0
    1.5283    0.2172    0.3250 C   0  0  0  0  0  0  0  0  0  0  0  0
    2.2417   -0.4168    1.0998 O   0  0  0  0  0  0  0  0  0  0  0  0
   -0.9019    0.4074    0.9280 C   0  0  0  0  0  0  0  0  0  0  0  0
   -2.3516    0.1412    0.5054 C   0  0  0  0  0  0  0  0  0  0  0  0
   -3.3558    0.7612    1.4715 C   0  0  0  0  0  0  0  0  0  0  0  0
   -4.7357    0.4855    1.0782 N   0  3  0  0  0  0  0  0  0  0  0  0
   -5.8278    0.8989    1.8435 C   0  0  0  0  0  0  0  0  0  0  0  0
   -7.1145    0.6009    1.4073 N   0  0  0  0  0  0  0  0  0  0  0  0
   -5.6606    1.6023    3.0318 N   0  0  0  0  0  0  0  0  0  0  0  0
   -0.7323   -2.1024    0.4149 H   0  0  0  0  0  0  0  0  0  0  0  0
   -0.1000    0.0893   -1.0711 H   0  0  0  0  0  0  0  0  0  0  0  0
   -0.7344    1.4896    0.9873 H   0  0  0  0  0  0  0  0  0  0  0  0
   -0.7393    0.0132    1.9399 H   0  0  0  0  0  0  0  0  0  0  0  0
   -2.5196    0.5390   -0.5026 H   0  0  0  0  0  0  0  0  0  0  0  0
   -2.5307   -0.9394    0.4655 H   0  0  0  0  0  0  0  0  0  0  0  0
   -3.2127    0.3402    2.4715 H   0  0  0  0  0  0  0  0  0  0  0  0
   -3.2279    1.8467    1.5251 H   0  0  0  0  0  0  0  0  0  0  0  0
   -4.9209   -0.0260    0.2172 H   0  0  0  0  0  0  0  0  0  0  0  0
   -7.9314    0.8878    1.9412 H   0  0  0  0  0  0  0  0  0  0  0  0
   -7.2725    0.0881    0.5433 H   0  0  0  0  0  0  0  0  0  0  0  0
   -6.4524    1.9057    3.5928 H   0  0  0  0  0  0  0  0  0  0  0  0
   -4.7315    1.8340    3.3756 H   0  0  0  0  0  0  0  0  0  0  0  0
    1.8814    1.4161   -0.2786 N   0  0  0  0  0  0  0  0  0  0  0  0
    3.1540    2.0632   -0.0566 C   0  0  2  0  0  0  0  0  0  0  0  0
    2.9378    3.5682   -0.1438 C   0  0  0  0  0  0  0  0  0  0  0  0
    2.1209    4.0857   -0.9027 O   0  0  0  0  0  0  0  0  0  0  0  0
    4.1923    1.6037   -1.0683 C   0  0  0  0  0  0  0  0  0  0  0  0
    1.2381    1.8538   -0.9314 H   0  0  0  0  0  0  0  0  0  0  0  0
    3.4714    1.7974    0.9576 H   0  0  0  0  0  0  0  0  0  0  0  0
    3.8916    1.8614   -2.0904 H   0  0  0  0  0  0  0  0  0  0  0  0
    5.1636    2.0734   -0.8812 H   0  0  0  0  0  0  0  0  0  0  0  0
    4.3248    0.5173   -1.0248 H   0  0  0  0  0  0  0  0  0  0  0  0
    3.7947    4.2680    0.6943 N   0  0  0  0  0  0  0  0  0  0  0  0
    3.8138    5.7106    0.7614 C   0  0  0  0  0  0  0  0  0  0  0  0
    4.4115    3.7563    1.3184 H   0  0  0  0  0  0  0  0  0  0  0  0
    4.5655    6.1008    0.0595 H   0  0  0  0  0  0  0  0  0  0  0  0
    2.8222    6.1032    0.4921 H   0  0  0  0  0  0  0  0  0  0  0  0
    4.0681    6.0266    1.7838 H   0  0  0  0  0  0  0  0  0  0  0  0
  1  3  1  0  0  0  0
  1  7  1  0  0  0  0
  1  2  2  0  0  0  0
 42 43  1  0  0  0  0
 43 51  1  0  0  0  0
 43 44  2  0  0  0  0
  8  9  1  0  0  0  0
  9 17  1  0  0  0  0
  9 10  2  0  0  0  0
 18 19  1  0  0  0  0
 19 41  1  0  0  0  0
 19 20  2  0  0  0  0
 25 26  1  0  0  0  0
 25 27  1  0  0  0  0
 24 25  2  0  0  0  0
 42 45  1  0  0  0  0
  8 11  1  0  0  0  0
 51 52  1  0  0  0  0
 21 22  1  0  0  0  0
 22 23  1  0  0  0  0
 18 21  1  0  0  0  0
 23 24  1  0  0  0  0
 41 42  1  0  0  0  0
  7  8  1  0  0  0  0
 17 18  1  0  0  0  0
  3  4  1  0  0  0  0
  3  5  1  0  0  0  0
  3  6  1  0  0  0  0
 45 48  1  0  0  0  0
 45 49  1  0  0  0  0
 45 50  1  0  0  0  0
 11 14  1  0  0  0  0
 11 15  1  0  0  0  0
 11 16  1  0  0  0  0
 52 54  1  0  0  0  0
 52 55  1  0  0  0  0
 52 56  1  0  0  0  0
 22 32  1  0  0  0  0
 22 33  1  0  0  0  0
 21 30  1  0  0  0  0
 21 31  1  0  0  0  0
 23 34  1  0  0  0  0
 23 35  1  0  0  0  0
 42 47  1  0  0  0  0
  8 13  1  0  0  0  0
 18 29  1  0  0  0  0
 26 37  1  0  0  0  0
 26 38  1  0  0  0  0
 27 39  1  0  0  0  0
 27 40  1  0  0  0  0
 51 53  1  0  0  0  0
  7 12  1  0  0  0  0
 41 46  1  0  0  0  0
 17 28  1  0  0  0  0
 24 36  1  0  0  0  0
M  CHG  1  24   1
M  END
$$$$

  -OEChem-05262214473D

 56 55  0     1  0  0  0  0  0999 V2000
    0.7735   -5.8042   -2.0022 C   0  0  0  0  0  0  0  0  0  0  0  0
   -0.2086   -6.3825   -1.5519 O   0  0  0  0  0  0  0  0  0  0  0  0
    1.4751   -6.3646   -3.1946 C   0  0  0  0  0  0  0  0  0  0  0  0
    2.2765   -7.0687   -2.9186 H   0  0  0  0  0  0  0  0  0  0  0  0
    0.7988   -6.9360   -3.8504 H   0  0  0  0  0  0  0  0  0  0  0  0
    1.9556   -5.6216   -3.8511 H   0  0  0  0  0  0  0  0  0  0  0  0
    1.3322   -4.6359   -1.5106 N   0  0  0  0  0  0  0  0  0  0  0  0
    0.8124   -3.9290   -0.3698 C   0  0  2  0  0  0  0  0  0  0  0  0
    1.0666   -2.4424   -0.5818 C   0  0  0  0  0  0  0  0  0  0  0  0
    2.0598   -2.0076   -1.1610 O   0  0  0  0  0  0  0  0  0  0  0  0
    1.4560   -4.4118    0.9207 C   0  0  0  0  0  0  0  0  0  0  0  0
    2.1528   -4.2578   -1.9805 H   0  0  0  0  0  0  0  0  0  0  0  0
   -0.2667   -4.1160   -0.3467 H   0  0  0  0  0  0  0  0  0  0  0  0
    2.5374   -4.2329    0.9160 H   0  0  0  0  0  0  0  0  0  0  0  0
    1.0390   -3.8932    1.7903 H   0  0  0  0  0  0  0  0  0  0  0  0
    1.2976   -5.4871    1.0566 H   0  0  0  0  0  0  0  0  0  0  0  0
    0.0755   -1.6529   -0.0105 N   0  0  0  0  0  0  0  0  0  0  0  0
    0.1113   -0.2132   -0.0391 C   0  0  2  0  0  0  0  0  0  0  0  0
    1.5283    0.2172    0.3250 C   0  0  0  0  0  0  0  0  0  0  0  0
    2.3343   -0.5311    0.8742 O   0  0  0  0  0  0  0  0  0  0  0  0
   -0.9019    0.4074    0.9280 C   0  0  0  0  0  0  0  0  0  0  0  0
   -2.3516    0.1412    0.5054 C   0  0  0  0  0  0  0  0  0  0  0  0
   -3.3558    0.7612    1.4715 C   0  0  0  0  0  0  0  0  0  0  0  0
   -4.7357    0.4855    1.0782 N   0  3  0  0  0  0  0  0  0  0  0  0
   -5.8278    0.8989    1.8435 C   0  0  0  0  0  0  0  0  0  0  0  0
   -7.1145    0.6009    1.4073 N   0  0  0  0  0  0  0  0  0  0  0  0
   -5.6606    1.6023    3.0318 N   0  0  0  0  0  0  0  0  0  0  0  0
   -0.7323   -2.1024    0.4149 H   0  0  0  0  0  0  0  0  0  0  0  0
   -0.1000    0.0893   -1.0711 H   0  0  0  0  0  0  0  0  0  0  0  0
   -0.7344    1.4896    0.9873 H   0  0  0  0  0  0  0  0  0  0  0  0
   -0.7393    0.0132    1.9399 H   0  0  0  0  0  0  0  0  0  0  0  0
   -2.5196    0.5390   -0.5026 H   0  0  0  0  0  0  0  0  0  0  0  0
   -2.5307   -0.9394    0.4655 H   0  0  0  0  0  0  0  0  0  0  0  0
   -3.2127    0.3402    2.4715 H   0  0  0  0  0  0  0  0  0  0  0  0
   -3.2279    1.8467    1.5251 H   0  0  0  0  0  0  0  0  0  0  0  0
   -4.9209   -0.0260    0.2172 H   0  0  0  0  0  0  0  0  0  0  0  0
   -7.9314    0.8878    1.9412 H   0  0  0  0  0  0  0  0  0  0  0  0
   -7.2725    0.0881    0.5433 H   0  0  0  0  0  0  0  0  0  0  0  0
   -6.4524    1.9057    3.5928 H   0  0  0  0  0  0  0  0  0  0  0  0
   -4.7315    1.8340    3.3756 H   0  0  0  0  0  0  0  0  0  0  0  0
    1.7678    1.5472    0.0088 N   0  0  0  0  0  0  0  0  0  0  0  0
    3.0181    2.2112    0.2973 C   0  0  2  0  0  0  0  0  0  0  0  0
    2.7163    3.6745    0.5925 C   0  0  0  0  0  0  0  0  0  0  0  0
    1.8147    4.2988    0.0372 O   0  0  0  0  0  0  0  0  0  0  0  0
    3.9943    2.0805   -0.8614 C   0  0  0  0  0  0  0  0  0  0  0  0
    1.0516    2.0812   -0.4747 H   0  0  0  0  0  0  0  0  0  0  0  0
    3.4298    1.7346    1.1936 H   0  0  0  0  0  0  0  0  0  0  0  0
    3.5990    2.5523   -1.7684 H   0  0  0  0  0  0  0  0  0  0  0  0
    4.9513    2.5596   -0.6299 H   0  0  0  0  0  0  0  0  0  0  0  0
    4.1871    1.0272   -1.0917 H   0  0  0  0  0  0  0  0  0  0  0  0
    3.5997    4.2133    1.5175 N   0  0  0  0  0  0  0  0  0  0  0  0
    3.5480    5.5960    1.9313 C   0  0  0  0  0  0  0  0  0  0  0  0
    4.2911    3.6126    1.9568 H   0  0  0  0  0  0  0  0  0  0  0  0
    4.2190    6.1944    1.2975 H   0  0  0  0  0  0  0  0  0  0  0  0
    2.5185    5.9703    1.8310 H   0  0  0  0  0  0  0  0  0  0  0  0
    3.8668    5.6766    2.9810 H   0  0  0  0  0  0  0  0  0  0  0  0
  1  3  1  0  0  0  0
  1  7  1  0  0  0  0
  1  2  2  0  0  0  0
 42 43  1  0  0  0  0
 43 51  1  0  0  0  0
 43 44  2  0  0  0  0
  8  9  1  0  0  0  0
  9 17  1  0  0  0  0
  9 10  2  0  0  0  0
 18 19  1  0  0  0  0
 19 41  1  0  0  0  0
 19 20  2  0  0  0  0
 25 26  1  0  0  0  0
 25 27  1  0  0  0  0
 24 25  2  0  0  0  0
 42 45  1  0  0  0  0
  8 11  1  0  0  0  0
 51 52  1  0  0  0  0
 21 22  1  0  0  0  0
 22 23  1  0  0  0  0
 18 21  1  0  0  0  0
 23 24  1  0  0  0  0
 41 42  1  0  0  0  0
  7  8  1  0  0  0  0
 17 18  1  0  0  0  0
  3  4  1  0  0  0  0
  3  5  1  0  0  0  0
  3  6  1  0  0  0  0
 45 48  1  0  0  0  0
 45 49  1  0  0  0  0
 45 50  1  0  0  0  0
 11 14  1  0  0  0  0
 11 15  1  0  0  0  0
 11 16  1  0  0  0  0
 52 54  1  0  0  0  0
 52 55  1  0  0  0  0
 52 56  1  0  0  0  0
 22 32  1  0  0  0  0
 22 33  1  0  0  0  0
 21 30  1  0  0  0  0
 21 31  1  0  0  0  0
 23 34  1  0  0  0  0
 23 35  1  0  0  0  0
 42 47  1  0  0  0  0
  8 13  1  0  0  0  0
 18 29  1  0  0  0  0
 26 37  1  0  0  0  0
 26 38  1  0  0  0  0
 27 39  1  0  0  0  0
 27 40  1  0  0  0  0
 51 53  1  0  0  0  0
  7 12  1  0  0  0  0
 41 46  1  0  0  0  0
 17 28  1  0  0  0  0
 24 36  1  0  0  0  0
M  CHG  1  24   1
M  END
$$$$

  -OEChem-05262214473D

 56 55  0     1  0  0  0  0  0999 V2000
    0.7735   -5.8042   -2.0022 C   0  0  0  0  0  0  0  0  0  0  0  0
   -0.2086   -6.3825   -1.5519 O   0  0  0  0  0  0  0  0  0  0  0  0
    1.4751   -6.3646   -3.1946 C   0  0  0  0  0  0  0  0  0  0  0  0
    2.2765   -7.0687   -2.9186 H   0  0  0  0  0  0  0  0  0  0  0  0
    0.7988   -6.9360   -3.8504 H   0  0  0  0  0  0  0  0  0  0  0  0
    1.9556   -5.6216   -3.8511 H   0  0  0  0  0  0  0  0  0  0  0  0
    1.3322   -4.6359   -1.5106 N   0  0  0  0  0  0  0  0  0  0  0  0
    0.8124   -3.9290   -0.3698 C   0  0  2  0  0  0  0  0  0  0  0  0
    1.0666   -2.4424   -0.5818 C   0  0  0  0  0  0  0  0  0  0  0  0
    2.0598   -2.0076   -1.1610 O   0  0  0  0  0  0  0  0  0  0  0  0
    1.4560   -4.4118    0.9207 C   0  0  0  0  0  0  0  0  0  0  0  0
    2.1528   -4.2578   -1.9805 H   0  0  0  0  0  0  0  0  0  0  0  0
   -0.2667   -4.1160   -0.3467 H   0  0  0  0  0  0  0  0  0  0  0  0
    2.5374   -4.2329    0.9160 H   0  0  0  0  0  0  0  0  0  0  0  0
    1.0390   -3.8932    1.7903 H   0  0  0  0  0  0  0  0  0  0  0  0
    1.2976   -5.4871    1.0566 H   0  0  0  0  0  0  0  0  0  0  0  0
    0.0755   -1.6529   -0.0105 N   0  0  0  0  0  0  0  0  0  0  0  0
    0.1113   -0.2132   -0.0391 C   0  0  2  0  0  0  0  0  0  0  0  0
    1.5768    0.2085   -0.0515 C   0  0  0  0  0  0  0  0  0  0  0  0
    2.5048   -0.5960    0.0017 O   0  0  0  0  0  0  0  0  0  0  0  0
   -0.6135    0.4049    1.1608 C   0  0  0  0  0  0  0  0  0  0  0  0
   -2.1248    0.1479    1.1261 C   0  0  0  0  0  0  0  0  0  0  0  0
   -2.8411    0.7653    2.3227 C   0  0  0  0  0  0  0  0  0  0  0  0
   -4.2775    0.4983    2.2982 N   0  3  0  0  0  0  0  0  0  0  0  0
   -5.1319    0.9110    3.3222 C   0  0  0  0  0  0  0  0  0  0  0  0
   -6.4894    0.6216    3.2321 N   0  0  0  0  0  0  0  0  0  0  0  0
   -4.6588    1.6052    4.4309 N   0  0  0  0  0  0  0  0  0  0  0  0
   -0.7323   -2.1024    0.4149 H   0  0  0  0  0  0  0  0  0  0  0  0
   -0.3580    0.0975   -0.9795 H   0  0  0  0  0  0  0  0  0  0  0  0
   -0.4299    1.4858    1.1810 H   0  0  0  0  0  0  0  0  0  0  0  0
   -0.1971    0.0027    2.0939 H   0  0  0  0  0  0  0  0  0  0  0  0
   -2.5454    0.5536    0.1981 H   0  0  0  0  0  0  0  0  0  0  0  0
   -2.3146   -0.9316    1.1276 H   0  0  0  0  0  0  0  0  0  0  0  0
   -2.4468    0.3366    3.2491 H   0  0  0  0  0  0  0  0  0  0  0  0
   -2.6973    1.8498    2.3476 H   0  0  0  0  0  0  0  0  0  0  0  0
   -4.6821   -0.0062    1.5114 H   0  0  0  0  0  0  0  0  0  0  0  0
   -7.1387    0.9082    3.9608 H   0  0  0  0  0  0  0  0  0  0  0  0
   -6.8686    0.1156    2.4354 H   0  0  0  0  0  0  0  0  0  0  0  0
   -5.2767    1.9079    5.1793 H   0  0  0  0  0  0  0  0  0  0  0  0
   -3.6711    1.8304    4.5240 H   0  0  0  0  0  0  0  0  0  0  0  0
    1.7231    1.5884   -0.0793 N   0  0  0  0  0  0  0  0  0  0  0  0
    3.0105    2.2434   -0.0480 C   0  0  2  0  0  0  0  0  0  0  0  0
    2.8475    3.5659    0.6895 C   0  0  0  0  0  0  0  0  0  0  0  0
    1.8250    4.2456    0.6298 O   0  0  0  0  0  0  0  0  0  0  0  0
    3.5520    2.4667   -1.4514 C   0  0  0  0  0  0  0  0  0  0  0  0
    0.8978    2.1755   -0.1556 H   0  0  0  0  0  0  0  0  0  0  0  0
    3.6841    1.5900    0.5172 H   0  0  0  0  0  0  0  0  0  0  0  0
    2.8904    3.1191   -2.0329 H   0  0  0  0  0  0  0  0  0  0  0  0
    4.5404    2.9373   -1.4251 H   0  0  0  0  0  0  0  0  0  0  0  0
    3.6405    1.5174   -1.9907 H   0  0  0  0  0  0  0  0  0  0  0  0
    3.9940    3.9190    1.3873 N   0  0  0  0  0  0  0  0  0  0  0  0
    4.1046    5.1513    2.1326 C   0  0  0  0  0  0  0  0  0  0  0  0
    4.7803    3.2766    1.4144 H   0  0  0  0  0  0  0  0  0  0  0  0
    4.5420    5.9304    1.4910 H   0  0  0  0  0  0  0  0  0  0  0  0
    3.1056    5.4690    2.4658 H   0  0  0  0  0  0  0  0  0  0  0  0
    4.7503    4.9929    3.0089 H   0  0  0  0  0  0  0  0  0  0  0  0
  1  3  1  0  0  0  0
  1  7  1  0  0  0  0
  1  2  2  0  0  0  0
 42 43  1  0  0  0  0
 43 51  1  0  0  0  0
 43 44  2  0  0  0  0
  8  9  1  0  0  0  0
  9 17  1  0  0  0  0
  9 10  2  0  0  0  0
 18 19  1  0  0  0  0
 19 41  1  0  0  0  0
 19 20  2  0  0  0  0
 25 26  1  0  0  0  0
 25 27  1  0  0  0  0
 24 25  2  0  0  0  0
 42 45  1  0  0  0  0
  8 11  1  0  0  0  0
 51 52  1  0  0  0  0
 21 22  1  0  0  0  0
 22 23  1  0  0  0  0
 18 21  1  0  0  0  0
 23 24  1  0  0  0  0
 41 42  1  0  0  0  0
  7  8  1  0  0  0  0
 17 18  1  0  0  0  0
  3  4  1  0  0  0  0
  3  5  1  0  0  0  0
  3  6  1  0  0  0  0
 45 48  1  0  0  0  0
 45 49  1  0  0  0  0
 45 50  1  0  0  0  0
 11 14  1  0  0  0  0
 11 15  1  0  0  0  0
 11 16  1  0  0  0  0
 52 54  1  0  0  0  0
 52 55  1  0  0  0  0
 52 56  1  0  0  0  0
 22 32  1  0  0  0  0
 22 33  1  0  0  0  0
 21 30  1  0  0  0  0
 21 31  1  0  0  0  0
 23 34  1  0  0  0  0
 23 35  1  0  0  0  0
 42 47  1  0  0  0  0
  8 13  1  0  0  0  0
 18 29  1  0  0  0  0
 26 37  1  0  0  0  0
 26 38  1  0  0  0  0
 27 39  1  0  0  0  0
 27 40  1  0  0  0  0
 51 53  1  0  0  0  0
  7 12  1  0  0  0  0
 41 46  1  0  0  0  0
 17 28  1  0  0  0  0
 24 36  1  0  0  0  0
M  CHG  1  24   1
M  END
$$$$

  -OEChem-05262214473D

 56 55  0     1  0  0  0  0  0999 V2000
    0.7735   -5.8042   -2.0022 C   0  0  0  0  0  0  0  0  0  0  0  0
   -0.2086   -6.3825   -1.5519 O   0  0  0  0  0  0  0  0  0  0  0  0
    1.4751   -6.3646   -3.1946 C   0  0  0  0  0  0  0  0  0  0  0  0
    2.2765   -7.0687   -2.9186 H   0  0  0  0  0  0  0  0  0  0  0  0
    0.7988   -6.9360   -3.8504 H   0  0  0  0  0  0  0  0  0  0  0  0
    1.9556   -5.6216   -3.8511 H   0  0  0  0  0  0  0  0  0  0  0  0
    1.3322   -4.6359   -1.5106 N   0  0  0  0  0  0  0  0  0  0  0  0
    0.8124   -3.9290   -0.3698 C   0  0  2  0  0  0  0  0  0  0  0  0
    1.0666   -2.4424   -0.5818 C   0  0  0  0  0  0  0  0  0  0  0  0
    2.0598   -2.0076   -1.1610 O   0  0  0  0  0  0  0  0  0  0  0  0
    1.4560   -4.4118    0.9207 C   0  0  0  0  0  0  0  0  0  0  0  0
    2.1528   -4.2578   -1.9805 H   0  0  0  0  0  0  0  0  0  0  0  0
   -0.2667   -4.1160   -0.3467 H   0  0  0  0  0  0  0  0  0  0  0  0
    2.5374   -4.2329    0.9160 H   0  0  0  0  0  0  0  0  0  0  0  0
    1.0390   -3.8932    1.7903 H   0  0  0  0  0  0  0  0  0  0  0  0
    1.2976   -5.4871    1.0566 H   0  0  0  0  0  0  0  0  0  0  0  0
    0.0755   -1.6529   -0.0105 N   0  0  0  0  0  0  0  0  0  0  0  0
    0.1113   -0.2132   -0.0391 C   0  0  2  0  0  0  0  0  0  0  0  0
    1.5768    0.2085   -0.0515 C   0  0  0  0  0  0  0  0  0  0  0  0
    2.4972   -0.5775   -0.2668 O   0  0  0  0  0  0  0  0  0  0  0  0
   -0.6135    0.4049    1.1608 C   0  0  0  0  0  0  0  0  0  0  0  0
   -2.1248    0.1479    1.1261 C   0  0  0  0  0  0  0  0  0  0  0  0
   -2.8411    0.7653    2.3227 C   0  0  0  0  0  0  0  0  0  0  0  0
   -4.2775    0.4983    2.2982 N   0  3  0  0  0  0  0  0  0  0  0  0
   -5.1319    0.9110    3.3222 C   0  0  0  0  0  0  0  0  0  0  0  0
   -6.4894    0.6216    3.2321 N   0  0  0  0  0  0  0  0  0  0  0  0
   -4.6588    1.6052    4.4309 N   0  0  0  0  0  0  0  0  0  0  0  0
   -0.7323   -2.1024    0.4149 H   0  0  0  0  0  0  0  0  0  0  0  0
   -0.3580    0.0975   -0.9795 H   0  0  0  0  0  0  0  0  0  0  0  0
   -0.4299    1.4858    1.1810 H   0  0  0  0  0  0  0  0  0  0  0  0
   -0.1971    0.0027    2.0939 H   0  0  0  0  0  0  0  0  0  0  0  0
   -2.5454    0.5536    0.1981 H   0  0  0  0  0  0  0  0  0  0  0  0
   -2.3146   -0.9316    1.1276 H   0  0  0  0  0  0  0  0  0  0  0  0
   -2.4468    0.3366    3.2491 H   0  0  0  0  0  0  0  0  0  0  0  0
   -2.6973    1.8498    2.3476 H   0  0  0  0  0  0  0  0  0  0  0  0
   -4.6821   -0.0062    1.5114 H   0  0  0  0  0  0  0  0  0  0  0  0
   -7.1387    0.9082    3.9608 H   0  0  0  0  0  0  0  0  0  0  0  0
   -6.8686    0.1156    2.4354 H   0  0  0  0  0  0  0  0  0  0  0  0
   -5.2767    1.9079    5.1793 H   0  0  0  0  0  0  0  0  0  0  0  0
   -3.6711    1.8304    4.5240 H   0  0  0  0  0  0  0  0  0  0  0  0
    1.7361    1.5529    0.2543 N   0  0  0  0  0  0  0  0  0  0  0  0
    3.0297    2.1884    0.3549 C   0  0  2  0  0  0  0  0  0  0  0  0
    2.9345    3.2847    1.4077 C   0  0  0  0  0  0  0  0  0  0  0  0
    1.9180    3.9508    1.5926 O   0  0  0  0  0  0  0  0  0  0  0  0
    3.4722    2.7577   -0.9841 C   0  0  0  0  0  0  0  0  0  0  0  0
    0.9141    2.1348    0.3858 H   0  0  0  0  0  0  0  0  0  0  0  0
    3.7346    1.4197    0.6899 H   0  0  0  0  0  0  0  0  0  0  0  0
    2.7781    3.5296   -1.3360 H   0  0  0  0  0  0  0  0  0  0  0  0
    4.4651    3.2137   -0.9127 H   0  0  0  0  0  0  0  0  0  0  0  0
    3.5114    1.9730   -1.7474 H   0  0  0  0  0  0  0  0  0  0  0  0
    4.1317    3.4611    2.0873 N   0  0  0  0  0  0  0  0  0  0  0  0
    4.3089    4.4699    3.1055 C   0  0  0  0  0  0  0  0  0  0  0  0
    4.9107    2.8376    1.8972 H   0  0  0  0  0  0  0  0  0  0  0  0
    4.7081    5.3872    2.6481 H   0  0  0  0  0  0  0  0  0  0  0  0
    3.3398    4.6878    3.5782 H   0  0  0  0  0  0  0  0  0  0  0  0
    5.0136    4.1030    3.8663 H   0  0  0  0  0  0  0  0  0  0  0  0
  1  3  1  0  0  0  0
  1  7  1  0  0  0  0
  1  2  2  0  0  0  0
 42 43  1  0  0  0  0
 43 51  1  0  0  0  0
 43 44  2  0  0  0  0
  8  9  1  0  0  0  0
  9 17  1  0  0  0  0
  9 10  2  0  0  0  0
 18 19  1  0  0  0  0
 19 41  1  0  0  0  0
 19 20  2  0  0  0  0
 25 26  1  0  0  0  0
 25 27  1  0  0  0  0
 24 25  2  0  0  0  0
 42 45  1  0  0  0  0
  8 11  1  0  0  0  0
 51 52  1  0  0  0  0
 21 22  1  0  0  0  0
 22 23  1  0  0  0  0
 18 21  1  0  0  0  0
 23 24  1  0  0  0  0
 41 42  1  0  0  0  0
  7  8  1  0  0  0  0
 17 18  1  0  0  0  0
  3  4  1  0  0  0  0
  3  5  1  0  0  0  0
  3  6  1  0  0  0  0
 45 48  1  0  0  0  0
 45 49  1  0  0  0  0
 45 50  1  0  0  0  0
 11 14  1  0  0  0  0
 11 15  1  0  0  0  0
 11 16  1  0  0  0  0
 52 54  1  0  0  0  0
 52 55  1  0  0  0  0
 52 56  1  0  0  0  0
 22 32  1  0  0  0  0
 22 33  1  0  0  0  0
 21 30  1  0  0  0  0
 21 31  1  0  0  0  0
 23 34  1  0  0  0  0
 23 35  1  0  0  0  0
 42 47  1  0  0  0  0
  8 13  1  0  0  0  0
 18 29  1  0  0  0  0
 26 37  1  0  0  0  0
 26 38  1  0  0  0  0
 27 39  1  0  0  0  0
 27 40  1  0  0  0  0
 51 53  1  0  0  0  0
  7 12  1  0  0  0  0
 41 46  1  0  0  0  0
 17 28  1  0  0  0  0
 24 36  1  0  0  0  0
M  CHG  1  24   1
M  END
$$$$

  -OEChem-05262214473D

 56 55  0     1  0  0  0  0  0999 V2000
    0.7735   -5.8042   -2.0022 C   0  0  0  0  0  0  0  0  0  0  0  0
   -0.2086   -6.3825   -1.5519 O   0  0  0  0  0  0  0  0  0  0  0  0
    1.4751   -6.3646   -3.1946 C   0  0  0  0  0  0  0  0  0  0  0  0
    2.2765   -7.0687   -2.9186 H   0  0  0  0  0  0  0  0  0  0  0  0
    0.7988   -6.9360   -3.8504 H   0  0  0  0  0  0  0  0  0  0  0  0
    1.9556   -5.6216   -3.8511 H   0  0  0  0  0  0  0  0  0  0  0  0
    1.3322   -4.6359   -1.5106 N   0  0  0  0  0  0  0  0  0  0  0  0
    0.8124   -3.9290   -0.3698 C   0  0  2  0  0  0  0  0  0  0  0  0
    1.0666   -2.4424   -0.5818 C   0  0  0  0  0  0  0  0  0  0  0  0
    2.0598   -2.0076   -1.1610 O   0  0  0  0  0  0  0  0  0  0  0  0
    1.4560   -4.4118    0.9207 C   0  0  0  0  0  0  0  0  0  0  0  0
    2.1528   -4.2578   -1.9805 H   0  0  0  0  0  0  0  0  0  0  0  0
   -0.2667   -4.1160   -0.3467 H   0  0  0  0  0  0  0  0  0  0  0  0
    2.5374   -4.2329    0.9160 H   0  0  0  0  0  0  0  0  0  0  0  0
    1.0390   -3.8932    1.7903 H   0  0  0  0  0  0  0  0  0  0  0  0
    1.2976   -5.4871    1.0566 H   0  0  0  0  0  0  0  0  0  0  0  0
    0.0755   -1.6529   -0.0105 N   0  0  0  0  0  0  0  0  0  0  0  0
    0.1113   -0.2132   -0.0391 C   0  0  2  0  0  0  0  0  0  0  0  0
    1.5768    0.2085   -0.0515 C   0  0  0  0  0  0  0  0  0  0  0  0
    2.4707   -0.4928   -0.5210 O   0  0  0  0  0  0  0  0  0  0  0  0
   -0.6135    0.4049    1.1608 C   0  0  0  0  0  0  0  0  0  0  0  0
   -2.1248    0.1479    1.1261 C   0  0  0  0  0  0  0  0  0  0  0  0
   -2.8411    0.7653    2.3227 C   0  0  0  0  0  0  0  0  0  0  0  0
   -4.2775    0.4983    2.2982 N   0  3  0  0  0  0  0  0  0  0  0  0
   -5.1319    0.9110    3.3222 C   0  0  0  0  0  0  0  0  0  0  0  0
   -6.4894    0.6216    3.2321 N   0  0  0  0  0  0  0  0  0  0  0  0
   -4.6588    1.6052    4.4309 N   0  0  0  0  0  0  0  0  0  0  0  0
   -0.7323   -2.1024    0.4149 H   0  0  0  0  0  0  0  0  0  0  0  0
   -0.3580    0.0975   -0.9795 H   0  0  0  0  0  0  0  0  0  0  0  0
   -0.4299    1.4858    1.1810 H   0  0  0  0  0  0  0  0  0  0  0  0
   -0.1971    0.0027    2.0939 H   0  0  0  0  0  0  0  0  0  0  0  0
   -2.5454    0.5536    0.1981 H   0  0  0  0  0  0  0  0  0  0  0  0
   -2.3146   -0.9316    1.1276 H   0  0  0  0  0  0  0  0  0  0  0  0
   -2.4468    0.3366    3.2491 H   0  0  0  0  0  0  0  0  0  0  0  0
   -2.6973    1.8498    2.3476 H   0  0  0  0  0  0  0  0  0  0  0  0
   -4.6821   -0.0062    1.5114 H   0  0  0  0  0  0  0  0  0  0  0  0
   -7.1387    0.9082    3.9608 H   0  0  0  0  0  0  0  0  0  0  0  0
   -6.8686    0.1156    2.4354 H   0  0  0  0  0  0  0  0  0  0  0  0
   -5.2767    1.9079    5.1793 H   0  0  0  0  0  0  0  0  0  0  0  0
   -3.6711    1.8304    4.5240 H   0  0  0  0  0  0  0  0  0  0  0  0
    1.7725    1.4356    0.5667 N   0  0  0  0  0  0  0  0  0  0  0  0
    3.0770    2.0351    0.7289 C   0  0  2  0  0  0  0  0  0  0  0  0
    3.0694    2.8343    2.0253 C   0  0  0  0  0  0  0  0  0  0  0  0
    2.0761    3.4263    2.4425 O   0  0  0  0  0  0  0  0  0  0  0  0
    3.4292    2.9227   -0.4547 C   0  0  0  0  0  0  0  0  0  0  0  0
    0.9685    1.9608    0.8975 H   0  0  0  0  0  0  0  0  0  0  0  0
    3.7953    1.2121    0.8108 H   0  0  0  0  0  0  0  0  0  0  0  0
    2.7204    3.7530   -0.5528 H   0  0  0  0  0  0  0  0  0  0  0  0
    4.4297    3.3535   -0.3437 H   0  0  0  0  0  0  0  0  0  0  0  0
    3.4051    2.3529   -1.3899 H   0  0  0  0  0  0  0  0  0  0  0  0
    4.3139    2.8444    2.6396 N   0  0  0  0  0  0  0  0  0  0  0  0
    4.5745    3.5694    3.8613 C   0  0  0  0  0  0  0  0  0  0  0  0
    5.0703    2.2932    2.2450 H   0  0  0  0  0  0  0  0  0  0  0  0
    4.9503    4.5744    3.6188 H   0  0  0  0  0  0  0  0  0  0  0  0
    3.6440    3.6561    4.4416 H   0  0  0  0  0  0  0  0  0  0  0  0
    5.3275    3.0296    4.4542 H   0  0  0  0  0  0  0  0  0  0  0  0
  1  3  1  0  0  0  0
  1  7  1  0  0  0  0
  1  2  2  0  0  0  0
 42 43  1  0  0  0  0
 43 51  1  0  0  0  0
 43 44  2  0  0  0  0
  8  9  1  0  0  0  0
  9 17  1  0  0  0  0
  9 10  2  0  0  0  0
 18 19  1  0  0  0  0
 19 41  1  0  0  0  0
 19 20  2  0  0  0  0
 25 26  1  0  0  0  0
 25 27  1  0  0  0  0
 24 25  2  0  0  0  0
 42 45  1  0  0  0  0
  8 11  1  0  0  0  0
 51 52  1  0  0  0  0
 21 22  1  0  0  0  0
 22 23  1  0  0  0  0
 18 21  1  0  0  0  0
 23 24  1  0  0  0  0
 41 42  1  0  0  0  0
  7  8  1  0  0  0  0
 17 18  1  0  0  0  0
  3  4  1  0  0  0  0
  3  5  1  0  0  0  0
  3  6  1  0  0  0  0
 45 48  1  0  0  0  0
 45 49  1  0  0  0  0
 45 50  1  0  0  0  0
 11 14  1  0  0  0  0
 11 15  1  0  0  0  0
 11 16  1  0  0  0  0
 52 54  1  0  0  0  0
 52 55  1  0  0  0  0
 52 56  1  0  0  0  0
 22 32  1  0  0  0  0
 22 33  1  0  0  0  0
 21 30  1  0  0  0  0
 21 31  1  0  0  0  0
 23 34  1  0  0  0  0
 23 35  1  0  0  0  0
 42 47  1  0  0  0  0
  8 13  1  0  0  0  0
 18 29  1  0  0  0  0
 26 37  1  0  0  0  0
 26 38  1  0  0  0  0
 27 39  1  0  0  0  0
 27 40  1  0  0  0  0
 51 53  1  0  0  0  0
  7 12  1  0  0  0  0
 41 46  1  0  0  0  0
 17 28  1  0  0  0  0
 24 36  1  0  0  0  0
M  CHG  1  24   1
M  END
$$$$

  -OEChem-05262214473D

 56 55  0     1  0  0  0  0  0999 V2000
    0.7735   -5.8042   -2.0022 C   0  0  0  0  0  0  0  0  0  0  0  0
   -0.2086   -6.3825   -1.5519 O   0  0  0  0  0  0  0  0  0  0  0  0
    1.4751   -6.3646   -3.1946 C   0  0  0  0  0  0  0  0  0  0  0  0
    2.2765   -7.0687   -2.9186 H   0  0  0  0  0  0  0  0  0  0  0  0
    0.7988   -6.9360   -3.8504 H   0  0  0  0  0  0  0  0  0  0  0  0
    1.9556   -5.6216   -3.8511 H   0  0  0  0  0  0  0  0  0  0  0  0
    1.3322   -4.6359   -1.5106 N   0  0  0  0  0  0  0  0  0  0  0  0
    0.8124   -3.9290   -0.3698 C   0  0  2  0  0  0  0  0  0  0  0  0
    1.0666   -2.4424   -0.5818 C   0  0  0  0  0  0  0  0  0  0  0  0
    2.0598   -2.0076   -1.1610 O   0  0  0  0  0  0  0  0  0  0  0  0
    1.4560   -4.4118    0.9207 C   0  0  0  0  0  0  0  0  0  0  0  0
    2.1528   -4.2578   -1.9805 H   0  0  0  0  0  0  0  0  0  0  0  0
   -0.2667   -4.1160   -0.3467 H   0  0  0  0  0  0  0  0  0  0  0  0
    2.5374   -4.2329    0.9160 H   0  0  0  0  0  0  0  0  0  0  0  0
    1.0390   -3.8932    1.7903 H   0  0  0  0  0  0  0  0  0  0  0  0
    1.2976   -5.4871    1.0566 H   0  0  0  0  0  0  0  0  0  0  0  0
    0.0755   -1.6529   -0.0105 N   0  0  0  0  0  0  0  0  0  0  0  0
    0.1113   -0.2132   -0.0391 C   0  0  2  0  0  0  0  0  0  0  0  0
    1.5768    0.2085   -0.0515 C   0  0  0  0  0  0  0  0  0  0  0  0
    2.4270   -0.3477   -0.7436 O   0  0  0  0  0  0  0  0  0  0  0  0
   -0.6135    0.4049    1.1608 C   0  0  0  0  0  0  0  0  0  0  0  0
   -2.1248    0.1479    1.1261 C   0  0  0  0  0  0  0  0  0  0  0  0
   -2.8411    0.7653    2.3227 C   0  0  0  0  0  0  0  0  0  0  0  0
   -4.2775    0.4983    2.2982 N   0  3  0  0  0  0  0  0  0  0  0  0
   -5.1319    0.9110    3.3222 C   0  0  0  0  0  0  0  0  0  0  0  0
   -6.4894    0.6216    3.2321 N   0  0  0  0  0  0  0  0  0  0  0  0
   -4.6588    1.6052    4.4309 N   0  0  0  0  0  0  0  0  0  0  0  0
   -0.7323   -2.1024    0.4149 H   0  0  0  0  0  0  0  0  0  0  0  0
   -0.3580    0.0975   -0.9795 H   0  0  0  0  0  0  0  0  0  0  0  0
   -0.4299    1.4858    1.1810 H   0  0  0  0  0  0  0  0  0  0  0  0
   -0.1971    0.0027    2.0939 H   0  0  0  0  0  0  0  0  0  0  0  0
   -2.5454    0.5536    0.1981 H   0  0  0  0  0  0  0  0  0  0  0  0
   -2.3146   -0.9316    1.1276 H   0  0  0  0  0  0  0  0  0  0  0  0
   -2.4468    0.3366    3.2491 H   0  0  0  0  0  0  0  0  0  0  0  0
   -2.6973    1.8498    2.3476 H   0  0  0  0  0  0  0  0  0  0  0  0
   -4.6821   -0.0062    1.5114 H   0  0  0  0  0  0  0  0  0  0  0  0
   -7.1387    0.9082    3.9608 H   0  0  0  0  0  0  0  0  0  0  0  0
   -6.8686    0.1156    2.4354 H   0  0  0  0  0  0  0  0  0  0  0  0
   -5.2767    1.9079    5.1793 H   0  0  0  0  0  0  0  0  0  0  0  0
   -3.6711    1.8304    4.5240 H   0  0  0  0  0  0  0  0  0  0  0  0
    1.8298    1.2446    0.8367 N   0  0  0  0  0  0  0  0  0  0  0  0
    3.1491    1.7939    1.0487 C   0  0  2  0  0  0  0  0  0  0  0  0
    3.2429    2.2453    2.5002 C   0  0  0  0  0  0  0  0  0  0  0  0
    2.2885    2.7080    3.1218 O   0  0  0  0  0  0  0  0  0  0  0  0
    3.4259    2.9504    0.1008 C   0  0  0  0  0  0  0  0  0  0  0  0
    1.0573    1.6653    1.3445 H   0  0  0  0  0  0  0  0  0  0  0  0
    3.8622    0.9814    0.8716 H   0  0  0  0  0  0  0  0  0  0  0  0
    2.7213    3.7741    0.2634 H   0  0  0  0  0  0  0  0  0  0  0  0
    4.4365    3.3471    0.2433 H   0  0  0  0  0  0  0  0  0  0  0  0
    3.3288    2.6311   -0.9424 H   0  0  0  0  0  0  0  0  0  0  0  0
    4.5280    2.1110    3.0066 N   0  0  0  0  0  0  0  0  0  0  0  0
    4.8831    2.5110    4.3482 C   0  0  0  0  0  0  0  0  0  0  0  0
    5.2482    1.6805    2.4341 H   0  0  0  0  0  0  0  0  0  0  0  0
    5.2519    3.5473    4.3369 H   0  0  0  0  0  0  0  0  0  0  0  0
    3.9975    2.4441    4.9972 H   0  0  0  0  0  0  0  0  0  0  0  0
    5.6705    1.8459    4.7327 H   0  0  0  0  0  0  0  0  0  0  0  0
  1  3  1  0  0  0  0
  1  7  1  0  0  0  0
  1  2  2  0  0  0  0
 42 43  1  0  0  0  0
 43 51  1  0  0  0  0
 43 44  2  0  0  0  0
  8  9  1  0  0  0  0
  9 17  1  0  0  0  0
  9 10  2  0  0  0  0
 18 19  1  0  0  0  0
 19 41  1  0  0  0  0
 19 20  2  0  0  0  0
 25 26  1  0  0  0  0
 25 27  1  0  0  0  0
 24 25  2  0  0  0  0
 42 45  1  0  0  0  0
  8 11  1  0  0  0  0
 51 52  1  0  0  0  0
 21 22  1  0  0  0  0
 22 23  1  0  0  0  0
 18 21  1  0  0  0  0
 23 24  1  0  0  0  0
 41 42  1  0  0  0  0
  7  8  1  0  0  0  0
 17 18  1  0  0  0  0
  3  4  1  0  0  0  0
  3  5  1  0  0  0  0
  3  6  1  0  0  0  0
 45 48  1  0  0  0  0
 45 49  1  0  0  0  0
 45 50  1  0  0  0  0
 11 14  1  0  0  0  0
 11 15  1  0  0  0  0
 11 16  1  0  0  0  0
 52 54  1  0  0  0  0
 52 55  1  0  0  0  0
 52 56  1  0  0  0  0
 22 32  1  0  0  0  0
 22 33  1  0  0  0  0
 21 30  1  0  0  0  0
 21 31  1  0  0  0  0
 23 34  1  0  0  0  0
 23 35  1  0  0  0  0
 42 47  1  0  0  0  0
  8 13  1  0  0  0  0
 18 29  1  0  0  0  0
 26 37  1  0  0  0  0
 26 38  1  0  0  0  0
 27 39  1  0  0  0  0
 27 40  1  0  0  0  0
 51 53  1  0  0  0  0
  7 12  1  0  0  0  0
 41 46  1  0  0  0  0
 17 28  1  0  0  0  0
 24 36  1  0  0  0  0
M  CHG  1  24   1
M  END
$$$$

  -OEChem-05262214473D

 56 55  0     1  0  0  0  0  0999 V2000
    0.7735   -5.8042   -2.0022 C   0  0  0  0  0  0  0  0  0  0  0  0
   -0.2086   -6.3825   -1.5519 O   0  0  0  0  0  0  0  0  0  0  0  0
    1.4751   -6.3646   -3.1946 C   0  0  0  0  0  0  0  0  0  0  0  0
    2.2765   -7.0687   -2.9186 H   0  0  0  0  0  0  0  0  0  0  0  0
    0.7988   -6.9360   -3.8504 H   0  0  0  0  0  0  0  0  0  0  0  0
    1.9556   -5.6216   -3.8511 H   0  0  0  0  0  0  0  0  0  0  0  0
    1.3322   -4.6359   -1.5106 N   0  0  0  0  0  0  0  0  0  0  0  0
    0.8124   -3.9290   -0.3698 C   0  0  2  0  0  0  0  0  0  0  0  0
    1.0666   -2.4424   -0.5818 C   0  0  0  0  0  0  0  0  0  0  0  0
    2.0598   -2.0076   -1.1610 O   0  0  0  0  0  0  0  0  0  0  0  0
    1.4560   -4.4118    0.9207 C   0  0  0  0  0  0  0  0  0  0  0  0
    2.1528   -4.2578   -1.9805 H   0  0  0  0  0  0  0  0  0  0  0  0
   -0.2667   -4.1160   -0.3467 H   0  0  0  0  0  0  0  0  0  0  0  0
    2.5374   -4.2329    0.9160 H   0  0  0  0  0  0  0  0  0  0  0  0
    1.0390   -3.8932    1.7903 H   0  0  0  0  0  0  0  0  0  0  0  0
    1.2976   -5.4871    1.0566 H   0  0  0  0  0  0  0  0  0  0  0  0
    0.0755   -1.6529   -0.0105 N   0  0  0  0  0  0  0  0  0  0  0  0
    0.1113   -0.2132   -0.0391 C   0  0  2  0  0  0  0  0  0  0  0  0
    1.5768    0.2085   -0.0515 C   0  0  0  0  0  0  0  0  0  0  0  0
    2.3693   -0.1521   -0.9194 O   0  0  0  0  0  0  0  0  0  0  0  0
   -0.6135    0.4049    1.1608 C   0  0  0  0  0  0  0  0  0  0  0  0
   -2.1248    0.1479    1.1261 C   0  0  0  0  0  0  0  0  0  0  0  0
   -2.8411    0.7653    2.3227 C   0  0  0  0  0  0  0  0  0  0  0  0
   -4.2775    0.4983    2.2982 N   0  3  0  0  0  0  0  0  0  0  0  0
   -5.1319    0.9110    3.3222 C   0  0  0  0  0  0  0  0  0  0  0  0
   -6.4894    0.6216    3.2321 N   0  0  0  0  0  0  0  0  0  0  0  0
   -4.6588    1.6052    4.4309 N   0  0  0  0  0  0  0  0  0  0  0  0
   -0.7323   -2.1024    0.4149 H   0  0  0  0  0  0  0  0  0  0  0  0
   -0.3580    0.0975   -0.9795 H   0  0  0  0  0  0  0  0  0  0  0  0
   -0.4299    1.4858    1.1810 H   0  0  0  0  0  0  0  0  0  0  0  0
   -0.1971    0.0027    2.0939 H   0  0  0  0  0  0  0  0  0  0  0  0
   -2.5454    0.5536    0.1981 H   0  0  0  0  0  0  0  0  0  0  0  0
   -2.3146   -0.9316    1.1276 H   0  0  0  0  0  0  0  0  0  0  0  0
   -2.4468    0.3366    3.2491 H   0  0  0  0  0  0  0  0  0  0  0  0
   -2.6973    1.8498    2.3476 H   0  0  0  0  0  0  0  0  0  0  0  0
   -4.6821   -0.0062    1.5114 H   0  0  0  0  0  0  0  0  0  0  0  0
   -7.1387    0.9082    3.9608 H   0  0  0  0  0  0  0  0  0  0  0  0
   -6.8686    0.1156    2.4354 H   0  0  0  0  0  0  0  0  0  0  0  0
   -5.2767    1.9079    5.1793 H   0  0  0  0  0  0  0  0  0  0  0  0
   -3.6711    1.8304    4.5240 H   0  0  0  0  0  0  0  0  0  0  0  0
    1.9040    0.9927    1.0458 N   0  0  0  0  0  0  0  0  0  0  0  0
    3.2412    1.4812    1.2925 C   0  0  2  0  0  0  0  0  0  0  0  0
    3.4432    1.5580    2.8001 C   0  0  0  0  0  0  0  0  0  0  0  0
    2.5409    1.8448    3.5840 O   0  0  0  0  0  0  0  0  0  0  0  0
    3.4625    2.8391    0.6446 C   0  0  0  0  0  0  0  0  0  0  0  0
    1.1745    1.2685    1.6965 H   0  0  0  0  0  0  0  0  0  0  0  0
    3.9307    0.7433    0.8681 H   0  0  0  0  0  0  0  0  0  0  0  0
    2.7805    3.5915    1.0570 H   0  0  0  0  0  0  0  0  0  0  0  0
    4.4851    3.1948    0.8082 H   0  0  0  0  0  0  0  0  0  0  0  0
    3.2878    2.7887   -0.4356 H   0  0  0  0  0  0  0  0  0  0  0  0
    4.7596    1.3108    3.1635 N   0  0  0  0  0  0  0  0  0  0  0  0
    5.2140    1.3669    4.5333 C   0  0  0  0  0  0  0  0  0  0  0  0
    5.4323    1.0413    2.4517 H   0  0  0  0  0  0  0  0  0  0  0  0
    5.5925    2.3759    4.7536 H   0  0  0  0  0  0  0  0  0  0  0  0
    4.3761    1.1345    5.2072 H   0  0  0  0  0  0  0  0  0  0  0  0
    6.0192    0.6326    4.6828 H   0  0  0  0  0  0  0  0  0  0  0  0
  1  3  1  0  0  0  0
  1  7  1  0  0  0  0
  1  2  2  0  0  0  0
 42 43  1  0  0  0  0
 43 51  1  0  0  0  0
 43 44  2  0  0  0  0
  8  9  1  0  0  0  0
  9 17  1  0  0  0  0
  9 10  2  0  0  0  0
 18 19  1  0  0  0  0
 19 41  1  0  0  0  0
 19 20  2  0  0  0  0
 25 26  1  0  0  0  0
 25 27  1  0  0  0  0
 24 25  2  0  0  0  0
 42 45  1  0  0  0  0
  8 11  1  0  0  0  0
 51 52  1  0  0  0  0
 21 22  1  0  0  0  0
 22 23  1  0  0  0  0
 18 21  1  0  0  0  0
 23 24  1  0  0  0  0
 41 42  1  0  0  0  0
  7  8  1  0  0  0  0
 17 18  1  0  0  0  0
  3  4  1  0  0  0  0
  3  5  1  0  0  0  0
  3  6  1  0  0  0  0
 45 48  1  0  0  0  0
 45 49  1  0  0  0  0
 45 50  1  0  0  0  0
 11 14  1  0  0  0  0
 11 15  1  0  0  0  0
 11 16  1  0  0  0  0
 52 54  1  0  0  0  0
 52 55  1  0  0  0  0
 52 56  1  0  0  0  0
 22 32  1  0  0  0  0
 22 33  1  0  0  0  0
 21 30  1  0  0  0  0
 21 31  1  0  0  0  0
 23 34  1  0  0  0  0
 23 35  1  0  0  0  0
 42 47  1  0  0  0  0
  8 13  1  0  0  0  0
 18 29  1  0  0  0  0
 26 37  1  0  0  0  0
 26 38  1  0  0  0  0
 27 39  1  0  0  0  0
 27 40  1  0  0  0  0
 51 53  1  0  0  0  0
  7 12  1  0  0  0  0
 41 46  1  0  0  0  0
 17 28  1  0  0  0  0
 24 36  1  0  0  0  0
M  CHG  1  24   1
M  END
$$$$

  -OEChem-05262214473D

 56 55  0     1  0  0  0  0  0999 V2000
    0.7735   -5.8042   -2.0022 C   0  0  0  0  0  0  0  0  0  0  0  0
   -0.2086   -6.3825   -1.5519 O   0  0  0  0  0  0  0  0  0  0  0  0
    1.4751   -6.3646   -3.1946 C   0  0  0  0  0  0  0  0  0  0  0  0
    2.2765   -7.0687   -2.9186 H   0  0  0  0  0  0  0  0  0  0  0  0
    0.7988   -6.9360   -3.8504 H   0  0  0  0  0  0  0  0  0  0  0  0
    1.9556   -5.6216   -3.8511 H   0  0  0  0  0  0  0  0  0  0  0  0
    1.3322   -4.6359   -1.5106 N   0  0  0  0  0  0  0  0  0  0  0  0
    0.8124   -3.9290   -0.3698 C   0  0  2  0  0  0  0  0  0  0  0  0
    1.0666   -2.4424   -0.5818 C   0  0  0  0  0  0  0  0  0  0  0  0
    2.0598   -2.0076   -1.1610 O   0  0  0  0  0  0  0  0  0  0  0  0
    1.4560   -4.4118    0.9207 C   0  0  0  0  0  0  0  0  0  0  0  0
    2.1528   -4.2578   -1.9805 H   0  0  0  0  0  0  0  0  0  0  0  0
   -0.2667   -4.1160   -0.3467 H   0  0  0  0  0  0  0  0  0  0  0  0
    2.5374   -4.2329    0.9160 H   0  0  0  0  0  0  0  0  0  0  0  0
    1.0390   -3.8932    1.7903 H   0  0  0  0  0  0  0  0  0  0  0  0
    1.2976   -5.4871    1.0566 H   0  0  0  0  0  0  0  0  0  0  0  0
    0.0755   -1.6529   -0.0105 N   0  0  0  0  0  0  0  0  0  0  0  0
    0.1113   -0.2132   -0.0391 C   0  0  2  0  0  0  0  0  0  0  0  0
    1.5768    0.2085   -0.0515 C   0  0  0  0  0  0  0  0  0  0  0  0
    2.3013    0.0807   -1.0364 O   0  0  0  0  0  0  0  0  0  0  0  0
   -0.6135    0.4049    1.1608 C   0  0  0  0  0  0  0  0  0  0  0  0
   -2.1248    0.1479    1.1261 C   0  0  0  0  0  0  0  0  0  0  0  0
   -2.8411    0.7653    2.3227 C   0  0  0  0  0  0  0  0  0  0  0  0
   -4.2775    0.4983    2.2982 N   0  3  0  0  0  0  0  0  0  0  0  0
   -5.1319    0.9110    3.3222 C   0  0  0  0  0  0  0  0  0  0  0  0
   -6.4894    0.6216    3.2321 N   0  0  0  0  0  0  0  0  0  0  0  0
   -4.6588    1.6052    4.4309 N   0  0  0  0  0  0  0  0  0  0  0  0
   -0.7323   -2.1024    0.4149 H   0  0  0  0  0  0  0  0  0  0  0  0
   -0.3580    0.0975   -0.9795 H   0  0  0  0  0  0  0  0  0  0  0  0
   -0.4299    1.4858    1.1810 H   0  0  0  0  0  0  0  0  0  0  0  0
   -0.1971    0.0027    2.0939 H   0  0  0  0  0  0  0  0  0  0  0  0
   -2.5454    0.5536    0.1981 H   0  0  0  0  0  0  0  0  0  0  0  0
   -2.3146   -0.9316    1.1276 H   0  0  0  0  0  0  0  0  0  0  0  0
   -2.4468    0.3366    3.2491 H   0  0  0  0  0  0  0  0  0  0  0  0
   -2.6973    1.8498    2.3476 H   0  0  0  0  0  0  0  0  0  0  0  0
   -4.6821   -0.0062    1.5114 H   0  0  0  0  0  0  0  0  0  0  0  0
   -7.1387    0.9082    3.9608 H   0  0  0  0  0  0  0  0  0  0  0  0
   -6.8686    0.1156    2.4354 H   0  0  0  0  0  0  0  0  0  0  0  0
   -5.2767    1.9079    5.1793 H   0  0  0  0  0  0  0  0  0  0  0  0
   -3.6711    1.8304    4.5240 H   0  0  0  0  0  0  0  0  0  0  0  0
    1.9902    0.6973    1.1799 N   0  0  0  0  0  0  0  0  0  0  0  0
    3.3469    1.1183    1.4436 C   0  0  2  0  0  0  0  0  0  0  0  0
    3.6567    0.8190    2.9044 C   0  0  0  0  0  0  0  0  0  0  0  0
    2.8158    0.8955    3.7977 O   0  0  0  0  0  0  0  0  0  0  0  0
    3.5366    2.5962    1.1394 C   0  0  0  0  0  0  0  0  0  0  0  0
    1.3120    0.7975    1.9294 H   0  0  0  0  0  0  0  0  0  0  0  0
    3.9961    0.5140    0.8007 H   0  0  0  0  0  0  0  0  0  0  0  0
    2.8942    3.2176    1.7740 H   0  0  0  0  0  0  0  0  0  0  0  0
    4.5722    2.9072    1.3125 H   0  0  0  0  0  0  0  0  0  0  0  0
    3.2847    2.8149    0.0961 H   0  0  0  0  0  0  0  0  0  0  0  0
    4.9929    0.4983    3.0993 N   0  0  0  0  0  0  0  0  0  0  0  0
    5.5443    0.2150    4.4038 C   0  0  0  0  0  0  0  0  0  0  0  0
    5.6100    0.4191    2.2965 H   0  0  0  0  0  0  0  0  0  0  0  0
    5.9488    1.1402    4.8403 H   0  0  0  0  0  0  0  0  0  0  0  0
    4.7542   -0.1835    5.0571 H   0  0  0  0  0  0  0  0  0  0  0  0
    6.3500   -0.5277    4.3078 H   0  0  0  0  0  0  0  0  0  0  0  0
  1  3  1  0  0  0  0
  1  7  1  0  0  0  0
  1  2  2  0  0  0  0
 42 43  1  0  0  0  0
 43 51  1  0  0  0  0
 43 44  2  0  0  0  0
  8  9  1  0  0  0  0
  9 17  1  0  0  0  0
  9 10  2  0  0  0  0
 18 19  1  0  0  0  0
 19 41  1  0  0  0  0
 19 20  2  0  0  0  0
 25 26  1  0  0  0  0
 25 27  1  0  0  0  0
 24 25  2  0  0  0  0
 42 45  1  0  0  0  0
  8 11  1  0  0  0  0
 51 52  1  0  0  0  0
 21 22  1  0  0  0  0
 22 23  1  0  0  0  0
 18 21  1  0  0  0  0
 23 24  1  0  0  0  0
 41 42  1  0  0  0  0
  7  8  1  0  0  0  0
 17 18  1  0  0  0  0
  3  4  1  0  0  0  0
  3  5  1  0  0  0  0
  3  6  1  0  0  0  0
 45 48  1  0  0  0  0
 45 49  1  0  0  0  0
 45 50  1  0  0  0  0
 11 14  1  0  0  0  0
 11 15  1  0  0  0  0
 11 16  1  0  0  0  0
 52 54  1  0  0  0  0
 52 55  1  0  0  0  0
 52 56  1  0  0  0  0
 22 32  1  0  0  0  0
 22 33  1  0  0  0  0
 21 30  1  0  0  0  0
 21 31  1  0  0  0  0
 23 34  1  0  0  0  0
 23 35  1  0  0  0  0
 42 47  1  0  0  0  0
  8 13  1  0  0  0  0
 18 29  1  0  0  0  0
 26 37  1  0  0  0  0
 26 38  1  0  0  0  0
 27 39  1  0  0  0  0
 27 40  1  0  0  0  0
 51 53  1  0  0  0  0
  7 12  1  0  0  0  0
 41 46  1  0  0  0  0
 17 28  1  0  0  0  0
 24 36  1  0  0  0  0
M  CHG  1  24   1
M  END
$$$$

  -OEChem-05262214473D

 56 55  0     1  0  0  0  0  0999 V2000
    0.7735   -5.8042   -2.0022 C   0  0  0  0  0  0  0  0  0  0  0  0
   -0.2086   -6.3825   -1.5519 O   0  0  0  0  0  0  0  0  0  0  0  0
    1.4751   -6.3646   -3.1946 C   0  0  0  0  0  0  0  0  0  0  0  0
    2.2765   -7.0687   -2.9186 H   0  0  0  0  0  0  0  0  0  0  0  0
    0.7988   -6.9360   -3.8504 H   0  0  0  0  0  0  0  0  0  0  0  0
    1.9556   -5.6216   -3.8511 H   0  0  0  0  0  0  0  0  0  0  0  0
    1.3322   -4.6359   -1.5106 N   0  0  0  0  0  0  0  0  0  0  0  0
    0.8124   -3.9290   -0.3698 C   0  0  2  0  0  0  0  0  0  0  0  0
    1.0666   -2.4424   -0.5818 C   0  0  0  0  0  0  0  0  0  0  0  0
    2.0598   -2.0076   -1.1610 O   0  0  0  0  0  0  0  0  0  0  0  0
    1.4560   -4.4118    0.9207 C   0  0  0  0  0  0  0  0  0  0  0  0
    2.1528   -4.2578   -1.9805 H   0  0  0  0  0  0  0  0  0  0  0  0
   -0.2667   -4.1160   -0.3467 H   0  0  0  0  0  0  0  0  0  0  0  0
    2.5374   -4.2329    0.9160 H   0  0  0  0  0  0  0  0  0  0  0  0
    1.0390   -3.8932    1.7903 H   0  0  0  0  0  0  0  0  0  0  0  0
    1.2976   -5.4871    1.0566 H   0  0  0  0  0  0  0  0  0  0  0  0
    0.0755   -1.6529   -0.0105 N   0  0  0  0  0  0  0  0  0  0  0  0
    0.1113   -0.2132   -0.0391 C   0  0  2  0  0  0  0  0  0  0  0  0
    1.5768    0.2085   -0.0515 C   0  0  0  0  0  0  0  0  0  0  0  0
    2.2277    0.3348   -1.0867 O   0  0  0  0  0  0  0  0  0  0  0  0
   -0.6135    0.4049    1.1608 C   0  0  0  0  0  0  0  0  0  0  0  0
   -2.1248    0.1479    1.1261 C   0  0  0  0  0  0  0  0  0  0  0  0
   -2.8411    0.7653    2.3227 C   0  0  0  0  0  0  0  0  0  0  0  0
   -4.2775    0.4983    2.2982 N   0  3  0  0  0  0  0  0  0  0  0  0
   -5.1319    0.9110    3.3222 C   0  0  0  0  0  0  0  0  0  0  0  0
   -6.4894    0.6216    3.2321 N   0  0  0  0  0  0  0  0  0  0  0  0
   -4.6588    1.6052    4.4309 N   0  0  0  0  0  0  0  0  0  0  0  0
   -0.7323   -2.1024    0.4149 H   0  0  0  0  0  0  0  0  0  0  0  0
   -0.3580    0.0975   -0.9795 H   0  0  0  0  0  0  0  0  0  0  0  0
   -0.4299    1.4858    1.1810 H   0  0  0  0  0  0  0  0  0  0  0  0
   -0.1971    0.0027    2.0939 H   0  0  0  0  0  0  0  0  0  0  0  0
   -2.5454    0.5536    0.1981 H   0  0  0  0  0  0  0  0  0  0  0  0
   -2.3146   -0.9316    1.1276 H   0  0  0  0  0  0  0  0  0  0  0  0
   -2.4468    0.3366    3.2491 H   0  0  0  0  0  0  0  0  0  0  0  0
   -2.6973    1.8498    2.3476 H   0  0  0  0  0  0  0  0  0  0  0  0
   -4.6821   -0.0062    1.5114 H   0  0  0  0  0  0  0  0  0  0  0  0
   -7.1387    0.9082    3.9608 H   0  0  0  0  0  0  0  0  0  0  0  0
   -6.8686    0.1156    2.4354 H   0  0  0  0  0  0  0  0  0  0  0  0
   -5.2767    1.9079    5.1793 H   0  0  0  0  0  0  0  0  0  0  0  0
   -3.6711    1.8304    4.5240 H   0  0  0  0  0  0  0  0  0  0  0  0
    2.0823    0.3784    1.2298 N   0  0  0  0  0  0  0  0  0  0  0  0
    3.4590    0.7300    1.4917 C   0  0  2  0  0  0  0  0  0  0  0  0
    3.8689    0.0789    2.8060 C   0  0  0  0  0  0  0  0  0  0  0  0
    3.0948   -0.0751    3.7484 O   0  0  0  0  0  0  0  0  0  0  0  0
    3.6431    2.2384    1.5518 C   0  0  0  0  0  0  0  0  0  0  0  0
    1.4605    0.2843    2.0274 H   0  0  0  0  0  0  0  0  0  0  0  0
    4.0540    0.3092    0.6738 H   0  0  0  0  0  0  0  0  0  0  0  0
    3.0545    2.6779    2.3653 H   0  0  0  0  0  0  0  0  0  0  0  0
    4.6917    2.5037    1.7219 H   0  0  0  0  0  0  0  0  0  0  0  0
    3.3199    2.7080    0.6165 H   0  0  0  0  0  0  0  0  0  0  0  0
    5.2119   -0.2709    2.8187 N   0  0  0  0  0  0  0  0  0  0  0  0
    5.8518   -0.8660    3.9686 C   0  0  0  0  0  0  0  0  0  0  0  0
    5.7693   -0.1436    1.9791 H   0  0  0  0  0  0  0  0  0  0  0  0
    6.2967   -0.0758    4.5912 H   0  0  0  0  0  0  0  0  0  0  0  0
    5.1058   -1.4201    4.5573 H   0  0  0  0  0  0  0  0  0  0  0  0
    6.6402   -1.5559    3.6333 H   0  0  0  0  0  0  0  0  0  0  0  0
  1  3  1  0  0  0  0
  1  7  1  0  0  0  0
  1  2  2  0  0  0  0
 42 43  1  0  0  0  0
 43 51  1  0  0  0  0
 43 44  2  0  0  0  0
  8  9  1  0  0  0  0
  9 17  1  0  0  0  0
  9 10  2  0  0  0  0
 18 19  1  0  0  0  0
 19 41  1  0  0  0  0
 19 20  2  0  0  0  0
 25 26  1  0  0  0  0
 25 27  1  0  0  0  0
 24 25  2  0  0  0  0
 42 45  1  0  0  0  0
  8 11  1  0  0  0  0
 51 52  1  0  0  0  0
 21 22  1  0  0  0  0
 22 23  1  0  0  0  0
 18 21  1  0  0  0  0
 23 24  1  0  0  0  0
 41 42  1  0  0  0  0
  7  8  1  0  0  0  0
 17 18  1  0  0  0  0
  3  4  1  0  0  0  0
  3  5  1  0  0  0  0
  3  6  1  0  0  0  0
 45 48  1  0  0  0  0
 45 49  1  0  0  0  0
 45 50  1  0  0  0  0
 11 14  1  0  0  0  0
 11 15  1  0  0  0  0
 11 16  1  0  0  0  0
 52 54  1  0  0  0  0
 52 55  1  0  0  0  0
 52 56  1  0  0  0  0
 22 32  1  0  0  0  0
 22 33  1  0  0  0  0
 21 30  1  0  0  0  0
 21 31  1  0  0  0  0
 23 34  1  0  0  0  0
 23 35  1  0  0  0  0
 42 47  1  0  0  0  0
  8 13  1  0  0  0  0
 18 29  1  0  0  0  0
 26 37  1  0  0  0  0
 26 38  1  0  0  0  0
 27 39  1  0  0  0  0
 27 40  1  0  0  0  0
 51 53  1  0  0  0  0
  7 12  1  0  0  0  0
 41 46  1  0  0  0  0
 17 28  1  0  0  0  0
 24 36  1  0  0  0  0
M  CHG  1  24   1
M  END
$$$$

  -OEChem-05262214473D

 56 55  0     1  0  0  0  0  0999 V2000
    0.7735   -5.8042   -2.0022 C   0  0  0  0  0  0  0  0  0  0  0  0
   -0.2086   -6.3825   -1.5519 O   0  0  0  0  0  0  0  0  0  0  0  0
    1.4751   -6.3646   -3.1946 C   0  0  0  0  0  0  0  0  0  0  0  0
    2.2765   -7.0687   -2.9186 H   0  0  0  0  0  0  0  0  0  0  0  0
    0.7988   -6.9360   -3.8504 H   0  0  0  0  0  0  0  0  0  0  0  0
    1.9556   -5.6216   -3.8511 H   0  0  0  0  0  0  0  0  0  0  0  0
    1.3322   -4.6359   -1.5106 N   0  0  0  0  0  0  0  0  0  0  0  0
    0.8124   -3.9290   -0.3698 C   0  0  2  0  0  0  0  0  0  0  0  0
    1.0666   -2.4424   -0.5818 C   0  0  0  0  0  0  0  0  0  0  0  0
    2.0598   -2.0076   -1.1610 O   0  0  0  0  0  0  0  0  0  0  0  0
    1.4560   -4.4118    0.9207 C   0  0  0  0  0  0  0  0  0  0  0  0
    2.1528   -4.2578   -1.9805 H   0  0  0  0  0  0  0  0  0  0  0  0
   -0.2667   -4.1160   -0.3467 H   0  0  0  0  0  0  0  0  0  0  0  0
    2.5374   -4.2329    0.9160 H   0  0  0  0  0  0  0  0  0  0  0  0
    1.0390   -3.8932    1.7903 H   0  0  0  0  0  0  0  0  0  0  0  0
    1.2976   -5.4871    1.0566 H   0  0  0  0  0  0  0  0  0  0  0  0
    0.0755   -1.6529   -0.0105 N   0  0  0  0  0  0  0  0  0  0  0  0
    0.1113   -0.2132   -0.0391 C   0  0  2  0  0  0  0  0  0  0  0  0
    1.5768    0.2085   -0.0515 C   0  0  0  0  0  0  0  0  0  0  0  0
    2.1536    0.5929   -1.0668 O   0  0  0  0  0  0  0  0  0  0  0  0
   -0.6135    0.4049    1.1608 C   0  0  0  0  0  0  0  0  0  0  0  0
   -2.1248    0.1479    1.1261 C   0  0  0  0  0  0  0  0  0  0  0  0
   -2.8411    0.7653    2.3227 C   0  0  0  0  0  0  0  0  0  0  0  0
   -4.2775    0.4983    2.2982 N   0  3  0  0  0  0  0  0  0  0  0  0
   -5.1319    0.9110    3.3222 C   0  0  0  0  0  0  0  0  0  0  0  0
   -6.4894    0.6216    3.2321 N   0  0  0  0  0  0  0  0  0  0  0  0
   -4.6588    1.6052    4.4309 N   0  0  0  0  0  0  0  0  0  0  0  0
   -0.7323   -2.1024    0.4149 H   0  0  0  0  0  0  0  0  0  0  0  0
   -0.3580    0.0975   -0.9795 H   0  0  0  0  0  0  0  0  0  0  0  0
   -0.4299    1.4858    1.1810 H   0  0  0  0  0  0  0  0  0  0  0  0
   -0.1971    0.0027    2.0939 H   0  0  0  0  0  0  0  0  0  0  0  0
   -2.5454    0.5536    0.1981 H   0  0  0  0  0  0  0  0  0  0  0  0
   -2.3146   -0.9316    1.1276 H   0  0  0  0  0  0  0  0  0  0  0  0
   -2.4468    0.3366    3.2491 H   0  0  0  0  0  0  0  0  0  0  0  0
   -2.6973    1.8498    2.3476 H   0  0  0  0  0  0  0  0  0  0  0  0
   -4.6821   -0.0062    1.5114 H   0  0  0  0  0  0  0  0  0  0  0  0
   -7.1387    0.9082    3.9608 H   0  0  0  0  0  0  0  0  0  0  0  0
   -6.8686    0.1156    2.4354 H   0  0  0  0  0  0  0  0  0  0  0  0
   -5.2767    1.9079    5.1793 H   0  0  0  0  0  0  0  0  0  0  0  0
   -3.6711    1.8304    4.5240 H   0  0  0  0  0  0  0  0  0  0  0  0
    2.1743    0.0578    1.1921 N   0  0  0  0  0  0  0  0  0  0  0  0
    3.5700    0.3428    1.4336 C   0  0  2  0  0  0  0  0  0  0  0  0
    4.0652   -0.6121    2.5118 C   0  0  0  0  0  0  0  0  0  0  0  0
    3.3586   -1.0011    3.4394 O   0  0  0  0  0  0  0  0  0  0  0  0
    3.7747    1.7900    1.8534 C   0  0  0  0  0  0  0  0  0  0  0  0
    1.6099   -0.2362    1.9838 H   0  0  0  0  0  0  0  0  0  0  0  0
    4.1004    0.1428    0.4962 H   0  0  0  0  0  0  0  0  0  0  0  0
    3.2505    2.0092    2.7908 H   0  0  0  0  0  0  0  0  0  0  0  0
    4.8357    2.0119    2.0083 H   0  0  0  0  0  0  0  0  0  0  0  0
    3.3908    2.4753    1.0900 H   0  0  0  0  0  0  0  0  0  0  0  0
    5.4017   -0.9447    2.3405 N   0  0  0  0  0  0  0  0  0  0  0  0
    6.1153   -1.8027    3.2574 C   0  0  0  0  0  0  0  0  0  0  0  0
    5.8992   -0.6086    1.5212 H   0  0  0  0  0  0  0  0  0  0  0  0
    6.6122   -1.1891    4.0232 H   0  0  0  0  0  0  0  0  0  0  0  0
    5.4071   -2.4909    3.7419 H   0  0  0  0  0  0  0  0  0  0  0  0
    6.8700   -2.3820    2.7053 H   0  0  0  0  0  0  0  0  0  0  0  0
  1  3  1  0  0  0  0
  1  7  1  0  0  0  0
  1  2  2  0  0  0  0
 42 43  1  0  0  0  0
 43 51  1  0  0  0  0
 43 44  2  0  0  0  0
  8  9  1  0  0  0  0
  9 17  1  0  0  0  0
  9 10  2  0  0  0  0
 18 19  1  0  0  0  0
 19 41  1  0  0  0  0
 19 20  2  0  0  0  0
 25 26  1  0  0  0  0
 25 27  1  0  0  0  0
 24 25  2  0  0  0  0
 42 45  1  0  0  0  0
  8 11  1  0  0  0  0
 51 52  1  0  0  0  0
 21 22  1  0  0  0  0
 22 23  1  0  0  0  0
 18 21  1  0  0  0  0
 23 24  1  0  0  0  0
 41 42  1  0  0  0  0
  7  8  1  0  0  0  0
 17 18  1  0  0  0  0
  3  4  1  0  0  0  0
  3  5  1  0  0  0  0
  3  6  1  0  0  0  0
 45 48  1  0  0  0  0
 45 49  1  0  0  0  0
 45 50  1  0  0  0  0
 11 14  1  0  0  0  0
 11 15  1  0  0  0  0
 11 16  1  0  0  0  0
 52 54  1  0  0  0  0
 52 55  1  0  0  0  0
 52 56  1  0  0  0  0
 22 32  1  0  0  0  0
 22 33  1  0  0  0  0
 21 30  1  0  0  0  0
 21 31  1  0  0  0  0
 23 34  1  0  0  0  0
 23 35  1  0  0  0  0
 42 47  1  0  0  0  0
  8 13  1  0  0  0  0
 18 29  1  0  0  0  0
 26 37  1  0  0  0  0
 26 38  1  0  0  0  0
 27 39  1  0  0  0  0
 27 40  1  0  0  0  0
 51 53  1  0  0  0  0
  7 12  1  0  0  0  0
 41 46  1  0  0  0  0
 17 28  1  0  0  0  0
 24 36  1  0  0  0  0
M  CHG  1  24   1
M  END
$$$$

  -OEChem-05262214473D

 56 55  0     1  0  0  0  0  0999 V2000
    0.7735   -5.8042   -2.0022 C   0  0  0  0  0  0  0  0  0  0  0  0
   -0.2086   -6.3825   -1.5519 O   0  0  0  0  0  0  0  0  0  0  0  0
    1.4751   -6.3646   -3.1946 C   0  0  0  0  0  0  0  0  0  0  0  0
    2.2765   -7.0687   -2.9186 H   0  0  0  0  0  0  0  0  0  0  0  0
    0.7988   -6.9360   -3.8504 H   0  0  0  0  0  0  0  0  0  0  0  0
    1.9556   -5.6216   -3.8511 H   0  0  0  0  0  0  0  0  0  0  0  0
    1.3322   -4.6359   -1.5106 N   0  0  0  0  0  0  0  0  0  0  0  0
    0.8124   -3.9290   -0.3698 C   0  0  2  0  0  0  0  0  0  0  0  0
    1.0666   -2.4424   -0.5818 C   0  0  0  0  0  0  0  0  0  0  0  0
    2.0598   -2.0076   -1.1610 O   0  0  0  0  0  0  0  0  0  0  0  0
    1.4560   -4.4118    0.9207 C   0  0  0  0  0  0  0  0  0  0  0  0
    2.1528   -4.2578   -1.9805 H   0  0  0  0  0  0  0  0  0  0  0  0
   -0.2667   -4.1160   -0.3467 H   0  0  0  0  0  0  0  0  0  0  0  0
    2.5374   -4.2329    0.9160 H   0  0  0  0  0  0  0  0  0  0  0  0
    1.0390   -3.8932    1.7903 H   0  0  0  0  0  0  0  0  0  0  0  0
    1.2976   -5.4871    1.0566 H   0  0  0  0  0  0  0  0  0  0  0  0
    0.0755   -1.6529   -0.0105 N   0  0  0  0  0  0  0  0  0  0  0  0
    0.1113   -0.2132   -0.0391 C   0  0  2  0  0  0  0  0  0  0  0  0
    1.5768    0.2085   -0.0515 C   0  0  0  0  0  0  0  0  0  0  0  0
    2.0840    0.8374   -0.9780 O   0  0  0  0  0  0  0  0  0  0  0  0
   -0.6135    0.4049    1.1608 C   0  0  0  0  0  0  0  0  0  0  0  0
   -2.1248    0.1479    1.1261 C   0  0  0  0  0  0  0  0  0  0  0  0
   -2.8411    0.7653    2.3227 C   0  0  0  0  0  0  0  0  0  0  0  0
   -4.2775    0.4983    2.2982 N   0  3  0  0  0  0  0  0  0  0  0  0
   -5.1319    0.9110    3.3222 C   0  0  0  0  0  0  0  0  0  0  0  0
   -6.4894    0.6216    3.2321 N   0  0  0  0  0  0  0  0  0  0  0  0
   -4.6588    1.6052    4.4309 N   0  0  0  0  0  0  0  0  0  0  0  0
   -0.7323   -2.1024    0.4149 H   0  0  0  0  0  0  0  0  0  0  0  0
   -0.3580    0.0975   -0.9795 H   0  0  0  0  0  0  0  0  0  0  0  0
   -0.4299    1.4858    1.1810 H   0  0  0  0  0  0  0  0  0  0  0  0
   -0.1971    0.0027    2.0939 H   0  0  0  0  0  0  0  0  0  0  0  0
   -2.5454    0.5536    0.1981 H   0  0  0  0  0  0  0  0  0  0  0  0
   -2.3146   -0.9316    1.1276 H   0  0  0  0  0  0  0  0  0  0  0  0
   -2.4468    0.3366    3.2491 H   0  0  0  0  0  0  0  0  0  0  0  0
   -2.6973    1.8498    2.3476 H   0  0  0  0  0  0  0  0  0  0  0  0
   -4.6821   -0.0062    1.5114 H   0  0  0  0  0  0  0  0  0  0  0  0
   -7.1387    0.9082    3.9608 H   0  0  0  0  0  0  0  0  0  0  0  0
   -6.8686    0.1156    2.4354 H   0  0  0  0  0  0  0  0  0  0  0  0
   -5.2767    1.9079    5.1793 H   0  0  0  0  0  0  0  0  0  0  0  0
   -3.6711    1.8304    4.5240 H   0  0  0  0  0  0  0  0  0  0  0  0
    2.2597   -0.2427    1.0694 N   0  0  0  0  0  0  0  0  0  0  0  0
    3.6722   -0.0171    1.2732 C   0  0  2  0  0  0  0  0  0  0  0  0
    4.2324   -1.2067    2.0417 C   0  0  0  0  0  0  0  0  0  0  0  0
    3.5894   -1.8191    2.8917 O   0  0  0  0  0  0  0  0  0  0  0  0
    3.9224    1.2816    2.0239 C   0  0  0  0  0  0  0  0  0  0  0  0
    1.7500   -0.7283    1.8015 H   0  0  0  0  0  0  0  0  0  0  0  0
    4.1321    0.0262    0.2799 H   0  0  0  0  0  0  0  0  0  0  0  0
    3.4689    1.2570    3.0215 H   0  0  0  0  0  0  0  0  0  0  0  0
    4.9942    1.4654    2.1525 H   0  0  0  0  0  0  0  0  0  0  0  0
    3.4928    2.1326    1.4844 H   0  0  0  0  0  0  0  0  0  0  0  0
    5.5494   -1.4769    1.6975 N   0  0  0  0  0  0  0  0  0  0  0  0
    6.3170   -2.5311    2.3185 C   0  0  0  0  0  0  0  0  0  0  0  0
    5.9910   -0.9441    0.9539 H   0  0  0  0  0  0  0  0  0  0  0  0
    6.8741   -2.1239    3.1752 H   0  0  0  0  0  0  0  0  0  0  0  0
    5.6375   -3.3231    2.6663 H   0  0  0  0  0  0  0  0  0  0  0  0
    7.0239   -2.9495    1.5870 H   0  0  0  0  0  0  0  0  0  0  0  0
  1  3  1  0  0  0  0
  1  7  1  0  0  0  0
  1  2  2  0  0  0  0
 42 43  1  0  0  0  0
 43 51  1  0  0  0  0
 43 44  2  0  0  0  0
  8  9  1  0  0  0  0
  9 17  1  0  0  0  0
  9 10  2  0  0  0  0
 18 19  1  0  0  0  0
 19 41  1  0  0  0  0
 19 20  2  0  0  0  0
 25 26  1  0  0  0  0
 25 27  1  0  0  0  0
 24 25  2  0  0  0  0
 42 45  1  0  0  0  0
  8 11  1  0  0  0  0
 51 52  1  0  0  0  0
 21 22  1  0  0  0  0
 22 23  1  0  0  0  0
 18 21  1  0  0  0  0
 23 24  1  0  0  0  0
 41 42  1  0  0  0  0
  7  8  1  0  0  0  0
 17 18  1  0  0  0  0
  3  4  1  0  0  0  0
  3  5  1  0  0  0  0
  3  6  1  0  0  0  0
 45 48  1  0  0  0  0
 45 49  1  0  0  0  0
 45 50  1  0  0  0  0
 11 14  1  0  0  0  0
 11 15  1  0  0  0  0
 11 16  1  0  0  0  0
 52 54  1  0  0  0  0
 52 55  1  0  0  0  0
 52 56  1  0  0  0  0
 22 32  1  0  0  0  0
 22 33  1  0  0  0  0
 21 30  1  0  0  0  0
 21 31  1  0  0  0  0
 23 34  1  0  0  0  0
 23 35  1  0  0  0  0
 42 47  1  0  0  0  0
  8 13  1  0  0  0  0
 18 29  1  0  0  0  0
 26 37  1  0  0  0  0
 26 38  1  0  0  0  0
 27 39  1  0  0  0  0
 27 40  1  0  0  0  0
 51 53  1  0  0  0  0
  7 12  1  0  0  0  0
 41 46  1  0  0  0  0
 17 28  1  0  0  0  0
 24 36  1  0  0  0  0
M  CHG  1  24   1
M  END
$$$$

  -OEChem-05262214473D

 56 55  0     1  0  0  0  0  0999 V2000
    0.7735   -5.8042   -2.0022 C   0  0  0  0  0  0  0  0  0  0  0  0
   -0.2086   -6.3825   -1.5519 O   0  0  0  0  0  0  0  0  0  0  0  0
    1.4751   -6.3646   -3.1946 C   0  0  0  0  0  0  0  0  0  0  0  0
    2.2765   -7.0687   -2.9186 H   0  0  0  0  0  0  0  0  0  0  0  0
    0.7988   -6.9360   -3.8504 H   0  0  0  0  0  0  0  0  0  0  0  0
    1.9556   -5.6216   -3.8511 H   0  0  0  0  0  0  0  0  0  0  0  0
    1.3322   -4.6359   -1.5106 N   0  0  0  0  0  0  0  0  0  0  0  0
    0.8124   -3.9290   -0.3698 C   0  0  2  0  0  0  0  0  0  0  0  0
    1.0666   -2.4424   -0.5818 C   0  0  0  0  0  0  0  0  0  0  0  0
    2.0598   -2.0076   -1.1610 O   0  0  0  0  0  0  0  0  0  0  0  0
    1.4560   -4.4118    0.9207 C   0  0  0  0  0  0  0  0  0  0  0  0
    2.1528   -4.2578   -1.9805 H   0  0  0  0  0  0  0  0  0  0  0  0
   -0.2667   -4.1160   -0.3467 H   0  0  0  0  0  0  0  0  0  0  0  0
    2.5374   -4.2329    0.9160 H   0  0  0  0  0  0  0  0  0  0  0  0
    1.0390   -3.8932    1.7903 H   0  0  0  0  0  0  0  0  0  0  0  0
    1.2976   -5.4871    1.0566 H   0  0  0  0  0  0  0  0  0  0  0  0
    0.0755   -1.6529   -0.0105 N   0  0  0  0  0  0  0  0  0  0  0  0
    0.1113   -0.2132   -0.0391 C   0  0  2  0  0  0  0  0  0  0  0  0
    1.5768    0.2085   -0.0515 C   0  0  0  0  0  0  0  0  0  0  0  0
    2.0237    1.0516   -0.8265 O   0  0  0  0  0  0  0  0  0  0  0  0
   -0.6135    0.4049    1.1608 C   0  0  0  0  0  0  0  0  0  0  0  0
   -2.1248    0.1479    1.1261 C   0  0  0  0  0  0  0  0  0  0  0  0
   -2.8411    0.7653    2.3227 C   0  0  0  0  0  0  0  0  0  0  0  0
   -4.2775    0.4983    2.2982 N   0  3  0  0  0  0  0  0  0  0  0  0
   -5.1319    0.9110    3.3222 C   0  0  0  0  0  0  0  0  0  0  0  0
   -6.4894    0.6216    3.2321 N   0  0  0  0  0  0  0  0  0  0  0  0
   -4.6588    1.6052    4.4309 N   0  0  0  0  0  0  0  0  0  0  0  0
   -0.7323   -2.1024    0.4149 H   0  0  0  0  0  0  0  0  0  0  0  0
   -0.3580    0.0975   -0.9795 H   0  0  0  0  0  0  0  0  0  0  0  0
   -0.4299    1.4858    1.1810 H   0  0  0  0  0  0  0  0  0  0  0  0
   -0.1971    0.0027    2.0939 H   0  0  0  0  0  0  0  0  0  0  0  0
   -2.5454    0.5536    0.1981 H   0  0  0  0  0  0  0  0  0  0  0  0
   -2.3146   -0.9316    1.1276 H   0  0  0  0  0  0  0  0  0  0  0  0
   -2.4468    0.3366    3.2491 H   0  0  0  0  0  0  0  0  0  0  0  0
   -2.6973    1.8498    2.3476 H   0  0  0  0  0  0  0  0  0  0  0  0
   -4.6821   -0.0062    1.5114 H   0  0  0  0  0  0  0  0  0  0  0  0
   -7.1387    0.9082    3.9608 H   0  0  0  0  0  0  0  0  0  0  0  0
   -6.8686    0.1156    2.4354 H   0  0  0  0  0  0  0  0  0  0  0  0
   -5.2767    1.9079    5.1793 H   0  0  0  0  0  0  0  0  0  0  0  0
   -3.6711    1.8304    4.5240 H   0  0  0  0  0  0  0  0  0  0  0  0
    2.3328   -0.5026    0.8699 N   0  0  0  0  0  0  0  0  0  0  0  0
    3.7587   -0.3250    1.0214 C   0  0  2  0  0  0  0  0  0  0  0  0
    4.3589   -1.6644    1.4277 C   0  0  0  0  0  0  0  0  0  0  0  0
    3.7714   -2.4736    2.1427 O   0  0  0  0  0  0  0  0  0  0  0  0
    4.0763    0.7478    2.0515 C   0  0  0  0  0  0  0  0  0  0  0  0
    1.8712   -1.1586    1.4930 H   0  0  0  0  0  0  0  0  0  0  0  0
    4.1471   -0.0328    0.0397 H   0  0  0  0  0  0  0  0  0  0  0  0
    3.6948    0.4726    3.0416 H   0  0  0  0  0  0  0  0  0  0  0  0
    5.1565    0.9012    2.1444 H   0  0  0  0  0  0  0  0  0  0  0  0
    3.6188    1.7032    1.7728 H   0  0  0  0  0  0  0  0  0  0  0  0
    5.6450   -1.8314    0.9335 N   0  0  0  0  0  0  0  0  0  0  0  0
    6.4430   -3.0016    1.2161 C   0  0  0  0  0  0  0  0  0  0  0  0
    6.0383   -1.1273    0.3160 H   0  0  0  0  0  0  0  0  0  0  0  0
    7.0643   -2.8164    2.1047 H   0  0  0  0  0  0  0  0  0  0  0  0
    5.7813   -3.8599    1.4039 H   0  0  0  0  0  0  0  0  0  0  0  0
    7.0913   -3.2199    0.3546 H   0  0  0  0  0  0  0  0  0  0  0  0
  1  3  1  0  0  0  0
  1  7  1  0  0  0  0
  1  2  2  0  0  0  0
 42 43  1  0  0  0  0
 43 51  1  0  0  0  0
 43 44  2  0  0  0  0
  8  9  1  0  0  0  0
  9 17  1  0  0  0  0
  9 10  2  0  0  0  0
 18 19  1  0  0  0  0
 19 41  1  0  0  0  0
 19 20  2  0  0  0  0
 25 26  1  0  0  0  0
 25 27  1  0  0  0  0
 24 25  2  0  0  0  0
 42 45  1  0  0  0  0
  8 11  1  0  0  0  0
 51 52  1  0  0  0  0
 21 22  1  0  0  0  0
 22 23  1  0  0  0  0
 18 21  1  0  0  0  0
 23 24  1  0  0  0  0
 41 42  1  0  0  0  0
  7  8  1  0  0  0  0
 17 18  1  0  0  0  0
  3  4  1  0  0  0  0
  3  5  1  0  0  0  0
  3  6  1  0  0  0  0
 45 48  1  0  0  0  0
 45 49  1  0  0  0  0
 45 50  1  0  0  0  0
 11 14  1  0  0  0  0
 11 15  1  0  0  0  0
 11 16  1  0  0  0  0
 52 54  1  0  0  0  0
 52 55  1  0  0  0  0
 52 56  1  0  0  0  0
 22 32  1  0  0  0  0
 22 33  1  0  0  0  0
 21 30  1  0  0  0  0
 21 31  1  0  0  0  0
 23 34  1  0  0  0  0
 23 35  1  0  0  0  0
 42 47  1  0  0  0  0
  8 13  1  0  0  0  0
 18 29  1  0  0  0  0
 26 37  1  0  0  0  0
 26 38  1  0  0  0  0
 27 39  1  0  0  0  0
 27 40  1  0  0  0  0
 51 53  1  0  0  0  0
  7 12  1  0  0  0  0
 41 46  1  0  0  0  0
 17 28  1  0  0  0  0
 24 36  1  0  0  0  0
M  CHG  1  24   1
M  END
$$$$

  -OEChem-05262214473D

 56 55  0     1  0  0  0  0  0999 V2000
    0.7735   -5.8042   -2.0022 C   0  0  0  0  0  0  0  0  0  0  0  0
   -0.2086   -6.3825   -1.5519 O   0  0  0  0  0  0  0  0  0  0  0  0
    1.4751   -6.3646   -3.1946 C   0  0  0  0  0  0  0  0  0  0  0  0
    2.2765   -7.0687   -2.9186 H   0  0  0  0  0  0  0  0  0  0  0  0
    0.7988   -6.9360   -3.8504 H   0  0  0  0  0  0  0  0  0  0  0  0
    1.9556   -5.6216   -3.8511 H   0  0  0  0  0  0  0  0  0  0  0  0
    1.3322   -4.6359   -1.5106 N   0  0  0  0  0  0  0  0  0  0  0  0
    0.8124   -3.9290   -0.3698 C   0  0  2  0  0  0  0  0  0  0  0  0
    1.0666   -2.4424   -0.5818 C   0  0  0  0  0  0  0  0  0  0  0  0
    2.0598   -2.0076   -1.1610 O   0  0  0  0  0  0  0  0  0  0  0  0
    1.4560   -4.4118    0.9207 C   0  0  0  0  0  0  0  0  0  0  0  0
    2.1528   -4.2578   -1.9805 H   0  0  0  0  0  0  0  0  0  0  0  0
   -0.2667   -4.1160   -0.3467 H   0  0  0  0  0  0  0  0  0  0  0  0
    2.5374   -4.2329    0.9160 H   0  0  0  0  0  0  0  0  0  0  0  0
    1.0390   -3.8932    1.7903 H   0  0  0  0  0  0  0  0  0  0  0  0
    1.2976   -5.4871    1.0566 H   0  0  0  0  0  0  0  0  0  0  0  0
    0.0755   -1.6529   -0.0105 N   0  0  0  0  0  0  0  0  0  0  0  0
    0.1113   -0.2132   -0.0391 C   0  0  2  0  0  0  0  0  0  0  0  0
    1.5768    0.2085   -0.0515 C   0  0  0  0  0  0  0  0  0  0  0  0
    1.9766    1.2210   -0.6226 O   0  0  0  0  0  0  0  0  0  0  0  0
   -0.6135    0.4049    1.1608 C   0  0  0  0  0  0  0  0  0  0  0  0
   -2.1248    0.1479    1.1261 C   0  0  0  0  0  0  0  0  0  0  0  0
   -2.8411    0.7653    2.3227 C   0  0  0  0  0  0  0  0  0  0  0  0
   -4.2775    0.4983    2.2982 N   0  3  0  0  0  0  0  0  0  0  0  0
   -5.1319    0.9110    3.3222 C   0  0  0  0  0  0  0  0  0  0  0  0
   -6.4894    0.6216    3.2321 N   0  0  0  0  0  0  0  0  0  0  0  0
   -4.6588    1.6052    4.4309 N   0  0  0  0  0  0  0  0  0  0  0  0
   -0.7323   -2.1024    0.4149 H   0  0  0  0  0  0  0  0  0  0  0  0
   -0.3580    0.0975   -0.9795 H   0  0  0  0  0  0  0  0  0  0  0  0
   -0.4299    1.4858    1.1810 H   0  0  0  0  0  0  0  0  0  0  0  0
   -0.1971    0.0027    2.0939 H   0  0  0  0  0  0  0  0  0  0  0  0
   -2.5454    0.5536    0.1981 H   0  0  0  0  0  0  0  0  0  0  0  0
   -2.3146   -0.9316    1.1276 H   0  0  0  0  0  0  0  0  0  0  0  0
   -2.4468    0.3366    3.2491 H   0  0  0  0  0  0  0  0  0  0  0  0
   -2.6973    1.8498    2.3476 H   0  0  0  0  0  0  0  0  0  0  0  0
   -4.6821   -0.0062    1.5114 H   0  0  0  0  0  0  0  0  0  0  0  0
   -7.1387    0.9082    3.9608 H   0  0  0  0  0  0  0  0  0  0  0  0
   -6.8686    0.1156    2.4354 H   0  0  0  0  0  0  0  0  0  0  0  0
   -5.2767    1.9079    5.1793 H   0  0  0  0  0  0  0  0  0  0  0  0
   -3.6711    1.8304    4.5240 H   0  0  0  0  0  0  0  0  0  0  0  0
    2.3886   -0.7042    0.6074 N   0  0  0  0  0  0  0  0  0  0  0  0
    3.8235   -0.5600    0.6955 C   0  0  2  0  0  0  0  0  0  0  0  0
    4.4362   -1.9542    0.7117 C   0  0  0  0  0  0  0  0  0  0  0  0
    3.8922   -2.9198    1.2434 O   0  0  0  0  0  0  0  0  0  0  0  0
    4.2257    0.2250    1.9343 C   0  0  0  0  0  0  0  0  0  0  0  0
    1.9653   -1.4978    1.0793 H   0  0  0  0  0  0  0  0  0  0  0  0
    4.1442   -0.0300   -0.2081 H   0  0  0  0  0  0  0  0  0  0  0  0
    3.9128   -0.2905    2.8497 H   0  0  0  0  0  0  0  0  0  0  0  0
    5.3114    0.3580    1.9846 H   0  0  0  0  0  0  0  0  0  0  0  0
    3.7602    1.2165    1.9356 H   0  0  0  0  0  0  0  0  0  0  0  0
    5.6819   -1.9840    0.1005 N   0  0  0  0  0  0  0  0  0  0  0  0
    6.4849   -3.1821    0.0252 C   0  0  0  0  0  0  0  0  0  0  0  0
    6.0380   -1.1457   -0.3492 H   0  0  0  0  0  0  0  0  0  0  0  0
    7.1700   -3.2195    0.8849 H   0  0  0  0  0  0  0  0  0  0  0  0
    5.8287   -4.0648    0.0407 H   0  0  0  0  0  0  0  0  0  0  0  0
    7.0676   -3.1747   -0.9078 H   0  0  0  0  0  0  0  0  0  0  0  0
  1  3  1  0  0  0  0
  1  7  1  0  0  0  0
  1  2  2  0  0  0  0
 42 43  1  0  0  0  0
 43 51  1  0  0  0  0
 43 44  2  0  0  0  0
  8  9  1  0  0  0  0
  9 17  1  0  0  0  0
  9 10  2  0  0  0  0
 18 19  1  0  0  0  0
 19 41  1  0  0  0  0
 19 20  2  0  0  0  0
 25 26  1  0  0  0  0
 25 27  1  0  0  0  0
 24 25  2  0  0  0  0
 42 45  1  0  0  0  0
  8 11  1  0  0  0  0
 51 52  1  0  0  0  0
 21 22  1  0  0  0  0
 22 23  1  0  0  0  0
 18 21  1  0  0  0  0
 23 24  1  0  0  0  0
 41 42  1  0  0  0  0
  7  8  1  0  0  0  0
 17 18  1  0  0  0  0
  3  4  1  0  0  0  0
  3  5  1  0  0  0  0
  3  6  1  0  0  0  0
 45 48  1  0  0  0  0
 45 49  1  0  0  0  0
 45 50  1  0  0  0  0
 11 14  1  0  0  0  0
 11 15  1  0  0  0  0
 11 16  1  0  0  0  0
 52 54  1  0  0  0  0
 52 55  1  0  0  0  0
 52 56  1  0  0  0  0
 22 32  1  0  0  0  0
 22 33  1  0  0  0  0
 21 30  1  0  0  0  0
 21 31  1  0  0  0  0
 23 34  1  0  0  0  0
 23 35  1  0  0  0  0
 42 47  1  0  0  0  0
  8 13  1  0  0  0  0
 18 29  1  0  0  0  0
 26 37  1  0  0  0  0
 26 38  1  0  0  0  0
 27 39  1  0  0  0  0
 27 40  1  0  0  0  0
 51 53  1  0  0  0  0
  7 12  1  0  0  0  0
 41 46  1  0  0  0  0
 17 28  1  0  0  0  0
 24 36  1  0  0  0  0
M  CHG  1  24   1
M  END
$$$$

  -OEChem-05262214473D

 56 55  0     1  0  0  0  0  0999 V2000
    0.7735   -5.8042   -2.0022 C   0  0  0  0  0  0  0  0  0  0  0  0
   -0.2086   -6.3825   -1.5519 O   0  0  0  0  0  0  0  0  0  0  0  0
    1.4751   -6.3646   -3.1946 C   0  0  0  0  0  0  0  0  0  0  0  0
    2.2765   -7.0687   -2.9186 H   0  0  0  0  0  0  0  0  0  0  0  0
    0.7988   -6.9360   -3.8504 H   0  0  0  0  0  0  0  0  0  0  0  0
    1.9556   -5.6216   -3.8511 H   0  0  0  0  0  0  0  0  0  0  0  0
    1.3322   -4.6359   -1.5106 N   0  0  0  0  0  0  0  0  0  0  0  0
    0.8124   -3.9290   -0.3698 C   0  0  2  0  0  0  0  0  0  0  0  0
    1.0666   -2.4424   -0.5818 C   0  0  0  0  0  0  0  0  0  0  0  0
    2.0598   -2.0076   -1.1610 O   0  0  0  0  0  0  0  0  0  0  0  0
    1.4560   -4.4118    0.9207 C   0  0  0  0  0  0  0  0  0  0  0  0
    2.1528   -4.2578   -1.9805 H   0  0  0  0  0  0  0  0  0  0  0  0
   -0.2667   -4.1160   -0.3467 H   0  0  0  0  0  0  0  0  0  0  0  0
    2.5374   -4.2329    0.9160 H   0  0  0  0  0  0  0  0  0  0  0  0
    1.0390   -3.8932    1.7903 H   0  0  0  0  0  0  0  0  0  0  0  0
    1.2976   -5.4871    1.0566 H   0  0  0  0  0  0  0  0  0  0  0  0
    0.0755   -1.6529   -0.0105 N   0  0  0  0  0  0  0  0  0  0  0  0
    0.1113   -0.2132   -0.0391 C   0  0  2  0  0  0  0  0  0  0  0  0
    1.5768    0.2085   -0.0515 C   0  0  0  0  0  0  0  0  0  0  0  0
    1.9462    1.3340   -0.3801 O   0  0  0  0  0  0  0  0  0  0  0  0
   -0.6135    0.4049    1.1608 C   0  0  0  0  0  0  0  0  0  0  0  0
   -2.1248    0.1479    1.1261 C   0  0  0  0  0  0  0  0  0  0  0  0
   -2.8411    0.7653    2.3227 C   0  0  0  0  0  0  0  0  0  0  0  0
   -4.2775    0.4983    2.2982 N   0  3  0  0  0  0  0  0  0  0  0  0
   -5.1319    0.9110    3.3222 C   0  0  0  0  0  0  0  0  0  0  0  0
   -6.4894    0.6216    3.2321 N   0  0  0  0  0  0  0  0  0  0  0  0
   -4.6588    1.6052    4.4309 N   0  0  0  0  0  0  0  0  0  0  0  0
   -0.7323   -2.1024    0.4149 H   0  0  0  0  0  0  0  0  0  0  0  0
   -0.3580    0.0975   -0.9795 H   0  0  0  0  0  0  0  0  0  0  0  0
   -0.4299    1.4858    1.1810 H   0  0  0  0  0  0  0  0  0  0  0  0
   -0.1971    0.0027    2.0939 H   0  0  0  0  0  0  0  0  0  0  0  0
   -2.5454    0.5536    0.1981 H   0  0  0  0  0  0  0  0  0  0  0  0
   -2.3146   -0.9316    1.1276 H   0  0  0  0  0  0  0  0  0  0  0  0
   -2.4468    0.3366    3.2491 H   0  0  0  0  0  0  0  0  0  0  0  0
   -2.6973    1.8498    2.3476 H   0  0  0  0  0  0  0  0  0  0  0  0
   -4.6821   -0.0062    1.5114 H   0  0  0  0  0  0  0  0  0  0  0  0
   -7.1387    0.9082    3.9608 H   0  0  0  0  0  0  0  0  0  0  0  0
   -6.8686    0.1156    2.4354 H   0  0  0  0  0  0  0  0  0  0  0  0
   -5.2767    1.9079    5.1793 H   0  0  0  0  0  0  0  0  0  0  0  0
   -3.6711    1.8304    4.5240 H   0  0  0  0  0  0  0  0  0  0  0  0
    2.4233   -0.8338    0.2997 N   0  0  0  0  0  0  0  0  0  0  0  0
    3.8624   -0.7060    0.3176 C   0  0  2  0  0  0  0  0  0  0  0  0
    4.4591   -2.0561   -0.0574 C   0  0  0  0  0  0  0  0  0  0  0  0
    3.9436   -3.1274    0.2551 O   0  0  0  0  0  0  0  0  0  0  0  0
    4.3606   -0.2512    1.6805 C   0  0  0  0  0  0  0  0  0  0  0  0
    2.0259   -1.7228    0.5886 H   0  0  0  0  0  0  0  0  0  0  0  0
    4.1236    0.0343   -0.4465 H   0  0  0  0  0  0  0  0  0  0  0  0
    4.1080   -0.9803    2.4590 H   0  0  0  0  0  0  0  0  0  0  0  0
    5.4486   -0.1273    1.6842 H   0  0  0  0  0  0  0  0  0  0  0  0
    3.9075    0.7056    1.9617 H   0  0  0  0  0  0  0  0  0  0  0  0
    5.6575   -1.9243   -0.7448 N   0  0  0  0  0  0  0  0  0  0  0  0
    6.4398   -3.0603   -1.1731 C   0  0  0  0  0  0  0  0  0  0  0  0
    5.9900   -0.9980   -0.9962 H   0  0  0  0  0  0  0  0  0  0  0  0
    7.1840   -3.3058   -0.4011 H   0  0  0  0  0  0  0  0  0  0  0  0
    5.7765   -3.9237   -1.3304 H   0  0  0  0  0  0  0  0  0  0  0  0
    6.9545   -2.8171   -2.1143 H   0  0  0  0  0  0  0  0  0  0  0  0
  1  3  1  0  0  0  0
  1  7  1  0  0  0  0
  1  2  2  0  0  0  0
 42 43  1  0  0  0  0
 43 51  1  0  0  0  0
 43 44  2  0  0  0  0
  8  9  1  0  0  0  0
  9 17  1  0  0  0  0
  9 10  2  0  0  0  0
 18 19  1  0  0  0  0
 19 41  1  0  0  0  0
 19 20  2  0  0  0  0
 25 26  1  0  0  0  0
 25 27  1  0  0  0  0
 24 25  2  0  0  0  0
 42 45  1  0  0  0  0
  8 11  1  0  0  0  0
 51 52  1  0  0  0  0
 21 22  1  0  0  0  0
 22 23  1  0  0  0  0
 18 21  1  0  0  0  0
 23 24  1  0  0  0  0
 41 42  1  0  0  0  0
  7  8  1  0  0  0  0
 17 18  1  0  0  0  0
  3  4  1  0  0  0  0
  3  5  1  0  0  0  0
  3  6  1  0  0  0  0
 45 48  1  0  0  0  0
 45 49  1  0  0  0  0
 45 50  1  0  0  0  0
 11 14  1  0  0  0  0
 11 15  1  0  0  0  0
 11 16  1  0  0  0  0
 52 54  1  0  0  0  0
 52 55  1  0  0  0  0
 52 56  1  0  0  0  0
 22 32  1  0  0  0  0
 22 33  1  0  0  0  0
 21 30  1  0  0  0  0
 21 31  1  0  0  0  0
 23 34  1  0  0  0  0
 23 35  1  0  0  0  0
 42 47  1  0  0  0  0
  8 13  1  0  0  0  0
 18 29  1  0  0  0  0
 26 37  1  0  0  0  0
 26 38  1  0  0  0  0
 27 39  1  0  0  0  0
 27 40  1  0  0  0  0
 51 53  1  0  0  0  0
  7 12  1  0  0  0  0
 41 46  1  0  0  0  0
 17 28  1  0  0  0  0
 24 36  1  0  0  0  0
M  CHG  1  24   1
M  END
$$$$

  -OEChem-05262214473D

 56 55  0     1  0  0  0  0  0999 V2000
    0.7735   -5.8042   -2.0022 C   0  0  0  0  0  0  0  0  0  0  0  0
   -0.2086   -6.3825   -1.5519 O   0  0  0  0  0  0  0  0  0  0  0  0
    1.4751   -6.3646   -3.1946 C   0  0  0  0  0  0  0  0  0  0  0  0
    2.2765   -7.0687   -2.9186 H   0  0  0  0  0  0  0  0  0  0  0  0
    0.7988   -6.9360   -3.8504 H   0  0  0  0  0  0  0  0  0  0  0  0
    1.9556   -5.6216   -3.8511 H   0  0  0  0  0  0  0  0  0  0  0  0
    1.3322   -4.6359   -1.5106 N   0  0  0  0  0  0  0  0  0  0  0  0
    0.8124   -3.9290   -0.3698 C   0  0  2  0  0  0  0  0  0  0  0  0
    1.0666   -2.4424   -0.5818 C   0  0  0  0  0  0  0  0  0  0  0  0
    2.0598   -2.0076   -1.1610 O   0  0  0  0  0  0  0  0  0  0  0  0
    1.4560   -4.4118    0.9207 C   0  0  0  0  0  0  0  0  0  0  0  0
    2.1528   -4.2578   -1.9805 H   0  0  0  0  0  0  0  0  0  0  0  0
   -0.2667   -4.1160   -0.3467 H   0  0  0  0  0  0  0  0  0  0  0  0
    2.5374   -4.2329    0.9160 H   0  0  0  0  0  0  0  0  0  0  0  0
    1.0390   -3.8932    1.7903 H   0  0  0  0  0  0  0  0  0  0  0  0
    1.2976   -5.4871    1.0566 H   0  0  0  0  0  0  0  0  0  0  0  0
    0.0755   -1.6529   -0.0105 N   0  0  0  0  0  0  0  0  0  0  0  0
    0.1113   -0.2132   -0.0391 C   0  0  2  0  0  0  0  0  0  0  0  0
    1.5768    0.2085   -0.0515 C   0  0  0  0  0  0  0  0  0  0  0  0
    1.9343    1.3829   -0.1156 O   0  0  0  0  0  0  0  0  0  0  0  0
   -0.6135    0.4049    1.1608 C   0  0  0  0  0  0  0  0  0  0  0  0
   -2.1248    0.1479    1.1261 C   0  0  0  0  0  0  0  0  0  0  0  0
   -2.8411    0.7653    2.3227 C   0  0  0  0  0  0  0  0  0  0  0  0
   -4.2775    0.4983    2.2982 N   0  3  0  0  0  0  0  0  0  0  0  0
   -5.1319    0.9110    3.3222 C   0  0  0  0  0  0  0  0  0  0  0  0
   -6.4894    0.6216    3.2321 N   0  0  0  0  0  0  0  0  0  0  0  0
   -4.6588    1.6052    4.4309 N   0  0  0  0  0  0  0  0  0  0  0  0
   -0.7323   -2.1024    0.4149 H   0  0  0  0  0  0  0  0  0  0  0  0
   -0.3580    0.0975   -0.9795 H   0  0  0  0  0  0  0  0  0  0  0  0
   -0.4299    1.4858    1.1810 H   0  0  0  0  0  0  0  0  0  0  0  0
   -0.1971    0.0027    2.0939 H   0  0  0  0  0  0  0  0  0  0  0  0
   -2.5454    0.5536    0.1981 H   0  0  0  0  0  0  0  0  0  0  0  0
   -2.3146   -0.9316    1.1276 H   0  0  0  0  0  0  0  0  0  0  0  0
   -2.4468    0.3366    3.2491 H   0  0  0  0  0  0  0  0  0  0  0  0
   -2.6973    1.8498    2.3476 H   0  0  0  0  0  0  0  0  0  0  0  0
   -4.6821   -0.0062    1.5114 H   0  0  0  0  0  0  0  0  0  0  0  0
   -7.1387    0.9082    3.9608 H   0  0  0  0  0  0  0  0  0  0  0  0
   -6.8686    0.1156    2.4354 H   0  0  0  0  0  0  0  0  0  0  0  0
   -5.2767    1.9079    5.1793 H   0  0  0  0  0  0  0  0  0  0  0  0
   -3.6711    1.8304    4.5240 H   0  0  0  0  0  0  0  0  0  0  0  0
    2.4345   -0.8825   -0.0322 N   0  0  0  0  0  0  0  0  0  0  0  0
    3.8725   -0.7532   -0.0866 C   0  0  2  0  0  0  0  0  0  0  0  0
    4.4259   -1.9634   -0.8273 C   0  0  0  0  0  0  0  0  0  0  0  0
    3.9221   -3.0823   -0.7548 O   0  0  0  0  0  0  0  0  0  0  0  0
    4.4717   -0.6483    1.3072 C   0  0  0  0  0  0  0  0  0  0  0  0
    2.0488   -1.8181    0.0543 H   0  0  0  0  0  0  0  0  0  0  0  0
    4.0869    0.1557   -0.6593 H   0  0  0  0  0  0  0  0  0  0  0  0
    4.2672   -1.5499    1.8960 H   0  0  0  0  0  0  0  0  0  0  0  0
    5.5585   -0.5217    1.2634 H   0  0  0  0  0  0  0  0  0  0  0  0
    4.0505    0.2053    1.8493 H   0  0  0  0  0  0  0  0  0  0  0  0
    5.5737   -1.6563   -1.5446 N   0  0  0  0  0  0  0  0  0  0  0  0
    6.3106   -2.6446   -2.2970 C   0  0  0  0  0  0  0  0  0  0  0  0
    5.8977   -0.6943   -1.5811 H   0  0  0  0  0  0  0  0  0  0  0  0
    7.1052   -3.0692   -1.6658 H   0  0  0  0  0  0  0  0  0  0  0  0
    5.6282   -3.4462   -2.6160 H   0  0  0  0  0  0  0  0  0  0  0  0
    6.7596   -2.1713   -3.1826 H   0  0  0  0  0  0  0  0  0  0  0  0
  1  3  1  0  0  0  0
  1  7  1  0  0  0  0
  1  2  2  0  0  0  0
 42 43  1  0  0  0  0
 43 51  1  0  0  0  0
 43 44  2  0  0  0  0
  8  9  1  0  0  0  0
  9 17  1  0  0  0  0
  9 10  2  0  0  0  0
 18 19  1  0  0  0  0
 19 41  1  0  0  0  0
 19 20  2  0  0  0  0
 25 26  1  0  0  0  0
 25 27  1  0  0  0  0
 24 25  2  0  0  0  0
 42 45  1  0  0  0  0
  8 11  1  0  0  0  0
 51 52  1  0  0  0  0
 21 22  1  0  0  0  0
 22 23  1  0  0  0  0
 18 21  1  0  0  0  0
 23 24  1  0  0  0  0
 41 42  1  0  0  0  0
  7  8  1  0  0  0  0
 17 18  1  0  0  0  0
  3  4  1  0  0  0  0
  3  5  1  0  0  0  0
  3  6  1  0  0  0  0
 45 48  1  0  0  0  0
 45 49  1  0  0  0  0
 45 50  1  0  0  0  0
 11 14  1  0  0  0  0
 11 15  1  0  0  0  0
 11 16  1  0  0  0  0
 52 54  1  0  0  0  0
 52 55  1  0  0  0  0
 52 56  1  0  0  0  0
 22 32  1  0  0  0  0
 22 33  1  0  0  0  0
 21 30  1  0  0  0  0
 21 31  1  0  0  0  0
 23 34  1  0  0  0  0
 23 35  1  0  0  0  0
 42 47  1  0  0  0  0
  8 13  1  0  0  0  0
 18 29  1  0  0  0  0
 26 37  1  0  0  0  0
 26 38  1  0  0  0  0
 27 39  1  0  0  0  0
 27 40  1  0  0  0  0
 51 53  1  0  0  0  0
  7 12  1  0  0  0  0
 41 46  1  0  0  0  0
 17 28  1  0  0  0  0
 24 36  1  0  0  0  0
M  CHG  1  24   1
M  END
$$$$

  -OEChem-05262214473D

 56 55  0     1  0  0  0  0  0999 V2000
    0.7735   -5.8042   -2.0022 C   0  0  0  0  0  0  0  0  0  0  0  0
   -0.2086   -6.3825   -1.5519 O   0  0  0  0  0  0  0  0  0  0  0  0
    1.4751   -6.3646   -3.1946 C   0  0  0  0  0  0  0  0  0  0  0  0
    2.2765   -7.0687   -2.9186 H   0  0  0  0  0  0  0  0  0  0  0  0
    0.7988   -6.9360   -3.8504 H   0  0  0  0  0  0  0  0  0  0  0  0
    1.9556   -5.6216   -3.8511 H   0  0  0  0  0  0  0  0  0  0  0  0
    1.3322   -4.6359   -1.5106 N   0  0  0  0  0  0  0  0  0  0  0  0
    0.8124   -3.9290   -0.3698 C   0  0  2  0  0  0  0  0  0  0  0  0
    1.0666   -2.4424   -0.5818 C   0  0  0  0  0  0  0  0  0  0  0  0
    2.0598   -2.0076   -1.1610 O   0  0  0  0  0  0  0  0  0  0  0  0
    1.4560   -4.4118    0.9207 C   0  0  0  0  0  0  0  0  0  0  0  0
    2.1528   -4.2578   -1.9805 H   0  0  0  0  0  0  0  0  0  0  0  0
   -0.2667   -4.1160   -0.3467 H   0  0  0  0  0  0  0  0  0  0  0  0
    2.5374   -4.2329    0.9160 H   0  0  0  0  0  0  0  0  0  0  0  0
    1.0390   -3.8932    1.7903 H   0  0  0  0  0  0  0  0  0  0  0  0
    1.2976   -5.4871    1.0566 H   0  0  0  0  0  0  0  0  0  0  0  0
    0.0755   -1.6529   -0.0105 N   0  0  0  0  0  0  0  0  0  0  0  0
    0.1113   -0.2132   -0.0391 C   0  0  2  0  0  0  0  0  0  0  0  0
    1.5768    0.2085   -0.0515 C   0  0  0  0  0  0  0  0  0  0  0  0
    1.9419    1.3644    0.1529 O   0  0  0  0  0  0  0  0  0  0  0  0
   -0.6135    0.4049    1.1608 C   0  0  0  0  0  0  0  0  0  0  0  0
   -2.1248    0.1479    1.1261 C   0  0  0  0  0  0  0  0  0  0  0  0
   -2.8411    0.7653    2.3227 C   0  0  0  0  0  0  0  0  0  0  0  0
   -4.2775    0.4983    2.2982 N   0  3  0  0  0  0  0  0  0  0  0  0
   -5.1319    0.9110    3.3222 C   0  0  0  0  0  0  0  0  0  0  0  0
   -6.4894    0.6216    3.2321 N   0  0  0  0  0  0  0  0  0  0  0  0
   -4.6588    1.6052    4.4309 N   0  0  0  0  0  0  0  0  0  0  0  0
   -0.7323   -2.1024    0.4149 H   0  0  0  0  0  0  0  0  0  0  0  0
   -0.3580    0.0975   -0.9795 H   0  0  0  0  0  0  0  0  0  0  0  0
   -0.4299    1.4858    1.1810 H   0  0  0  0  0  0  0  0  0  0  0  0
   -0.1971    0.0027    2.0939 H   0  0  0  0  0  0  0  0  0  0  0  0
   -2.5454    0.5536    0.1981 H   0  0  0  0  0  0  0  0  0  0  0  0
   -2.3146   -0.9316    1.1276 H   0  0  0  0  0  0  0  0  0  0  0  0
   -2.4468    0.3366    3.2491 H   0  0  0  0  0  0  0  0  0  0  0  0
   -2.6973    1.8498    2.3476 H   0  0  0  0  0  0  0  0  0  0  0  0
   -4.6821   -0.0062    1.5114 H   0  0  0  0  0  0  0  0  0  0  0  0
   -7.1387    0.9082    3.9608 H   0  0  0  0  0  0  0  0  0  0  0  0
   -6.8686    0.1156    2.4354 H   0  0  0  0  0  0  0  0  0  0  0  0
   -5.2767    1.9079    5.1793 H   0  0  0  0  0  0  0  0  0  0  0  0
   -3.6711    1.8304    4.5240 H   0  0  0  0  0  0  0  0  0  0  0  0
    2.4215   -0.8470   -0.3658 N   0  0  0  0  0  0  0  0  0  0  0  0
    3.8533   -0.6982   -0.4894 C   0  0  2  0  0  0  0  0  0  0  0  0
    4.3389   -1.6822   -1.5456 C   0  0  0  0  0  0  0  0  0  0  0  0
    3.8291   -2.7875   -1.7175 O   0  0  0  0  0  0  0  0  0  0  0  0
    4.5515   -0.9392    0.8399 C   0  0  0  0  0  0  0  0  0  0  0  0
    2.0325   -1.7774   -0.4871 H   0  0  0  0  0  0  0  0  0  0  0  0
    4.0364    0.3260   -0.8320 H   0  0  0  0  0  0  0  0  0  0  0  0
    4.3794   -1.9604    1.1992 H   0  0  0  0  0  0  0  0  0  0  0  0
    5.6337   -0.7981    0.7510 H   0  0  0  0  0  0  0  0  0  0  0  0
    4.1796   -0.2503    1.6060 H   0  0  0  0  0  0  0  0  0  0  0  0
    5.4360   -1.1984   -2.2445 N   0  0  0  0  0  0  0  0  0  0  0  0
    6.1063   -1.9633   -3.2699 C   0  0  0  0  0  0  0  0  0  0  0  0
    5.7673   -0.2553   -2.0638 H   0  0  0  0  0  0  0  0  0  0  0  0
    6.9391   -2.5260   -2.8229 H   0  0  0  0  0  0  0  0  0  0  0  0
    5.3940   -2.6650   -3.7284 H   0  0  0  0  0  0  0  0  0  0  0  0
    6.4963   -1.2813   -4.0400 H   0  0  0  0  0  0  0  0  0  0  0  0
  1  3  1  0  0  0  0
  1  7  1  0  0  0  0
  1  2  2  0  0  0  0
 42 43  1  0  0  0  0
 43 51  1  0  0  0  0
 43 44  2  0  0  0  0
  8  9  1  0  0  0  0
  9 17  1  0  0  0  0
  9 10  2  0  0  0  0
 18 19  1  0  0  0  0
 19 41  1  0  0  0  0
 19 20  2  0  0  0  0
 25 26  1  0  0  0  0
 25 27  1  0  0  0  0
 24 25  2  0  0  0  0
 42 45  1  0  0  0  0
  8 11  1  0  0  0  0
 51 52  1  0  0  0  0
 21 22  1  0  0  0  0
 22 23  1  0  0  0  0
 18 21  1  0  0  0  0
 23 24  1  0  0  0  0
 41 42  1  0  0  0  0
  7  8  1  0  0  0  0
 17 18  1  0  0  0  0
  3  4  1  0  0  0  0
  3  5  1  0  0  0  0
  3  6  1  0  0  0  0
 45 48  1  0  0  0  0
 45 49  1  0  0  0  0
 45 50  1  0  0  0  0
 11 14  1  0  0  0  0
 11 15  1  0  0  0  0
 11 16  1  0  0  0  0
 52 54  1  0  0  0  0
 52 55  1  0  0  0  0
 52 56  1  0  0  0  0
 22 32  1  0  0  0  0
 22 33  1  0  0  0  0
 21 30  1  0  0  0  0
 21 31  1  0  0  0  0
 23 34  1  0  0  0  0
 23 35  1  0  0  0  0
 42 47  1  0  0  0  0
  8 13  1  0  0  0  0
 18 29  1  0  0  0  0
 26 37  1  0  0  0  0
 26 38  1  0  0  0  0
 27 39  1  0  0  0  0
 27 40  1  0  0  0  0
 51 53  1  0  0  0  0
  7 12  1  0  0  0  0
 41 46  1  0  0  0  0
 17 28  1  0  0  0  0
 24 36  1  0  0  0  0
M  CHG  1  24   1
M  END
$$$$

  -OEChem-05262214473D

 56 55  0     1  0  0  0  0  0999 V2000
    0.7735   -5.8042   -2.0022 C   0  0  0  0  0  0  0  0  0  0  0  0
   -0.2086   -6.3825   -1.5519 O   0  0  0  0  0  0  0  0  0  0  0  0
    1.4751   -6.3646   -3.1946 C   0  0  0  0  0  0  0  0  0  0  0  0
    2.2765   -7.0687   -2.9186 H   0  0  0  0  0  0  0  0  0  0  0  0
    0.7988   -6.9360   -3.8504 H   0  0  0  0  0  0  0  0  0  0  0  0
    1.9556   -5.6216   -3.8511 H   0  0  0  0  0  0  0  0  0  0  0  0
    1.3322   -4.6359   -1.5106 N   0  0  0  0  0  0  0  0  0  0  0  0
    0.8124   -3.9290   -0.3698 C   0  0  2  0  0  0  0  0  0  0  0  0
    1.0666   -2.4424   -0.5818 C   0  0  0  0  0  0  0  0  0  0  0  0
    2.0598   -2.0076   -1.1610 O   0  0  0  0  0  0  0  0  0  0  0  0
    1.4560   -4.4118    0.9207 C   0  0  0  0  0  0  0  0  0  0  0  0
    2.1528   -4.2578   -1.9805 H   0  0  0  0  0  0  0  0  0  0  0  0
   -0.2667   -4.1160   -0.3467 H   0  0  0  0  0  0  0  0  0  0  0  0
    2.5374   -4.2329    0.9160 H   0  0  0  0  0  0  0  0  0  0  0  0
    1.0390   -3.8932    1.7903 H   0  0  0  0  0  0  0  0  0  0  0  0
    1.2976   -5.4871    1.0566 H   0  0  0  0  0  0  0  0  0  0  0  0
    0.0755   -1.6529   -0.0105 N   0  0  0  0  0  0  0  0  0  0  0  0
    0.1113   -0.2132   -0.0391 C   0  0  2  0  0  0  0  0  0  0  0  0
    1.5768    0.2085   -0.0515 C   0  0  0  0  0  0  0  0  0  0  0  0
    1.9685    1.2797    0.4071 O   0  0  0  0  0  0  0  0  0  0  0  0
   -0.6135    0.4049    1.1608 C   0  0  0  0  0  0  0  0  0  0  0  0
   -2.1248    0.1479    1.1261 C   0  0  0  0  0  0  0  0  0  0  0  0
   -2.8411    0.7653    2.3227 C   0  0  0  0  0  0  0  0  0  0  0  0
   -4.2775    0.4983    2.2982 N   0  3  0  0  0  0  0  0  0  0  0  0
   -5.1319    0.9110    3.3222 C   0  0  0  0  0  0  0  0  0  0  0  0
   -6.4894    0.6216    3.2321 N   0  0  0  0  0  0  0  0  0  0  0  0
   -4.6588    1.6052    4.4309 N   0  0  0  0  0  0  0  0  0  0  0  0
   -0.7323   -2.1024    0.4149 H   0  0  0  0  0  0  0  0  0  0  0  0
   -0.3580    0.0975   -0.9795 H   0  0  0  0  0  0  0  0  0  0  0  0
   -0.4299    1.4858    1.1810 H   0  0  0  0  0  0  0  0  0  0  0  0
   -0.1971    0.0027    2.0939 H   0  0  0  0  0  0  0  0  0  0  0  0
   -2.5454    0.5536    0.1981 H   0  0  0  0  0  0  0  0  0  0  0  0
   -2.3146   -0.9316    1.1276 H   0  0  0  0  0  0  0  0  0  0  0  0
   -2.4468    0.3366    3.2491 H   0  0  0  0  0  0  0  0  0  0  0  0
   -2.6973    1.8498    2.3476 H   0  0  0  0  0  0  0  0  0  0  0  0
   -4.6821   -0.0062    1.5114 H   0  0  0  0  0  0  0  0  0  0  0  0
   -7.1387    0.9082    3.9608 H   0  0  0  0  0  0  0  0  0  0  0  0
   -6.8686    0.1156    2.4354 H   0  0  0  0  0  0  0  0  0  0  0  0
   -5.2767    1.9079    5.1793 H   0  0  0  0  0  0  0  0  0  0  0  0
   -3.6711    1.8304    4.5240 H   0  0  0  0  0  0  0  0  0  0  0  0
    2.3851   -0.7297   -0.6782 N   0  0  0  0  0  0  0  0  0  0  0  0
    3.8060   -0.5449   -0.8635 C   0  0  2  0  0  0  0  0  0  0  0  0
    4.2041   -1.2318   -2.1632 C   0  0  0  0  0  0  0  0  0  0  0  0
    3.6710   -2.2630   -2.5675 O   0  0  0  0  0  0  0  0  0  0  0  0
    4.5945   -1.1042    0.3105 C   0  0  0  0  0  0  0  0  0  0  0  0
    1.9781   -1.6034   -0.9988 H   0  0  0  0  0  0  0  0  0  0  0  0
    3.9757    0.5336   -0.9529 H   0  0  0  0  0  0  0  0  0  0  0  0
    4.4371   -2.1838    0.4159 H   0  0  0  0  0  0  0  0  0  0  0  0
    5.6691   -0.9379    0.1819 H   0  0  0  0  0  0  0  0  0  0  0  0
    4.2859   -0.6302    1.2485 H   0  0  0  0  0  0  0  0  0  0  0  0
    5.2538   -0.5817   -2.7968 N   0  0  0  0  0  0  0  0  0  0  0  0
    5.8408   -1.0627   -4.0257 C   0  0  0  0  0  0  0  0  0  0  0  0
    5.6077    0.2891   -2.4116 H   0  0  0  0  0  0  0  0  0  0  0  0
    6.6970   -1.7132   -3.7936 H   0  0  0  0  0  0  0  0  0  0  0  0
    5.0898   -1.6333   -4.5918 H   0  0  0  0  0  0  0  0  0  0  0  0
    6.1824   -0.2080   -4.6279 H   0  0  0  0  0  0  0  0  0  0  0  0
  1  3  1  0  0  0  0
  1  7  1  0  0  0  0
  1  2  2  0  0  0  0
 42 43  1  0  0  0  0
 43 51  1  0  0  0  0
 43 44  2  0  0  0  0
  8  9  1  0  0  0  0
  9 17  1  0  0  0  0
  9 10  2  0  0  0  0
 18 19  1  0  0  0  0
 19 41  1  0  0  0  0
 19 20  2  0  0  0  0
 25 26  1  0  0  0  0
 25 27  1  0  0  0  0
 24 25  2  0  0  0  0
 42 45  1  0  0  0  0
  8 11  1  0  0  0  0
 51 52  1  0  0  0  0
 21 22  1  0  0  0  0
 22 23  1  0  0  0  0
 18 21  1  0  0  0  0
 23 24  1  0  0  0  0
 41 42  1  0  0  0  0
  7  8  1  0  0  0  0
 17 18  1  0  0  0  0
  3  4  1  0  0  0  0
  3  5  1  0  0  0  0
  3  6  1  0  0  0  0
 45 48  1  0  0  0  0
 45 49  1  0  0  0  0
 45 50  1  0  0  0  0
 11 14  1  0  0  0  0
 11 15  1  0  0  0  0
 11 16  1  0  0  0  0
 52 54  1  0  0  0  0
 52 55  1  0  0  0  0
 52 56  1  0  0  0  0
 22 32  1  0  0  0  0
 22 33  1  0  0  0  0
 21 30  1  0  0  0  0
 21 31  1  0  0  0  0
 23 34  1  0  0  0  0
 23 35  1  0  0  0  0
 42 47  1  0  0  0  0
  8 13  1  0  0  0  0
 18 29  1  0  0  0  0
 26 37  1  0  0  0  0
 26 38  1  0  0  0  0
 27 39  1  0  0  0  0
 27 40  1  0  0  0  0
 51 53  1  0  0  0  0
  7 12  1  0  0  0  0
 41 46  1  0  0  0  0
 17 28  1  0  0  0  0
 24 36  1  0  0  0  0
M  CHG  1  24   1
M  END
$$$$

  -OEChem-05262214473D

 56 55  0     1  0  0  0  0  0999 V2000
    0.7735   -5.8042   -2.0022 C   0  0  0  0  0  0  0  0  0  0  0  0
   -0.2086   -6.3825   -1.5519 O   0  0  0  0  0  0  0  0  0  0  0  0
    1.4751   -6.3646   -3.1946 C   0  0  0  0  0  0  0  0  0  0  0  0
    2.2765   -7.0687   -2.9186 H   0  0  0  0  0  0  0  0  0  0  0  0
    0.7988   -6.9360   -3.8504 H   0  0  0  0  0  0  0  0  0  0  0  0
    1.9556   -5.6216   -3.8511 H   0  0  0  0  0  0  0  0  0  0  0  0
    1.3322   -4.6359   -1.5106 N   0  0  0  0  0  0  0  0  0  0  0  0
    0.8124   -3.9290   -0.3698 C   0  0  2  0  0  0  0  0  0  0  0  0
    1.0666   -2.4424   -0.5818 C   0  0  0  0  0  0  0  0  0  0  0  0
    2.0598   -2.0076   -1.1610 O   0  0  0  0  0  0  0  0  0  0  0  0
    1.4560   -4.4118    0.9207 C   0  0  0  0  0  0  0  0  0  0  0  0
    2.1528   -4.2578   -1.9805 H   0  0  0  0  0  0  0  0  0  0  0  0
   -0.2667   -4.1160   -0.3467 H   0  0  0  0  0  0  0  0  0  0  0  0
    2.5374   -4.2329    0.9160 H   0  0  0  0  0  0  0  0  0  0  0  0
    1.0390   -3.8932    1.7903 H   0  0  0  0  0  0  0  0  0  0  0  0
    1.2976   -5.4871    1.0566 H   0  0  0  0  0  0  0  0  0  0  0  0
    0.0755   -1.6529   -0.0105 N   0  0  0  0  0  0  0  0  0  0  0  0
    0.1113   -0.2132   -0.0391 C   0  0  2  0  0  0  0  0  0  0  0  0
    1.5768    0.2085   -0.0515 C   0  0  0  0  0  0  0  0  0  0  0  0
    2.0121    1.1346    0.6297 O   0  0  0  0  0  0  0  0  0  0  0  0
   -0.6135    0.4049    1.1608 C   0  0  0  0  0  0  0  0  0  0  0  0
   -2.1248    0.1479    1.1261 C   0  0  0  0  0  0  0  0  0  0  0  0
   -2.8411    0.7653    2.3227 C   0  0  0  0  0  0  0  0  0  0  0  0
   -4.2775    0.4983    2.2982 N   0  3  0  0  0  0  0  0  0  0  0  0
   -5.1319    0.9110    3.3222 C   0  0  0  0  0  0  0  0  0  0  0  0
   -6.4894    0.6216    3.2321 N   0  0  0  0  0  0  0  0  0  0  0  0
   -4.6588    1.6052    4.4309 N   0  0  0  0  0  0  0  0  0  0  0  0
   -0.7323   -2.1024    0.4149 H   0  0  0  0  0  0  0  0  0  0  0  0
   -0.3580    0.0975   -0.9795 H   0  0  0  0  0  0  0  0  0  0  0  0
   -0.4299    1.4858    1.1810 H   0  0  0  0  0  0  0  0  0  0  0  0
   -0.1971    0.0027    2.0939 H   0  0  0  0  0  0  0  0  0  0  0  0
   -2.5454    0.5536    0.1981 H   0  0  0  0  0  0  0  0  0  0  0  0
   -2.3146   -0.9316    1.1276 H   0  0  0  0  0  0  0  0  0  0  0  0
   -2.4468    0.3366    3.2491 H   0  0  0  0  0  0  0  0  0  0  0  0
   -2.6973    1.8498    2.3476 H   0  0  0  0  0  0  0  0  0  0  0  0
   -4.6821   -0.0062    1.5114 H   0  0  0  0  0  0  0  0  0  0  0  0
   -7.1387    0.9082    3.9608 H   0  0  0  0  0  0  0  0  0  0  0  0
   -6.8686    0.1156    2.4354 H   0  0  0  0  0  0  0  0  0  0  0  0
   -5.2767    1.9079    5.1793 H   0  0  0  0  0  0  0  0  0  0  0  0
   -3.6711    1.8304    4.5240 H   0  0  0  0  0  0  0  0  0  0  0  0
    2.3279   -0.5387   -0.9482 N   0  0  0  0  0  0  0  0  0  0  0  0
    3.7339   -0.3037   -1.1833 C   0  0  2  0  0  0  0  0  0  0  0  0
    4.0306   -0.6428   -2.6381 C   0  0  0  0  0  0  0  0  0  0  0  0
    3.4585   -1.5447   -3.2467 O   0  0  0  0  0  0  0  0  0  0  0  0
    4.5978   -1.1320   -0.2450 C   0  0  0  0  0  0  0  0  0  0  0  0
    1.8893   -1.3079   -1.4458 H   0  0  0  0  0  0  0  0  0  0  0  0
    3.9088    0.7643   -1.0137 H   0  0  0  0  0  0  0  0  0  0  0  0
    4.4363   -2.2050   -0.4003 H   0  0  0  0  0  0  0  0  0  0  0  0
    5.6623   -0.9315   -0.4051 H   0  0  0  0  0  0  0  0  0  0  0  0
    4.3621   -0.9084    0.8010 H   0  0  0  0  0  0  0  0  0  0  0  0
    5.0397    0.1518   -3.1639 N   0  0  0  0  0  0  0  0  0  0  0  0
    5.5321   -0.0043   -4.5127 C   0  0  0  0  0  0  0  0  0  0  0  0
    5.4298    0.9017   -2.6008 H   0  0  0  0  0  0  0  0  0  0  0  0
    6.3953   -0.6861   -4.5118 H   0  0  0  0  0  0  0  0  0  0  0  0
    4.7364   -0.4213   -5.1474 H   0  0  0  0  0  0  0  0  0  0  0  0
    5.8394    0.9757   -4.9064 H   0  0  0  0  0  0  0  0  0  0  0  0
  1  3  1  0  0  0  0
  1  7  1  0  0  0  0
  1  2  2  0  0  0  0
 42 43  1  0  0  0  0
 43 51  1  0  0  0  0
 43 44  2  0  0  0  0
  8  9  1  0  0  0  0
  9 17  1  0  0  0  0
  9 10  2  0  0  0  0
 18 19  1  0  0  0  0
 19 41  1  0  0  0  0
 19 20  2  0  0  0  0
 25 26  1  0  0  0  0
 25 27  1  0  0  0  0
 24 25  2  0  0  0  0
 42 45  1  0  0  0  0
  8 11  1  0  0  0  0
 51 52  1  0  0  0  0
 21 22  1  0  0  0  0
 22 23  1  0  0  0  0
 18 21  1  0  0  0  0
 23 24  1  0  0  0  0
 41 42  1  0  0  0  0
  7  8  1  0  0  0  0
 17 18  1  0  0  0  0
  3  4  1  0  0  0  0
  3  5  1  0  0  0  0
  3  6  1  0  0  0  0
 45 48  1  0  0  0  0
 45 49  1  0  0  0  0
 45 50  1  0  0  0  0
 11 14  1  0  0  0  0
 11 15  1  0  0  0  0
 11 16  1  0  0  0  0
 52 54  1  0  0  0  0
 52 55  1  0  0  0  0
 52 56  1  0  0  0  0
 22 32  1  0  0  0  0
 22 33  1  0  0  0  0
 21 30  1  0  0  0  0
 21 31  1  0  0  0  0
 23 34  1  0  0  0  0
 23 35  1  0  0  0  0
 42 47  1  0  0  0  0
  8 13  1  0  0  0  0
 18 29  1  0  0  0  0
 26 37  1  0  0  0  0
 26 38  1  0  0  0  0
 27 39  1  0  0  0  0
 27 40  1  0  0  0  0
 51 53  1  0  0  0  0
  7 12  1  0  0  0  0
 41 46  1  0  0  0  0
 17 28  1  0  0  0  0
 24 36  1  0  0  0  0
M  CHG  1  24   1
M  END
$$$$

  -OEChem-05262214473D

 56 55  0     1  0  0  0  0  0999 V2000
    0.7735   -5.8042   -2.0022 C   0  0  0  0  0  0  0  0  0  0  0  0
   -0.2086   -6.3825   -1.5519 O   0  0  0  0  0  0  0  0  0  0  0  0
    1.4751   -6.3646   -3.1946 C   0  0  0  0  0  0  0  0  0  0  0  0
    2.2765   -7.0687   -2.9186 H   0  0  0  0  0  0  0  0  0  0  0  0
    0.7988   -6.9360   -3.8504 H   0  0  0  0  0  0  0  0  0  0  0  0
    1.9556   -5.6216   -3.8511 H   0  0  0  0  0  0  0  0  0  0  0  0
    1.3322   -4.6359   -1.5106 N   0  0  0  0  0  0  0  0  0  0  0  0
    0.8124   -3.9290   -0.3698 C   0  0  2  0  0  0  0  0  0  0  0  0
    1.0666   -2.4424   -0.5818 C   0  0  0  0  0  0  0  0  0  0  0  0
    2.0598   -2.0076   -1.1610 O   0  0  0  0  0  0  0  0  0  0  0  0
    1.4560   -4.4118    0.9207 C   0  0  0  0  0  0  0  0  0  0  0  0
    2.1528   -4.2578   -1.9805 H   0  0  0  0  0  0  0  0  0  0  0  0
   -0.2667   -4.1160   -0.3467 H   0  0  0  0  0  0  0  0  0  0  0  0
    2.5374   -4.2329    0.9160 H   0  0  0  0  0  0  0  0  0  0  0  0
    1.0390   -3.8932    1.7903 H   0  0  0  0  0  0  0  0  0  0  0  0
    1.2976   -5.4871    1.0566 H   0  0  0  0  0  0  0  0  0  0  0  0
    0.0755   -1.6529   -0.0105 N   0  0  0  0  0  0  0  0  0  0  0  0
    0.1113   -0.2132   -0.0391 C   0  0  2  0  0  0  0  0  0  0  0  0
    1.5768    0.2085   -0.0515 C   0  0  0  0  0  0  0  0  0  0  0  0
    2.0699    0.9390    0.8055 O   0  0  0  0  0  0  0  0  0  0  0  0
   -0.6135    0.4049    1.1608 C   0  0  0  0  0  0  0  0  0  0  0  0
   -2.1248    0.1479    1.1261 C   0  0  0  0  0  0  0  0  0  0  0  0
   -2.8411    0.7653    2.3227 C   0  0  0  0  0  0  0  0  0  0  0  0
   -4.2775    0.4983    2.2982 N   0  3  0  0  0  0  0  0  0  0  0  0
   -5.1319    0.9110    3.3222 C   0  0  0  0  0  0  0  0  0  0  0  0
   -6.4894    0.6216    3.2321 N   0  0  0  0  0  0  0  0  0  0  0  0
   -4.6588    1.6052    4.4309 N   0  0  0  0  0  0  0  0  0  0  0  0
   -0.7323   -2.1024    0.4149 H   0  0  0  0  0  0  0  0  0  0  0  0
   -0.3580    0.0975   -0.9795 H   0  0  0  0  0  0  0  0  0  0  0  0
   -0.4299    1.4858    1.1810 H   0  0  0  0  0  0  0  0  0  0  0  0
   -0.1971    0.0027    2.0939 H   0  0  0  0  0  0  0  0  0  0  0  0
   -2.5454    0.5536    0.1981 H   0  0  0  0  0  0  0  0  0  0  0  0
   -2.3146   -0.9316    1.1276 H   0  0  0  0  0  0  0  0  0  0  0  0
   -2.4468    0.3366    3.2491 H   0  0  0  0  0  0  0  0  0  0  0  0
   -2.6973    1.8498    2.3476 H   0  0  0  0  0  0  0  0  0  0  0  0
   -4.6821   -0.0062    1.5114 H   0  0  0  0  0  0  0  0  0  0  0  0
   -7.1387    0.9082    3.9608 H   0  0  0  0  0  0  0  0  0  0  0  0
   -6.8686    0.1156    2.4354 H   0  0  0  0  0  0  0  0  0  0  0  0
   -5.2767    1.9079    5.1793 H   0  0  0  0  0  0  0  0  0  0  0  0
   -3.6711    1.8304    4.5240 H   0  0  0  0  0  0  0  0  0  0  0  0
    2.2536   -0.2869   -1.1574 N   0  0  0  0  0  0  0  0  0  0  0  0
    3.6418    0.0090   -1.4271 C   0  0  2  0  0  0  0  0  0  0  0  0
    3.8302    0.0446   -2.9379 C   0  0  0  0  0  0  0  0  0  0  0  0
    3.2062   -0.6815   -3.7090 O   0  0  0  0  0  0  0  0  0  0  0  0
    4.5612   -1.0207   -0.7888 C   0  0  0  0  0  0  0  0  0  0  0  0
    1.7722   -0.9111   -1.7978 H   0  0  0  0  0  0  0  0  0  0  0  0
    3.8403    1.0024   -1.0102 H   0  0  0  0  0  0  0  0  0  0  0  0
    4.3770   -2.0224   -1.1939 H   0  0  0  0  0  0  0  0  0  0  0  0
    5.6137   -0.7792   -0.9700 H   0  0  0  0  0  0  0  0  0  0  0  0
    4.4032   -1.0660    0.2942 H   0  0  0  0  0  0  0  0  0  0  0  0
    4.8081    0.9520   -3.3207 N   0  0  0  0  0  0  0  0  0  0  0  0
    5.2013    1.1398   -4.6977 C   0  0  0  0  0  0  0  0  0  0  0  0
    5.2457    1.5410   -2.6183 H   0  0  0  0  0  0  0  0  0  0  0  0
    6.0547    0.4853   -4.9284 H   0  0  0  0  0  0  0  0  0  0  0  0
    4.3577    0.8883   -5.3574 H   0  0  0  0  0  0  0  0  0  0  0  0
    5.4907    2.1891   -4.8564 H   0  0  0  0  0  0  0  0  0  0  0  0
  1  3  1  0  0  0  0
  1  7  1  0  0  0  0
  1  2  2  0  0  0  0
 42 43  1  0  0  0  0
 43 51  1  0  0  0  0
 43 44  2  0  0  0  0
  8  9  1  0  0  0  0
  9 17  1  0  0  0  0
  9 10  2  0  0  0  0
 18 19  1  0  0  0  0
 19 41  1  0  0  0  0
 19 20  2  0  0  0  0
 25 26  1  0  0  0  0
 25 27  1  0  0  0  0
 24 25  2  0  0  0  0
 42 45  1  0  0  0  0
  8 11  1  0  0  0  0
 51 52  1  0  0  0  0
 21 22  1  0  0  0  0
 22 23  1  0  0  0  0
 18 21  1  0  0  0  0
 23 24  1  0  0  0  0
 41 42  1  0  0  0  0
  7  8  1  0  0  0  0
 17 18  1  0  0  0  0
  3  4  1  0  0  0  0
  3  5  1  0  0  0  0
  3  6  1  0  0  0  0
 45 48  1  0  0  0  0
 45 49  1  0  0  0  0
 45 50  1  0  0  0  0
 11 14  1  0  0  0  0
 11 15  1  0  0  0  0
 11 16  1  0  0  0  0
 52 54  1  0  0  0  0
 52 55  1  0  0  0  0
 52 56  1  0  0  0  0
 22 32  1  0  0  0  0
 22 33  1  0  0  0  0
 21 30  1  0  0  0  0
 21 31  1  0  0  0  0
 23 34  1  0  0  0  0
 23 35  1  0  0  0  0
 42 47  1  0  0  0  0
  8 13  1  0  0  0  0
 18 29  1  0  0  0  0
 26 37  1  0  0  0  0
 26 38  1  0  0  0  0
 27 39  1  0  0  0  0
 27 40  1  0  0  0  0
 51 53  1  0  0  0  0
  7 12  1  0  0  0  0
 41 46  1  0  0  0  0
 17 28  1  0  0  0  0
 24 36  1  0  0  0  0
M  CHG  1  24   1
M  END
$$$$

  -OEChem-05262214473D

 56 55  0     1  0  0  0  0  0999 V2000
    0.7735   -5.8042   -2.0022 C   0  0  0  0  0  0  0  0  0  0  0  0
   -0.2086   -6.3825   -1.5519 O   0  0  0  0  0  0  0  0  0  0  0  0
    1.4751   -6.3646   -3.1946 C   0  0  0  0  0  0  0  0  0  0  0  0
    2.2765   -7.0687   -2.9186 H   0  0  0  0  0  0  0  0  0  0  0  0
    0.7988   -6.9360   -3.8504 H   0  0  0  0  0  0  0  0  0  0  0  0
    1.9556   -5.6216   -3.8511 H   0  0  0  0  0  0  0  0  0  0  0  0
    1.3322   -4.6359   -1.5106 N   0  0  0  0  0  0  0  0  0  0  0  0
    0.8124   -3.9290   -0.3698 C   0  0  2  0  0  0  0  0  0  0  0  0
    1.0666   -2.4424   -0.5818 C   0  0  0  0  0  0  0  0  0  0  0  0
    2.0598   -2.0076   -1.1610 O   0  0  0  0  0  0  0  0  0  0  0  0
    1.4560   -4.4118    0.9207 C   0  0  0  0  0  0  0  0  0  0  0  0
    2.1528   -4.2578   -1.9805 H   0  0  0  0  0  0  0  0  0  0  0  0
   -0.2667   -4.1160   -0.3467 H   0  0  0  0  0  0  0  0  0  0  0  0
    2.5374   -4.2329    0.9160 H   0  0  0  0  0  0  0  0  0  0  0  0
    1.0390   -3.8932    1.7903 H   0  0  0  0  0  0  0  0  0  0  0  0
    1.2976   -5.4871    1.0566 H   0  0  0  0  0  0  0  0  0  0  0  0
    0.0755   -1.6529   -0.0105 N   0  0  0  0  0  0  0  0  0  0  0  0
    0.1113   -0.2132   -0.0391 C   0  0  2  0  0  0  0  0  0  0  0  0
    1.5768    0.2085   -0.0515 C   0  0  0  0  0  0  0  0  0  0  0  0
    2.1378    0.7062    0.9225 O   0  0  0  0  0  0  0  0  0  0  0  0
   -0.6135    0.4049    1.1608 C   0  0  0  0  0  0  0  0  0  0  0  0
   -2.1248    0.1479    1.1261 C   0  0  0  0  0  0  0  0  0  0  0  0
   -2.8411    0.7653    2.3227 C   0  0  0  0  0  0  0  0  0  0  0  0
   -4.2775    0.4983    2.2982 N   0  3  0  0  0  0  0  0  0  0  0  0
   -5.1319    0.9110    3.3222 C   0  0  0  0  0  0  0  0  0  0  0  0
   -6.4894    0.6216    3.2321 N   0  0  0  0  0  0  0  0  0  0  0  0
   -4.6588    1.6052    4.4309 N   0  0  0  0  0  0  0  0  0  0  0  0
   -0.7323   -2.1024    0.4149 H   0  0  0  0  0  0  0  0  0  0  0  0
   -0.3580    0.0975   -0.9795 H   0  0  0  0  0  0  0  0  0  0  0  0
   -0.4299    1.4858    1.1810 H   0  0  0  0  0  0  0  0  0  0  0  0
   -0.1971    0.0027    2.0939 H   0  0  0  0  0  0  0  0  0  0  0  0
   -2.5454    0.5536    0.1981 H   0  0  0  0  0  0  0  0  0  0  0  0
   -2.3146   -0.9316    1.1276 H   0  0  0  0  0  0  0  0  0  0  0  0
   -2.4468    0.3366    3.2491 H   0  0  0  0  0  0  0  0  0  0  0  0
   -2.6973    1.8498    2.3476 H   0  0  0  0  0  0  0  0  0  0  0  0
   -4.6821   -0.0062    1.5114 H   0  0  0  0  0  0  0  0  0  0  0  0
   -7.1387    0.9082    3.9608 H   0  0  0  0  0  0  0  0  0  0  0  0
   -6.8686    0.1156    2.4354 H   0  0  0  0  0  0  0  0  0  0  0  0
   -5.2767    1.9079    5.1793 H   0  0  0  0  0  0  0  0  0  0  0  0
   -3.6711    1.8304    4.5240 H   0  0  0  0  0  0  0  0  0  0  0  0
    2.1675    0.0086   -1.2915 N   0  0  0  0  0  0  0  0  0  0  0  0
    3.5362    0.3719   -1.5781 C   0  0  2  0  0  0  0  0  0  0  0  0
    3.6167    0.7835   -3.0422 C   0  0  0  0  0  0  0  0  0  0  0  0
    2.9312    0.2678   -3.9227 O   0  0  0  0  0  0  0  0  0  0  0  0
    4.4871   -0.7778   -1.2837 C   0  0  0  0  0  0  0  0  0  0  0  0
    1.6346   -0.4401   -2.0307 H   0  0  0  0  0  0  0  0  0  0  0  0
    3.7749    1.2317   -0.9427 H   0  0  0  0  0  0  0  0  0  0  0  0
    4.2634   -1.6485   -1.9108 H   0  0  0  0  0  0  0  0  0  0  0  0
    5.5267   -0.4916   -1.4743 H   0  0  0  0  0  0  0  0  0  0  0  0
    4.4063   -1.0922   -0.2375 H   0  0  0  0  0  0  0  0  0  0  0  0
    4.5748    1.7644   -3.2566 N   0  0  0  0  0  0  0  0  0  0  0  0
    4.8709    2.2916   -4.5682 C   0  0  0  0  0  0  0  0  0  0  0  0
    5.0679    2.1631   -2.4631 H   0  0  0  0  0  0  0  0  0  0  0  0
    5.6984    1.7210   -5.0151 H   0  0  0  0  0  0  0  0  0  0  0  0
    3.9797    2.2063   -5.2073 H   0  0  0  0  0  0  0  0  0  0  0  0
    5.1599    3.3494   -4.4814 H   0  0  0  0  0  0  0  0  0  0  0  0
  1  3  1  0  0  0  0
  1  7  1  0  0  0  0
  1  2  2  0  0  0  0
 42 43  1  0  0  0  0
 43 51  1  0  0  0  0
 43 44  2  0  0  0  0
  8  9  1  0  0  0  0
  9 17  1  0  0  0  0
  9 10  2  0  0  0  0
 18 19  1  0  0  0  0
 19 41  1  0  0  0  0
 19 20  2  0  0  0  0
 25 26  1  0  0  0  0
 25 27  1  0  0  0  0
 24 25  2  0  0  0  0
 42 45  1  0  0  0  0
  8 11  1  0  0  0  0
 51 52  1  0  0  0  0
 21 22  1  0  0  0  0
 22 23  1  0  0  0  0
 18 21  1  0  0  0  0
 23 24  1  0  0  0  0
 41 42  1  0  0  0  0
  7  8  1  0  0  0  0
 17 18  1  0  0  0  0
  3  4  1  0  0  0  0
  3  5  1  0  0  0  0
  3  6  1  0  0  0  0
 45 48  1  0  0  0  0
 45 49  1  0  0  0  0
 45 50  1  0  0  0  0
 11 14  1  0  0  0  0
 11 15  1  0  0  0  0
 11 16  1  0  0  0  0
 52 54  1  0  0  0  0
 52 55  1  0  0  0  0
 52 56  1  0  0  0  0
 22 32  1  0  0  0  0
 22 33  1  0  0  0  0
 21 30  1  0  0  0  0
 21 31  1  0  0  0  0
 23 34  1  0  0  0  0
 23 35  1  0  0  0  0
 42 47  1  0  0  0  0
  8 13  1  0  0  0  0
 18 29  1  0  0  0  0
 26 37  1  0  0  0  0
 26 38  1  0  0  0  0
 27 39  1  0  0  0  0
 27 40  1  0  0  0  0
 51 53  1  0  0  0  0
  7 12  1  0  0  0  0
 41 46  1  0  0  0  0
 17 28  1  0  0  0  0
 24 36  1  0  0  0  0
M  CHG  1  24   1
M  END
$$$$

  -OEChem-05262214473D

 56 55  0     1  0  0  0  0  0999 V2000
    0.7735   -5.8042   -2.0022 C   0  0  0  0  0  0  0  0  0  0  0  0
   -0.2086   -6.3825   -1.5519 O   0  0  0  0  0  0  0  0  0  0  0  0
    1.4751   -6.3646   -3.1946 C   0  0  0  0  0  0  0  0  0  0  0  0
    2.2765   -7.0687   -2.9186 H   0  0  0  0  0  0  0  0  0  0  0  0
    0.7988   -6.9360   -3.8504 H   0  0  0  0  0  0  0  0  0  0  0  0
    1.9556   -5.6216   -3.8511 H   0  0  0  0  0  0  0  0  0  0  0  0
    1.3322   -4.6359   -1.5106 N   0  0  0  0  0  0  0  0  0  0  0  0
    0.8124   -3.9290   -0.3698 C   0  0  2  0  0  0  0  0  0  0  0  0
    1.0666   -2.4424   -0.5818 C   0  0  0  0  0  0  0  0  0  0  0  0
    2.0598   -2.0076   -1.1610 O   0  0  0  0  0  0  0  0  0  0  0  0
    1.4560   -4.4118    0.9207 C   0  0  0  0  0  0  0  0  0  0  0  0
    2.1528   -4.2578   -1.9805 H   0  0  0  0  0  0  0  0  0  0  0  0
   -0.2667   -4.1160   -0.3467 H   0  0  0  0  0  0  0  0  0  0  0  0
    2.5374   -4.2329    0.9160 H   0  0  0  0  0  0  0  0  0  0  0  0
    1.0390   -3.8932    1.7903 H   0  0  0  0  0  0  0  0  0  0  0  0
    1.2976   -5.4871    1.0566 H   0  0  0  0  0  0  0  0  0  0  0  0
    0.0755   -1.6529   -0.0105 N   0  0  0  0  0  0  0  0  0  0  0  0
    0.1113   -0.2132   -0.0391 C   0  0  2  0  0  0  0  0  0  0  0  0
    1.5768    0.2085   -0.0515 C   0  0  0  0  0  0  0  0  0  0  0  0
    2.2114    0.4521    0.9728 O   0  0  0  0  0  0  0  0  0  0  0  0
   -0.6135    0.4049    1.1608 C   0  0  0  0  0  0  0  0  0  0  0  0
   -2.1248    0.1479    1.1261 C   0  0  0  0  0  0  0  0  0  0  0  0
   -2.8411    0.7653    2.3227 C   0  0  0  0  0  0  0  0  0  0  0  0
   -4.2775    0.4983    2.2982 N   0  3  0  0  0  0  0  0  0  0  0  0
   -5.1319    0.9110    3.3222 C   0  0  0  0  0  0  0  0  0  0  0  0
   -6.4894    0.6216    3.2321 N   0  0  0  0  0  0  0  0  0  0  0  0
   -4.6588    1.6052    4.4309 N   0  0  0  0  0  0  0  0  0  0  0  0
   -0.7323   -2.1024    0.4149 H   0  0  0  0  0  0  0  0  0  0  0  0
   -0.3580    0.0975   -0.9795 H   0  0  0  0  0  0  0  0  0  0  0  0
   -0.4299    1.4858    1.1810 H   0  0  0  0  0  0  0  0  0  0  0  0
   -0.1971    0.0027    2.0939 H   0  0  0  0  0  0  0  0  0  0  0  0
   -2.5454    0.5536    0.1981 H   0  0  0  0  0  0  0  0  0  0  0  0
   -2.3146   -0.9316    1.1276 H   0  0  0  0  0  0  0  0  0  0  0  0
   -2.4468    0.3366    3.2491 H   0  0  0  0  0  0  0  0  0  0  0  0
   -2.6973    1.8498    2.3476 H   0  0  0  0  0  0  0  0  0  0  0  0
   -4.6821   -0.0062    1.5114 H   0  0  0  0  0  0  0  0  0  0  0  0
   -7.1387    0.9082    3.9608 H   0  0  0  0  0  0  0  0  0  0  0  0
   -6.8686    0.1156    2.4354 H   0  0  0  0  0  0  0  0  0  0  0  0
   -5.2767    1.9079    5.1793 H   0  0  0  0  0  0  0  0  0  0  0  0
   -3.6711    1.8304    4.5240 H   0  0  0  0  0  0  0  0  0  0  0  0
    2.0753    0.3275   -1.3414 N   0  0  0  0  0  0  0  0  0  0  0  0
    3.4240    0.7601   -1.6263 C   0  0  2  0  0  0  0  0  0  0  0  0
    3.4045    1.5237   -2.9439 C   0  0  0  0  0  0  0  0  0  0  0  0
    2.6523    1.2384   -3.8734 O   0  0  0  0  0  0  0  0  0  0  0  0
    4.3806   -0.4200   -1.6960 C   0  0  0  0  0  0  0  0  0  0  0  0
    1.4861    0.0731   -2.1287 H   0  0  0  0  0  0  0  0  0  0  0  0
    3.7170    1.4365   -0.8159 H   0  0  0  0  0  0  0  0  0  0  0  0
    4.1031   -1.1088   -2.5022 H   0  0  0  0  0  0  0  0  0  0  0  0
    5.4071   -0.0881   -1.8836 H   0  0  0  0  0  0  0  0  0  0  0  0
    4.3711   -0.9853   -0.7579 H   0  0  0  0  0  0  0  0  0  0  0  0
    4.3558    2.5337   -2.9759 N   0  0  0  0  0  0  0  0  0  0  0  0
    4.5635    3.3727   -4.1330 C   0  0  0  0  0  0  0  0  0  0  0  0
    4.9087    2.7259   -2.1458 H   0  0  0  0  0  0  0  0  0  0  0  0
    5.3506    2.9370   -4.7660 H   0  0  0  0  0  0  0  0  0  0  0  0
    3.6281    3.4429   -4.7076 H   0  0  0  0  0  0  0  0  0  0  0  0
    4.8698    4.3776   -3.8069 H   0  0  0  0  0  0  0  0  0  0  0  0
  1  3  1  0  0  0  0
  1  7  1  0  0  0  0
  1  2  2  0  0  0  0
 42 43  1  0  0  0  0
 43 51  1  0  0  0  0
 43 44  2  0  0  0  0
  8  9  1  0  0  0  0
  9 17  1  0  0  0  0
  9 10  2  0  0  0  0
 18 19  1  0  0  0  0
 19 41  1  0  0  0  0
 19 20  2  0  0  0  0
 25 26  1  0  0  0  0
 25 27  1  0  0  0  0
 24 25  2  0  0  0  0
 42 45  1  0  0  0  0
  8 11  1  0  0  0  0
 51 52  1  0  0  0  0
 21 22  1  0  0  0  0
 22 23  1  0  0  0  0
 18 21  1  0  0  0  0
 23 24  1  0  0  0  0
 41 42  1  0  0  0  0
  7  8  1  0  0  0  0
 17 18  1  0  0  0  0
  3  4  1  0  0  0  0
  3  5  1  0  0  0  0
  3  6  1  0  0  0  0
 45 48  1  0  0  0  0
 45 49  1  0  0  0  0
 45 50  1  0  0  0  0
 11 14  1  0  0  0  0
 11 15  1  0  0  0  0
 11 16  1  0  0  0  0
 52 54  1  0  0  0  0
 52 55  1  0  0  0  0
 52 56  1  0  0  0  0
 22 32  1  0  0  0  0
 22 33  1  0  0  0  0
 21 30  1  0  0  0  0
 21 31  1  0  0  0  0
 23 34  1  0  0  0  0
 23 35  1  0  0  0  0
 42 47  1  0  0  0  0
  8 13  1  0  0  0  0
 18 29  1  0  0  0  0
 26 37  1  0  0  0  0
 26 38  1  0  0  0  0
 27 39  1  0  0  0  0
 27 40  1  0  0  0  0
 51 53  1  0  0  0  0
  7 12  1  0  0  0  0
 41 46  1  0  0  0  0
 17 28  1  0  0  0  0
 24 36  1  0  0  0  0
M  CHG  1  24   1
M  END
$$$$

  -OEChem-05262214473D

 56 55  0     1  0  0  0  0  0999 V2000
    0.7735   -5.8042   -2.0022 C   0  0  0  0  0  0  0  0  0  0  0  0
   -0.2086   -6.3825   -1.5519 O   0  0  0  0  0  0  0  0  0  0  0  0
    1.4751   -6.3646   -3.1946 C   0  0  0  0  0  0  0  0  0  0  0  0
    2.2765   -7.0687   -2.9186 H   0  0  0  0  0  0  0  0  0  0  0  0
    0.7988   -6.9360   -3.8504 H   0  0  0  0  0  0  0  0  0  0  0  0
    1.9556   -5.6216   -3.8511 H   0  0  0  0  0  0  0  0  0  0  0  0
    1.3322   -4.6359   -1.5106 N   0  0  0  0  0  0  0  0  0  0  0  0
    0.8124   -3.9290   -0.3698 C   0  0  2  0  0  0  0  0  0  0  0  0
    1.0666   -2.4424   -0.5818 C   0  0  0  0  0  0  0  0  0  0  0  0
    2.0598   -2.0076   -1.1610 O   0  0  0  0  0  0  0  0  0  0  0  0
    1.4560   -4.4118    0.9207 C   0  0  0  0  0  0  0  0  0  0  0  0
    2.1528   -4.2578   -1.9805 H   0  0  0  0  0  0  0  0  0  0  0  0
   -0.2667   -4.1160   -0.3467 H   0  0  0  0  0  0  0  0  0  0  0  0
    2.5374   -4.2329    0.9160 H   0  0  0  0  0  0  0  0  0  0  0  0
    1.0390   -3.8932    1.7903 H   0  0  0  0  0  0  0  0  0  0  0  0
    1.2976   -5.4871    1.0566 H   0  0  0  0  0  0  0  0  0  0  0  0
    0.0755   -1.6529   -0.0105 N   0  0  0  0  0  0  0  0  0  0  0  0
    0.1113   -0.2132   -0.0391 C   0  0  2  0  0  0  0  0  0  0  0  0
    1.5768    0.2085   -0.0515 C   0  0  0  0  0  0  0  0  0  0  0  0
    2.2855    0.1940    0.9528 O   0  0  0  0  0  0  0  0  0  0  0  0
   -0.6135    0.4049    1.1608 C   0  0  0  0  0  0  0  0  0  0  0  0
   -2.1248    0.1479    1.1261 C   0  0  0  0  0  0  0  0  0  0  0  0
   -2.8411    0.7653    2.3227 C   0  0  0  0  0  0  0  0  0  0  0  0
   -4.2775    0.4983    2.2982 N   0  3  0  0  0  0  0  0  0  0  0  0
   -5.1319    0.9110    3.3222 C   0  0  0  0  0  0  0  0  0  0  0  0
   -6.4894    0.6216    3.2321 N   0  0  0  0  0  0  0  0  0  0  0  0
   -4.6588    1.6052    4.4309 N   0  0  0  0  0  0  0  0  0  0  0  0
   -0.7323   -2.1024    0.4149 H   0  0  0  0  0  0  0  0  0  0  0  0
   -0.3580    0.0975   -0.9795 H   0  0  0  0  0  0  0  0  0  0  0  0
   -0.4299    1.4858    1.1810 H   0  0  0  0  0  0  0  0  0  0  0  0
   -0.1971    0.0027    2.0939 H   0  0  0  0  0  0  0  0  0  0  0  0
   -2.5454    0.5536    0.1981 H   0  0  0  0  0  0  0  0  0  0  0  0
   -2.3146   -0.9316    1.1276 H   0  0  0  0  0  0  0  0  0  0  0  0
   -2.4468    0.3366    3.2491 H   0  0  0  0  0  0  0  0  0  0  0  0
   -2.6973    1.8498    2.3476 H   0  0  0  0  0  0  0  0  0  0  0  0
   -4.6821   -0.0062    1.5114 H   0  0  0  0  0  0  0  0  0  0  0  0
   -7.1387    0.9082    3.9608 H   0  0  0  0  0  0  0  0  0  0  0  0
   -6.8686    0.1156    2.4354 H   0  0  0  0  0  0  0  0  0  0  0  0
   -5.2767    1.9079    5.1793 H   0  0  0  0  0  0  0  0  0  0  0  0
   -3.6711    1.8304    4.5240 H   0  0  0  0  0  0  0  0  0  0  0  0
    1.9833    0.6481   -1.3036 N   0  0  0  0  0  0  0  0  0  0  0  0
    3.3131    1.1474   -1.5681 C   0  0  2  0  0  0  0  0  0  0  0  0
    3.2082    2.2146   -2.6496 C   0  0  0  0  0  0  0  0  0  0  0  0
    2.3885    2.1643   -3.5643 O   0  0  0  0  0  0  0  0  0  0  0  0
    4.2490    0.0284   -1.9976 C   0  0  0  0  0  0  0  0  0  0  0  0
    1.3367    0.5936   -2.0851 H   0  0  0  0  0  0  0  0  0  0  0  0
    3.6706    1.6029   -0.6382 H   0  0  0  0  0  0  0  0  0  0  0  0
    3.9070   -0.4400   -2.9277 H   0  0  0  0  0  0  0  0  0  0  0  0
    5.2632    0.4037   -2.1701 H   0  0  0  0  0  0  0  0  0  0  0  0
    4.3001   -0.7526   -1.2314 H   0  0  0  0  0  0  0  0  0  0  0  0
    4.1660    3.2074   -2.4978 N   0  0  0  0  0  0  0  0  0  0  0  0
    4.3000    4.3093   -3.4218 C   0  0  0  0  0  0  0  0  0  0  0  0
    4.7787    3.1909   -1.6878 H   0  0  0  0  0  0  0  0  0  0  0  0
    5.0350    4.0503   -4.1981 H   0  0  0  0  0  0  0  0  0  0  0  0
    3.3268    4.5137   -3.8921 H   0  0  0  0  0  0  0  0  0  0  0  0
    4.6399    5.2036   -2.8789 H   0  0  0  0  0  0  0  0  0  0  0  0
  1  3  1  0  0  0  0
  1  7  1  0  0  0  0
  1  2  2  0  0  0  0
 42 43  1  0  0  0  0
 43 51  1  0  0  0  0
 43 44  2  0  0  0  0
  8  9  1  0  0  0  0
  9 17  1  0  0  0  0
  9 10  2  0  0  0  0
 18 19  1  0  0  0  0
 19 41  1  0  0  0  0
 19 20  2  0  0  0  0
 25 26  1  0  0  0  0
 25 27  1  0  0  0  0
 24 25  2  0  0  0  0
 42 45  1  0  0  0  0
  8 11  1  0  0  0  0
 51 52  1  0  0  0  0
 21 22  1  0  0  0  0
 22 23  1  0  0  0  0
 18 21  1  0  0  0  0
 23 24  1  0  0  0  0
 41 42  1  0  0  0  0
  7  8  1  0  0  0  0
 17 18  1  0  0  0  0
  3  4  1  0  0  0  0
  3  5  1  0  0  0  0
  3  6  1  0  0  0  0
 45 48  1  0  0  0  0
 45 49  1  0  0  0  0
 45 50  1  0  0  0  0
 11 14  1  0  0  0  0
 11 15  1  0  0  0  0
 11 16  1  0  0  0  0
 52 54  1  0  0  0  0
 52 55  1  0  0  0  0
 52 56  1  0  0  0  0
 22 32  1  0  0  0  0
 22 33  1  0  0  0  0
 21 30  1  0  0  0  0
 21 31  1  0  0  0  0
 23 34  1  0  0  0  0
 23 35  1  0  0  0  0
 42 47  1  0  0  0  0
  8 13  1  0  0  0  0
 18 29  1  0  0  0  0
 26 37  1  0  0  0  0
 26 38  1  0  0  0  0
 27 39  1  0  0  0  0
 27 40  1  0  0  0  0
 51 53  1  0  0  0  0
  7 12  1  0  0  0  0
 41 46  1  0  0  0  0
 17 28  1  0  0  0  0
 24 36  1  0  0  0  0
M  CHG  1  24   1
M  END
$$$$

  -OEChem-05262214473D

 56 55  0     1  0  0  0  0  0999 V2000
    0.7735   -5.8042   -2.0022 C   0  0  0  0  0  0  0  0  0  0  0  0
   -0.2086   -6.3825   -1.5519 O   0  0  0  0  0  0  0  0  0  0  0  0
    1.4751   -6.3646   -3.1946 C   0  0  0  0  0  0  0  0  0  0  0  0
    2.2765   -7.0687   -2.9186 H   0  0  0  0  0  0  0  0  0  0  0  0
    0.7988   -6.9360   -3.8504 H   0  0  0  0  0  0  0  0  0  0  0  0
    1.9556   -5.6216   -3.8511 H   0  0  0  0  0  0  0  0  0  0  0  0
    1.3322   -4.6359   -1.5106 N   0  0  0  0  0  0  0  0  0  0  0  0
    0.8124   -3.9290   -0.3698 C   0  0  2  0  0  0  0  0  0  0  0  0
    1.0666   -2.4424   -0.5818 C   0  0  0  0  0  0  0  0  0  0  0  0
    2.0598   -2.0076   -1.1610 O   0  0  0  0  0  0  0  0  0  0  0  0
    1.4560   -4.4118    0.9207 C   0  0  0  0  0  0  0  0  0  0  0  0
    2.1528   -4.2578   -1.9805 H   0  0  0  0  0  0  0  0  0  0  0  0
   -0.2667   -4.1160   -0.3467 H   0  0  0  0  0  0  0  0  0  0  0  0
    2.5374   -4.2329    0.9160 H   0  0  0  0  0  0  0  0  0  0  0  0
    1.0390   -3.8932    1.7903 H   0  0  0  0  0  0  0  0  0  0  0  0
    1.2976   -5.4871    1.0566 H   0  0  0  0  0  0  0  0  0  0  0  0
    0.0755   -1.6529   -0.0105 N   0  0  0  0  0  0  0  0  0  0  0  0
    0.1113   -0.2132   -0.0391 C   0  0  2  0  0  0  0  0  0  0  0  0
    1.5768    0.2085   -0.0515 C   0  0  0  0  0  0  0  0  0  0  0  0
    2.3551   -0.0505    0.8641 O   0  0  0  0  0  0  0  0  0  0  0  0
   -0.6135    0.4049    1.1608 C   0  0  0  0  0  0  0  0  0  0  0  0
   -2.1248    0.1479    1.1261 C   0  0  0  0  0  0  0  0  0  0  0  0
   -2.8411    0.7653    2.3227 C   0  0  0  0  0  0  0  0  0  0  0  0
   -4.2775    0.4983    2.2982 N   0  3  0  0  0  0  0  0  0  0  0  0
   -5.1319    0.9110    3.3222 C   0  0  0  0  0  0  0  0  0  0  0  0
   -6.4894    0.6216    3.2321 N   0  0  0  0  0  0  0  0  0  0  0  0
   -4.6588    1.6052    4.4309 N   0  0  0  0  0  0  0  0  0  0  0  0
   -0.7323   -2.1024    0.4149 H   0  0  0  0  0  0  0  0  0  0  0  0
   -0.3580    0.0975   -0.9795 H   0  0  0  0  0  0  0  0  0  0  0  0
   -0.4299    1.4858    1.1810 H   0  0  0  0  0  0  0  0  0  0  0  0
   -0.1971    0.0027    2.0939 H   0  0  0  0  0  0  0  0  0  0  0  0
   -2.5454    0.5536    0.1981 H   0  0  0  0  0  0  0  0  0  0  0  0
   -2.3146   -0.9316    1.1276 H   0  0  0  0  0  0  0  0  0  0  0  0
   -2.4468    0.3366    3.2491 H   0  0  0  0  0  0  0  0  0  0  0  0
   -2.6973    1.8498    2.3476 H   0  0  0  0  0  0  0  0  0  0  0  0
   -4.6821   -0.0062    1.5114 H   0  0  0  0  0  0  0  0  0  0  0  0
   -7.1387    0.9082    3.9608 H   0  0  0  0  0  0  0  0  0  0  0  0
   -6.8686    0.1156    2.4354 H   0  0  0  0  0  0  0  0  0  0  0  0
   -5.2767    1.9079    5.1793 H   0  0  0  0  0  0  0  0  0  0  0  0
   -3.6711    1.8304    4.5240 H   0  0  0  0  0  0  0  0  0  0  0  0
    1.8979    0.9486   -1.1809 N   0  0  0  0  0  0  0  0  0  0  0  0
    3.2109    1.5073   -1.4077 C   0  0  2  0  0  0  0  0  0  0  0  0
    3.0410    2.8092   -2.1795 C   0  0  0  0  0  0  0  0  0  0  0  0
    2.1577    2.9824   -3.0167 O   0  0  0  0  0  0  0  0  0  0  0  0
    4.1013    0.5368   -2.1681 C   0  0  0  0  0  0  0  0  0  0  0  0
    1.1966    1.0857   -1.9028 H   0  0  0  0  0  0  0  0  0  0  0  0
    3.6389    1.7196   -0.4220 H   0  0  0  0  0  0  0  0  0  0  0  0
    3.6886    0.3122   -3.1584 H   0  0  0  0  0  0  0  0  0  0  0  0
    5.1047    0.9502   -2.3142 H   0  0  0  0  0  0  0  0  0  0  0  0
    4.1982   -0.4099   -1.6258 H   0  0  0  0  0  0  0  0  0  0  0  0
    4.0182    3.7397   -1.8548 N   0  0  0  0  0  0  0  0  0  0  0  0
    4.0983    5.0377   -2.4829 C   0  0  0  0  0  0  0  0  0  0  0  0
    4.6870    3.5264   -1.1206 H   0  0  0  0  0  0  0  0  0  0  0  0
    4.7732    4.9851   -3.3500 H   0  0  0  0  0  0  0  0  0  0  0  0
    3.0964    5.3459   -2.8165 H   0  0  0  0  0  0  0  0  0  0  0  0
    4.4860    5.7712   -1.7607 H   0  0  0  0  0  0  0  0  0  0  0  0
  1  3  1  0  0  0  0
  1  7  1  0  0  0  0
  1  2  2  0  0  0  0
 42 43  1  0  0  0  0
 43 51  1  0  0  0  0
 43 44  2  0  0  0  0
  8  9  1  0  0  0  0
  9 17  1  0  0  0  0
  9 10  2  0  0  0  0
 18 19  1  0  0  0  0
 19 41  1  0  0  0  0
 19 20  2  0  0  0  0
 25 26  1  0  0  0  0
 25 27  1  0  0  0  0
 24 25  2  0  0  0  0
 42 45  1  0  0  0  0
  8 11  1  0  0  0  0
 51 52  1  0  0  0  0
 21 22  1  0  0  0  0
 22 23  1  0  0  0  0
 18 21  1  0  0  0  0
 23 24  1  0  0  0  0
 41 42  1  0  0  0  0
  7  8  1  0  0  0  0
 17 18  1  0  0  0  0
  3  4  1  0  0  0  0
  3  5  1  0  0  0  0
  3  6  1  0  0  0  0
 45 48  1  0  0  0  0
 45 49  1  0  0  0  0
 45 50  1  0  0  0  0
 11 14  1  0  0  0  0
 11 15  1  0  0  0  0
 11 16  1  0  0  0  0
 52 54  1  0  0  0  0
 52 55  1  0  0  0  0
 52 56  1  0  0  0  0
 22 32  1  0  0  0  0
 22 33  1  0  0  0  0
 21 30  1  0  0  0  0
 21 31  1  0  0  0  0
 23 34  1  0  0  0  0
 23 35  1  0  0  0  0
 42 47  1  0  0  0  0
  8 13  1  0  0  0  0
 18 29  1  0  0  0  0
 26 37  1  0  0  0  0
 26 38  1  0  0  0  0
 27 39  1  0  0  0  0
 27 40  1  0  0  0  0
 51 53  1  0  0  0  0
  7 12  1  0  0  0  0
 41 46  1  0  0  0  0
 17 28  1  0  0  0  0
 24 36  1  0  0  0  0
M  CHG  1  24   1
M  END
$$$$

  -OEChem-05262214473D

 56 55  0     1  0  0  0  0  0999 V2000
    0.7735   -5.8042   -2.0022 C   0  0  0  0  0  0  0  0  0  0  0  0
   -0.2086   -6.3825   -1.5519 O   0  0  0  0  0  0  0  0  0  0  0  0
    1.4751   -6.3646   -3.1946 C   0  0  0  0  0  0  0  0  0  0  0  0
    2.2765   -7.0687   -2.9186 H   0  0  0  0  0  0  0  0  0  0  0  0
    0.7988   -6.9360   -3.8504 H   0  0  0  0  0  0  0  0  0  0  0  0
    1.9556   -5.6216   -3.8511 H   0  0  0  0  0  0  0  0  0  0  0  0
    1.3322   -4.6359   -1.5106 N   0  0  0  0  0  0  0  0  0  0  0  0
    0.8124   -3.9290   -0.3698 C   0  0  2  0  0  0  0  0  0  0  0  0
    1.0666   -2.4424   -0.5818 C   0  0  0  0  0  0  0  0  0  0  0  0
    2.0598   -2.0076   -1.1610 O   0  0  0  0  0  0  0  0  0  0  0  0
    1.4560   -4.4118    0.9207 C   0  0  0  0  0  0  0  0  0  0  0  0
    2.1528   -4.2578   -1.9805 H   0  0  0  0  0  0  0  0  0  0  0  0
   -0.2667   -4.1160   -0.3467 H   0  0  0  0  0  0  0  0  0  0  0  0
    2.5374   -4.2329    0.9160 H   0  0  0  0  0  0  0  0  0  0  0  0
    1.0390   -3.8932    1.7903 H   0  0  0  0  0  0  0  0  0  0  0  0
    1.2976   -5.4871    1.0566 H   0  0  0  0  0  0  0  0  0  0  0  0
    0.0755   -1.6529   -0.0105 N   0  0  0  0  0  0  0  0  0  0  0  0
    0.1113   -0.2132   -0.0391 C   0  0  2  0  0  0  0  0  0  0  0  0
    1.5768    0.2085   -0.0515 C   0  0  0  0  0  0  0  0  0  0  0  0
    2.4155   -0.2647    0.7126 O   0  0  0  0  0  0  0  0  0  0  0  0
   -0.6135    0.4049    1.1608 C   0  0  0  0  0  0  0  0  0  0  0  0
   -2.1248    0.1479    1.1261 C   0  0  0  0  0  0  0  0  0  0  0  0
   -2.8411    0.7653    2.3227 C   0  0  0  0  0  0  0  0  0  0  0  0
   -4.2775    0.4983    2.2982 N   0  3  0  0  0  0  0  0  0  0  0  0
   -5.1319    0.9110    3.3222 C   0  0  0  0  0  0  0  0  0  0  0  0
   -6.4894    0.6216    3.2321 N   0  0  0  0  0  0  0  0  0  0  0  0
   -4.6588    1.6052    4.4309 N   0  0  0  0  0  0  0  0  0  0  0  0
   -0.7323   -2.1024    0.4149 H   0  0  0  0  0  0  0  0  0  0  0  0
   -0.3580    0.0975   -0.9795 H   0  0  0  0  0  0  0  0  0  0  0  0
   -0.4299    1.4858    1.1810 H   0  0  0  0  0  0  0  0  0  0  0  0
   -0.1971    0.0027    2.0939 H   0  0  0  0  0  0  0  0  0  0  0  0
   -2.5454    0.5536    0.1981 H   0  0  0  0  0  0  0  0  0  0  0  0
   -2.3146   -0.9316    1.1276 H   0  0  0  0  0  0  0  0  0  0  0  0
   -2.4468    0.3366    3.2491 H   0  0  0  0  0  0  0  0  0  0  0  0
   -2.6973    1.8498    2.3476 H   0  0  0  0  0  0  0  0  0  0  0  0
   -4.6821   -0.0062    1.5114 H   0  0  0  0  0  0  0  0  0  0  0  0
   -7.1387    0.9082    3.9608 H   0  0  0  0  0  0  0  0  0  0  0  0
   -6.8686    0.1156    2.4354 H   0  0  0  0  0  0  0  0  0  0  0  0
   -5.2767    1.9079    5.1793 H   0  0  0  0  0  0  0  0  0  0  0  0
   -3.6711    1.8304    4.5240 H   0  0  0  0  0  0  0  0  0  0  0  0
    1.8248    1.2085   -0.9815 N   0  0  0  0  0  0  0  0  0  0  0  0
    3.1244    1.8152   -1.1560 C   0  0  2  0  0  0  0  0  0  0  0  0
    2.9145    3.2670   -1.5656 C   0  0  0  0  0  0  0  0  0  0  0  0
    1.9757    3.6369   -2.2676 O   0  0  0  0  0  0  0  0  0  0  0  0
    3.9474    1.0706   -2.1957 C   0  0  0  0  0  0  0  0  0  0  0  0
    1.0754    1.5160   -1.5943 H   0  0  0  0  0  0  0  0  0  0  0  0
    3.6239    1.7785   -0.1818 H   0  0  0  0  0  0  0  0  0  0  0  0
    3.4627    1.0965   -3.1784 H   0  0  0  0  0  0  0  0  0  0  0  0
    4.9424    1.5144   -2.3061 H   0  0  0  0  0  0  0  0  0  0  0  0
    4.0722    0.0194   -1.9142 H   0  0  0  0  0  0  0  0  0  0  0  0
    3.9227    4.0942   -1.0907 N   0  0  0  0  0  0  0  0  0  0  0  0
    3.9722    5.5082   -1.3805 C   0  0  0  0  0  0  0  0  0  0  0  0
    4.6397    3.7096   -0.4826 H   0  0  0  0  0  0  0  0  0  0  0  0
    4.5829    5.6776   -2.2796 H   0  0  0  0  0  0  0  0  0  0  0  0
    2.9526    5.8827   -1.5541 H   0  0  0  0  0  0  0  0  0  0  0  0
    4.4186    6.0416   -0.5283 H   0  0  0  0  0  0  0  0  0  0  0  0
  1  3  1  0  0  0  0
  1  7  1  0  0  0  0
  1  2  2  0  0  0  0
 42 43  1  0  0  0  0
 43 51  1  0  0  0  0
 43 44  2  0  0  0  0
  8  9  1  0  0  0  0
  9 17  1  0  0  0  0
  9 10  2  0  0  0  0
 18 19  1  0  0  0  0
 19 41  1  0  0  0  0
 19 20  2  0  0  0  0
 25 26  1  0  0  0  0
 25 27  1  0  0  0  0
 24 25  2  0  0  0  0
 42 45  1  0  0  0  0
  8 11  1  0  0  0  0
 51 52  1  0  0  0  0
 21 22  1  0  0  0  0
 22 23  1  0  0  0  0
 18 21  1  0  0  0  0
 23 24  1  0  0  0  0
 41 42  1  0  0  0  0
  7  8  1  0  0  0  0
 17 18  1  0  0  0  0
  3  4  1  0  0  0  0
  3  5  1  0  0  0  0
  3  6  1  0  0  0  0
 45 48  1  0  0  0  0
 45 49  1  0  0  0  0
 45 50  1  0  0  0  0
 11 14  1  0  0  0  0
 11 15  1  0  0  0  0
 11 16  1  0  0  0  0
 52 54  1  0  0  0  0
 52 55  1  0  0  0  0
 52 56  1  0  0  0  0
 22 32  1  0  0  0  0
 22 33  1  0  0  0  0
 21 30  1  0  0  0  0
 21 31  1  0  0  0  0
 23 34  1  0  0  0  0
 23 35  1  0  0  0  0
 42 47  1  0  0  0  0
  8 13  1  0  0  0  0
 18 29  1  0  0  0  0
 26 37  1  0  0  0  0
 26 38  1  0  0  0  0
 27 39  1  0  0  0  0
 27 40  1  0  0  0  0
 51 53  1  0  0  0  0
  7 12  1  0  0  0  0
 41 46  1  0  0  0  0
 17 28  1  0  0  0  0
 24 36  1  0  0  0  0
M  CHG  1  24   1
M  END
$$$$

  -OEChem-05262214473D

 56 55  0     1  0  0  0  0  0999 V2000
    0.7735   -5.8042   -2.0022 C   0  0  0  0  0  0  0  0  0  0  0  0
   -0.2086   -6.3825   -1.5519 O   0  0  0  0  0  0  0  0  0  0  0  0
    1.4751   -6.3646   -3.1946 C   0  0  0  0  0  0  0  0  0  0  0  0
    2.2765   -7.0687   -2.9186 H   0  0  0  0  0  0  0  0  0  0  0  0
    0.7988   -6.9360   -3.8504 H   0  0  0  0  0  0  0  0  0  0  0  0
    1.9556   -5.6216   -3.8511 H   0  0  0  0  0  0  0  0  0  0  0  0
    1.3322   -4.6359   -1.5106 N   0  0  0  0  0  0  0  0  0  0  0  0
    0.8124   -3.9290   -0.3698 C   0  0  2  0  0  0  0  0  0  0  0  0
    1.0666   -2.4424   -0.5818 C   0  0  0  0  0  0  0  0  0  0  0  0
    2.0598   -2.0076   -1.1610 O   0  0  0  0  0  0  0  0  0  0  0  0
    1.4560   -4.4118    0.9207 C   0  0  0  0  0  0  0  0  0  0  0  0
    2.1528   -4.2578   -1.9805 H   0  0  0  0  0  0  0  0  0  0  0  0
   -0.2667   -4.1160   -0.3467 H   0  0  0  0  0  0  0  0  0  0  0  0
    2.5374   -4.2329    0.9160 H   0  0  0  0  0  0  0  0  0  0  0  0
    1.0390   -3.8932    1.7903 H   0  0  0  0  0  0  0  0  0  0  0  0
    1.2976   -5.4871    1.0566 H   0  0  0  0  0  0  0  0  0  0  0  0
    0.0755   -1.6529   -0.0105 N   0  0  0  0  0  0  0  0  0  0  0  0
    0.1113   -0.2132   -0.0391 C   0  0  2  0  0  0  0  0  0  0  0  0
    1.5768    0.2085   -0.0515 C   0  0  0  0  0  0  0  0  0  0  0  0
    2.4625   -0.4341    0.5087 O   0  0  0  0  0  0  0  0  0  0  0  0
   -0.6135    0.4049    1.1608 C   0  0  0  0  0  0  0  0  0  0  0  0
   -2.1248    0.1479    1.1261 C   0  0  0  0  0  0  0  0  0  0  0  0
   -2.8411    0.7653    2.3227 C   0  0  0  0  0  0  0  0  0  0  0  0
   -4.2775    0.4983    2.2982 N   0  3  0  0  0  0  0  0  0  0  0  0
   -5.1319    0.9110    3.3222 C   0  0  0  0  0  0  0  0  0  0  0  0
   -6.4894    0.6216    3.2321 N   0  0  0  0  0  0  0  0  0  0  0  0
   -4.6588    1.6052    4.4309 N   0  0  0  0  0  0  0  0  0  0  0  0
   -0.7323   -2.1024    0.4149 H   0  0  0  0  0  0  0  0  0  0  0  0
   -0.3580    0.0975   -0.9795 H   0  0  0  0  0  0  0  0  0  0  0  0
   -0.4299    1.4858    1.1810 H   0  0  0  0  0  0  0  0  0  0  0  0
   -0.1971    0.0027    2.0939 H   0  0  0  0  0  0  0  0  0  0  0  0
   -2.5454    0.5536    0.1981 H   0  0  0  0  0  0  0  0  0  0  0  0
   -2.3146   -0.9316    1.1276 H   0  0  0  0  0  0  0  0  0  0  0  0
   -2.4468    0.3366    3.2491 H   0  0  0  0  0  0  0  0  0  0  0  0
   -2.6973    1.8498    2.3476 H   0  0  0  0  0  0  0  0  0  0  0  0
   -4.6821   -0.0062    1.5114 H   0  0  0  0  0  0  0  0  0  0  0  0
   -7.1387    0.9082    3.9608 H   0  0  0  0  0  0  0  0  0  0  0  0
   -6.8686    0.1156    2.4354 H   0  0  0  0  0  0  0  0  0  0  0  0
   -5.2767    1.9079    5.1793 H   0  0  0  0  0  0  0  0  0  0  0  0
   -3.6711    1.8304    4.5240 H   0  0  0  0  0  0  0  0  0  0  0  0
    1.7690    1.4101   -0.7189 N   0  0  0  0  0  0  0  0  0  0  0  0
    3.0595    2.0502   -0.8301 C   0  0  2  0  0  0  0  0  0  0  0  0
    2.8372    3.5567   -0.8496 C   0  0  0  0  0  0  0  0  0  0  0  0
    1.8549    4.0831   -1.3684 O   0  0  0  0  0  0  0  0  0  0  0  0
    3.7980    1.5935   -2.0786 C   0  0  0  0  0  0  0  0  0  0  0  0
    0.9813    1.8552   -1.1806 H   0  0  0  0  0  0  0  0  0  0  0  0
    3.6268    1.7757    0.0660 H   0  0  0  0  0  0  0  0  0  0  0  0
    3.2447    1.8597   -2.9866 H   0  0  0  0  0  0  0  0  0  0  0  0
    4.7874    2.0576   -2.1464 H   0  0  0  0  0  0  0  0  0  0  0  0
    3.9307    0.5062   -2.0770 H   0  0  0  0  0  0  0  0  0  0  0  0
    3.8858    4.2467   -0.2577 N   0  0  0  0  0  0  0  0  0  0  0  0
    3.9303    5.6887   -0.1896 C   0  0  0  0  0  0  0  0  0  0  0  0
    4.6400    3.7280    0.1826 H   0  0  0  0  0  0  0  0  0  0  0  0
    4.4772    6.0807   -1.0598 H   0  0  0  0  0  0  0  0  0  0  0  0
    2.9052    6.0876   -0.1909 H   0  0  0  0  0  0  0  0  0  0  0  0
    4.4423    5.9964    0.7341 H   0  0  0  0  0  0  0  0  0  0  0  0
  1  3  1  0  0  0  0
  1  7  1  0  0  0  0
  1  2  2  0  0  0  0
 42 43  1  0  0  0  0
 43 51  1  0  0  0  0
 43 44  2  0  0  0  0
  8  9  1  0  0  0  0
  9 17  1  0  0  0  0
  9 10  2  0  0  0  0
 18 19  1  0  0  0  0
 19 41  1  0  0  0  0
 19 20  2  0  0  0  0
 25 26  1  0  0  0  0
 25 27  1  0  0  0  0
 24 25  2  0  0  0  0
 42 45  1  0  0  0  0
  8 11  1  0  0  0  0
 51 52  1  0  0  0  0
 21 22  1  0  0  0  0
 22 23  1  0  0  0  0
 18 21  1  0  0  0  0
 23 24  1  0  0  0  0
 41 42  1  0  0  0  0
  7  8  1  0  0  0  0
 17 18  1  0  0  0  0
  3  4  1  0  0  0  0
  3  5  1  0  0  0  0
  3  6  1  0  0  0  0
 45 48  1  0  0  0  0
 45 49  1  0  0  0  0
 45 50  1  0  0  0  0
 11 14  1  0  0  0  0
 11 15  1  0  0  0  0
 11 16  1  0  0  0  0
 52 54  1  0  0  0  0
 52 55  1  0  0  0  0
 52 56  1  0  0  0  0
 22 32  1  0  0  0  0
 22 33  1  0  0  0  0
 21 30  1  0  0  0  0
 21 31  1  0  0  0  0
 23 34  1  0  0  0  0
 23 35  1  0  0  0  0
 42 47  1  0  0  0  0
  8 13  1  0  0  0  0
 18 29  1  0  0  0  0
 26 37  1  0  0  0  0
 26 38  1  0  0  0  0
 27 39  1  0  0  0  0
 27 40  1  0  0  0  0
 51 53  1  0  0  0  0
  7 12  1  0  0  0  0
 41 46  1  0  0  0  0
 17 28  1  0  0  0  0
 24 36  1  0  0  0  0
M  CHG  1  24   1
M  END
$$$$

  -OEChem-05262214473D

 56 55  0     1  0  0  0  0  0999 V2000
    0.7735   -5.8042   -2.0022 C   0  0  0  0  0  0  0  0  0  0  0  0
   -0.2086   -6.3825   -1.5519 O   0  0  0  0  0  0  0  0  0  0  0  0
    1.4751   -6.3646   -3.1946 C   0  0  0  0  0  0  0  0  0  0  0  0
    2.2765   -7.0687   -2.9186 H   0  0  0  0  0  0  0  0  0  0  0  0
    0.7988   -6.9360   -3.8504 H   0  0  0  0  0  0  0  0  0  0  0  0
    1.9556   -5.6216   -3.8511 H   0  0  0  0  0  0  0  0  0  0  0  0
    1.3322   -4.6359   -1.5106 N   0  0  0  0  0  0  0  0  0  0  0  0
    0.8124   -3.9290   -0.3698 C   0  0  2  0  0  0  0  0  0  0  0  0
    1.0666   -2.4424   -0.5818 C   0  0  0  0  0  0  0  0  0  0  0  0
    2.0598   -2.0076   -1.1610 O   0  0  0  0  0  0  0  0  0  0  0  0
    1.4560   -4.4118    0.9207 C   0  0  0  0  0  0  0  0  0  0  0  0
    2.1528   -4.2578   -1.9805 H   0  0  0  0  0  0  0  0  0  0  0  0
   -0.2667   -4.1160   -0.3467 H   0  0  0  0  0  0  0  0  0  0  0  0
    2.5374   -4.2329    0.9160 H   0  0  0  0  0  0  0  0  0  0  0  0
    1.0390   -3.8932    1.7903 H   0  0  0  0  0  0  0  0  0  0  0  0
    1.2976   -5.4871    1.0566 H   0  0  0  0  0  0  0  0  0  0  0  0
    0.0755   -1.6529   -0.0105 N   0  0  0  0  0  0  0  0  0  0  0  0
    0.1113   -0.2132   -0.0391 C   0  0  2  0  0  0  0  0  0  0  0  0
    1.5768    0.2085   -0.0515 C   0  0  0  0  0  0  0  0  0  0  0  0
    2.4930   -0.5471    0.2662 O   0  0  0  0  0  0  0  0  0  0  0  0
   -0.6135    0.4049    1.1608 C   0  0  0  0  0  0  0  0  0  0  0  0
   -2.1248    0.1479    1.1261 C   0  0  0  0  0  0  0  0  0  0  0  0
   -2.8411    0.7653    2.3227 C   0  0  0  0  0  0  0  0  0  0  0  0
   -4.2775    0.4983    2.2982 N   0  3  0  0  0  0  0  0  0  0  0  0
   -5.1319    0.9110    3.3222 C   0  0  0  0  0  0  0  0  0  0  0  0
   -6.4894    0.6216    3.2321 N   0  0  0  0  0  0  0  0  0  0  0  0
   -4.6588    1.6052    4.4309 N   0  0  0  0  0  0  0  0  0  0  0  0
   -0.7323   -2.1024    0.4149 H   0  0  0  0  0  0  0  0  0  0  0  0
   -0.3580    0.0975   -0.9795 H   0  0  0  0  0  0  0  0  0  0  0  0
   -0.4299    1.4858    1.1810 H   0  0  0  0  0  0  0  0  0  0  0  0
   -0.1971    0.0027    2.0939 H   0  0  0  0  0  0  0  0  0  0  0  0
   -2.5454    0.5536    0.1981 H   0  0  0  0  0  0  0  0  0  0  0  0
   -2.3146   -0.9316    1.1276 H   0  0  0  0  0  0  0  0  0  0  0  0
   -2.4468    0.3366    3.2491 H   0  0  0  0  0  0  0  0  0  0  0  0
   -2.6973    1.8498    2.3476 H   0  0  0  0  0  0  0  0  0  0  0  0
   -4.6821   -0.0062    1.5114 H   0  0  0  0  0  0  0  0  0  0  0  0
   -7.1387    0.9082    3.9608 H   0  0  0  0  0  0  0  0  0  0  0  0
   -6.8686    0.1156    2.4354 H   0  0  0  0  0  0  0  0  0  0  0  0
   -5.2767    1.9079    5.1793 H   0  0  0  0  0  0  0  0  0  0  0  0
   -3.6711    1.8304    4.5240 H   0  0  0  0  0  0  0  0  0  0  0  0
    1.7343    1.5397   -0.4112 N   0  0  0  0  0  0  0  0  0  0  0  0
    3.0207    2.1962   -0.4521 C   0  0  2  0  0  0  0  0  0  0  0  0
    2.8143    3.6587   -0.0805 C   0  0  0  0  0  0  0  0  0  0  0  0
    1.8035    4.2907   -0.3801 O   0  0  0  0  0  0  0  0  0  0  0  0
    3.6631    2.0696   -1.8247 C   0  0  0  0  0  0  0  0  0  0  0  0
    0.9207    2.0802   -0.6899 H   0  0  0  0  0  0  0  0  0  0  0  0
    3.6473    1.7114    0.3044 H   0  0  0  0  0  0  0  0  0  0  0  0
    3.0495    2.5495   -2.5959 H   0  0  0  0  0  0  0  0  0  0  0  0
    4.6503    2.5429   -1.8459 H   0  0  0  0  0  0  0  0  0  0  0  0
    3.7835    1.0171   -2.1031 H   0  0  0  0  0  0  0  0  0  0  0  0
    3.9101    4.1870    0.5875 N   0  0  0  0  0  0  0  0  0  0  0  0
    3.9755    5.5670    1.0087 C   0  0  0  0  0  0  0  0  0  0  0  0
    4.6880    3.5803    0.8296 H   0  0  0  0  0  0  0  0  0  0  0  0
    4.4633    6.1670    0.2263 H   0  0  0  0  0  0  0  0  0  0  0  0
    2.9574    5.9465    1.1802 H   0  0  0  0  0  0  0  0  0  0  0  0
    4.5554    5.6387    1.9406 H   0  0  0  0  0  0  0  0  0  0  0  0
  1  3  1  0  0  0  0
  1  7  1  0  0  0  0
  1  2  2  0  0  0  0
 42 43  1  0  0  0  0
 43 51  1  0  0  0  0
 43 44  2  0  0  0  0
  8  9  1  0  0  0  0
  9 17  1  0  0  0  0
  9 10  2  0  0  0  0
 18 19  1  0  0  0  0
 19 41  1  0  0  0  0
 19 20  2  0  0  0  0
 25 26  1  0  0  0  0
 25 27  1  0  0  0  0
 24 25  2  0  0  0  0
 42 45  1  0  0  0  0
  8 11  1  0  0  0  0
 51 52  1  0  0  0  0
 21 22  1  0  0  0  0
 22 23  1  0  0  0  0
 18 21  1  0  0  0  0
 23 24  1  0  0  0  0
 41 42  1  0  0  0  0
  7  8  1  0  0  0  0
 17 18  1  0  0  0  0
  3  4  1  0  0  0  0
  3  5  1  0  0  0  0
  3  6  1  0  0  0  0
 45 48  1  0  0  0  0
 45 49  1  0  0  0  0
 45 50  1  0  0  0  0
 11 14  1  0  0  0  0
 11 15  1  0  0  0  0
 11 16  1  0  0  0  0
 52 54  1  0  0  0  0
 52 55  1  0  0  0  0
 52 56  1  0  0  0  0
 22 32  1  0  0  0  0
 22 33  1  0  0  0  0
 21 30  1  0  0  0  0
 21 31  1  0  0  0  0
 23 34  1  0  0  0  0
 23 35  1  0  0  0  0
 42 47  1  0  0  0  0
  8 13  1  0  0  0  0
 18 29  1  0  0  0  0
 26 37  1  0  0  0  0
 26 38  1  0  0  0  0
 27 39  1  0  0  0  0
 27 40  1  0  0  0  0
 51 53  1  0  0  0  0
  7 12  1  0  0  0  0
 41 46  1  0  0  0  0
 17 28  1  0  0  0  0
 24 36  1  0  0  0  0
M  CHG  1  24   1
M  END
$$$$

  -OEChem-05262214473D

 56 55  0     1  0  0  0  0  0999 V2000
    0.7735   -5.8042   -2.0022 C   0  0  0  0  0  0  0  0  0  0  0  0
   -0.2086   -6.3825   -1.5519 O   0  0  0  0  0  0  0  0  0  0  0  0
    1.4751   -6.3646   -3.1946 C   0  0  0  0  0  0  0  0  0  0  0  0
    2.2765   -7.0687   -2.9186 H   0  0  0  0  0  0  0  0  0  0  0  0
    0.7988   -6.9360   -3.8504 H   0  0  0  0  0  0  0  0  0  0  0  0
    1.9556   -5.6216   -3.8511 H   0  0  0  0  0  0  0  0  0  0  0  0
    1.3322   -4.6359   -1.5106 N   0  0  0  0  0  0  0  0  0  0  0  0
    0.8124   -3.9290   -0.3698 C   0  0  2  0  0  0  0  0  0  0  0  0
    1.0666   -2.4424   -0.5818 C   0  0  0  0  0  0  0  0  0  0  0  0
    2.0598   -2.0076   -1.1610 O   0  0  0  0  0  0  0  0  0  0  0  0
    1.4560   -4.4118    0.9207 C   0  0  0  0  0  0  0  0  0  0  0  0
    2.1528   -4.2578   -1.9805 H   0  0  0  0  0  0  0  0  0  0  0  0
   -0.2667   -4.1160   -0.3467 H   0  0  0  0  0  0  0  0  0  0  0  0
    2.5374   -4.2329    0.9160 H   0  0  0  0  0  0  0  0  0  0  0  0
    1.0390   -3.8932    1.7903 H   0  0  0  0  0  0  0  0  0  0  0  0
    1.2976   -5.4871    1.0566 H   0  0  0  0  0  0  0  0  0  0  0  0
    0.0755   -1.6529   -0.0105 N   0  0  0  0  0  0  0  0  0  0  0  0
    0.1113   -0.2132   -0.0391 C   0  0  2  0  0  0  0  0  0  0  0  0
    1.5262    0.2023   -0.4278 C   0  0  0  0  0  0  0  0  0  0  0  0
    2.4316   -0.6066   -0.6211 O   0  0  0  0  0  0  0  0  0  0  0  0
   -0.2747    0.3994    1.3110 C   0  0  0  0  0  0  0  0  0  0  0  0
   -1.7451    0.1492    1.6670 C   0  0  0  0  0  0  0  0  0  0  0  0
   -2.1238    0.7611    3.0117 C   0  0  0  0  0  0  0  0  0  0  0  0
   -3.5192    0.5005    3.3581 N   0  3  0  0  0  0  0  0  0  0  0  0
   -4.0771    0.9095    4.5707 C   0  0  0  0  0  0  0  0  0  0  0  0
   -5.4134    0.6267    4.8331 N   0  0  0  0  0  0  0  0  0  0  0  0
   -3.3291    1.5938    5.5232 N   0  0  0  0  0  0  0  0  0  0  0  0
   -0.7323   -2.1024    0.4149 H   0  0  0  0  0  0  0  0  0  0  0  0
   -0.5834    0.1062   -0.8243 H   0  0  0  0  0  0  0  0  0  0  0  0
   -0.0857    1.4794    1.2893 H   0  0  0  0  0  0  0  0  0  0  0  0
    0.3665   -0.0111    2.1023 H   0  0  0  0  0  0  0  0  0  0  0  0
   -2.3889    0.5633    0.8818 H   0  0  0  0  0  0  0  0  0  0  0  0
   -1.9345   -0.9295    1.7113 H   0  0  0  0  0  0  0  0  0  0  0  0
   -1.5058    0.3241    3.8021 H   0  0  0  0  0  0  0  0  0  0  0  0
   -1.9719    1.8448    3.0048 H   0  0  0  0  0  0  0  0  0  0  0  0
   -4.1166    0.0034    2.6999 H   0  0  0  0  0  0  0  0  0  0  0  0
   -5.8504    0.9109    5.7066 H   0  0  0  0  0  0  0  0  0  0  0  0
   -5.9889    0.1280    4.1588 H   0  0  0  0  0  0  0  0  0  0  0  0
   -3.7306    1.8938    6.4077 H   0  0  0  0  0  0  0  0  0  0  0  0
   -2.3496    1.8141    5.3589 H   0  0  0  0  0  0  0  0  0  0  0  0
    1.6686    1.5817   -0.4845 N   0  0  0  0  0  0  0  0  0  0  0  0
    2.9242    2.2309   -0.7835 C   0  0  2  0  0  0  0  0  0  0  0  0
    2.9655    3.5488   -0.0214 C   0  0  0  0  0  0  0  0  0  0  0  0
    1.9664    4.2333    0.1894 O   0  0  0  0  0  0  0  0  0  0  0  0
    3.0856    2.4619   -2.2780 C   0  0  0  0  0  0  0  0  0  0  0  0
    0.8552    2.1729   -0.3413 H   0  0  0  0  0  0  0  0  0  0  0  0
    3.7172    1.5706   -0.4156 H   0  0  0  0  0  0  0  0  0  0  0  0
    2.3000    3.1212   -2.6647 H   0  0  0  0  0  0  0  0  0  0  0  0
    4.0499    2.9280   -2.5055 H   0  0  0  0  0  0  0  0  0  0  0  0
    3.0259    1.5161   -2.8272 H   0  0  0  0  0  0  0  0  0  0  0  0
    4.2556    3.8921    0.3581 N   0  0  0  0  0  0  0  0  0  0  0  0
    4.5625    5.1185    1.0565 C   0  0  0  0  0  0  0  0  0  0  0  0
    5.0182    3.2460    0.1772 H   0  0  0  0  0  0  0  0  0  0  0  0
    4.8238    5.9003    0.3281 H   0  0  0  0  0  0  0  0  0  0  0  0
    3.6857    5.4381    1.6386 H   0  0  0  0  0  0  0  0  0  0  0  0
    5.4120    4.9511    1.7350 H   0  0  0  0  0  0  0  0  0  0  0  0
  1  3  1  0  0  0  0
  1  7  1  0  0  0  0
  1  2  2  0  0  0  0
 42 43  1  0  0  0  0
 43 51  1  0  0  0  0
 43 44  2  0  0  0  0
  8  9  1  0  0  0  0
  9 17  1  0  0  0  0
  9 10  2  0  0  0  0
 18 19  1  0  0  0  0
 19 41  1  0  0  0  0
 19 20  2  0  0  0  0
 25 26  1  0  0  0  0
 25 27  1  0  0  0  0
 24 25  2  0  0  0  0
 42 45  1  0  0  0  0
  8 11  1  0  0  0  0
 51 52  1  0  0  0  0
 21 22  1  0  0  0  0
 22 23  1  0  0  0  0
 18 21  1  0  0  0  0
 23 24  1  0  0  0  0
 41 42  1  0  0  0  0
  7  8  1  0  0  0  0
 17 18  1  0  0  0  0
  3  4  1  0  0  0  0
  3  5  1  0  0  0  0
  3  6  1  0  0  0  0
 45 48  1  0  0  0  0
 45 49  1  0  0  0  0
 45 50  1  0  0  0  0
 11 14  1  0  0  0  0
 11 15  1  0  0  0  0
 11 16  1  0  0  0  0
 52 54  1  0  0  0  0
 52 55  1  0  0  0  0
 52 56  1  0  0  0  0
 22 32  1  0  0  0  0
 22 33  1  0  0  0  0
 21 30  1  0  0  0  0
 21 31  1  0  0  0  0
 23 34  1  0  0  0  0
 23 35  1  0  0  0  0
 42 47  1  0  0  0  0
  8 13  1  0  0  0  0
 18 29  1  0  0  0  0
 26 37  1  0  0  0  0
 26 38  1  0  0  0  0
 27 39  1  0  0  0  0
 27 40  1  0  0  0  0
 51 53  1  0  0  0  0
  7 12  1  0  0  0  0
 41 46  1  0  0  0  0
 17 28  1  0  0  0  0
 24 36  1  0  0  0  0
M  CHG  1  24   1
M  END
$$$$

  -OEChem-05262214473D

 56 55  0     1  0  0  0  0  0999 V2000
    0.7735   -5.8042   -2.0022 C   0  0  0  0  0  0  0  0  0  0  0  0
   -0.2086   -6.3825   -1.5519 O   0  0  0  0  0  0  0  0  0  0  0  0
    1.4751   -6.3646   -3.1946 C   0  0  0  0  0  0  0  0  0  0  0  0
    2.2765   -7.0687   -2.9186 H   0  0  0  0  0  0  0  0  0  0  0  0
    0.7988   -6.9360   -3.8504 H   0  0  0  0  0  0  0  0  0  0  0  0
    1.9556   -5.6216   -3.8511 H   0  0  0  0  0  0  0  0  0  0  0  0
    1.3322   -4.6359   -1.5106 N   0  0  0  0  0  0  0  0  0  0  0  0
    0.8124   -3.9290   -0.3698 C   0  0  2  0  0  0  0  0  0  0  0  0
    1.0666   -2.4424   -0.5818 C   0  0  0  0  0  0  0  0  0  0  0  0
    2.0598   -2.0076   -1.1610 O   0  0  0  0  0  0  0  0  0  0  0  0
    1.4560   -4.4118    0.9207 C   0  0  0  0  0  0  0  0  0  0  0  0
    2.1528   -4.2578   -1.9805 H   0  0  0  0  0  0  0  0  0  0  0  0
   -0.2667   -4.1160   -0.3467 H   0  0  0  0  0  0  0  0  0  0  0  0
    2.5374   -4.2329    0.9160 H   0  0  0  0  0  0  0  0  0  0  0  0
    1.0390   -3.8932    1.7903 H   0  0  0  0  0  0  0  0  0  0  0  0
    1.2976   -5.4871    1.0566 H   0  0  0  0  0  0  0  0  0  0  0  0
    0.0755   -1.6529   -0.0105 N   0  0  0  0  0  0  0  0  0  0  0  0
    0.1113   -0.2132   -0.0391 C   0  0  2  0  0  0  0  0  0  0  0  0
    1.5262    0.2023   -0.4278 C   0  0  0  0  0  0  0  0  0  0  0  0
    2.3549   -0.5861   -0.8784 O   0  0  0  0  0  0  0  0  0  0  0  0
   -0.2747    0.3994    1.3110 C   0  0  0  0  0  0  0  0  0  0  0  0
   -1.7451    0.1492    1.6670 C   0  0  0  0  0  0  0  0  0  0  0  0
   -2.1238    0.7611    3.0117 C   0  0  0  0  0  0  0  0  0  0  0  0
   -3.5192    0.5005    3.3581 N   0  3  0  0  0  0  0  0  0  0  0  0
   -4.0771    0.9095    4.5707 C   0  0  0  0  0  0  0  0  0  0  0  0
   -5.4134    0.6267    4.8331 N   0  0  0  0  0  0  0  0  0  0  0  0
   -3.3291    1.5938    5.5232 N   0  0  0  0  0  0  0  0  0  0  0  0
   -0.7323   -2.1024    0.4149 H   0  0  0  0  0  0  0  0  0  0  0  0
   -0.5834    0.1062   -0.8243 H   0  0  0  0  0  0  0  0  0  0  0  0
   -0.0857    1.4794    1.2893 H   0  0  0  0  0  0  0  0  0  0  0  0
    0.3665   -0.0111    2.1023 H   0  0  0  0  0  0  0  0  0  0  0  0
   -2.3889    0.5633    0.8818 H   0  0  0  0  0  0  0  0  0  0  0  0
   -1.9345   -0.9295    1.7113 H   0  0  0  0  0  0  0  0  0  0  0  0
   -1.5058    0.3241    3.8021 H   0  0  0  0  0  0  0  0  0  0  0  0
   -1.9719    1.8448    3.0048 H   0  0  0  0  0  0  0  0  0  0  0  0
   -4.1166    0.0034    2.6999 H   0  0  0  0  0  0  0  0  0  0  0  0
   -5.8504    0.9109    5.7066 H   0  0  0  0  0  0  0  0  0  0  0  0
   -5.9889    0.1280    4.1588 H   0  0  0  0  0  0  0  0  0  0  0  0
   -3.7306    1.8938    6.4077 H   0  0  0  0  0  0  0  0  0  0  0  0
   -2.3496    1.8141    5.3589 H   0  0  0  0  0  0  0  0  0  0  0  0
    1.7673    1.5438   -0.1659 N   0  0  0  0  0  0  0  0  0  0  0  0
    3.0467    2.1730   -0.3997 C   0  0  2  0  0  0  0  0  0  0  0  0
    3.2336    3.2622    0.6483 C   0  0  0  0  0  0  0  0  0  0  0  0
    2.3035    3.9312    1.0936 O   0  0  0  0  0  0  0  0  0  0  0  0
    3.1311    2.7499   -1.8043 C   0  0  0  0  0  0  0  0  0  0  0  0
    1.0107    2.1283    0.1772 H   0  0  0  0  0  0  0  0  0  0  0  0
    3.8096    1.3988   -0.2628 H   0  0  0  0  0  0  0  0  0  0  0  0
    2.3743    3.5272   -1.9602 H   0  0  0  0  0  0  0  0  0  0  0  0
    4.1115    3.2011   -1.9896 H   0  0  0  0  0  0  0  0  0  0  0  0
    2.9669    1.9705   -2.5562 H   0  0  0  0  0  0  0  0  0  0  0  0
    4.5669    3.4286    0.9959 N   0  0  0  0  0  0  0  0  0  0  0  0
    5.0075    4.4293    1.9395 C   0  0  0  0  0  0  0  0  0  0  0  0
    5.2664    2.8030    0.6072 H   0  0  0  0  0  0  0  0  0  0  0  0
    5.2803    5.3481    1.3997 H   0  0  0  0  0  0  0  0  0  0  0  0
    4.1950    4.6480    2.6480 H   0  0  0  0  0  0  0  0  0  0  0  0
    5.8828    4.0540    2.4899 H   0  0  0  0  0  0  0  0  0  0  0  0
  1  3  1  0  0  0  0
  1  7  1  0  0  0  0
  1  2  2  0  0  0  0
 42 43  1  0  0  0  0
 43 51  1  0  0  0  0
 43 44  2  0  0  0  0
  8  9  1  0  0  0  0
  9 17  1  0  0  0  0
  9 10  2  0  0  0  0
 18 19  1  0  0  0  0
 19 41  1  0  0  0  0
 19 20  2  0  0  0  0
 25 26  1  0  0  0  0
 25 27  1  0  0  0  0
 24 25  2  0  0  0  0
 42 45  1  0  0  0  0
  8 11  1  0  0  0  0
 51 52  1  0  0  0  0
 21 22  1  0  0  0  0
 22 23  1  0  0  0  0
 18 21  1  0  0  0  0
 23 24  1  0  0  0  0
 41 42  1  0  0  0  0
  7  8  1  0  0  0  0
 17 18  1  0  0  0  0
  3  4  1  0  0  0  0
  3  5  1  0  0  0  0
  3  6  1  0  0  0  0
 45 48  1  0  0  0  0
 45 49  1  0  0  0  0
 45 50  1  0  0  0  0
 11 14  1  0  0  0  0
 11 15  1  0  0  0  0
 11 16  1  0  0  0  0
 52 54  1  0  0  0  0
 52 55  1  0  0  0  0
 52 56  1  0  0  0  0
 22 32  1  0  0  0  0
 22 33  1  0  0  0  0
 21 30  1  0  0  0  0
 21 31  1  0  0  0  0
 23 34  1  0  0  0  0
 23 35  1  0  0  0  0
 42 47  1  0  0  0  0
  8 13  1  0  0  0  0
 18 29  1  0  0  0  0
 26 37  1  0  0  0  0
 26 38  1  0  0  0  0
 27 39  1  0  0  0  0
 27 40  1  0  0  0  0
 51 53  1  0  0  0  0
  7 12  1  0  0  0  0
 41 46  1  0  0  0  0
 17 28  1  0  0  0  0
 24 36  1  0  0  0  0
M  CHG  1  24   1
M  END
$$$$

  -OEChem-05262214473D

 56 55  0     1  0  0  0  0  0999 V2000
    0.7735   -5.8042   -2.0022 C   0  0  0  0  0  0  0  0  0  0  0  0
   -0.2086   -6.3825   -1.5519 O   0  0  0  0  0  0  0  0  0  0  0  0
    1.4751   -6.3646   -3.1946 C   0  0  0  0  0  0  0  0  0  0  0  0
    2.2765   -7.0687   -2.9186 H   0  0  0  0  0  0  0  0  0  0  0  0
    0.7988   -6.9360   -3.8504 H   0  0  0  0  0  0  0  0  0  0  0  0
    1.9556   -5.6216   -3.8511 H   0  0  0  0  0  0  0  0  0  0  0  0
    1.3322   -4.6359   -1.5106 N   0  0  0  0  0  0  0  0  0  0  0  0
    0.8124   -3.9290   -0.3698 C   0  0  2  0  0  0  0  0  0  0  0  0
    1.0666   -2.4424   -0.5818 C   0  0  0  0  0  0  0  0  0  0  0  0
    2.0598   -2.0076   -1.1610 O   0  0  0  0  0  0  0  0  0  0  0  0
    1.4560   -4.4118    0.9207 C   0  0  0  0  0  0  0  0  0  0  0  0
    2.1528   -4.2578   -1.9805 H   0  0  0  0  0  0  0  0  0  0  0  0
   -0.2667   -4.1160   -0.3467 H   0  0  0  0  0  0  0  0  0  0  0  0
    2.5374   -4.2329    0.9160 H   0  0  0  0  0  0  0  0  0  0  0  0
    1.0390   -3.8932    1.7903 H   0  0  0  0  0  0  0  0  0  0  0  0
    1.2976   -5.4871    1.0566 H   0  0  0  0  0  0  0  0  0  0  0  0
    0.0755   -1.6529   -0.0105 N   0  0  0  0  0  0  0  0  0  0  0  0
    0.1113   -0.2132   -0.0391 C   0  0  2  0  0  0  0  0  0  0  0  0
    1.5262    0.2023   -0.4278 C   0  0  0  0  0  0  0  0  0  0  0  0
    2.2640   -0.4995   -1.1166 O   0  0  0  0  0  0  0  0  0  0  0  0
   -0.2747    0.3994    1.3110 C   0  0  0  0  0  0  0  0  0  0  0  0
   -1.7451    0.1492    1.6670 C   0  0  0  0  0  0  0  0  0  0  0  0
   -2.1238    0.7611    3.0117 C   0  0  0  0  0  0  0  0  0  0  0  0
   -3.5192    0.5005    3.3581 N   0  3  0  0  0  0  0  0  0  0  0  0
   -4.0771    0.9095    4.5707 C   0  0  0  0  0  0  0  0  0  0  0  0
   -5.4134    0.6267    4.8331 N   0  0  0  0  0  0  0  0  0  0  0  0
   -3.3291    1.5938    5.5232 N   0  0  0  0  0  0  0  0  0  0  0  0
   -0.7323   -2.1024    0.4149 H   0  0  0  0  0  0  0  0  0  0  0  0
   -0.5834    0.1062   -0.8243 H   0  0  0  0  0  0  0  0  0  0  0  0
   -0.0857    1.4794    1.2893 H   0  0  0  0  0  0  0  0  0  0  0  0
    0.3665   -0.0111    2.1023 H   0  0  0  0  0  0  0  0  0  0  0  0
   -2.3889    0.5633    0.8818 H   0  0  0  0  0  0  0  0  0  0  0  0
   -1.9345   -0.9295    1.7113 H   0  0  0  0  0  0  0  0  0  0  0  0
   -1.5058    0.3241    3.8021 H   0  0  0  0  0  0  0  0  0  0  0  0
   -1.9719    1.8448    3.0048 H   0  0  0  0  0  0  0  0  0  0  0  0
   -4.1166    0.0034    2.6999 H   0  0  0  0  0  0  0  0  0  0  0  0
   -5.8504    0.9109    5.7066 H   0  0  0  0  0  0  0  0  0  0  0  0
   -5.9889    0.1280    4.1588 H   0  0  0  0  0  0  0  0  0  0  0  0
   -3.7306    1.8938    6.4077 H   0  0  0  0  0  0  0  0  0  0  0  0
   -2.3496    1.8141    5.3589 H   0  0  0  0  0  0  0  0  0  0  0  0
    1.8825    1.4241    0.1258 N   0  0  0  0  0  0  0  0  0  0  0  0
    3.1882    2.0168   -0.0515 C   0  0  2  0  0  0  0  0  0  0  0  0
    3.5209    2.8068    1.2074 C   0  0  0  0  0  0  0  0  0  0  0  0
    2.6729    3.4001    1.8707 O   0  0  0  0  0  0  0  0  0  0  0  0
    3.2275    2.9112   -1.2808 C   0  0  0  0  0  0  0  0  0  0  0  0
    1.1946    1.9504    0.6564 H   0  0  0  0  0  0  0  0  0  0  0  0
    3.8983    1.1902   -0.1630 H   0  0  0  0  0  0  0  0  0  0  0  0
    2.5225    3.7453   -1.1874 H   0  0  0  0  0  0  0  0  0  0  0  0
    4.2253    3.3370   -1.4299 H   0  0  0  0  0  0  0  0  0  0  0  0
    2.9590    2.3482   -2.1812 H   0  0  0  0  0  0  0  0  0  0  0  0
    4.8820    2.8072    1.4788 N   0  0  0  0  0  0  0  0  0  0  0  0
    5.4541    3.5223    2.5956 C   0  0  0  0  0  0  0  0  0  0  0  0
    5.5073    2.2555    0.8988 H   0  0  0  0  0  0  0  0  0  0  0  0
    5.7604    4.5273    2.2700 H   0  0  0  0  0  0  0  0  0  0  0  0
    4.7060    3.6089    3.3974 H   0  0  0  0  0  0  0  0  0  0  0  0
    6.3316    2.9751    2.9704 H   0  0  0  0  0  0  0  0  0  0  0  0
  1  3  1  0  0  0  0
  1  7  1  0  0  0  0
  1  2  2  0  0  0  0
 42 43  1  0  0  0  0
 43 51  1  0  0  0  0
 43 44  2  0  0  0  0
  8  9  1  0  0  0  0
  9 17  1  0  0  0  0
  9 10  2  0  0  0  0
 18 19  1  0  0  0  0
 19 41  1  0  0  0  0
 19 20  2  0  0  0  0
 25 26  1  0  0  0  0
 25 27  1  0  0  0  0
 24 25  2  0  0  0  0
 42 45  1  0  0  0  0
  8 11  1  0  0  0  0
 51 52  1  0  0  0  0
 21 22  1  0  0  0  0
 22 23  1  0  0  0  0
 18 21  1  0  0  0  0
 23 24  1  0  0  0  0
 41 42  1  0  0  0  0
  7  8  1  0  0  0  0
 17 18  1  0  0  0  0
  3  4  1  0  0  0  0
  3  5  1  0  0  0  0
  3  6  1  0  0  0  0
 45 48  1  0  0  0  0
 45 49  1  0  0  0  0
 45 50  1  0  0  0  0
 11 14  1  0  0  0  0
 11 15  1  0  0  0  0
 11 16  1  0  0  0  0
 52 54  1  0  0  0  0
 52 55  1  0  0  0  0
 52 56  1  0  0  0  0
 22 32  1  0  0  0  0
 22 33  1  0  0  0  0
 21 30  1  0  0  0  0
 21 31  1  0  0  0  0
 23 34  1  0  0  0  0
 23 35  1  0  0  0  0
 42 47  1  0  0  0  0
  8 13  1  0  0  0  0
 18 29  1  0  0  0  0
 26 37  1  0  0  0  0
 26 38  1  0  0  0  0
 27 39  1  0  0  0  0
 27 40  1  0  0  0  0
 51 53  1  0  0  0  0
  7 12  1  0  0  0  0
 41 46  1  0  0  0  0
 17 28  1  0  0  0  0
 24 36  1  0  0  0  0
M  CHG  1  24   1
M  END
$$$$

  -OEChem-05262214473D

 56 55  0     1  0  0  0  0  0999 V2000
    0.7735   -5.8042   -2.0022 C   0  0  0  0  0  0  0  0  0  0  0  0
   -0.2086   -6.3825   -1.5519 O   0  0  0  0  0  0  0  0  0  0  0  0
    1.4751   -6.3646   -3.1946 C   0  0  0  0  0  0  0  0  0  0  0  0
    2.2765   -7.0687   -2.9186 H   0  0  0  0  0  0  0  0  0  0  0  0
    0.7988   -6.9360   -3.8504 H   0  0  0  0  0  0  0  0  0  0  0  0
    1.9556   -5.6216   -3.8511 H   0  0  0  0  0  0  0  0  0  0  0  0
    1.3322   -4.6359   -1.5106 N   0  0  0  0  0  0  0  0  0  0  0  0
    0.8124   -3.9290   -0.3698 C   0  0  2  0  0  0  0  0  0  0  0  0
    1.0666   -2.4424   -0.5818 C   0  0  0  0  0  0  0  0  0  0  0  0
    2.0598   -2.0076   -1.1610 O   0  0  0  0  0  0  0  0  0  0  0  0
    1.4560   -4.4118    0.9207 C   0  0  0  0  0  0  0  0  0  0  0  0
    2.1528   -4.2578   -1.9805 H   0  0  0  0  0  0  0  0  0  0  0  0
   -0.2667   -4.1160   -0.3467 H   0  0  0  0  0  0  0  0  0  0  0  0
    2.5374   -4.2329    0.9160 H   0  0  0  0  0  0  0  0  0  0  0  0
    1.0390   -3.8932    1.7903 H   0  0  0  0  0  0  0  0  0  0  0  0
    1.2976   -5.4871    1.0566 H   0  0  0  0  0  0  0  0  0  0  0  0
    0.0755   -1.6529   -0.0105 N   0  0  0  0  0  0  0  0  0  0  0  0
    0.1113   -0.2132   -0.0391 C   0  0  2  0  0  0  0  0  0  0  0  0
    1.5262    0.2023   -0.4278 C   0  0  0  0  0  0  0  0  0  0  0  0
    2.1651   -0.3526   -1.3195 O   0  0  0  0  0  0  0  0  0  0  0  0
   -0.2747    0.3994    1.3110 C   0  0  0  0  0  0  0  0  0  0  0  0
   -1.7451    0.1492    1.6670 C   0  0  0  0  0  0  0  0  0  0  0  0
   -2.1238    0.7611    3.0117 C   0  0  0  0  0  0  0  0  0  0  0  0
   -3.5192    0.5005    3.3581 N   0  3  0  0  0  0  0  0  0  0  0  0
   -4.0771    0.9095    4.5707 C   0  0  0  0  0  0  0  0  0  0  0  0
   -5.4134    0.6267    4.8331 N   0  0  0  0  0  0  0  0  0  0  0  0
   -3.3291    1.5938    5.5232 N   0  0  0  0  0  0  0  0  0  0  0  0
   -0.7323   -2.1024    0.4149 H   0  0  0  0  0  0  0  0  0  0  0  0
   -0.5834    0.1062   -0.8243 H   0  0  0  0  0  0  0  0  0  0  0  0
   -0.0857    1.4794    1.2893 H   0  0  0  0  0  0  0  0  0  0  0  0
    0.3665   -0.0111    2.1023 H   0  0  0  0  0  0  0  0  0  0  0  0
   -2.3889    0.5633    0.8818 H   0  0  0  0  0  0  0  0  0  0  0  0
   -1.9345   -0.9295    1.7113 H   0  0  0  0  0  0  0  0  0  0  0  0
   -1.5058    0.3241    3.8021 H   0  0  0  0  0  0  0  0  0  0  0  0
   -1.9719    1.8448    3.0048 H   0  0  0  0  0  0  0  0  0  0  0  0
   -4.1166    0.0034    2.6999 H   0  0  0  0  0  0  0  0  0  0  0  0
   -5.8504    0.9109    5.7066 H   0  0  0  0  0  0  0  0  0  0  0  0
   -5.9889    0.1280    4.1588 H   0  0  0  0  0  0  0  0  0  0  0  0
   -3.7306    1.8938    6.4077 H   0  0  0  0  0  0  0  0  0  0  0  0
   -2.3496    1.8141    5.3589 H   0  0  0  0  0  0  0  0  0  0  0  0
    2.0065    1.2309    0.3707 N   0  0  0  0  0  0  0  0  0  0  0  0
    3.3391    1.7730    0.2374 C   0  0  2  0  0  0  0  0  0  0  0  0
    3.8078    2.2137    1.6178 C   0  0  0  0  0  0  0  0  0  0  0  0
    3.0496    2.6761    2.4677 O   0  0  0  0  0  0  0  0  0  0  0  0
    3.3682    2.9351   -0.7432 C   0  0  0  0  0  0  0  0  0  0  0  0
    1.3943    1.6513    1.0635 H   0  0  0  0  0  0  0  0  0  0  0  0
    3.9772    0.9587   -0.1229 H   0  0  0  0  0  0  0  0  0  0  0  0
    2.7346    3.7606   -0.3991 H   0  0  0  0  0  0  0  0  0  0  0  0
    4.3837    3.3263   -0.8647 H   0  0  0  0  0  0  0  0  0  0  0  0
    3.0027    2.6236   -1.7276 H   0  0  0  0  0  0  0  0  0  0  0  0
    5.1794    2.0702    1.7737 N   0  0  0  0  0  0  0  0  0  0  0  0
    5.8719    2.4591    2.9800 C   0  0  0  0  0  0  0  0  0  0  0  0
    5.7244    1.6408    1.0319 H   0  0  0  0  0  0  0  0  0  0  0  0
    6.2313    3.4939    2.8797 H   0  0  0  0  0  0  0  0  0  0  0  0
    5.1839    2.3914    3.8356 H   0  0  0  0  0  0  0  0  0  0  0  0
    6.7279    1.7880    3.1439 H   0  0  0  0  0  0  0  0  0  0  0  0
  1  3  1  0  0  0  0
  1  7  1  0  0  0  0
  1  2  2  0  0  0  0
 42 43  1  0  0  0  0
 43 51  1  0  0  0  0
 43 44  2  0  0  0  0
  8  9  1  0  0  0  0
  9 17  1  0  0  0  0
  9 10  2  0  0  0  0
 18 19  1  0  0  0  0
 19 41  1  0  0  0  0
 19 20  2  0  0  0  0
 25 26  1  0  0  0  0
 25 27  1  0  0  0  0
 24 25  2  0  0  0  0
 42 45  1  0  0  0  0
  8 11  1  0  0  0  0
 51 52  1  0  0  0  0
 21 22  1  0  0  0  0
 22 23  1  0  0  0  0
 18 21  1  0  0  0  0
 23 24  1  0  0  0  0
 41 42  1  0  0  0  0
  7  8  1  0  0  0  0
 17 18  1  0  0  0  0
  3  4  1  0  0  0  0
  3  5  1  0  0  0  0
  3  6  1  0  0  0  0
 45 48  1  0  0  0  0
 45 49  1  0  0  0  0
 45 50  1  0  0  0  0
 11 14  1  0  0  0  0
 11 15  1  0  0  0  0
 11 16  1  0  0  0  0
 52 54  1  0  0  0  0
 52 55  1  0  0  0  0
 52 56  1  0  0  0  0
 22 32  1  0  0  0  0
 22 33  1  0  0  0  0
 21 30  1  0  0  0  0
 21 31  1  0  0  0  0
 23 34  1  0  0  0  0
 23 35  1  0  0  0  0
 42 47  1  0  0  0  0
  8 13  1  0  0  0  0
 18 29  1  0  0  0  0
 26 37  1  0  0  0  0
 26 38  1  0  0  0  0
 27 39  1  0  0  0  0
 27 40  1  0  0  0  0
 51 53  1  0  0  0  0
  7 12  1  0  0  0  0
 41 46  1  0  0  0  0
 17 28  1  0  0  0  0
 24 36  1  0  0  0  0
M  CHG  1  24   1
M  END
$$$$

  -OEChem-05262214473D

 56 55  0     1  0  0  0  0  0999 V2000
    0.7735   -5.8042   -2.0022 C   0  0  0  0  0  0  0  0  0  0  0  0
   -0.2086   -6.3825   -1.5519 O   0  0  0  0  0  0  0  0  0  0  0  0
    1.4751   -6.3646   -3.1946 C   0  0  0  0  0  0  0  0  0  0  0  0
    2.2765   -7.0687   -2.9186 H   0  0  0  0  0  0  0  0  0  0  0  0
    0.7988   -6.9360   -3.8504 H   0  0  0  0  0  0  0  0  0  0  0  0
    1.9556   -5.6216   -3.8511 H   0  0  0  0  0  0  0  0  0  0  0  0
    1.3322   -4.6359   -1.5106 N   0  0  0  0  0  0  0  0  0  0  0  0
    0.8124   -3.9290   -0.3698 C   0  0  2  0  0  0  0  0  0  0  0  0
    1.0666   -2.4424   -0.5818 C   0  0  0  0  0  0  0  0  0  0  0  0
    2.0598   -2.0076   -1.1610 O   0  0  0  0  0  0  0  0  0  0  0  0
    1.4560   -4.4118    0.9207 C   0  0  0  0  0  0  0  0  0  0  0  0
    2.1528   -4.2578   -1.9805 H   0  0  0  0  0  0  0  0  0  0  0  0
   -0.2667   -4.1160   -0.3467 H   0  0  0  0  0  0  0  0  0  0  0  0
    2.5374   -4.2329    0.9160 H   0  0  0  0  0  0  0  0  0  0  0  0
    1.0390   -3.8932    1.7903 H   0  0  0  0  0  0  0  0  0  0  0  0
    1.2976   -5.4871    1.0566 H   0  0  0  0  0  0  0  0  0  0  0  0
    0.0755   -1.6529   -0.0105 N   0  0  0  0  0  0  0  0  0  0  0  0
    0.1113   -0.2132   -0.0391 C   0  0  2  0  0  0  0  0  0  0  0  0
    1.5262    0.2023   -0.4278 C   0  0  0  0  0  0  0  0  0  0  0  0
    2.0650   -0.1555   -1.4732 O   0  0  0  0  0  0  0  0  0  0  0  0
   -0.2747    0.3994    1.3110 C   0  0  0  0  0  0  0  0  0  0  0  0
   -1.7451    0.1492    1.6670 C   0  0  0  0  0  0  0  0  0  0  0  0
   -2.1238    0.7611    3.0117 C   0  0  0  0  0  0  0  0  0  0  0  0
   -3.5192    0.5005    3.3581 N   0  3  0  0  0  0  0  0  0  0  0  0
   -4.0771    0.9095    4.5707 C   0  0  0  0  0  0  0  0  0  0  0  0
   -5.4134    0.6267    4.8331 N   0  0  0  0  0  0  0  0  0  0  0  0
   -3.3291    1.5938    5.5232 N   0  0  0  0  0  0  0  0  0  0  0  0
   -0.7323   -2.1024    0.4149 H   0  0  0  0  0  0  0  0  0  0  0  0
   -0.5834    0.1062   -0.8243 H   0  0  0  0  0  0  0  0  0  0  0  0
   -0.0857    1.4794    1.2893 H   0  0  0  0  0  0  0  0  0  0  0  0
    0.3665   -0.0111    2.1023 H   0  0  0  0  0  0  0  0  0  0  0  0
   -2.3889    0.5633    0.8818 H   0  0  0  0  0  0  0  0  0  0  0  0
   -1.9345   -0.9295    1.7113 H   0  0  0  0  0  0  0  0  0  0  0  0
   -1.5058    0.3241    3.8021 H   0  0  0  0  0  0  0  0  0  0  0  0
   -1.9719    1.8448    3.0048 H   0  0  0  0  0  0  0  0  0  0  0  0
   -4.1166    0.0034    2.6999 H   0  0  0  0  0  0  0  0  0  0  0  0
   -5.8504    0.9109    5.7066 H   0  0  0  0  0  0  0  0  0  0  0  0
   -5.9889    0.1280    4.1588 H   0  0  0  0  0  0  0  0  0  0  0  0
   -3.7306    1.8938    6.4077 H   0  0  0  0  0  0  0  0  0  0  0  0
   -2.3496    1.8141    5.3589 H   0  0  0  0  0  0  0  0  0  0  0  0
    2.1308    0.9773    0.5521 N   0  0  0  0  0  0  0  0  0  0  0  0
    3.4892    1.4582    0.4472 C   0  0  2  0  0  0  0  0  0  0  0  0
    4.0748    1.5234    1.8516 C   0  0  0  0  0  0  0  0  0  0  0  0
    3.4077    1.8085    2.8439 O   0  0  0  0  0  0  0  0  0  0  0  0
    3.5436    2.8197   -0.2281 C   0  0  0  0  0  0  0  0  0  0  0  0
    1.5961    1.2516    1.3709 H   0  0  0  0  0  0  0  0  0  0  0  0
    4.0411    0.7204   -0.1453 H   0  0  0  0  0  0  0  0  0  0  0  0
    2.9960    3.5721    0.3511 H   0  0  0  0  0  0  0  0  0  0  0  0
    4.5758    3.1699   -0.3325 H   0  0  0  0  0  0  0  0  0  0  0  0
    3.0951    2.7777   -1.2265 H   0  0  0  0  0  0  0  0  0  0  0  0
    5.4389    1.2679    1.8607 N   0  0  0  0  0  0  0  0  0  0  0  0
    6.2324    1.3123    3.0666 C   0  0  0  0  0  0  0  0  0  0  0  0
    5.9029    1.0007    0.9975 H   0  0  0  0  0  0  0  0  0  0  0  0
    6.6611    2.3181    3.1873 H   0  0  0  0  0  0  0  0  0  0  0  0
    5.5961    1.0788    3.9329 H   0  0  0  0  0  0  0  0  0  0  0  0
    7.0445    0.5735    2.9984 H   0  0  0  0  0  0  0  0  0  0  0  0
  1  3  1  0  0  0  0
  1  7  1  0  0  0  0
  1  2  2  0  0  0  0
 42 43  1  0  0  0  0
 43 51  1  0  0  0  0
 43 44  2  0  0  0  0
  8  9  1  0  0  0  0
  9 17  1  0  0  0  0
  9 10  2  0  0  0  0
 18 19  1  0  0  0  0
 19 41  1  0  0  0  0
 19 20  2  0  0  0  0
 25 26  1  0  0  0  0
 25 27  1  0  0  0  0
 24 25  2  0  0  0  0
 42 45  1  0  0  0  0
  8 11  1  0  0  0  0
 51 52  1  0  0  0  0
 21 22  1  0  0  0  0
 22 23  1  0  0  0  0
 18 21  1  0  0  0  0
 23 24  1  0  0  0  0
 41 42  1  0  0  0  0
  7  8  1  0  0  0  0
 17 18  1  0  0  0  0
  3  4  1  0  0  0  0
  3  5  1  0  0  0  0
  3  6  1  0  0  0  0
 45 48  1  0  0  0  0
 45 49  1  0  0  0  0
 45 50  1  0  0  0  0
 11 14  1  0  0  0  0
 11 15  1  0  0  0  0
 11 16  1  0  0  0  0
 52 54  1  0  0  0  0
 52 55  1  0  0  0  0
 52 56  1  0  0  0  0
 22 32  1  0  0  0  0
 22 33  1  0  0  0  0
 21 30  1  0  0  0  0
 21 31  1  0  0  0  0
 23 34  1  0  0  0  0
 23 35  1  0  0  0  0
 42 47  1  0  0  0  0
  8 13  1  0  0  0  0
 18 29  1  0  0  0  0
 26 37  1  0  0  0  0
 26 38  1  0  0  0  0
 27 39  1  0  0  0  0
 27 40  1  0  0  0  0
 51 53  1  0  0  0  0
  7 12  1  0  0  0  0
 41 46  1  0  0  0  0
 17 28  1  0  0  0  0
 24 36  1  0  0  0  0
M  CHG  1  24   1
M  END
$$$$

  -OEChem-05262214473D

 56 55  0     1  0  0  0  0  0999 V2000
    0.7735   -5.8042   -2.0022 C   0  0  0  0  0  0  0  0  0  0  0  0
   -0.2086   -6.3825   -1.5519 O   0  0  0  0  0  0  0  0  0  0  0  0
    1.4751   -6.3646   -3.1946 C   0  0  0  0  0  0  0  0  0  0  0  0
    2.2765   -7.0687   -2.9186 H   0  0  0  0  0  0  0  0  0  0  0  0
    0.7988   -6.9360   -3.8504 H   0  0  0  0  0  0  0  0  0  0  0  0
    1.9556   -5.6216   -3.8511 H   0  0  0  0  0  0  0  0  0  0  0  0
    1.3322   -4.6359   -1.5106 N   0  0  0  0  0  0  0  0  0  0  0  0
    0.8124   -3.9290   -0.3698 C   0  0  2  0  0  0  0  0  0  0  0  0
    1.0666   -2.4424   -0.5818 C   0  0  0  0  0  0  0  0  0  0  0  0
    2.0598   -2.0076   -1.1610 O   0  0  0  0  0  0  0  0  0  0  0  0
    1.4560   -4.4118    0.9207 C   0  0  0  0  0  0  0  0  0  0  0  0
    2.1528   -4.2578   -1.9805 H   0  0  0  0  0  0  0  0  0  0  0  0
   -0.2667   -4.1160   -0.3467 H   0  0  0  0  0  0  0  0  0  0  0  0
    2.5374   -4.2329    0.9160 H   0  0  0  0  0  0  0  0  0  0  0  0
    1.0390   -3.8932    1.7903 H   0  0  0  0  0  0  0  0  0  0  0  0
    1.2976   -5.4871    1.0566 H   0  0  0  0  0  0  0  0  0  0  0  0
    0.0755   -1.6529   -0.0105 N   0  0  0  0  0  0  0  0  0  0  0  0
    0.1113   -0.2132   -0.0391 C   0  0  2  0  0  0  0  0  0  0  0  0
    1.5262    0.2023   -0.4278 C   0  0  0  0  0  0  0  0  0  0  0  0
    1.9705    0.0784   -1.5673 O   0  0  0  0  0  0  0  0  0  0  0  0
   -0.2747    0.3994    1.3110 C   0  0  0  0  0  0  0  0  0  0  0  0
   -1.7451    0.1492    1.6670 C   0  0  0  0  0  0  0  0  0  0  0  0
   -2.1238    0.7611    3.0117 C   0  0  0  0  0  0  0  0  0  0  0  0
   -3.5192    0.5005    3.3581 N   0  3  0  0  0  0  0  0  0  0  0  0
   -4.0771    0.9095    4.5707 C   0  0  0  0  0  0  0  0  0  0  0  0
   -5.4134    0.6267    4.8331 N   0  0  0  0  0  0  0  0  0  0  0  0
   -3.3291    1.5938    5.5232 N   0  0  0  0  0  0  0  0  0  0  0  0
   -0.7323   -2.1024    0.4149 H   0  0  0  0  0  0  0  0  0  0  0  0
   -0.5834    0.1062   -0.8243 H   0  0  0  0  0  0  0  0  0  0  0  0
   -0.0857    1.4794    1.2893 H   0  0  0  0  0  0  0  0  0  0  0  0
    0.3665   -0.0111    2.1023 H   0  0  0  0  0  0  0  0  0  0  0  0
   -2.3889    0.5633    0.8818 H   0  0  0  0  0  0  0  0  0  0  0  0
   -1.9345   -0.9295    1.7113 H   0  0  0  0  0  0  0  0  0  0  0  0
   -1.5058    0.3241    3.8021 H   0  0  0  0  0  0  0  0  0  0  0  0
   -1.9719    1.8448    3.0048 H   0  0  0  0  0  0  0  0  0  0  0  0
   -4.1166    0.0034    2.6999 H   0  0  0  0  0  0  0  0  0  0  0  0
   -5.8504    0.9109    5.7066 H   0  0  0  0  0  0  0  0  0  0  0  0
   -5.9889    0.1280    4.1588 H   0  0  0  0  0  0  0  0  0  0  0  0
   -3.7306    1.8938    6.4077 H   0  0  0  0  0  0  0  0  0  0  0  0
   -2.3496    1.8141    5.3589 H   0  0  0  0  0  0  0  0  0  0  0  0
    2.2470    0.6805    0.6576 N   0  0  0  0  0  0  0  0  0  0  0  0
    3.6282    1.0938    0.5637 C   0  0  2  0  0  0  0  0  0  0  0  0
    4.3036    0.7828    1.8929 C   0  0  0  0  0  0  0  0  0  0  0  0
    3.7229    0.8565    2.9738 O   0  0  0  0  0  0  0  0  0  0  0  0
    3.7417    2.5730    0.2294 C   0  0  0  0  0  0  0  0  0  0  0  0
    1.7864    0.7783    1.5576 H   0  0  0  0  0  0  0  0  0  0  0  0
    4.0854    0.4913   -0.2287 H   0  0  0  0  0  0  0  0  0  0  0  0
    3.2890    3.1926    1.0121 H   0  0  0  0  0  0  0  0  0  0  0  0
    4.7886    2.8783    0.1304 H   0  0  0  0  0  0  0  0  0  0  0  0
    3.2298    2.8002   -0.7120 H   0  0  0  0  0  0  0  0  0  0  0  0
    5.6427    0.4550    1.7337 N   0  0  0  0  0  0  0  0  0  0  0  0
    6.5111    0.1600    2.8494 C   0  0  0  0  0  0  0  0  0  0  0  0
    6.0307    0.3788    0.7981 H   0  0  0  0  0  0  0  0  0  0  0  0
    7.0203    1.0803    3.1717 H   0  0  0  0  0  0  0  0  0  0  0  0
    5.9145   -0.2398    3.6826 H   0  0  0  0  0  0  0  0  0  0  0  0
    7.2601   -0.5855    2.5439 H   0  0  0  0  0  0  0  0  0  0  0  0
  1  3  1  0  0  0  0
  1  7  1  0  0  0  0
  1  2  2  0  0  0  0
 42 43  1  0  0  0  0
 43 51  1  0  0  0  0
 43 44  2  0  0  0  0
  8  9  1  0  0  0  0
  9 17  1  0  0  0  0
  9 10  2  0  0  0  0
 18 19  1  0  0  0  0
 19 41  1  0  0  0  0
 19 20  2  0  0  0  0
 25 26  1  0  0  0  0
 25 27  1  0  0  0  0
 24 25  2  0  0  0  0
 42 45  1  0  0  0  0
  8 11  1  0  0  0  0
 51 52  1  0  0  0  0
 21 22  1  0  0  0  0
 22 23  1  0  0  0  0
 18 21  1  0  0  0  0
 23 24  1  0  0  0  0
 41 42  1  0  0  0  0
  7  8  1  0  0  0  0
 17 18  1  0  0  0  0
  3  4  1  0  0  0  0
  3  5  1  0  0  0  0
  3  6  1  0  0  0  0
 45 48  1  0  0  0  0
 45 49  1  0  0  0  0
 45 50  1  0  0  0  0
 11 14  1  0  0  0  0
 11 15  1  0  0  0  0
 11 16  1  0  0  0  0
 52 54  1  0  0  0  0
 52 55  1  0  0  0  0
 52 56  1  0  0  0  0
 22 32  1  0  0  0  0
 22 33  1  0  0  0  0
 21 30  1  0  0  0  0
 21 31  1  0  0  0  0
 23 34  1  0  0  0  0
 23 35  1  0  0  0  0
 42 47  1  0  0  0  0
  8 13  1  0  0  0  0
 18 29  1  0  0  0  0
 26 37  1  0  0  0  0
 26 38  1  0  0  0  0
 27 39  1  0  0  0  0
 27 40  1  0  0  0  0
 51 53  1  0  0  0  0
  7 12  1  0  0  0  0
 41 46  1  0  0  0  0
 17 28  1  0  0  0  0
 24 36  1  0  0  0  0
M  CHG  1  24   1
M  END
$$$$

  -OEChem-05262214473D

 56 55  0     1  0  0  0  0  0999 V2000
    0.7735   -5.8042   -2.0022 C   0  0  0  0  0  0  0  0  0  0  0  0
   -0.2086   -6.3825   -1.5519 O   0  0  0  0  0  0  0  0  0  0  0  0
    1.4751   -6.3646   -3.1946 C   0  0  0  0  0  0  0  0  0  0  0  0
    2.2765   -7.0687   -2.9186 H   0  0  0  0  0  0  0  0  0  0  0  0
    0.7988   -6.9360   -3.8504 H   0  0  0  0  0  0  0  0  0  0  0  0
    1.9556   -5.6216   -3.8511 H   0  0  0  0  0  0  0  0  0  0  0  0
    1.3322   -4.6359   -1.5106 N   0  0  0  0  0  0  0  0  0  0  0  0
    0.8124   -3.9290   -0.3698 C   0  0  2  0  0  0  0  0  0  0  0  0
    1.0666   -2.4424   -0.5818 C   0  0  0  0  0  0  0  0  0  0  0  0
    2.0598   -2.0076   -1.1610 O   0  0  0  0  0  0  0  0  0  0  0  0
    1.4560   -4.4118    0.9207 C   0  0  0  0  0  0  0  0  0  0  0  0
    2.1528   -4.2578   -1.9805 H   0  0  0  0  0  0  0  0  0  0  0  0
   -0.2667   -4.1160   -0.3467 H   0  0  0  0  0  0  0  0  0  0  0  0
    2.5374   -4.2329    0.9160 H   0  0  0  0  0  0  0  0  0  0  0  0
    1.0390   -3.8932    1.7903 H   0  0  0  0  0  0  0  0  0  0  0  0
    1.2976   -5.4871    1.0566 H   0  0  0  0  0  0  0  0  0  0  0  0
    0.0755   -1.6529   -0.0105 N   0  0  0  0  0  0  0  0  0  0  0  0
    0.1113   -0.2132   -0.0391 C   0  0  2  0  0  0  0  0  0  0  0  0
    1.5262    0.2023   -0.4278 C   0  0  0  0  0  0  0  0  0  0  0  0
    1.8880    0.3331   -1.5953 O   0  0  0  0  0  0  0  0  0  0  0  0
   -0.2747    0.3994    1.3110 C   0  0  0  0  0  0  0  0  0  0  0  0
   -1.7451    0.1492    1.6670 C   0  0  0  0  0  0  0  0  0  0  0  0
   -2.1238    0.7611    3.0117 C   0  0  0  0  0  0  0  0  0  0  0  0
   -3.5192    0.5005    3.3581 N   0  3  0  0  0  0  0  0  0  0  0  0
   -4.0771    0.9095    4.5707 C   0  0  0  0  0  0  0  0  0  0  0  0
   -5.4134    0.6267    4.8331 N   0  0  0  0  0  0  0  0  0  0  0  0
   -3.3291    1.5938    5.5232 N   0  0  0  0  0  0  0  0  0  0  0  0
   -0.7323   -2.1024    0.4149 H   0  0  0  0  0  0  0  0  0  0  0  0
   -0.5834    0.1062   -0.8243 H   0  0  0  0  0  0  0  0  0  0  0  0
   -0.0857    1.4794    1.2893 H   0  0  0  0  0  0  0  0  0  0  0  0
    0.3665   -0.0111    2.1023 H   0  0  0  0  0  0  0  0  0  0  0  0
   -2.3889    0.5633    0.8818 H   0  0  0  0  0  0  0  0  0  0  0  0
   -1.9345   -0.9295    1.7113 H   0  0  0  0  0  0  0  0  0  0  0  0
   -1.5058    0.3241    3.8021 H   0  0  0  0  0  0  0  0  0  0  0  0
   -1.9719    1.8448    3.0048 H   0  0  0  0  0  0  0  0  0  0  0  0
   -4.1166    0.0034    2.6999 H   0  0  0  0  0  0  0  0  0  0  0  0
   -5.8504    0.9109    5.7066 H   0  0  0  0  0  0  0  0  0  0  0  0
   -5.9889    0.1280    4.1588 H   0  0  0  0  0  0  0  0  0  0  0  0
   -3.7306    1.8938    6.4077 H   0  0  0  0  0  0  0  0  0  0  0  0
   -2.3496    1.8141    5.3589 H   0  0  0  0  0  0  0  0  0  0  0  0
    2.3470    0.3609    0.6801 N   0  0  0  0  0  0  0  0  0  0  0  0
    3.7467    0.7047    0.5789 C   0  0  2  0  0  0  0  0  0  0  0  0
    4.4786    0.0424    1.7387 C   0  0  0  0  0  0  0  0  0  0  0  0
    3.9737   -0.1149    2.8484 O   0  0  0  0  0  0  0  0  0  0  0  0
    3.9490    2.2118    0.5981 C   0  0  0  0  0  0  0  0  0  0  0  0
    1.9521    0.2637    1.6109 H   0  0  0  0  0  0  0  0  0  0  0  0
    4.1073    0.2872   -0.3674 H   0  0  0  0  0  0  0  0  0  0  0  0
    3.5936    2.6481    1.5387 H   0  0  0  0  0  0  0  0  0  0  0  0
    5.0076    2.4714    0.4926 H   0  0  0  0  0  0  0  0  0  0  0  0
    3.3977    2.6895   -0.2191 H   0  0  0  0  0  0  0  0  0  0  0  0
    5.7771   -0.3132    1.4014 N   0  0  0  0  0  0  0  0  0  0  0  0
    6.6890   -0.9192    2.3433 C   0  0  0  0  0  0  0  0  0  0  0  0
    6.0991   -0.1823    0.4470 H   0  0  0  0  0  0  0  0  0  0  0  0
    7.2846   -0.1354    2.8341 H   0  0  0  0  0  0  0  0  0  0  0  0
    6.1175   -1.4742    3.1017 H   0  0  0  0  0  0  0  0  0  0  0  0
    7.3597   -1.6101    1.8114 H   0  0  0  0  0  0  0  0  0  0  0  0
  1  3  1  0  0  0  0
  1  7  1  0  0  0  0
  1  2  2  0  0  0  0
 42 43  1  0  0  0  0
 43 51  1  0  0  0  0
 43 44  2  0  0  0  0
  8  9  1  0  0  0  0
  9 17  1  0  0  0  0
  9 10  2  0  0  0  0
 18 19  1  0  0  0  0
 19 41  1  0  0  0  0
 19 20  2  0  0  0  0
 25 26  1  0  0  0  0
 25 27  1  0  0  0  0
 24 25  2  0  0  0  0
 42 45  1  0  0  0  0
  8 11  1  0  0  0  0
 51 52  1  0  0  0  0
 21 22  1  0  0  0  0
 22 23  1  0  0  0  0
 18 21  1  0  0  0  0
 23 24  1  0  0  0  0
 41 42  1  0  0  0  0
  7  8  1  0  0  0  0
 17 18  1  0  0  0  0
  3  4  1  0  0  0  0
  3  5  1  0  0  0  0
  3  6  1  0  0  0  0
 45 48  1  0  0  0  0
 45 49  1  0  0  0  0
 45 50  1  0  0  0  0
 11 14  1  0  0  0  0
 11 15  1  0  0  0  0
 11 16  1  0  0  0  0
 52 54  1  0  0  0  0
 52 55  1  0  0  0  0
 52 56  1  0  0  0  0
 22 32  1  0  0  0  0
 22 33  1  0  0  0  0
 21 30  1  0  0  0  0
 21 31  1  0  0  0  0
 23 34  1  0  0  0  0
 23 35  1  0  0  0  0
 42 47  1  0  0  0  0
  8 13  1  0  0  0  0
 18 29  1  0  0  0  0
 26 37  1  0  0  0  0
 26 38  1  0  0  0  0
 27 39  1  0  0  0  0
 27 40  1  0  0  0  0
 51 53  1  0  0  0  0
  7 12  1  0  0  0  0
 41 46  1  0  0  0  0
 17 28  1  0  0  0  0
 24 36  1  0  0  0  0
M  CHG  1  24   1
M  END
$$$$

  -OEChem-05262214473D

 56 55  0     1  0  0  0  0  0999 V2000
    0.7735   -5.8042   -2.0022 C   0  0  0  0  0  0  0  0  0  0  0  0
   -0.2086   -6.3825   -1.5519 O   0  0  0  0  0  0  0  0  0  0  0  0
    1.4751   -6.3646   -3.1946 C   0  0  0  0  0  0  0  0  0  0  0  0
    2.2765   -7.0687   -2.9186 H   0  0  0  0  0  0  0  0  0  0  0  0
    0.7988   -6.9360   -3.8504 H   0  0  0  0  0  0  0  0  0  0  0  0
    1.9556   -5.6216   -3.8511 H   0  0  0  0  0  0  0  0  0  0  0  0
    1.3322   -4.6359   -1.5106 N   0  0  0  0  0  0  0  0  0  0  0  0
    0.8124   -3.9290   -0.3698 C   0  0  2  0  0  0  0  0  0  0  0  0
    1.0666   -2.4424   -0.5818 C   0  0  0  0  0  0  0  0  0  0  0  0
    2.0598   -2.0076   -1.1610 O   0  0  0  0  0  0  0  0  0  0  0  0
    1.4560   -4.4118    0.9207 C   0  0  0  0  0  0  0  0  0  0  0  0
    2.1528   -4.2578   -1.9805 H   0  0  0  0  0  0  0  0  0  0  0  0
   -0.2667   -4.1160   -0.3467 H   0  0  0  0  0  0  0  0  0  0  0  0
    2.5374   -4.2329    0.9160 H   0  0  0  0  0  0  0  0  0  0  0  0
    1.0390   -3.8932    1.7903 H   0  0  0  0  0  0  0  0  0  0  0  0
    1.2976   -5.4871    1.0566 H   0  0  0  0  0  0  0  0  0  0  0  0
    0.0755   -1.6529   -0.0105 N   0  0  0  0  0  0  0  0  0  0  0  0
    0.1113   -0.2132   -0.0391 C   0  0  2  0  0  0  0  0  0  0  0  0
    1.5262    0.2023   -0.4278 C   0  0  0  0  0  0  0  0  0  0  0  0
    1.8231    0.5914   -1.5555 O   0  0  0  0  0  0  0  0  0  0  0  0
   -0.2747    0.3994    1.3110 C   0  0  0  0  0  0  0  0  0  0  0  0
   -1.7451    0.1492    1.6670 C   0  0  0  0  0  0  0  0  0  0  0  0
   -2.1238    0.7611    3.0117 C   0  0  0  0  0  0  0  0  0  0  0  0
   -3.5192    0.5005    3.3581 N   0  3  0  0  0  0  0  0  0  0  0  0
   -4.0771    0.9095    4.5707 C   0  0  0  0  0  0  0  0  0  0  0  0
   -5.4134    0.6267    4.8331 N   0  0  0  0  0  0  0  0  0  0  0  0
   -3.3291    1.5938    5.5232 N   0  0  0  0  0  0  0  0  0  0  0  0
   -0.7323   -2.1024    0.4149 H   0  0  0  0  0  0  0  0  0  0  0  0
   -0.5834    0.1062   -0.8243 H   0  0  0  0  0  0  0  0  0  0  0  0
   -0.0857    1.4794    1.2893 H   0  0  0  0  0  0  0  0  0  0  0  0
    0.3665   -0.0111    2.1023 H   0  0  0  0  0  0  0  0  0  0  0  0
   -2.3889    0.5633    0.8818 H   0  0  0  0  0  0  0  0  0  0  0  0
   -1.9345   -0.9295    1.7113 H   0  0  0  0  0  0  0  0  0  0  0  0
   -1.5058    0.3241    3.8021 H   0  0  0  0  0  0  0  0  0  0  0  0
   -1.9719    1.8448    3.0048 H   0  0  0  0  0  0  0  0  0  0  0  0
   -4.1166    0.0034    2.6999 H   0  0  0  0  0  0  0  0  0  0  0  0
   -5.8504    0.9109    5.7066 H   0  0  0  0  0  0  0  0  0  0  0  0
   -5.9889    0.1280    4.1588 H   0  0  0  0  0  0  0  0  0  0  0  0
   -3.7306    1.8938    6.4077 H   0  0  0  0  0  0  0  0  0  0  0  0
   -2.3496    1.8141    5.3589 H   0  0  0  0  0  0  0  0  0  0  0  0
    2.4242    0.0402    0.6180 N   0  0  0  0  0  0  0  0  0  0  0  0
    3.8365    0.3174    0.4919 C   0  0  2  0  0  0  0  0  0  0  0  0
    4.5880   -0.6472    1.3997 C   0  0  0  0  0  0  0  0  0  0  0  0
    4.1431   -1.0398    2.4763 O   0  0  0  0  0  0  0  0  0  0  0  0
    4.1515    1.7607    0.8528 C   0  0  0  0  0  0  0  0  0  0  0  0
    2.0820   -0.2570    1.5271 H   0  0  0  0  0  0  0  0  0  0  0  0
    4.1051    0.1218   -0.5520 H   0  0  0  0  0  0  0  0  0  0  0  0
    3.8890    1.9755    1.8951 H   0  0  0  0  0  0  0  0  0  0  0  0
    5.2178    1.9770    0.7292 H   0  0  0  0  0  0  0  0  0  0  0  0
    3.5874    2.4531    0.2186 H   0  0  0  0  0  0  0  0  0  0  0  0
    5.8327   -0.9843    0.8866 N   0  0  0  0  0  0  0  0  0  0  0  0
    6.7540   -1.8519    1.5827 C   0  0  0  0  0  0  0  0  0  0  0  0
    6.1034   -0.6446   -0.0316 H   0  0  0  0  0  0  0  0  0  0  0  0
    7.4358   -1.2459    2.1974 H   0  0  0  0  0  0  0  0  0  0  0  0
    6.1911   -2.5406    2.2299 H   0  0  0  0  0  0  0  0  0  0  0  0
    7.3368   -2.4305    0.8508 H   0  0  0  0  0  0  0  0  0  0  0  0
  1  3  1  0  0  0  0
  1  7  1  0  0  0  0
  1  2  2  0  0  0  0
 42 43  1  0  0  0  0
 43 51  1  0  0  0  0
 43 44  2  0  0  0  0
  8  9  1  0  0  0  0
  9 17  1  0  0  0  0
  9 10  2  0  0  0  0
 18 19  1  0  0  0  0
 19 41  1  0  0  0  0
 19 20  2  0  0  0  0
 25 26  1  0  0  0  0
 25 27  1  0  0  0  0
 24 25  2  0  0  0  0
 42 45  1  0  0  0  0
  8 11  1  0  0  0  0
 51 52  1  0  0  0  0
 21 22  1  0  0  0  0
 22 23  1  0  0  0  0
 18 21  1  0  0  0  0
 23 24  1  0  0  0  0
 41 42  1  0  0  0  0
  7  8  1  0  0  0  0
 17 18  1  0  0  0  0
  3  4  1  0  0  0  0
  3  5  1  0  0  0  0
  3  6  1  0  0  0  0
 45 48  1  0  0  0  0
 45 49  1  0  0  0  0
 45 50  1  0  0  0  0
 11 14  1  0  0  0  0
 11 15  1  0  0  0  0
 11 16  1  0  0  0  0
 52 54  1  0  0  0  0
 52 55  1  0  0  0  0
 52 56  1  0  0  0  0
 22 32  1  0  0  0  0
 22 33  1  0  0  0  0
 21 30  1  0  0  0  0
 21 31  1  0  0  0  0
 23 34  1  0  0  0  0
 23 35  1  0  0  0  0
 42 47  1  0  0  0  0
  8 13  1  0  0  0  0
 18 29  1  0  0  0  0
 26 37  1  0  0  0  0
 26 38  1  0  0  0  0
 27 39  1  0  0  0  0
 27 40  1  0  0  0  0
 51 53  1  0  0  0  0
  7 12  1  0  0  0  0
 41 46  1  0  0  0  0
 17 28  1  0  0  0  0
 24 36  1  0  0  0  0
M  CHG  1  24   1
M  END
$$$$

  -OEChem-05262214473D

 56 55  0     1  0  0  0  0  0999 V2000
    0.7735   -5.8042   -2.0022 C   0  0  0  0  0  0  0  0  0  0  0  0
   -0.2086   -6.3825   -1.5519 O   0  0  0  0  0  0  0  0  0  0  0  0
    1.4751   -6.3646   -3.1946 C   0  0  0  0  0  0  0  0  0  0  0  0
    2.2765   -7.0687   -2.9186 H   0  0  0  0  0  0  0  0  0  0  0  0
    0.7988   -6.9360   -3.8504 H   0  0  0  0  0  0  0  0  0  0  0  0
    1.9556   -5.6216   -3.8511 H   0  0  0  0  0  0  0  0  0  0  0  0
    1.3322   -4.6359   -1.5106 N   0  0  0  0  0  0  0  0  0  0  0  0
    0.8124   -3.9290   -0.3698 C   0  0  2  0  0  0  0  0  0  0  0  0
    1.0666   -2.4424   -0.5818 C   0  0  0  0  0  0  0  0  0  0  0  0
    2.0598   -2.0076   -1.1610 O   0  0  0  0  0  0  0  0  0  0  0  0
    1.4560   -4.4118    0.9207 C   0  0  0  0  0  0  0  0  0  0  0  0
    2.1528   -4.2578   -1.9805 H   0  0  0  0  0  0  0  0  0  0  0  0
   -0.2667   -4.1160   -0.3467 H   0  0  0  0  0  0  0  0  0  0  0  0
    2.5374   -4.2329    0.9160 H   0  0  0  0  0  0  0  0  0  0  0  0
    1.0390   -3.8932    1.7903 H   0  0  0  0  0  0  0  0  0  0  0  0
    1.2976   -5.4871    1.0566 H   0  0  0  0  0  0  0  0  0  0  0  0
    0.0755   -1.6529   -0.0105 N   0  0  0  0  0  0  0  0  0  0  0  0
    0.1113   -0.2132   -0.0391 C   0  0  2  0  0  0  0  0  0  0  0  0
    1.5262    0.2023   -0.4278 C   0  0  0  0  0  0  0  0  0  0  0  0
    1.7803    0.8355   -1.4503 O   0  0  0  0  0  0  0  0  0  0  0  0
   -0.2747    0.3994    1.3110 C   0  0  0  0  0  0  0  0  0  0  0  0
   -1.7451    0.1492    1.6670 C   0  0  0  0  0  0  0  0  0  0  0  0
   -2.1238    0.7611    3.0117 C   0  0  0  0  0  0  0  0  0  0  0  0
   -3.5192    0.5005    3.3581 N   0  3  0  0  0  0  0  0  0  0  0  0
   -4.0771    0.9095    4.5707 C   0  0  0  0  0  0  0  0  0  0  0  0
   -5.4134    0.6267    4.8331 N   0  0  0  0  0  0  0  0  0  0  0  0
   -3.3291    1.5938    5.5232 N   0  0  0  0  0  0  0  0  0  0  0  0
   -0.7323   -2.1024    0.4149 H   0  0  0  0  0  0  0  0  0  0  0  0
   -0.5834    0.1062   -0.8243 H   0  0  0  0  0  0  0  0  0  0  0  0
   -0.0857    1.4794    1.2893 H   0  0  0  0  0  0  0  0  0  0  0  0
    0.3665   -0.0111    2.1023 H   0  0  0  0  0  0  0  0  0  0  0  0
   -2.3889    0.5633    0.8818 H   0  0  0  0  0  0  0  0  0  0  0  0
   -1.9345   -0.9295    1.7113 H   0  0  0  0  0  0  0  0  0  0  0  0
   -1.5058    0.3241    3.8021 H   0  0  0  0  0  0  0  0  0  0  0  0
   -1.9719    1.8448    3.0048 H   0  0  0  0  0  0  0  0  0  0  0  0
   -4.1166    0.0034    2.6999 H   0  0  0  0  0  0  0  0  0  0  0  0
   -5.8504    0.9109    5.7066 H   0  0  0  0  0  0  0  0  0  0  0  0
   -5.9889    0.1280    4.1588 H   0  0  0  0  0  0  0  0  0  0  0  0
   -3.7306    1.8938    6.4077 H   0  0  0  0  0  0  0  0  0  0  0  0
   -2.3496    1.8141    5.3589 H   0  0  0  0  0  0  0  0  0  0  0  0
    2.4731   -0.2598    0.4756 N   0  0  0  0  0  0  0  0  0  0  0  0
    3.8916   -0.0417    0.3084 C   0  0  2  0  0  0  0  0  0  0  0  0
    4.6243   -1.2392    0.8989 C   0  0  0  0  0  0  0  0  0  0  0  0
    4.2194   -1.8549    1.8828 O   0  0  0  0  0  0  0  0  0  0  0  0
    4.3352    1.2505    0.9763 C   0  0  0  0  0  0  0  0  0  0  0  0
    2.1672   -0.7484    1.3119 H   0  0  0  0  0  0  0  0  0  0  0  0
    4.0792    0.0066   -0.7698 H   0  0  0  0  0  0  0  0  0  0  0  0
    4.1551    1.2207    2.0571 H   0  0  0  0  0  0  0  0  0  0  0  0
    5.4049    1.4287    0.8243 H   0  0  0  0  0  0  0  0  0  0  0  0
    3.7858    2.1071    0.5712 H   0  0  0  0  0  0  0  0  0  0  0  0
    5.8059   -1.5126    0.2242 N   0  0  0  0  0  0  0  0  0  0  0  0
    6.7016   -2.5745    0.6194 C   0  0  0  0  0  0  0  0  0  0  0  0
    6.0433   -0.9764   -0.6052 H   0  0  0  0  0  0  0  0  0  0  0  0
    7.4638   -2.1758    1.3051 H   0  0  0  0  0  0  0  0  0  0  0  0
    6.1304   -3.3660    1.1266 H   0  0  0  0  0  0  0  0  0  0  0  0
    7.1927   -2.9907   -0.2725 H   0  0  0  0  0  0  0  0  0  0  0  0
  1  3  1  0  0  0  0
  1  7  1  0  0  0  0
  1  2  2  0  0  0  0
 42 43  1  0  0  0  0
 43 51  1  0  0  0  0
 43 44  2  0  0  0  0
  8  9  1  0  0  0  0
  9 17  1  0  0  0  0
  9 10  2  0  0  0  0
 18 19  1  0  0  0  0
 19 41  1  0  0  0  0
 19 20  2  0  0  0  0
 25 26  1  0  0  0  0
 25 27  1  0  0  0  0
 24 25  2  0  0  0  0
 42 45  1  0  0  0  0
  8 11  1  0  0  0  0
 51 52  1  0  0  0  0
 21 22  1  0  0  0  0
 22 23  1  0  0  0  0
 18 21  1  0  0  0  0
 23 24  1  0  0  0  0
 41 42  1  0  0  0  0
  7  8  1  0  0  0  0
 17 18  1  0  0  0  0
  3  4  1  0  0  0  0
  3  5  1  0  0  0  0
  3  6  1  0  0  0  0
 45 48  1  0  0  0  0
 45 49  1  0  0  0  0
 45 50  1  0  0  0  0
 11 14  1  0  0  0  0
 11 15  1  0  0  0  0
 11 16  1  0  0  0  0
 52 54  1  0  0  0  0
 52 55  1  0  0  0  0
 52 56  1  0  0  0  0
 22 32  1  0  0  0  0
 22 33  1  0  0  0  0
 21 30  1  0  0  0  0
 21 31  1  0  0  0  0
 23 34  1  0  0  0  0
 23 35  1  0  0  0  0
 42 47  1  0  0  0  0
  8 13  1  0  0  0  0
 18 29  1  0  0  0  0
 26 37  1  0  0  0  0
 26 38  1  0  0  0  0
 27 39  1  0  0  0  0
 27 40  1  0  0  0  0
 51 53  1  0  0  0  0
  7 12  1  0  0  0  0
 41 46  1  0  0  0  0
 17 28  1  0  0  0  0
 24 36  1  0  0  0  0
M  CHG  1  24   1
M  END
$$$$

  -OEChem-05262214473D

 56 55  0     1  0  0  0  0  0999 V2000
    0.7735   -5.8042   -2.0022 C   0  0  0  0  0  0  0  0  0  0  0  0
   -0.2086   -6.3825   -1.5519 O   0  0  0  0  0  0  0  0  0  0  0  0
    1.4751   -6.3646   -3.1946 C   0  0  0  0  0  0  0  0  0  0  0  0
    2.2765   -7.0687   -2.9186 H   0  0  0  0  0  0  0  0  0  0  0  0
    0.7988   -6.9360   -3.8504 H   0  0  0  0  0  0  0  0  0  0  0  0
    1.9556   -5.6216   -3.8511 H   0  0  0  0  0  0  0  0  0  0  0  0
    1.3322   -4.6359   -1.5106 N   0  0  0  0  0  0  0  0  0  0  0  0
    0.8124   -3.9290   -0.3698 C   0  0  2  0  0  0  0  0  0  0  0  0
    1.0666   -2.4424   -0.5818 C   0  0  0  0  0  0  0  0  0  0  0  0
    2.0598   -2.0076   -1.1610 O   0  0  0  0  0  0  0  0  0  0  0  0
    1.4560   -4.4118    0.9207 C   0  0  0  0  0  0  0  0  0  0  0  0
    2.1528   -4.2578   -1.9805 H   0  0  0  0  0  0  0  0  0  0  0  0
   -0.2667   -4.1160   -0.3467 H   0  0  0  0  0  0  0  0  0  0  0  0
    2.5374   -4.2329    0.9160 H   0  0  0  0  0  0  0  0  0  0  0  0
    1.0390   -3.8932    1.7903 H   0  0  0  0  0  0  0  0  0  0  0  0
    1.2976   -5.4871    1.0566 H   0  0  0  0  0  0  0  0  0  0  0  0
    0.0755   -1.6529   -0.0105 N   0  0  0  0  0  0  0  0  0  0  0  0
    0.1113   -0.2132   -0.0391 C   0  0  2  0  0  0  0  0  0  0  0  0
    1.5262    0.2023   -0.4278 C   0  0  0  0  0  0  0  0  0  0  0  0
    1.7624    1.0490   -1.2871 O   0  0  0  0  0  0  0  0  0  0  0  0
   -0.2747    0.3994    1.3110 C   0  0  0  0  0  0  0  0  0  0  0  0
   -1.7451    0.1492    1.6670 C   0  0  0  0  0  0  0  0  0  0  0  0
   -2.1238    0.7611    3.0117 C   0  0  0  0  0  0  0  0  0  0  0  0
   -3.5192    0.5005    3.3581 N   0  3  0  0  0  0  0  0  0  0  0  0
   -4.0771    0.9095    4.5707 C   0  0  0  0  0  0  0  0  0  0  0  0
   -5.4134    0.6267    4.8331 N   0  0  0  0  0  0  0  0  0  0  0  0
   -3.3291    1.5938    5.5232 N   0  0  0  0  0  0  0  0  0  0  0  0
   -0.7323   -2.1024    0.4149 H   0  0  0  0  0  0  0  0  0  0  0  0
   -0.5834    0.1062   -0.8243 H   0  0  0  0  0  0  0  0  0  0  0  0
   -0.0857    1.4794    1.2893 H   0  0  0  0  0  0  0  0  0  0  0  0
    0.3665   -0.0111    2.1023 H   0  0  0  0  0  0  0  0  0  0  0  0
   -2.3889    0.5633    0.8818 H   0  0  0  0  0  0  0  0  0  0  0  0
   -1.9345   -0.9295    1.7113 H   0  0  0  0  0  0  0  0  0  0  0  0
   -1.5058    0.3241    3.8021 H   0  0  0  0  0  0  0  0  0  0  0  0
   -1.9719    1.8448    3.0048 H   0  0  0  0  0  0  0  0  0  0  0  0
   -4.1166    0.0034    2.6999 H   0  0  0  0  0  0  0  0  0  0  0  0
   -5.8504    0.9109    5.7066 H   0  0  0  0  0  0  0  0  0  0  0  0
   -5.9889    0.1280    4.1588 H   0  0  0  0  0  0  0  0  0  0  0  0
   -3.7306    1.8938    6.4077 H   0  0  0  0  0  0  0  0  0  0  0  0
   -2.3496    1.8141    5.3589 H   0  0  0  0  0  0  0  0  0  0  0  0
    2.4906   -0.5186    0.2626 N   0  0  0  0  0  0  0  0  0  0  0  0
    3.9081   -0.3482    0.0411 C   0  0  2  0  0  0  0  0  0  0  0  0
    4.5850   -1.6931    0.2705 C   0  0  0  0  0  0  0  0  0  0  0  0
    4.1976   -2.5048    1.1085 O   0  0  0  0  0  0  0  0  0  0  0  0
    4.4878    0.7158    0.9601 C   0  0  0  0  0  0  0  0  0  0  0  0
    2.2019   -1.1771    0.9801 H   0  0  0  0  0  0  0  0  0  0  0  0
    4.0311   -0.0507   -1.0060 H   0  0  0  0  0  0  0  0  0  0  0  0
    4.3738    0.4353    2.0135 H   0  0  0  0  0  0  0  0  0  0  0  0
    5.5562    0.8640    0.7712 H   0  0  0  0  0  0  0  0  0  0  0  0
    3.9795    1.6752    0.8148 H   0  0  0  0  0  0  0  0  0  0  0  0
    5.6984   -1.8621   -0.5406 N   0  0  0  0  0  0  0  0  0  0  0  0
    6.5354   -3.0376   -0.4808 C   0  0  0  0  0  0  0  0  0  0  0  0
    5.9229   -1.1553   -1.2347 H   0  0  0  0  0  0  0  0  0  0  0  0
    7.3665   -2.8615    0.2179 H   0  0  0  0  0  0  0  0  0  0  0  0
    5.9396   -3.8945   -0.1332 H   0  0  0  0  0  0  0  0  0  0  0  0
    6.9374   -3.2526   -1.4819 H   0  0  0  0  0  0  0  0  0  0  0  0
  1  3  1  0  0  0  0
  1  7  1  0  0  0  0
  1  2  2  0  0  0  0
 42 43  1  0  0  0  0
 43 51  1  0  0  0  0
 43 44  2  0  0  0  0
  8  9  1  0  0  0  0
  9 17  1  0  0  0  0
  9 10  2  0  0  0  0
 18 19  1  0  0  0  0
 19 41  1  0  0  0  0
 19 20  2  0  0  0  0
 25 26  1  0  0  0  0
 25 27  1  0  0  0  0
 24 25  2  0  0  0  0
 42 45  1  0  0  0  0
  8 11  1  0  0  0  0
 51 52  1  0  0  0  0
 21 22  1  0  0  0  0
 22 23  1  0  0  0  0
 18 21  1  0  0  0  0
 23 24  1  0  0  0  0
 41 42  1  0  0  0  0
  7  8  1  0  0  0  0
 17 18  1  0  0  0  0
  3  4  1  0  0  0  0
  3  5  1  0  0  0  0
  3  6  1  0  0  0  0
 45 48  1  0  0  0  0
 45 49  1  0  0  0  0
 45 50  1  0  0  0  0
 11 14  1  0  0  0  0
 11 15  1  0  0  0  0
 11 16  1  0  0  0  0
 52 54  1  0  0  0  0
 52 55  1  0  0  0  0
 52 56  1  0  0  0  0
 22 32  1  0  0  0  0
 22 33  1  0  0  0  0
 21 30  1  0  0  0  0
 21 31  1  0  0  0  0
 23 34  1  0  0  0  0
 23 35  1  0  0  0  0
 42 47  1  0  0  0  0
  8 13  1  0  0  0  0
 18 29  1  0  0  0  0
 26 37  1  0  0  0  0
 26 38  1  0  0  0  0
 27 39  1  0  0  0  0
 27 40  1  0  0  0  0
 51 53  1  0  0  0  0
  7 12  1  0  0  0  0
 41 46  1  0  0  0  0
 17 28  1  0  0  0  0
 24 36  1  0  0  0  0
M  CHG  1  24   1
M  END
$$$$

  -OEChem-05262214473D

 56 55  0     1  0  0  0  0  0999 V2000
    0.7735   -5.8042   -2.0022 C   0  0  0  0  0  0  0  0  0  0  0  0
   -0.2086   -6.3825   -1.5519 O   0  0  0  0  0  0  0  0  0  0  0  0
    1.4751   -6.3646   -3.1946 C   0  0  0  0  0  0  0  0  0  0  0  0
    2.2765   -7.0687   -2.9186 H   0  0  0  0  0  0  0  0  0  0  0  0
    0.7988   -6.9360   -3.8504 H   0  0  0  0  0  0  0  0  0  0  0  0
    1.9556   -5.6216   -3.8511 H   0  0  0  0  0  0  0  0  0  0  0  0
    1.3322   -4.6359   -1.5106 N   0  0  0  0  0  0  0  0  0  0  0  0
    0.8124   -3.9290   -0.3698 C   0  0  2  0  0  0  0  0  0  0  0  0
    1.0666   -2.4424   -0.5818 C   0  0  0  0  0  0  0  0  0  0  0  0
    2.0598   -2.0076   -1.1610 O   0  0  0  0  0  0  0  0  0  0  0  0
    1.4560   -4.4118    0.9207 C   0  0  0  0  0  0  0  0  0  0  0  0
    2.1528   -4.2578   -1.9805 H   0  0  0  0  0  0  0  0  0  0  0  0
   -0.2667   -4.1160   -0.3467 H   0  0  0  0  0  0  0  0  0  0  0  0
    2.5374   -4.2329    0.9160 H   0  0  0  0  0  0  0  0  0  0  0  0
    1.0390   -3.8932    1.7903 H   0  0  0  0  0  0  0  0  0  0  0  0
    1.2976   -5.4871    1.0566 H   0  0  0  0  0  0  0  0  0  0  0  0
    0.0755   -1.6529   -0.0105 N   0  0  0  0  0  0  0  0  0  0  0  0
    0.1113   -0.2132   -0.0391 C   0  0  2  0  0  0  0  0  0  0  0  0
    1.5262    0.2023   -0.4278 C   0  0  0  0  0  0  0  0  0  0  0  0
    1.7708    1.2171   -1.0770 O   0  0  0  0  0  0  0  0  0  0  0  0
   -0.2747    0.3994    1.3110 C   0  0  0  0  0  0  0  0  0  0  0  0
   -1.7451    0.1492    1.6670 C   0  0  0  0  0  0  0  0  0  0  0  0
   -2.1238    0.7611    3.0117 C   0  0  0  0  0  0  0  0  0  0  0  0
   -3.5192    0.5005    3.3581 N   0  3  0  0  0  0  0  0  0  0  0  0
   -4.0771    0.9095    4.5707 C   0  0  0  0  0  0  0  0  0  0  0  0
   -5.4134    0.6267    4.8331 N   0  0  0  0  0  0  0  0  0  0  0  0
   -3.3291    1.5938    5.5232 N   0  0  0  0  0  0  0  0  0  0  0  0
   -0.7323   -2.1024    0.4149 H   0  0  0  0  0  0  0  0  0  0  0  0
   -0.5834    0.1062   -0.8243 H   0  0  0  0  0  0  0  0  0  0  0  0
   -0.0857    1.4794    1.2893 H   0  0  0  0  0  0  0  0  0  0  0  0
    0.3665   -0.0111    2.1023 H   0  0  0  0  0  0  0  0  0  0  0  0
   -2.3889    0.5633    0.8818 H   0  0  0  0  0  0  0  0  0  0  0  0
   -1.9345   -0.9295    1.7113 H   0  0  0  0  0  0  0  0  0  0  0  0
   -1.5058    0.3241    3.8021 H   0  0  0  0  0  0  0  0  0  0  0  0
   -1.9719    1.8448    3.0048 H   0  0  0  0  0  0  0  0  0  0  0  0
   -4.1166    0.0034    2.6999 H   0  0  0  0  0  0  0  0  0  0  0  0
   -5.8504    0.9109    5.7066 H   0  0  0  0  0  0  0  0  0  0  0  0
   -5.9889    0.1280    4.1588 H   0  0  0  0  0  0  0  0  0  0  0  0
   -3.7306    1.8938    6.4077 H   0  0  0  0  0  0  0  0  0  0  0  0
   -2.3496    1.8141    5.3589 H   0  0  0  0  0  0  0  0  0  0  0  0
    2.4754   -0.7186   -0.0066 N   0  0  0  0  0  0  0  0  0  0  0  0
    3.8851   -0.5812   -0.2919 C   0  0  2  0  0  0  0  0  0  0  0  0
    4.4728   -1.9781   -0.4427 C   0  0  0  0  0  0  0  0  0  0  0  0
    4.0790   -2.9451    0.2060 O   0  0  0  0  0  0  0  0  0  0  0  0
    4.5987    0.1932    0.8053 C   0  0  0  0  0  0  0  0  0  0  0  0
    2.1838   -1.5137    0.5542 H   0  0  0  0  0  0  0  0  0  0  0  0
    3.9642   -0.0462   -1.2445 H   0  0  0  0  0  0  0  0  0  0  0  0
    4.5301   -0.3274    1.7674 H   0  0  0  0  0  0  0  0  0  0  0  0
    5.6613    0.3212    0.5737 H   0  0  0  0  0  0  0  0  0  0  0  0
    4.1554    1.1867    0.9326 H   0  0  0  0  0  0  0  0  0  0  0  0
    5.5177   -2.0089   -1.3556 N   0  0  0  0  0  0  0  0  0  0  0  0
    6.2667   -3.2098   -1.6430 C   0  0  0  0  0  0  0  0  0  0  0  0
    5.7504   -1.1689   -1.8773 H   0  0  0  0  0  0  0  0  0  0  0  0
    7.1507   -3.2564   -0.9900 H   0  0  0  0  0  0  0  0  0  0  0  0
    5.6315   -4.0898   -1.4634 H   0  0  0  0  0  0  0  0  0  0  0  0
    6.5883   -3.1983   -2.6949 H   0  0  0  0  0  0  0  0  0  0  0  0
  1  3  1  0  0  0  0
  1  7  1  0  0  0  0
  1  2  2  0  0  0  0
 42 43  1  0  0  0  0
 43 51  1  0  0  0  0
 43 44  2  0  0  0  0
  8  9  1  0  0  0  0
  9 17  1  0  0  0  0
  9 10  2  0  0  0  0
 18 19  1  0  0  0  0
 19 41  1  0  0  0  0
 19 20  2  0  0  0  0
 25 26  1  0  0  0  0
 25 27  1  0  0  0  0
 24 25  2  0  0  0  0
 42 45  1  0  0  0  0
  8 11  1  0  0  0  0
 51 52  1  0  0  0  0
 21 22  1  0  0  0  0
 22 23  1  0  0  0  0
 18 21  1  0  0  0  0
 23 24  1  0  0  0  0
 41 42  1  0  0  0  0
  7  8  1  0  0  0  0
 17 18  1  0  0  0  0
  3  4  1  0  0  0  0
  3  5  1  0  0  0  0
  3  6  1  0  0  0  0
 45 48  1  0  0  0  0
 45 49  1  0  0  0  0
 45 50  1  0  0  0  0
 11 14  1  0  0  0  0
 11 15  1  0  0  0  0
 11 16  1  0  0  0  0
 52 54  1  0  0  0  0
 52 55  1  0  0  0  0
 52 56  1  0  0  0  0
 22 32  1  0  0  0  0
 22 33  1  0  0  0  0
 21 30  1  0  0  0  0
 21 31  1  0  0  0  0
 23 34  1  0  0  0  0
 23 35  1  0  0  0  0
 42 47  1  0  0  0  0
  8 13  1  0  0  0  0
 18 29  1  0  0  0  0
 26 37  1  0  0  0  0
 26 38  1  0  0  0  0
 27 39  1  0  0  0  0
 27 40  1  0  0  0  0
 51 53  1  0  0  0  0
  7 12  1  0  0  0  0
 41 46  1  0  0  0  0
 17 28  1  0  0  0  0
 24 36  1  0  0  0  0
M  CHG  1  24   1
M  END
$$$$

  -OEChem-05262214473D

 56 55  0     1  0  0  0  0  0999 V2000
    0.7735   -5.8042   -2.0022 C   0  0  0  0  0  0  0  0  0  0  0  0
   -0.2086   -6.3825   -1.5519 O   0  0  0  0  0  0  0  0  0  0  0  0
    1.4751   -6.3646   -3.1946 C   0  0  0  0  0  0  0  0  0  0  0  0
    2.2765   -7.0687   -2.9186 H   0  0  0  0  0  0  0  0  0  0  0  0
    0.7988   -6.9360   -3.8504 H   0  0  0  0  0  0  0  0  0  0  0  0
    1.9556   -5.6216   -3.8511 H   0  0  0  0  0  0  0  0  0  0  0  0
    1.3322   -4.6359   -1.5106 N   0  0  0  0  0  0  0  0  0  0  0  0
    0.8124   -3.9290   -0.3698 C   0  0  2  0  0  0  0  0  0  0  0  0
    1.0666   -2.4424   -0.5818 C   0  0  0  0  0  0  0  0  0  0  0  0
    2.0598   -2.0076   -1.1610 O   0  0  0  0  0  0  0  0  0  0  0  0
    1.4560   -4.4118    0.9207 C   0  0  0  0  0  0  0  0  0  0  0  0
    2.1528   -4.2578   -1.9805 H   0  0  0  0  0  0  0  0  0  0  0  0
   -0.2667   -4.1160   -0.3467 H   0  0  0  0  0  0  0  0  0  0  0  0
    2.5374   -4.2329    0.9160 H   0  0  0  0  0  0  0  0  0  0  0  0
    1.0390   -3.8932    1.7903 H   0  0  0  0  0  0  0  0  0  0  0  0
    1.2976   -5.4871    1.0566 H   0  0  0  0  0  0  0  0  0  0  0  0
    0.0755   -1.6529   -0.0105 N   0  0  0  0  0  0  0  0  0  0  0  0
    0.1113   -0.2132   -0.0391 C   0  0  2  0  0  0  0  0  0  0  0  0
    1.5262    0.2023   -0.4278 C   0  0  0  0  0  0  0  0  0  0  0  0
    1.8048    1.3285   -0.8342 O   0  0  0  0  0  0  0  0  0  0  0  0
   -0.2747    0.3994    1.3110 C   0  0  0  0  0  0  0  0  0  0  0  0
   -1.7451    0.1492    1.6670 C   0  0  0  0  0  0  0  0  0  0  0  0
   -2.1238    0.7611    3.0117 C   0  0  0  0  0  0  0  0  0  0  0  0
   -3.5192    0.5005    3.3581 N   0  3  0  0  0  0  0  0  0  0  0  0
   -4.0771    0.9095    4.5707 C   0  0  0  0  0  0  0  0  0  0  0  0
   -5.4134    0.6267    4.8331 N   0  0  0  0  0  0  0  0  0  0  0  0
   -3.3291    1.5938    5.5232 N   0  0  0  0  0  0  0  0  0  0  0  0
   -0.7323   -2.1024    0.4149 H   0  0  0  0  0  0  0  0  0  0  0  0
   -0.5834    0.1062   -0.8243 H   0  0  0  0  0  0  0  0  0  0  0  0
   -0.0857    1.4794    1.2893 H   0  0  0  0  0  0  0  0  0  0  0  0
    0.3665   -0.0111    2.1023 H   0  0  0  0  0  0  0  0  0  0  0  0
   -2.3889    0.5633    0.8818 H   0  0  0  0  0  0  0  0  0  0  0  0
   -1.9345   -0.9295    1.7113 H   0  0  0  0  0  0  0  0  0  0  0  0
   -1.5058    0.3241    3.8021 H   0  0  0  0  0  0  0  0  0  0  0  0
   -1.9719    1.8448    3.0048 H   0  0  0  0  0  0  0  0  0  0  0  0
   -4.1166    0.0034    2.6999 H   0  0  0  0  0  0  0  0  0  0  0  0
   -5.8504    0.9109    5.7066 H   0  0  0  0  0  0  0  0  0  0  0  0
   -5.9889    0.1280    4.1588 H   0  0  0  0  0  0  0  0  0  0  0  0
   -3.7306    1.8938    6.4077 H   0  0  0  0  0  0  0  0  0  0  0  0
   -2.3496    1.8141    5.3589 H   0  0  0  0  0  0  0  0  0  0  0  0
    2.4285   -0.8461   -0.3136 N   0  0  0  0  0  0  0  0  0  0  0  0
    3.8239   -0.7247   -0.6678 C   0  0  2  0  0  0  0  0  0  0  0  0
    4.2953   -2.0746   -1.1922 C   0  0  0  0  0  0  0  0  0  0  0  0
    3.8717   -3.1459   -0.7631 O   0  0  0  0  0  0  0  0  0  0  0  0
    4.6605   -0.2817    0.5224 C   0  0  0  0  0  0  0  0  0  0  0  0
    2.1140   -1.7354    0.0632 H   0  0  0  0  0  0  0  0  0  0  0  0
    3.8831    0.0199   -1.4692 H   0  0  0  0  0  0  0  0  0  0  0  0
    4.6135   -1.0153    1.3355 H   0  0  0  0  0  0  0  0  0  0  0  0
    5.7131   -0.1625    0.2452 H   0  0  0  0  0  0  0  0  0  0  0  0
    4.3013    0.6750    0.9168 H   0  0  0  0  0  0  0  0  0  0  0  0
    5.2759   -1.9430   -2.1654 N   0  0  0  0  0  0  0  0  0  0  0  0
    5.9139   -3.0794   -2.7881 C   0  0  0  0  0  0  0  0  0  0  0  0
    5.5376   -1.0164   -2.4890 H   0  0  0  0  0  0  0  0  0  0  0  0
    6.8309   -3.3335   -2.2364 H   0  0  0  0  0  0  0  0  0  0  0  0
    5.2273   -3.9387   -2.7735 H   0  0  0  0  0  0  0  0  0  0  0  0
    6.1691   -2.8316   -3.8290 H   0  0  0  0  0  0  0  0  0  0  0  0
  1  3  1  0  0  0  0
  1  7  1  0  0  0  0
  1  2  2  0  0  0  0
 42 43  1  0  0  0  0
 43 51  1  0  0  0  0
 43 44  2  0  0  0  0
  8  9  1  0  0  0  0
  9 17  1  0  0  0  0
  9 10  2  0  0  0  0
 18 19  1  0  0  0  0
 19 41  1  0  0  0  0
 19 20  2  0  0  0  0
 25 26  1  0  0  0  0
 25 27  1  0  0  0  0
 24 25  2  0  0  0  0
 42 45  1  0  0  0  0
  8 11  1  0  0  0  0
 51 52  1  0  0  0  0
 21 22  1  0  0  0  0
 22 23  1  0  0  0  0
 18 21  1  0  0  0  0
 23 24  1  0  0  0  0
 41 42  1  0  0  0  0
  7  8  1  0  0  0  0
 17 18  1  0  0  0  0
  3  4  1  0  0  0  0
  3  5  1  0  0  0  0
  3  6  1  0  0  0  0
 45 48  1  0  0  0  0
 45 49  1  0  0  0  0
 45 50  1  0  0  0  0
 11 14  1  0  0  0  0
 11 15  1  0  0  0  0
 11 16  1  0  0  0  0
 52 54  1  0  0  0  0
 52 55  1  0  0  0  0
 52 56  1  0  0  0  0
 22 32  1  0  0  0  0
 22 33  1  0  0  0  0
 21 30  1  0  0  0  0
 21 31  1  0  0  0  0
 23 34  1  0  0  0  0
 23 35  1  0  0  0  0
 42 47  1  0  0  0  0
  8 13  1  0  0  0  0
 18 29  1  0  0  0  0
 26 37  1  0  0  0  0
 26 38  1  0  0  0  0
 27 39  1  0  0  0  0
 27 40  1  0  0  0  0
 51 53  1  0  0  0  0
  7 12  1  0  0  0  0
 41 46  1  0  0  0  0
 17 28  1  0  0  0  0
 24 36  1  0  0  0  0
M  CHG  1  24   1
M  END
$$$$

  -OEChem-05262214473D

 56 55  0     1  0  0  0  0  0999 V2000
    0.7735   -5.8042   -2.0022 C   0  0  0  0  0  0  0  0  0  0  0  0
   -0.2086   -6.3825   -1.5519 O   0  0  0  0  0  0  0  0  0  0  0  0
    1.4751   -6.3646   -3.1946 C   0  0  0  0  0  0  0  0  0  0  0  0
    2.2765   -7.0687   -2.9186 H   0  0  0  0  0  0  0  0  0  0  0  0
    0.7988   -6.9360   -3.8504 H   0  0  0  0  0  0  0  0  0  0  0  0
    1.9556   -5.6216   -3.8511 H   0  0  0  0  0  0  0  0  0  0  0  0
    1.3322   -4.6359   -1.5106 N   0  0  0  0  0  0  0  0  0  0  0  0
    0.8124   -3.9290   -0.3698 C   0  0  2  0  0  0  0  0  0  0  0  0
    1.0666   -2.4424   -0.5818 C   0  0  0  0  0  0  0  0  0  0  0  0
    2.0598   -2.0076   -1.1610 O   0  0  0  0  0  0  0  0  0  0  0  0
    1.4560   -4.4118    0.9207 C   0  0  0  0  0  0  0  0  0  0  0  0
    2.1528   -4.2578   -1.9805 H   0  0  0  0  0  0  0  0  0  0  0  0
   -0.2667   -4.1160   -0.3467 H   0  0  0  0  0  0  0  0  0  0  0  0
    2.5374   -4.2329    0.9160 H   0  0  0  0  0  0  0  0  0  0  0  0
    1.0390   -3.8932    1.7903 H   0  0  0  0  0  0  0  0  0  0  0  0
    1.2976   -5.4871    1.0566 H   0  0  0  0  0  0  0  0  0  0  0  0
    0.0755   -1.6529   -0.0105 N   0  0  0  0  0  0  0  0  0  0  0  0
    0.1113   -0.2132   -0.0391 C   0  0  2  0  0  0  0  0  0  0  0  0
    1.5262    0.2023   -0.4278 C   0  0  0  0  0  0  0  0  0  0  0  0
    1.8620    1.3756   -0.5754 O   0  0  0  0  0  0  0  0  0  0  0  0
   -0.2747    0.3994    1.3110 C   0  0  0  0  0  0  0  0  0  0  0  0
   -1.7451    0.1492    1.6670 C   0  0  0  0  0  0  0  0  0  0  0  0
   -2.1238    0.7611    3.0117 C   0  0  0  0  0  0  0  0  0  0  0  0
   -3.5192    0.5005    3.3581 N   0  3  0  0  0  0  0  0  0  0  0  0
   -4.0771    0.9095    4.5707 C   0  0  0  0  0  0  0  0  0  0  0  0
   -5.4134    0.6267    4.8331 N   0  0  0  0  0  0  0  0  0  0  0  0
   -3.3291    1.5938    5.5232 N   0  0  0  0  0  0  0  0  0  0  0  0
   -0.7323   -2.1024    0.4149 H   0  0  0  0  0  0  0  0  0  0  0  0
   -0.5834    0.1062   -0.8243 H   0  0  0  0  0  0  0  0  0  0  0  0
   -0.0857    1.4794    1.2893 H   0  0  0  0  0  0  0  0  0  0  0  0
    0.3665   -0.0111    2.1023 H   0  0  0  0  0  0  0  0  0  0  0  0
   -2.3889    0.5633    0.8818 H   0  0  0  0  0  0  0  0  0  0  0  0
   -1.9345   -0.9295    1.7113 H   0  0  0  0  0  0  0  0  0  0  0  0
   -1.5058    0.3241    3.8021 H   0  0  0  0  0  0  0  0  0  0  0  0
   -1.9719    1.8448    3.0048 H   0  0  0  0  0  0  0  0  0  0  0  0
   -4.1166    0.0034    2.6999 H   0  0  0  0  0  0  0  0  0  0  0  0
   -5.8504    0.9109    5.7066 H   0  0  0  0  0  0  0  0  0  0  0  0
   -5.9889    0.1280    4.1588 H   0  0  0  0  0  0  0  0  0  0  0  0
   -3.7306    1.8938    6.4077 H   0  0  0  0  0  0  0  0  0  0  0  0
   -2.3496    1.8141    5.3589 H   0  0  0  0  0  0  0  0  0  0  0  0
    2.3532   -0.8925   -0.6374 N   0  0  0  0  0  0  0  0  0  0  0  0
    3.7289   -0.7690   -1.0611 C   0  0  2  0  0  0  0  0  0  0  0  0
    4.0646   -1.9762   -1.9268 C   0  0  0  0  0  0  0  0  0  0  0  0
    3.5900   -3.0935   -1.7328 O   0  0  0  0  0  0  0  0  0  0  0  0
    4.6689   -0.6766    0.1308 C   0  0  0  0  0  0  0  0  0  0  0  0
    1.9974   -1.8271   -0.4593 H   0  0  0  0  0  0  0  0  0  0  0  0
    3.7933    0.1430   -1.6645 H   0  0  0  0  0  0  0  0  0  0  0  0
    4.6182   -1.5815    0.7472 H   0  0  0  0  0  0  0  0  0  0  0  0
    5.7081   -0.5543   -0.1920 H   0  0  0  0  0  0  0  0  0  0  0  0
    4.4074    0.1749    0.7683 H   0  0  0  0  0  0  0  0  0  0  0  0
    4.9896   -1.6690   -2.9148 N   0  0  0  0  0  0  0  0  0  0  0  0
    5.5009   -2.6551   -3.8379 C   0  0  0  0  0  0  0  0  0  0  0  0
    5.2989   -0.7082   -3.0283 H   0  0  0  0  0  0  0  0  0  0  0  0
    6.4291   -3.0876   -3.4362 H   0  0  0  0  0  0  0  0  0  0  0  0
    4.7544   -3.4515   -3.9741 H   0  0  0  0  0  0  0  0  0  0  0  0
    5.7084   -2.1774   -4.8068 H   0  0  0  0  0  0  0  0  0  0  0  0
  1  3  1  0  0  0  0
  1  7  1  0  0  0  0
  1  2  2  0  0  0  0
 42 43  1  0  0  0  0
 43 51  1  0  0  0  0
 43 44  2  0  0  0  0
  8  9  1  0  0  0  0
  9 17  1  0  0  0  0
  9 10  2  0  0  0  0
 18 19  1  0  0  0  0
 19 41  1  0  0  0  0
 19 20  2  0  0  0  0
 25 26  1  0  0  0  0
 25 27  1  0  0  0  0
 24 25  2  0  0  0  0
 42 45  1  0  0  0  0
  8 11  1  0  0  0  0
 51 52  1  0  0  0  0
 21 22  1  0  0  0  0
 22 23  1  0  0  0  0
 18 21  1  0  0  0  0
 23 24  1  0  0  0  0
 41 42  1  0  0  0  0
  7  8  1  0  0  0  0
 17 18  1  0  0  0  0
  3  4  1  0  0  0  0
  3  5  1  0  0  0  0
  3  6  1  0  0  0  0
 45 48  1  0  0  0  0
 45 49  1  0  0  0  0
 45 50  1  0  0  0  0
 11 14  1  0  0  0  0
 11 15  1  0  0  0  0
 11 16  1  0  0  0  0
 52 54  1  0  0  0  0
 52 55  1  0  0  0  0
 52 56  1  0  0  0  0
 22 32  1  0  0  0  0
 22 33  1  0  0  0  0
 21 30  1  0  0  0  0
 21 31  1  0  0  0  0
 23 34  1  0  0  0  0
 23 35  1  0  0  0  0
 42 47  1  0  0  0  0
  8 13  1  0  0  0  0
 18 29  1  0  0  0  0
 26 37  1  0  0  0  0
 26 38  1  0  0  0  0
 27 39  1  0  0  0  0
 27 40  1  0  0  0  0
 51 53  1  0  0  0  0
  7 12  1  0  0  0  0
 41 46  1  0  0  0  0
 17 28  1  0  0  0  0
 24 36  1  0  0  0  0
M  CHG  1  24   1
M  END
$$$$

  -OEChem-05262214473D

 56 55  0     1  0  0  0  0  0999 V2000
    0.7735   -5.8042   -2.0022 C   0  0  0  0  0  0  0  0  0  0  0  0
   -0.2086   -6.3825   -1.5519 O   0  0  0  0  0  0  0  0  0  0  0  0
    1.4751   -6.3646   -3.1946 C   0  0  0  0  0  0  0  0  0  0  0  0
    2.2765   -7.0687   -2.9186 H   0  0  0  0  0  0  0  0  0  0  0  0
    0.7988   -6.9360   -3.8504 H   0  0  0  0  0  0  0  0  0  0  0  0
    1.9556   -5.6216   -3.8511 H   0  0  0  0  0  0  0  0  0  0  0  0
    1.3322   -4.6359   -1.5106 N   0  0  0  0  0  0  0  0  0  0  0  0
    0.8124   -3.9290   -0.3698 C   0  0  2  0  0  0  0  0  0  0  0  0
    1.0666   -2.4424   -0.5818 C   0  0  0  0  0  0  0  0  0  0  0  0
    2.0598   -2.0076   -1.1610 O   0  0  0  0  0  0  0  0  0  0  0  0
    1.4560   -4.4118    0.9207 C   0  0  0  0  0  0  0  0  0  0  0  0
    2.1528   -4.2578   -1.9805 H   0  0  0  0  0  0  0  0  0  0  0  0
   -0.2667   -4.1160   -0.3467 H   0  0  0  0  0  0  0  0  0  0  0  0
    2.5374   -4.2329    0.9160 H   0  0  0  0  0  0  0  0  0  0  0  0
    1.0390   -3.8932    1.7903 H   0  0  0  0  0  0  0  0  0  0  0  0
    1.2976   -5.4871    1.0566 H   0  0  0  0  0  0  0  0  0  0  0  0
    0.0755   -1.6529   -0.0105 N   0  0  0  0  0  0  0  0  0  0  0  0
    0.1113   -0.2132   -0.0391 C   0  0  2  0  0  0  0  0  0  0  0  0
    1.5262    0.2023   -0.4278 C   0  0  0  0  0  0  0  0  0  0  0  0
    1.9387    1.3551   -0.3181 O   0  0  0  0  0  0  0  0  0  0  0  0
   -0.2747    0.3994    1.3110 C   0  0  0  0  0  0  0  0  0  0  0  0
   -1.7451    0.1492    1.6670 C   0  0  0  0  0  0  0  0  0  0  0  0
   -2.1238    0.7611    3.0117 C   0  0  0  0  0  0  0  0  0  0  0  0
   -3.5192    0.5005    3.3581 N   0  3  0  0  0  0  0  0  0  0  0  0
   -4.0771    0.9095    4.5707 C   0  0  0  0  0  0  0  0  0  0  0  0
   -5.4134    0.6267    4.8331 N   0  0  0  0  0  0  0  0  0  0  0  0
   -3.3291    1.5938    5.5232 N   0  0  0  0  0  0  0  0  0  0  0  0
   -0.7323   -2.1024    0.4149 H   0  0  0  0  0  0  0  0  0  0  0  0
   -0.5834    0.1062   -0.8243 H   0  0  0  0  0  0  0  0  0  0  0  0
   -0.0857    1.4794    1.2893 H   0  0  0  0  0  0  0  0  0  0  0  0
    0.3665   -0.0111    2.1023 H   0  0  0  0  0  0  0  0  0  0  0  0
   -2.3889    0.5633    0.8818 H   0  0  0  0  0  0  0  0  0  0  0  0
   -1.9345   -0.9295    1.7113 H   0  0  0  0  0  0  0  0  0  0  0  0
   -1.5058    0.3241    3.8021 H   0  0  0  0  0  0  0  0  0  0  0  0
   -1.9719    1.8448    3.0048 H   0  0  0  0  0  0  0  0  0  0  0  0
   -4.1166    0.0034    2.6999 H   0  0  0  0  0  0  0  0  0  0  0  0
   -5.8504    0.9109    5.7066 H   0  0  0  0  0  0  0  0  0  0  0  0
   -5.9889    0.1280    4.1588 H   0  0  0  0  0  0  0  0  0  0  0  0
   -3.7306    1.8938    6.4077 H   0  0  0  0  0  0  0  0  0  0  0  0
   -2.3496    1.8141    5.3589 H   0  0  0  0  0  0  0  0  0  0  0  0
    2.2545   -0.8546   -0.9560 N   0  0  0  0  0  0  0  0  0  0  0  0
    3.6065   -0.7111   -1.4449 C   0  0  2  0  0  0  0  0  0  0  0  0
    3.7965   -1.6896   -2.5964 C   0  0  0  0  0  0  0  0  0  0  0  0
    3.2529   -2.7914   -2.6370 O   0  0  0  0  0  0  0  0  0  0  0  0
    4.6233   -0.9646   -0.3429 C   0  0  0  0  0  0  0  0  0  0  0  0
    1.8419   -1.7824   -0.9779 H   0  0  0  0  0  0  0  0  0  0  0  0
    3.7009    0.3148   -1.8173 H   0  0  0  0  0  0  0  0  0  0  0  0
    4.5439   -1.9875    0.0427 H   0  0  0  0  0  0  0  0  0  0  0  0
    5.6465   -0.8275   -0.7080 H   0  0  0  0  0  0  0  0  0  0  0  0
    4.4664   -0.2795    0.4973 H   0  0  0  0  0  0  0  0  0  0  0  0
    4.6783   -1.2055   -3.5526 N   0  0  0  0  0  0  0  0  0  0  0  0
    5.0560   -1.9660   -4.7209 C   0  0  0  0  0  0  0  0  0  0  0  0
    5.0507   -0.2652   -3.4583 H   0  0  0  0  0  0  0  0  0  0  0  0
    5.9726   -2.5354   -4.5078 H   0  0  0  0  0  0  0  0  0  0  0  0
    4.2451   -2.6614   -4.9835 H   0  0  0  0  0  0  0  0  0  0  0  0
    5.2376   -1.2802   -5.5617 H   0  0  0  0  0  0  0  0  0  0  0  0
  1  3  1  0  0  0  0
  1  7  1  0  0  0  0
  1  2  2  0  0  0  0
 42 43  1  0  0  0  0
 43 51  1  0  0  0  0
 43 44  2  0  0  0  0
  8  9  1  0  0  0  0
  9 17  1  0  0  0  0
  9 10  2  0  0  0  0
 18 19  1  0  0  0  0
 19 41  1  0  0  0  0
 19 20  2  0  0  0  0
 25 26  1  0  0  0  0
 25 27  1  0  0  0  0
 24 25  2  0  0  0  0
 42 45  1  0  0  0  0
  8 11  1  0  0  0  0
 51 52  1  0  0  0  0
 21 22  1  0  0  0  0
 22 23  1  0  0  0  0
 18 21  1  0  0  0  0
 23 24  1  0  0  0  0
 41 42  1  0  0  0  0
  7  8  1  0  0  0  0
 17 18  1  0  0  0  0
  3  4  1  0  0  0  0
  3  5  1  0  0  0  0
  3  6  1  0  0  0  0
 45 48  1  0  0  0  0
 45 49  1  0  0  0  0
 45 50  1  0  0  0  0
 11 14  1  0  0  0  0
 11 15  1  0  0  0  0
 11 16  1  0  0  0  0
 52 54  1  0  0  0  0
 52 55  1  0  0  0  0
 52 56  1  0  0  0  0
 22 32  1  0  0  0  0
 22 33  1  0  0  0  0
 21 30  1  0  0  0  0
 21 31  1  0  0  0  0
 23 34  1  0  0  0  0
 23 35  1  0  0  0  0
 42 47  1  0  0  0  0
  8 13  1  0  0  0  0
 18 29  1  0  0  0  0
 26 37  1  0  0  0  0
 26 38  1  0  0  0  0
 27 39  1  0  0  0  0
 27 40  1  0  0  0  0
 51 53  1  0  0  0  0
  7 12  1  0  0  0  0
 41 46  1  0  0  0  0
 17 28  1  0  0  0  0
 24 36  1  0  0  0  0
M  CHG  1  24   1
M  END
$$$$

  -OEChem-05262214473D

 56 55  0     1  0  0  0  0  0999 V2000
    0.7735   -5.8042   -2.0022 C   0  0  0  0  0  0  0  0  0  0  0  0
   -0.2086   -6.3825   -1.5519 O   0  0  0  0  0  0  0  0  0  0  0  0
    1.4751   -6.3646   -3.1946 C   0  0  0  0  0  0  0  0  0  0  0  0
    2.2765   -7.0687   -2.9186 H   0  0  0  0  0  0  0  0  0  0  0  0
    0.7988   -6.9360   -3.8504 H   0  0  0  0  0  0  0  0  0  0  0  0
    1.9556   -5.6216   -3.8511 H   0  0  0  0  0  0  0  0  0  0  0  0
    1.3322   -4.6359   -1.5106 N   0  0  0  0  0  0  0  0  0  0  0  0
    0.8124   -3.9290   -0.3698 C   0  0  2  0  0  0  0  0  0  0  0  0
    1.0666   -2.4424   -0.5818 C   0  0  0  0  0  0  0  0  0  0  0  0
    2.0598   -2.0076   -1.1610 O   0  0  0  0  0  0  0  0  0  0  0  0
    1.4560   -4.4118    0.9207 C   0  0  0  0  0  0  0  0  0  0  0  0
    2.1528   -4.2578   -1.9805 H   0  0  0  0  0  0  0  0  0  0  0  0
   -0.2667   -4.1160   -0.3467 H   0  0  0  0  0  0  0  0  0  0  0  0
    2.5374   -4.2329    0.9160 H   0  0  0  0  0  0  0  0  0  0  0  0
    1.0390   -3.8932    1.7903 H   0  0  0  0  0  0  0  0  0  0  0  0
    1.2976   -5.4871    1.0566 H   0  0  0  0  0  0  0  0  0  0  0  0
    0.0755   -1.6529   -0.0105 N   0  0  0  0  0  0  0  0  0  0  0  0
    0.1113   -0.2132   -0.0391 C   0  0  2  0  0  0  0  0  0  0  0  0
    1.5262    0.2023   -0.4278 C   0  0  0  0  0  0  0  0  0  0  0  0
    2.0296    1.2685   -0.0799 O   0  0  0  0  0  0  0  0  0  0  0  0
   -0.2747    0.3994    1.3110 C   0  0  0  0  0  0  0  0  0  0  0  0
   -1.7451    0.1492    1.6670 C   0  0  0  0  0  0  0  0  0  0  0  0
   -2.1238    0.7611    3.0117 C   0  0  0  0  0  0  0  0  0  0  0  0
   -3.5192    0.5005    3.3581 N   0  3  0  0  0  0  0  0  0  0  0  0
   -4.0771    0.9095    4.5707 C   0  0  0  0  0  0  0  0  0  0  0  0
   -5.4134    0.6267    4.8331 N   0  0  0  0  0  0  0  0  0  0  0  0
   -3.3291    1.5938    5.5232 N   0  0  0  0  0  0  0  0  0  0  0  0
   -0.7323   -2.1024    0.4149 H   0  0  0  0  0  0  0  0  0  0  0  0
   -0.5834    0.1062   -0.8243 H   0  0  0  0  0  0  0  0  0  0  0  0
   -0.0857    1.4794    1.2893 H   0  0  0  0  0  0  0  0  0  0  0  0
    0.3665   -0.0111    2.1023 H   0  0  0  0  0  0  0  0  0  0  0  0
   -2.3889    0.5633    0.8818 H   0  0  0  0  0  0  0  0  0  0  0  0
   -1.9345   -0.9295    1.7113 H   0  0  0  0  0  0  0  0  0  0  0  0
   -1.5058    0.3241    3.8021 H   0  0  0  0  0  0  0  0  0  0  0  0
   -1.9719    1.8448    3.0048 H   0  0  0  0  0  0  0  0  0  0  0  0
   -4.1166    0.0034    2.6999 H   0  0  0  0  0  0  0  0  0  0  0  0
   -5.8504    0.9109    5.7066 H   0  0  0  0  0  0  0  0  0  0  0  0
   -5.9889    0.1280    4.1588 H   0  0  0  0  0  0  0  0  0  0  0  0
   -3.7306    1.8938    6.4077 H   0  0  0  0  0  0  0  0  0  0  0  0
   -2.3496    1.8141    5.3589 H   0  0  0  0  0  0  0  0  0  0  0  0
    2.1393   -0.7349   -1.2476 N   0  0  0  0  0  0  0  0  0  0  0  0
    3.4650   -0.5549   -1.7932 C   0  0  2  0  0  0  0  0  0  0  0  0
    3.5091   -1.2342   -3.1555 C   0  0  0  0  0  0  0  0  0  0  0  0
    2.8835   -2.2602   -3.4141 O   0  0  0  0  0  0  0  0  0  0  0  0
    4.5269   -1.1259   -0.8664 C   0  0  0  0  0  0  0  0  0  0  0  0
    1.6580   -1.6045   -1.4570 H   0  0  0  0  0  0  0  0  0  0  0  0
    3.6122    0.5235   -1.9172 H   0  0  0  0  0  0  0  0  0  0  0  0
    4.3957   -2.2056   -0.7300 H   0  0  0  0  0  0  0  0  0  0  0  0
    5.5327   -0.9634   -1.2676 H   0  0  0  0  0  0  0  0  0  0  0  0
    4.4743   -0.6573    0.1222 H   0  0  0  0  0  0  0  0  0  0  0  0
    4.3632   -0.5841   -4.0354 N   0  0  0  0  0  0  0  0  0  0  0  0
    4.6094   -1.0589   -5.3770 C   0  0  0  0  0  0  0  0  0  0  0  0
    4.8098    0.2823   -3.7499 H   0  0  0  0  0  0  0  0  0  0  0  0
    5.4925   -1.7147   -5.3782 H   0  0  0  0  0  0  0  0  0  0  0  0
    3.7341   -1.6222   -5.7329 H   0  0  0  0  0  0  0  0  0  0  0  0
    4.7887   -0.2014   -6.0422 H   0  0  0  0  0  0  0  0  0  0  0  0
  1  3  1  0  0  0  0
  1  7  1  0  0  0  0
  1  2  2  0  0  0  0
 42 43  1  0  0  0  0
 43 51  1  0  0  0  0
 43 44  2  0  0  0  0
  8  9  1  0  0  0  0
  9 17  1  0  0  0  0
  9 10  2  0  0  0  0
 18 19  1  0  0  0  0
 19 41  1  0  0  0  0
 19 20  2  0  0  0  0
 25 26  1  0  0  0  0
 25 27  1  0  0  0  0
 24 25  2  0  0  0  0
 42 45  1  0  0  0  0
  8 11  1  0  0  0  0
 51 52  1  0  0  0  0
 21 22  1  0  0  0  0
 22 23  1  0  0  0  0
 18 21  1  0  0  0  0
 23 24  1  0  0  0  0
 41 42  1  0  0  0  0
  7  8  1  0  0  0  0
 17 18  1  0  0  0  0
  3  4  1  0  0  0  0
  3  5  1  0  0  0  0
  3  6  1  0  0  0  0
 45 48  1  0  0  0  0
 45 49  1  0  0  0  0
 45 50  1  0  0  0  0
 11 14  1  0  0  0  0
 11 15  1  0  0  0  0
 11 16  1  0  0  0  0
 52 54  1  0  0  0  0
 52 55  1  0  0  0  0
 52 56  1  0  0  0  0
 22 32  1  0  0  0  0
 22 33  1  0  0  0  0
 21 30  1  0  0  0  0
 21 31  1  0  0  0  0
 23 34  1  0  0  0  0
 23 35  1  0  0  0  0
 42 47  1  0  0  0  0
  8 13  1  0  0  0  0
 18 29  1  0  0  0  0
 26 37  1  0  0  0  0
 26 38  1  0  0  0  0
 27 39  1  0  0  0  0
 27 40  1  0  0  0  0
 51 53  1  0  0  0  0
  7 12  1  0  0  0  0
 41 46  1  0  0  0  0
 17 28  1  0  0  0  0
 24 36  1  0  0  0  0
M  CHG  1  24   1
M  END
$$$$

  -OEChem-05262214473D

 56 55  0     1  0  0  0  0  0999 V2000
    0.7735   -5.8042   -2.0022 C   0  0  0  0  0  0  0  0  0  0  0  0
   -0.2086   -6.3825   -1.5519 O   0  0  0  0  0  0  0  0  0  0  0  0
    1.4751   -6.3646   -3.1946 C   0  0  0  0  0  0  0  0  0  0  0  0
    2.2765   -7.0687   -2.9186 H   0  0  0  0  0  0  0  0  0  0  0  0
    0.7988   -6.9360   -3.8504 H   0  0  0  0  0  0  0  0  0  0  0  0
    1.9556   -5.6216   -3.8511 H   0  0  0  0  0  0  0  0  0  0  0  0
    1.3322   -4.6359   -1.5106 N   0  0  0  0  0  0  0  0  0  0  0  0
    0.8124   -3.9290   -0.3698 C   0  0  2  0  0  0  0  0  0  0  0  0
    1.0666   -2.4424   -0.5818 C   0  0  0  0  0  0  0  0  0  0  0  0
    2.0598   -2.0076   -1.1610 O   0  0  0  0  0  0  0  0  0  0  0  0
    1.4560   -4.4118    0.9207 C   0  0  0  0  0  0  0  0  0  0  0  0
    2.1528   -4.2578   -1.9805 H   0  0  0  0  0  0  0  0  0  0  0  0
   -0.2667   -4.1160   -0.3467 H   0  0  0  0  0  0  0  0  0  0  0  0
    2.5374   -4.2329    0.9160 H   0  0  0  0  0  0  0  0  0  0  0  0
    1.0390   -3.8932    1.7903 H   0  0  0  0  0  0  0  0  0  0  0  0
    1.2976   -5.4871    1.0566 H   0  0  0  0  0  0  0  0  0  0  0  0
    0.0755   -1.6529   -0.0105 N   0  0  0  0  0  0  0  0  0  0  0  0
    0.1113   -0.2132   -0.0391 C   0  0  2  0  0  0  0  0  0  0  0  0
    1.5262    0.2023   -0.4278 C   0  0  0  0  0  0  0  0  0  0  0  0
    2.1285    1.1216    0.1230 O   0  0  0  0  0  0  0  0  0  0  0  0
   -0.2747    0.3994    1.3110 C   0  0  0  0  0  0  0  0  0  0  0  0
   -1.7451    0.1492    1.6670 C   0  0  0  0  0  0  0  0  0  0  0  0
   -2.1238    0.7611    3.0117 C   0  0  0  0  0  0  0  0  0  0  0  0
   -3.5192    0.5005    3.3581 N   0  3  0  0  0  0  0  0  0  0  0  0
   -4.0771    0.9095    4.5707 C   0  0  0  0  0  0  0  0  0  0  0  0
   -5.4134    0.6267    4.8331 N   0  0  0  0  0  0  0  0  0  0  0  0
   -3.3291    1.5938    5.5232 N   0  0  0  0  0  0  0  0  0  0  0  0
   -0.7323   -2.1024    0.4149 H   0  0  0  0  0  0  0  0  0  0  0  0
   -0.5834    0.1062   -0.8243 H   0  0  0  0  0  0  0  0  0  0  0  0
   -0.0857    1.4794    1.2893 H   0  0  0  0  0  0  0  0  0  0  0  0
    0.3665   -0.0111    2.1023 H   0  0  0  0  0  0  0  0  0  0  0  0
   -2.3889    0.5633    0.8818 H   0  0  0  0  0  0  0  0  0  0  0  0
   -1.9345   -0.9295    1.7113 H   0  0  0  0  0  0  0  0  0  0  0  0
   -1.5058    0.3241    3.8021 H   0  0  0  0  0  0  0  0  0  0  0  0
   -1.9719    1.8448    3.0048 H   0  0  0  0  0  0  0  0  0  0  0  0
   -4.1166    0.0034    2.6999 H   0  0  0  0  0  0  0  0  0  0  0  0
   -5.8504    0.9109    5.7066 H   0  0  0  0  0  0  0  0  0  0  0  0
   -5.9889    0.1280    4.1588 H   0  0  0  0  0  0  0  0  0  0  0  0
   -3.7306    1.8938    6.4077 H   0  0  0  0  0  0  0  0  0  0  0  0
   -2.3496    1.8141    5.3589 H   0  0  0  0  0  0  0  0  0  0  0  0
    2.0153   -0.5417   -1.4925 N   0  0  0  0  0  0  0  0  0  0  0  0
    3.3140   -0.3111   -2.0820 C   0  0  2  0  0  0  0  0  0  0  0  0
    3.2222   -0.6411   -3.5660 C   0  0  0  0  0  0  0  0  0  0  0  0
    2.5069   -1.5362   -4.0111 O   0  0  0  0  0  0  0  0  0  0  0  0
    4.3862   -1.1498   -1.4040 C   0  0  0  0  0  0  0  0  0  0  0  0
    1.4584   -1.3055   -1.8642 H   0  0  0  0  0  0  0  0  0  0  0  0
    3.5332    0.7549   -1.9572 H   0  0  0  0  0  0  0  0  0  0  0  0
    4.1836   -2.2209   -1.5184 H   0  0  0  0  0  0  0  0  0  0  0  0
    5.3743   -0.9527   -1.8328 H   0  0  0  0  0  0  0  0  0  0  0  0
    4.4305   -0.9326   -0.3313 H   0  0  0  0  0  0  0  0  0  0  0  0
    4.0657    0.1529   -4.3303 N   0  0  0  0  0  0  0  0  0  0  0  0
    4.1916    0.0042   -5.7615 C   0  0  0  0  0  0  0  0  0  0  0  0
    4.5927    0.8971   -3.8830 H   0  0  0  0  0  0  0  0  0  0  0  0
    5.0216   -0.6812   -5.9879 H   0  0  0  0  0  0  0  0  0  0  0  0
    3.2562   -0.4048   -6.1711 H   0  0  0  0  0  0  0  0  0  0  0  0
    4.3925    0.9857   -6.2156 H   0  0  0  0  0  0  0  0  0  0  0  0
  1  3  1  0  0  0  0
  1  7  1  0  0  0  0
  1  2  2  0  0  0  0
 42 43  1  0  0  0  0
 43 51  1  0  0  0  0
 43 44  2  0  0  0  0
  8  9  1  0  0  0  0
  9 17  1  0  0  0  0
  9 10  2  0  0  0  0
 18 19  1  0  0  0  0
 19 41  1  0  0  0  0
 19 20  2  0  0  0  0
 25 26  1  0  0  0  0
 25 27  1  0  0  0  0
 24 25  2  0  0  0  0
 42 45  1  0  0  0  0
  8 11  1  0  0  0  0
 51 52  1  0  0  0  0
 21 22  1  0  0  0  0
 22 23  1  0  0  0  0
 18 21  1  0  0  0  0
 23 24  1  0  0  0  0
 41 42  1  0  0  0  0
  7  8  1  0  0  0  0
 17 18  1  0  0  0  0
  3  4  1  0  0  0  0
  3  5  1  0  0  0  0
  3  6  1  0  0  0  0
 45 48  1  0  0  0  0
 45 49  1  0  0  0  0
 45 50  1  0  0  0  0
 11 14  1  0  0  0  0
 11 15  1  0  0  0  0
 11 16  1  0  0  0  0
 52 54  1  0  0  0  0
 52 55  1  0  0  0  0
 52 56  1  0  0  0  0
 22 32  1  0  0  0  0
 22 33  1  0  0  0  0
 21 30  1  0  0  0  0
 21 31  1  0  0  0  0
 23 34  1  0  0  0  0
 23 35  1  0  0  0  0
 42 47  1  0  0  0  0
  8 13  1  0  0  0  0
 18 29  1  0  0  0  0
 26 37  1  0  0  0  0
 26 38  1  0  0  0  0
 27 39  1  0  0  0  0
 27 40  1  0  0  0  0
 51 53  1  0  0  0  0
  7 12  1  0  0  0  0
 41 46  1  0  0  0  0
 17 28  1  0  0  0  0
 24 36  1  0  0  0  0
M  CHG  1  24   1
M  END
$$$$

  -OEChem-05262214473D

 56 55  0     1  0  0  0  0  0999 V2000
    0.7735   -5.8042   -2.0022 C   0  0  0  0  0  0  0  0  0  0  0  0
   -0.2086   -6.3825   -1.5519 O   0  0  0  0  0  0  0  0  0  0  0  0
    1.4751   -6.3646   -3.1946 C   0  0  0  0  0  0  0  0  0  0  0  0
    2.2765   -7.0687   -2.9186 H   0  0  0  0  0  0  0  0  0  0  0  0
    0.7988   -6.9360   -3.8504 H   0  0  0  0  0  0  0  0  0  0  0  0
    1.9556   -5.6216   -3.8511 H   0  0  0  0  0  0  0  0  0  0  0  0
    1.3322   -4.6359   -1.5106 N   0  0  0  0  0  0  0  0  0  0  0  0
    0.8124   -3.9290   -0.3698 C   0  0  2  0  0  0  0  0  0  0  0  0
    1.0666   -2.4424   -0.5818 C   0  0  0  0  0  0  0  0  0  0  0  0
    2.0598   -2.0076   -1.1610 O   0  0  0  0  0  0  0  0  0  0  0  0
    1.4560   -4.4118    0.9207 C   0  0  0  0  0  0  0  0  0  0  0  0
    2.1528   -4.2578   -1.9805 H   0  0  0  0  0  0  0  0  0  0  0  0
   -0.2667   -4.1160   -0.3467 H   0  0  0  0  0  0  0  0  0  0  0  0
    2.5374   -4.2329    0.9160 H   0  0  0  0  0  0  0  0  0  0  0  0
    1.0390   -3.8932    1.7903 H   0  0  0  0  0  0  0  0  0  0  0  0
    1.2976   -5.4871    1.0566 H   0  0  0  0  0  0  0  0  0  0  0  0
    0.0755   -1.6529   -0.0105 N   0  0  0  0  0  0  0  0  0  0  0  0
    0.1113   -0.2132   -0.0391 C   0  0  2  0  0  0  0  0  0  0  0  0
    1.5262    0.2023   -0.4278 C   0  0  0  0  0  0  0  0  0  0  0  0
    2.2286    0.9245    0.2767 O   0  0  0  0  0  0  0  0  0  0  0  0
   -0.2747    0.3994    1.3110 C   0  0  0  0  0  0  0  0  0  0  0  0
   -1.7451    0.1492    1.6670 C   0  0  0  0  0  0  0  0  0  0  0  0
   -2.1238    0.7611    3.0117 C   0  0  0  0  0  0  0  0  0  0  0  0
   -3.5192    0.5005    3.3581 N   0  3  0  0  0  0  0  0  0  0  0  0
   -4.0771    0.9095    4.5707 C   0  0  0  0  0  0  0  0  0  0  0  0
   -5.4134    0.6267    4.8331 N   0  0  0  0  0  0  0  0  0  0  0  0
   -3.3291    1.5938    5.5232 N   0  0  0  0  0  0  0  0  0  0  0  0
   -0.7323   -2.1024    0.4149 H   0  0  0  0  0  0  0  0  0  0  0  0
   -0.5834    0.1062   -0.8243 H   0  0  0  0  0  0  0  0  0  0  0  0
   -0.0857    1.4794    1.2893 H   0  0  0  0  0  0  0  0  0  0  0  0
    0.3665   -0.0111    2.1023 H   0  0  0  0  0  0  0  0  0  0  0  0
   -2.3889    0.5633    0.8818 H   0  0  0  0  0  0  0  0  0  0  0  0
   -1.9345   -0.9295    1.7113 H   0  0  0  0  0  0  0  0  0  0  0  0
   -1.5058    0.3241    3.8021 H   0  0  0  0  0  0  0  0  0  0  0  0
   -1.9719    1.8448    3.0048 H   0  0  0  0  0  0  0  0  0  0  0  0
   -4.1166    0.0034    2.6999 H   0  0  0  0  0  0  0  0  0  0  0  0
   -5.8504    0.9109    5.7066 H   0  0  0  0  0  0  0  0  0  0  0  0
   -5.9889    0.1280    4.1588 H   0  0  0  0  0  0  0  0  0  0  0  0
   -3.7306    1.8938    6.4077 H   0  0  0  0  0  0  0  0  0  0  0  0
   -2.3496    1.8141    5.3589 H   0  0  0  0  0  0  0  0  0  0  0  0
    1.8910   -0.2881   -1.6739 N   0  0  0  0  0  0  0  0  0  0  0  0
    3.1639    0.0037   -2.2919 C   0  0  2  0  0  0  0  0  0  0  0  0
    2.9553    0.0492   -3.7998 C   0  0  0  0  0  0  0  0  0  0  0  0
    2.1488   -0.6687   -4.3873 O   0  0  0  0  0  0  0  0  0  0  0  0
    4.2109   -1.0344   -1.9191 C   0  0  0  0  0  0  0  0  0  0  0  0
    1.2565   -0.9057   -2.1716 H   0  0  0  0  0  0  0  0  0  0  0  0
    3.4694    0.9933   -1.9348 H   0  0  0  0  0  0  0  0  0  0  0  0
    3.9222   -2.0324   -2.2686 H   0  0  0  0  0  0  0  0  0  0  0  0
    5.1822   -0.7962   -2.3650 H   0  0  0  0  0  0  0  0  0  0  0  0
    4.3382   -1.0868   -0.8324 H   0  0  0  0  0  0  0  0  0  0  0  0
    3.8063    0.9551   -4.4173 N   0  0  0  0  0  0  0  0  0  0  0  0
    3.8310    1.1510   -5.8480 C   0  0  0  0  0  0  0  0  0  0  0  0
    4.4142    1.5372   -3.8486 H   0  0  0  0  0  0  0  0  0  0  0  0
    4.5918    0.4945   -6.2954 H   0  0  0  0  0  0  0  0  0  0  0  0
    2.8440    0.9079   -6.2684 H   0  0  0  0  0  0  0  0  0  0  0  0
    4.0758    2.2002   -6.0701 H   0  0  0  0  0  0  0  0  0  0  0  0
  1  3  1  0  0  0  0
  1  7  1  0  0  0  0
  1  2  2  0  0  0  0
 42 43  1  0  0  0  0
 43 51  1  0  0  0  0
 43 44  2  0  0  0  0
  8  9  1  0  0  0  0
  9 17  1  0  0  0  0
  9 10  2  0  0  0  0
 18 19  1  0  0  0  0
 19 41  1  0  0  0  0
 19 20  2  0  0  0  0
 25 26  1  0  0  0  0
 25 27  1  0  0  0  0
 24 25  2  0  0  0  0
 42 45  1  0  0  0  0
  8 11  1  0  0  0  0
 51 52  1  0  0  0  0
 21 22  1  0  0  0  0
 22 23  1  0  0  0  0
 18 21  1  0  0  0  0
 23 24  1  0  0  0  0
 41 42  1  0  0  0  0
  7  8  1  0  0  0  0
 17 18  1  0  0  0  0
  3  4  1  0  0  0  0
  3  5  1  0  0  0  0
  3  6  1  0  0  0  0
 45 48  1  0  0  0  0
 45 49  1  0  0  0  0
 45 50  1  0  0  0  0
 11 14  1  0  0  0  0
 11 15  1  0  0  0  0
 11 16  1  0  0  0  0
 52 54  1  0  0  0  0
 52 55  1  0  0  0  0
 52 56  1  0  0  0  0
 22 32  1  0  0  0  0
 22 33  1  0  0  0  0
 21 30  1  0  0  0  0
 21 31  1  0  0  0  0
 23 34  1  0  0  0  0
 23 35  1  0  0  0  0
 42 47  1  0  0  0  0
  8 13  1  0  0  0  0
 18 29  1  0  0  0  0
 26 37  1  0  0  0  0
 26 38  1  0  0  0  0
 27 39  1  0  0  0  0
 27 40  1  0  0  0  0
 51 53  1  0  0  0  0
  7 12  1  0  0  0  0
 41 46  1  0  0  0  0
 17 28  1  0  0  0  0
 24 36  1  0  0  0  0
M  CHG  1  24   1
M  END
$$$$

  -OEChem-05262214473D

 56 55  0     1  0  0  0  0  0999 V2000
    0.7735   -5.8042   -2.0022 C   0  0  0  0  0  0  0  0  0  0  0  0
   -0.2086   -6.3825   -1.5519 O   0  0  0  0  0  0  0  0  0  0  0  0
    1.4751   -6.3646   -3.1946 C   0  0  0  0  0  0  0  0  0  0  0  0
    2.2765   -7.0687   -2.9186 H   0  0  0  0  0  0  0  0  0  0  0  0
    0.7988   -6.9360   -3.8504 H   0  0  0  0  0  0  0  0  0  0  0  0
    1.9556   -5.6216   -3.8511 H   0  0  0  0  0  0  0  0  0  0  0  0
    1.3322   -4.6359   -1.5106 N   0  0  0  0  0  0  0  0  0  0  0  0
    0.8124   -3.9290   -0.3698 C   0  0  2  0  0  0  0  0  0  0  0  0
    1.0666   -2.4424   -0.5818 C   0  0  0  0  0  0  0  0  0  0  0  0
    2.0598   -2.0076   -1.1610 O   0  0  0  0  0  0  0  0  0  0  0  0
    1.4560   -4.4118    0.9207 C   0  0  0  0  0  0  0  0  0  0  0  0
    2.1528   -4.2578   -1.9805 H   0  0  0  0  0  0  0  0  0  0  0  0
   -0.2667   -4.1160   -0.3467 H   0  0  0  0  0  0  0  0  0  0  0  0
    2.5374   -4.2329    0.9160 H   0  0  0  0  0  0  0  0  0  0  0  0
    1.0390   -3.8932    1.7903 H   0  0  0  0  0  0  0  0  0  0  0  0
    1.2976   -5.4871    1.0566 H   0  0  0  0  0  0  0  0  0  0  0  0
    0.0755   -1.6529   -0.0105 N   0  0  0  0  0  0  0  0  0  0  0  0
    0.1113   -0.2132   -0.0391 C   0  0  2  0  0  0  0  0  0  0  0  0
    1.5262    0.2023   -0.4278 C   0  0  0  0  0  0  0  0  0  0  0  0
    2.3231    0.6906    0.3708 O   0  0  0  0  0  0  0  0  0  0  0  0
   -0.2747    0.3994    1.3110 C   0  0  0  0  0  0  0  0  0  0  0  0
   -1.7451    0.1492    1.6670 C   0  0  0  0  0  0  0  0  0  0  0  0
   -2.1238    0.7611    3.0117 C   0  0  0  0  0  0  0  0  0  0  0  0
   -3.5192    0.5005    3.3581 N   0  3  0  0  0  0  0  0  0  0  0  0
   -4.0771    0.9095    4.5707 C   0  0  0  0  0  0  0  0  0  0  0  0
   -5.4134    0.6267    4.8331 N   0  0  0  0  0  0  0  0  0  0  0  0
   -3.3291    1.5938    5.5232 N   0  0  0  0  0  0  0  0  0  0  0  0
   -0.7323   -2.1024    0.4149 H   0  0  0  0  0  0  0  0  0  0  0  0
   -0.5834    0.1062   -0.8243 H   0  0  0  0  0  0  0  0  0  0  0  0
   -0.0857    1.4794    1.2893 H   0  0  0  0  0  0  0  0  0  0  0  0
    0.3665   -0.0111    2.1023 H   0  0  0  0  0  0  0  0  0  0  0  0
   -2.3889    0.5633    0.8818 H   0  0  0  0  0  0  0  0  0  0  0  0
   -1.9345   -0.9295    1.7113 H   0  0  0  0  0  0  0  0  0  0  0  0
   -1.5058    0.3241    3.8021 H   0  0  0  0  0  0  0  0  0  0  0  0
   -1.9719    1.8448    3.0048 H   0  0  0  0  0  0  0  0  0  0  0  0
   -4.1166    0.0034    2.6999 H   0  0  0  0  0  0  0  0  0  0  0  0
   -5.8504    0.9109    5.7066 H   0  0  0  0  0  0  0  0  0  0  0  0
   -5.9889    0.1280    4.1588 H   0  0  0  0  0  0  0  0  0  0  0  0
   -3.7306    1.8938    6.4077 H   0  0  0  0  0  0  0  0  0  0  0  0
   -2.3496    1.8141    5.3589 H   0  0  0  0  0  0  0  0  0  0  0  0
    1.7748    0.0086   -1.7795 N   0  0  0  0  0  0  0  0  0  0  0  0
    3.0249    0.3681   -2.4084 C   0  0  2  0  0  0  0  0  0  0  0  0
    2.7265    0.7898   -3.8410 C   0  0  0  0  0  0  0  0  0  0  0  0
    1.8335    0.2833   -4.5172 O   0  0  0  0  0  0  0  0  0  0  0  0
    4.0128   -0.7877   -2.3766 C   0  0  0  0  0  0  0  0  0  0  0  0
    1.0662   -0.4324   -2.3583 H   0  0  0  0  0  0  0  0  0  0  0  0
    3.4250    1.2223   -1.8514 H   0  0  0  0  0  0  0  0  0  0  0  0
    3.6292   -1.6529   -2.9295 H   0  0  0  0  0  0  0  0  0  0  0  0
    4.9694   -0.5046   -2.8280 H   0  0  0  0  0  0  0  0  0  0  0  0
    4.2034   -1.1092   -1.3469 H   0  0  0  0  0  0  0  0  0  0  0  0
    3.6024    1.7681   -4.2903 N   0  0  0  0  0  0  0  0  0  0  0  0
    3.5523    2.3033   -5.6308 C   0  0  0  0  0  0  0  0  0  0  0  0
    4.2864    2.1590   -3.6492 H   0  0  0  0  0  0  0  0  0  0  0  0
    4.2326    1.7324   -6.2799 H   0  0  0  0  0  0  0  0  0  0  0  0
    2.5256    2.2264   -6.0181 H   0  0  0  0  0  0  0  0  0  0  0  0
    3.8603    3.3592   -5.6157 H   0  0  0  0  0  0  0  0  0  0  0  0
  1  3  1  0  0  0  0
  1  7  1  0  0  0  0
  1  2  2  0  0  0  0
 42 43  1  0  0  0  0
 43 51  1  0  0  0  0
 43 44  2  0  0  0  0
  8  9  1  0  0  0  0
  9 17  1  0  0  0  0
  9 10  2  0  0  0  0
 18 19  1  0  0  0  0
 19 41  1  0  0  0  0
 19 20  2  0  0  0  0
 25 26  1  0  0  0  0
 25 27  1  0  0  0  0
 24 25  2  0  0  0  0
 42 45  1  0  0  0  0
  8 11  1  0  0  0  0
 51 52  1  0  0  0  0
 21 22  1  0  0  0  0
 22 23  1  0  0  0  0
 18 21  1  0  0  0  0
 23 24  1  0  0  0  0
 41 42  1  0  0  0  0
  7  8  1  0  0  0  0
 17 18  1  0  0  0  0
  3  4  1  0  0  0  0
  3  5  1  0  0  0  0
  3  6  1  0  0  0  0
 45 48  1  0  0  0  0
 45 49  1  0  0  0  0
 45 50  1  0  0  0  0
 11 14  1  0  0  0  0
 11 15  1  0  0  0  0
 11 16  1  0  0  0  0
 52 54  1  0  0  0  0
 52 55  1  0  0  0  0
 52 56  1  0  0  0  0
 22 32  1  0  0  0  0
 22 33  1  0  0  0  0
 21 30  1  0  0  0  0
 21 31  1  0  0  0  0
 23 34  1  0  0  0  0
 23 35  1  0  0  0  0
 42 47  1  0  0  0  0
  8 13  1  0  0  0  0
 18 29  1  0  0  0  0
 26 37  1  0  0  0  0
 26 38  1  0  0  0  0
 27 39  1  0  0  0  0
 27 40  1  0  0  0  0
 51 53  1  0  0  0  0
  7 12  1  0  0  0  0
 41 46  1  0  0  0  0
 17 28  1  0  0  0  0
 24 36  1  0  0  0  0
M  CHG  1  24   1
M  END
$$$$

  -OEChem-05262214473D

 56 55  0     1  0  0  0  0  0999 V2000
    0.7735   -5.8042   -2.0022 C   0  0  0  0  0  0  0  0  0  0  0  0
   -0.2086   -6.3825   -1.5519 O   0  0  0  0  0  0  0  0  0  0  0  0
    1.4751   -6.3646   -3.1946 C   0  0  0  0  0  0  0  0  0  0  0  0
    2.2765   -7.0687   -2.9186 H   0  0  0  0  0  0  0  0  0  0  0  0
    0.7988   -6.9360   -3.8504 H   0  0  0  0  0  0  0  0  0  0  0  0
    1.9556   -5.6216   -3.8511 H   0  0  0  0  0  0  0  0  0  0  0  0
    1.3322   -4.6359   -1.5106 N   0  0  0  0  0  0  0  0  0  0  0  0
    0.8124   -3.9290   -0.3698 C   0  0  2  0  0  0  0  0  0  0  0  0
    1.0666   -2.4424   -0.5818 C   0  0  0  0  0  0  0  0  0  0  0  0
    2.0598   -2.0076   -1.1610 O   0  0  0  0  0  0  0  0  0  0  0  0
    1.4560   -4.4118    0.9207 C   0  0  0  0  0  0  0  0  0  0  0  0
    2.1528   -4.2578   -1.9805 H   0  0  0  0  0  0  0  0  0  0  0  0
   -0.2667   -4.1160   -0.3467 H   0  0  0  0  0  0  0  0  0  0  0  0
    2.5374   -4.2329    0.9160 H   0  0  0  0  0  0  0  0  0  0  0  0
    1.0390   -3.8932    1.7903 H   0  0  0  0  0  0  0  0  0  0  0  0
    1.2976   -5.4871    1.0566 H   0  0  0  0  0  0  0  0  0  0  0  0
    0.0755   -1.6529   -0.0105 N   0  0  0  0  0  0  0  0  0  0  0  0
    0.1113   -0.2132   -0.0391 C   0  0  2  0  0  0  0  0  0  0  0  0
    1.5262    0.2023   -0.4278 C   0  0  0  0  0  0  0  0  0  0  0  0
    2.4056    0.4359    0.3988 O   0  0  0  0  0  0  0  0  0  0  0  0
   -0.2747    0.3994    1.3110 C   0  0  0  0  0  0  0  0  0  0  0  0
   -1.7451    0.1492    1.6670 C   0  0  0  0  0  0  0  0  0  0  0  0
   -2.1238    0.7611    3.0117 C   0  0  0  0  0  0  0  0  0  0  0  0
   -3.5192    0.5005    3.3581 N   0  3  0  0  0  0  0  0  0  0  0  0
   -4.0771    0.9095    4.5707 C   0  0  0  0  0  0  0  0  0  0  0  0
   -5.4134    0.6267    4.8331 N   0  0  0  0  0  0  0  0  0  0  0  0
   -3.3291    1.5938    5.5232 N   0  0  0  0  0  0  0  0  0  0  0  0
   -0.7323   -2.1024    0.4149 H   0  0  0  0  0  0  0  0  0  0  0  0
   -0.5834    0.1062   -0.8243 H   0  0  0  0  0  0  0  0  0  0  0  0
   -0.0857    1.4794    1.2893 H   0  0  0  0  0  0  0  0  0  0  0  0
    0.3665   -0.0111    2.1023 H   0  0  0  0  0  0  0  0  0  0  0  0
   -2.3889    0.5633    0.8818 H   0  0  0  0  0  0  0  0  0  0  0  0
   -1.9345   -0.9295    1.7113 H   0  0  0  0  0  0  0  0  0  0  0  0
   -1.5058    0.3241    3.8021 H   0  0  0  0  0  0  0  0  0  0  0  0
   -1.9719    1.8448    3.0048 H   0  0  0  0  0  0  0  0  0  0  0  0
   -4.1166    0.0034    2.6999 H   0  0  0  0  0  0  0  0  0  0  0  0
   -5.8504    0.9109    5.7066 H   0  0  0  0  0  0  0  0  0  0  0  0
   -5.9889    0.1280    4.1588 H   0  0  0  0  0  0  0  0  0  0  0  0
   -3.7306    1.8938    6.4077 H   0  0  0  0  0  0  0  0  0  0  0  0
   -2.3496    1.8141    5.3589 H   0  0  0  0  0  0  0  0  0  0  0  0
    1.6748    0.3283   -1.8020 N   0  0  0  0  0  0  0  0  0  0  0  0
    2.9065    0.7572   -2.4236 C   0  0  2  0  0  0  0  0  0  0  0  0
    2.5514    1.5301   -3.6869 C   0  0  0  0  0  0  0  0  0  0  0  0
    1.5827    1.2548   -4.3918 O   0  0  0  0  0  0  0  0  0  0  0  0
    3.8054   -0.4265   -2.7452 C   0  0  0  0  0  0  0  0  0  0  0  0
    0.9005    0.0821   -2.4115 H   0  0  0  0  0  0  0  0  0  0  0  0
    3.4032    1.4265   -1.7127 H   0  0  0  0  0  0  0  0  0  0  0  0
    3.3246   -1.1083   -3.4562 H   0  0  0  0  0  0  0  0  0  0  0  0
    4.7504   -0.0977   -3.1901 H   0  0  0  0  0  0  0  0  0  0  0  0
    4.0355   -0.9985   -1.8399 H   0  0  0  0  0  0  0  0  0  0  0  0
    3.4681    2.5363   -3.9581 N   0  0  0  0  0  0  0  0  0  0  0  0
    3.3744    3.3826   -5.1247 C   0  0  0  0  0  0  0  0  0  0  0  0
    4.2180    2.7202   -3.2981 H   0  0  0  0  0  0  0  0  0  0  0  0
    3.9684    2.9480   -5.9422 H   0  0  0  0  0  0  0  0  0  0  0  0
    2.3226    3.4609   -5.4372 H   0  0  0  0  0  0  0  0  0  0  0  0
    3.7606    4.3838   -4.8831 H   0  0  0  0  0  0  0  0  0  0  0  0
  1  3  1  0  0  0  0
  1  7  1  0  0  0  0
  1  2  2  0  0  0  0
 42 43  1  0  0  0  0
 43 51  1  0  0  0  0
 43 44  2  0  0  0  0
  8  9  1  0  0  0  0
  9 17  1  0  0  0  0
  9 10  2  0  0  0  0
 18 19  1  0  0  0  0
 19 41  1  0  0  0  0
 19 20  2  0  0  0  0
 25 26  1  0  0  0  0
 25 27  1  0  0  0  0
 24 25  2  0  0  0  0
 42 45  1  0  0  0  0
  8 11  1  0  0  0  0
 51 52  1  0  0  0  0
 21 22  1  0  0  0  0
 22 23  1  0  0  0  0
 18 21  1  0  0  0  0
 23 24  1  0  0  0  0
 41 42  1  0  0  0  0
  7  8  1  0  0  0  0
 17 18  1  0  0  0  0
  3  4  1  0  0  0  0
  3  5  1  0  0  0  0
  3  6  1  0  0  0  0
 45 48  1  0  0  0  0
 45 49  1  0  0  0  0
 45 50  1  0  0  0  0
 11 14  1  0  0  0  0
 11 15  1  0  0  0  0
 11 16  1  0  0  0  0
 52 54  1  0  0  0  0
 52 55  1  0  0  0  0
 52 56  1  0  0  0  0
 22 32  1  0  0  0  0
 22 33  1  0  0  0  0
 21 30  1  0  0  0  0
 21 31  1  0  0  0  0
 23 34  1  0  0  0  0
 23 35  1  0  0  0  0
 42 47  1  0  0  0  0
  8 13  1  0  0  0  0
 18 29  1  0  0  0  0
 26 37  1  0  0  0  0
 26 38  1  0  0  0  0
 27 39  1  0  0  0  0
 27 40  1  0  0  0  0
 51 53  1  0  0  0  0
  7 12  1  0  0  0  0
 41 46  1  0  0  0  0
 17 28  1  0  0  0  0
 24 36  1  0  0  0  0
M  CHG  1  24   1
M  END
$$$$

  -OEChem-05262214473D

 56 55  0     1  0  0  0  0  0999 V2000
    0.7735   -5.8042   -2.0022 C   0  0  0  0  0  0  0  0  0  0  0  0
   -0.2086   -6.3825   -1.5519 O   0  0  0  0  0  0  0  0  0  0  0  0
    1.4751   -6.3646   -3.1946 C   0  0  0  0  0  0  0  0  0  0  0  0
    2.2765   -7.0687   -2.9186 H   0  0  0  0  0  0  0  0  0  0  0  0
    0.7988   -6.9360   -3.8504 H   0  0  0  0  0  0  0  0  0  0  0  0
    1.9556   -5.6216   -3.8511 H   0  0  0  0  0  0  0  0  0  0  0  0
    1.3322   -4.6359   -1.5106 N   0  0  0  0  0  0  0  0  0  0  0  0
    0.8124   -3.9290   -0.3698 C   0  0  2  0  0  0  0  0  0  0  0  0
    1.0666   -2.4424   -0.5818 C   0  0  0  0  0  0  0  0  0  0  0  0
    2.0598   -2.0076   -1.1610 O   0  0  0  0  0  0  0  0  0  0  0  0
    1.4560   -4.4118    0.9207 C   0  0  0  0  0  0  0  0  0  0  0  0
    2.1528   -4.2578   -1.9805 H   0  0  0  0  0  0  0  0  0  0  0  0
   -0.2667   -4.1160   -0.3467 H   0  0  0  0  0  0  0  0  0  0  0  0
    2.5374   -4.2329    0.9160 H   0  0  0  0  0  0  0  0  0  0  0  0
    1.0390   -3.8932    1.7903 H   0  0  0  0  0  0  0  0  0  0  0  0
    1.2976   -5.4871    1.0566 H   0  0  0  0  0  0  0  0  0  0  0  0
    0.0755   -1.6529   -0.0105 N   0  0  0  0  0  0  0  0  0  0  0  0
    0.1113   -0.2132   -0.0391 C   0  0  2  0  0  0  0  0  0  0  0  0
    1.5262    0.2023   -0.4278 C   0  0  0  0  0  0  0  0  0  0  0  0
    2.4705    0.1776    0.3589 O   0  0  0  0  0  0  0  0  0  0  0  0
   -0.2747    0.3994    1.3110 C   0  0  0  0  0  0  0  0  0  0  0  0
   -1.7451    0.1492    1.6670 C   0  0  0  0  0  0  0  0  0  0  0  0
   -2.1238    0.7611    3.0117 C   0  0  0  0  0  0  0  0  0  0  0  0
   -3.5192    0.5005    3.3581 N   0  3  0  0  0  0  0  0  0  0  0  0
   -4.0771    0.9095    4.5707 C   0  0  0  0  0  0  0  0  0  0  0  0
   -5.4134    0.6267    4.8331 N   0  0  0  0  0  0  0  0  0  0  0  0
   -3.3291    1.5938    5.5232 N   0  0  0  0  0  0  0  0  0  0  0  0
   -0.7323   -2.1024    0.4149 H   0  0  0  0  0  0  0  0  0  0  0  0
   -0.5834    0.1062   -0.8243 H   0  0  0  0  0  0  0  0  0  0  0  0
   -0.0857    1.4794    1.2893 H   0  0  0  0  0  0  0  0  0  0  0  0
    0.3665   -0.0111    2.1023 H   0  0  0  0  0  0  0  0  0  0  0  0
   -2.3889    0.5633    0.8818 H   0  0  0  0  0  0  0  0  0  0  0  0
   -1.9345   -0.9295    1.7113 H   0  0  0  0  0  0  0  0  0  0  0  0
   -1.5058    0.3241    3.8021 H   0  0  0  0  0  0  0  0  0  0  0  0
   -1.9719    1.8448    3.0048 H   0  0  0  0  0  0  0  0  0  0  0  0
   -4.1166    0.0034    2.6999 H   0  0  0  0  0  0  0  0  0  0  0  0
   -5.8504    0.9109    5.7066 H   0  0  0  0  0  0  0  0  0  0  0  0
   -5.9889    0.1280    4.1588 H   0  0  0  0  0  0  0  0  0  0  0  0
   -3.7306    1.8938    6.4077 H   0  0  0  0  0  0  0  0  0  0  0  0
   -2.3496    1.8141    5.3589 H   0  0  0  0  0  0  0  0  0  0  0  0
    1.5977    0.6490   -1.7399 N   0  0  0  0  0  0  0  0  0  0  0  0
    2.8167    1.1445   -2.3365 C   0  0  2  0  0  0  0  0  0  0  0  0
    2.4420    2.2198   -3.3479 C   0  0  0  0  0  0  0  0  0  0  0  0
    1.4133    2.1796   -4.0197 O   0  0  0  0  0  0  0  0  0  0  0  0
    3.6030    0.0246   -3.0000 C   0  0  0  0  0  0  0  0  0  0  0  0
    0.7706    0.6028   -2.3277 H   0  0  0  0  0  0  0  0  0  0  0  0
    3.4053    1.5918   -1.5282 H   0  0  0  0  0  0  0  0  0  0  0  0
    3.0292   -0.4358   -3.8126 H   0  0  0  0  0  0  0  0  0  0  0  0
    4.5402    0.3967   -3.4268 H   0  0  0  0  0  0  0  0  0  0  0  0
    3.8459   -0.7621   -2.2775 H   0  0  0  0  0  0  0  0  0  0  0  0
    3.4124    3.2074   -3.4432 N   0  0  0  0  0  0  0  0  0  0  0  0
    3.3094    4.3153   -4.3641 C   0  0  0  0  0  0  0  0  0  0  0  0
    4.2137    3.1824   -2.8195 H   0  0  0  0  0  0  0  0  0  0  0  0
    3.8171    4.0586   -5.3056 H   0  0  0  0  0  0  0  0  0  0  0  0
    2.2490    4.5272   -4.5654 H   0  0  0  0  0  0  0  0  0  0  0  0
    3.7836    5.2042   -3.9225 H   0  0  0  0  0  0  0  0  0  0  0  0
  1  3  1  0  0  0  0
  1  7  1  0  0  0  0
  1  2  2  0  0  0  0
 42 43  1  0  0  0  0
 43 51  1  0  0  0  0
 43 44  2  0  0  0  0
  8  9  1  0  0  0  0
  9 17  1  0  0  0  0
  9 10  2  0  0  0  0
 18 19  1  0  0  0  0
 19 41  1  0  0  0  0
 19 20  2  0  0  0  0
 25 26  1  0  0  0  0
 25 27  1  0  0  0  0
 24 25  2  0  0  0  0
 42 45  1  0  0  0  0
  8 11  1  0  0  0  0
 51 52  1  0  0  0  0
 21 22  1  0  0  0  0
 22 23  1  0  0  0  0
 18 21  1  0  0  0  0
 23 24  1  0  0  0  0
 41 42  1  0  0  0  0
  7  8  1  0  0  0  0
 17 18  1  0  0  0  0
  3  4  1  0  0  0  0
  3  5  1  0  0  0  0
  3  6  1  0  0  0  0
 45 48  1  0  0  0  0
 45 49  1  0  0  0  0
 45 50  1  0  0  0  0
 11 14  1  0  0  0  0
 11 15  1  0  0  0  0
 11 16  1  0  0  0  0
 52 54  1  0  0  0  0
 52 55  1  0  0  0  0
 52 56  1  0  0  0  0
 22 32  1  0  0  0  0
 22 33  1  0  0  0  0
 21 30  1  0  0  0  0
 21 31  1  0  0  0  0
 23 34  1  0  0  0  0
 23 35  1  0  0  0  0
 42 47  1  0  0  0  0
  8 13  1  0  0  0  0
 18 29  1  0  0  0  0
 26 37  1  0  0  0  0
 26 38  1  0  0  0  0
 27 39  1  0  0  0  0
 27 40  1  0  0  0  0
 51 53  1  0  0  0  0
  7 12  1  0  0  0  0
 41 46  1  0  0  0  0
 17 28  1  0  0  0  0
 24 36  1  0  0  0  0
M  CHG  1  24   1
M  END
$$$$

  -OEChem-05262214473D

 56 55  0     1  0  0  0  0  0999 V2000
    0.7735   -5.8042   -2.0022 C   0  0  0  0  0  0  0  0  0  0  0  0
   -0.2086   -6.3825   -1.5519 O   0  0  0  0  0  0  0  0  0  0  0  0
    1.4751   -6.3646   -3.1946 C   0  0  0  0  0  0  0  0  0  0  0  0
    2.2765   -7.0687   -2.9186 H   0  0  0  0  0  0  0  0  0  0  0  0
    0.7988   -6.9360   -3.8504 H   0  0  0  0  0  0  0  0  0  0  0  0
    1.9556   -5.6216   -3.8511 H   0  0  0  0  0  0  0  0  0  0  0  0
    1.3322   -4.6359   -1.5106 N   0  0  0  0  0  0  0  0  0  0  0  0
    0.8124   -3.9290   -0.3698 C   0  0  2  0  0  0  0  0  0  0  0  0
    1.0666   -2.4424   -0.5818 C   0  0  0  0  0  0  0  0  0  0  0  0
    2.0598   -2.0076   -1.1610 O   0  0  0  0  0  0  0  0  0  0  0  0
    1.4560   -4.4118    0.9207 C   0  0  0  0  0  0  0  0  0  0  0  0
    2.1528   -4.2578   -1.9805 H   0  0  0  0  0  0  0  0  0  0  0  0
   -0.2667   -4.1160   -0.3467 H   0  0  0  0  0  0  0  0  0  0  0  0
    2.5374   -4.2329    0.9160 H   0  0  0  0  0  0  0  0  0  0  0  0
    1.0390   -3.8932    1.7903 H   0  0  0  0  0  0  0  0  0  0  0  0
    1.2976   -5.4871    1.0566 H   0  0  0  0  0  0  0  0  0  0  0  0
    0.0755   -1.6529   -0.0105 N   0  0  0  0  0  0  0  0  0  0  0  0
    0.1113   -0.2132   -0.0391 C   0  0  2  0  0  0  0  0  0  0  0  0
    1.5262    0.2023   -0.4278 C   0  0  0  0  0  0  0  0  0  0  0  0
    2.5133   -0.0666    0.2538 O   0  0  0  0  0  0  0  0  0  0  0  0
   -0.2747    0.3994    1.3110 C   0  0  0  0  0  0  0  0  0  0  0  0
   -1.7451    0.1492    1.6670 C   0  0  0  0  0  0  0  0  0  0  0  0
   -2.1238    0.7611    3.0117 C   0  0  0  0  0  0  0  0  0  0  0  0
   -3.5192    0.5005    3.3581 N   0  3  0  0  0  0  0  0  0  0  0  0
   -4.0771    0.9095    4.5707 C   0  0  0  0  0  0  0  0  0  0  0  0
   -5.4134    0.6267    4.8331 N   0  0  0  0  0  0  0  0  0  0  0  0
   -3.3291    1.5938    5.5232 N   0  0  0  0  0  0  0  0  0  0  0  0
   -0.7323   -2.1024    0.4149 H   0  0  0  0  0  0  0  0  0  0  0  0
   -0.5834    0.1062   -0.8243 H   0  0  0  0  0  0  0  0  0  0  0  0
   -0.0857    1.4794    1.2893 H   0  0  0  0  0  0  0  0  0  0  0  0
    0.3665   -0.0111    2.1023 H   0  0  0  0  0  0  0  0  0  0  0  0
   -2.3889    0.5633    0.8818 H   0  0  0  0  0  0  0  0  0  0  0  0
   -1.9345   -0.9295    1.7113 H   0  0  0  0  0  0  0  0  0  0  0  0
   -1.5058    0.3241    3.8021 H   0  0  0  0  0  0  0  0  0  0  0  0
   -1.9719    1.8448    3.0048 H   0  0  0  0  0  0  0  0  0  0  0  0
   -4.1166    0.0034    2.6999 H   0  0  0  0  0  0  0  0  0  0  0  0
   -5.8504    0.9109    5.7066 H   0  0  0  0  0  0  0  0  0  0  0  0
   -5.9889    0.1280    4.1588 H   0  0  0  0  0  0  0  0  0  0  0  0
   -3.7306    1.8938    6.4077 H   0  0  0  0  0  0  0  0  0  0  0  0
   -2.3496    1.8141    5.3589 H   0  0  0  0  0  0  0  0  0  0  0  0
    1.5487    0.9490   -1.5975 N   0  0  0  0  0  0  0  0  0  0  0  0
    2.7616    1.5036   -2.1531 C   0  0  2  0  0  0  0  0  0  0  0  0
    2.4057    2.8117   -2.8471 C   0  0  0  0  0  0  0  0  0  0  0  0
    1.3370    2.9947   -3.4262 O   0  0  0  0  0  0  0  0  0  0  0  0
    3.4192    0.5348   -3.1235 C   0  0  0  0  0  0  0  0  0  0  0  0
    0.6854    1.0943   -2.1126 H   0  0  0  0  0  0  0  0  0  0  0  0
    3.4313    1.7071   -1.3104 H   0  0  0  0  0  0  0  0  0  0  0  0
    2.7631    0.3190   -3.9745 H   0  0  0  0  0  0  0  0  0  0  0  0
    4.3531    0.9449   -3.5218 H   0  0  0  0  0  0  0  0  0  0  0  0
    3.6474   -0.4162   -2.6302 H   0  0  0  0  0  0  0  0  0  0  0  0
    3.4392    3.7357   -2.7809 N   0  0  0  0  0  0  0  0  0  0  0  0
    3.3619    5.0378   -3.4009 C   0  0  0  0  0  0  0  0  0  0  0  0
    4.2739    3.5143   -2.2459 H   0  0  0  0  0  0  0  0  0  0  0  0
    3.7892    4.9884   -4.4133 H   0  0  0  0  0  0  0  0  0  0  0  0
    2.3097    5.3527   -3.4621 H   0  0  0  0  0  0  0  0  0  0  0  0
    3.9276    5.7644   -2.7992 H   0  0  0  0  0  0  0  0  0  0  0  0
  1  3  1  0  0  0  0
  1  7  1  0  0  0  0
  1  2  2  0  0  0  0
 42 43  1  0  0  0  0
 43 51  1  0  0  0  0
 43 44  2  0  0  0  0
  8  9  1  0  0  0  0
  9 17  1  0  0  0  0
  9 10  2  0  0  0  0
 18 19  1  0  0  0  0
 19 41  1  0  0  0  0
 19 20  2  0  0  0  0
 25 26  1  0  0  0  0
 25 27  1  0  0  0  0
 24 25  2  0  0  0  0
 42 45  1  0  0  0  0
  8 11  1  0  0  0  0
 51 52  1  0  0  0  0
 21 22  1  0  0  0  0
 22 23  1  0  0  0  0
 18 21  1  0  0  0  0
 23 24  1  0  0  0  0
 41 42  1  0  0  0  0
  7  8  1  0  0  0  0
 17 18  1  0  0  0  0
  3  4  1  0  0  0  0
  3  5  1  0  0  0  0
  3  6  1  0  0  0  0
 45 48  1  0  0  0  0
 45 49  1  0  0  0  0
 45 50  1  0  0  0  0
 11 14  1  0  0  0  0
 11 15  1  0  0  0  0
 11 16  1  0  0  0  0
 52 54  1  0  0  0  0
 52 55  1  0  0  0  0
 52 56  1  0  0  0  0
 22 32  1  0  0  0  0
 22 33  1  0  0  0  0
 21 30  1  0  0  0  0
 21 31  1  0  0  0  0
 23 34  1  0  0  0  0
 23 35  1  0  0  0  0
 42 47  1  0  0  0  0
  8 13  1  0  0  0  0
 18 29  1  0  0  0  0
 26 37  1  0  0  0  0
 26 38  1  0  0  0  0
 27 39  1  0  0  0  0
 27 40  1  0  0  0  0
 51 53  1  0  0  0  0
  7 12  1  0  0  0  0
 41 46  1  0  0  0  0
 17 28  1  0  0  0  0
 24 36  1  0  0  0  0
M  CHG  1  24   1
M  END
$$$$

  -OEChem-05262214473D

 56 55  0     1  0  0  0  0  0999 V2000
    0.7735   -5.8042   -2.0022 C   0  0  0  0  0  0  0  0  0  0  0  0
   -0.2086   -6.3825   -1.5519 O   0  0  0  0  0  0  0  0  0  0  0  0
    1.4751   -6.3646   -3.1946 C   0  0  0  0  0  0  0  0  0  0  0  0
    2.2765   -7.0687   -2.9186 H   0  0  0  0  0  0  0  0  0  0  0  0
    0.7988   -6.9360   -3.8504 H   0  0  0  0  0  0  0  0  0  0  0  0
    1.9556   -5.6216   -3.8511 H   0  0  0  0  0  0  0  0  0  0  0  0
    1.3322   -4.6359   -1.5106 N   0  0  0  0  0  0  0  0  0  0  0  0
    0.8124   -3.9290   -0.3698 C   0  0  2  0  0  0  0  0  0  0  0  0
    1.0666   -2.4424   -0.5818 C   0  0  0  0  0  0  0  0  0  0  0  0
    2.0598   -2.0076   -1.1610 O   0  0  0  0  0  0  0  0  0  0  0  0
    1.4560   -4.4118    0.9207 C   0  0  0  0  0  0  0  0  0  0  0  0
    2.1528   -4.2578   -1.9805 H   0  0  0  0  0  0  0  0  0  0  0  0
   -0.2667   -4.1160   -0.3467 H   0  0  0  0  0  0  0  0  0  0  0  0
    2.5374   -4.2329    0.9160 H   0  0  0  0  0  0  0  0  0  0  0  0
    1.0390   -3.8932    1.7903 H   0  0  0  0  0  0  0  0  0  0  0  0
    1.2976   -5.4871    1.0566 H   0  0  0  0  0  0  0  0  0  0  0  0
    0.0755   -1.6529   -0.0105 N   0  0  0  0  0  0  0  0  0  0  0  0
    0.1113   -0.2132   -0.0391 C   0  0  2  0  0  0  0  0  0  0  0  0
    1.5262    0.2023   -0.4278 C   0  0  0  0  0  0  0  0  0  0  0  0
    2.5312   -0.2800    0.0906 O   0  0  0  0  0  0  0  0  0  0  0  0
   -0.2747    0.3994    1.3110 C   0  0  0  0  0  0  0  0  0  0  0  0
   -1.7451    0.1492    1.6670 C   0  0  0  0  0  0  0  0  0  0  0  0
   -2.1238    0.7611    3.0117 C   0  0  0  0  0  0  0  0  0  0  0  0
   -3.5192    0.5005    3.3581 N   0  3  0  0  0  0  0  0  0  0  0  0
   -4.0771    0.9095    4.5707 C   0  0  0  0  0  0  0  0  0  0  0  0
   -5.4134    0.6267    4.8331 N   0  0  0  0  0  0  0  0  0  0  0  0
   -3.3291    1.5938    5.5232 N   0  0  0  0  0  0  0  0  0  0  0  0
   -0.7323   -2.1024    0.4149 H   0  0  0  0  0  0  0  0  0  0  0  0
   -0.5834    0.1062   -0.8243 H   0  0  0  0  0  0  0  0  0  0  0  0
   -0.0857    1.4794    1.2893 H   0  0  0  0  0  0  0  0  0  0  0  0
    0.3665   -0.0111    2.1023 H   0  0  0  0  0  0  0  0  0  0  0  0
   -2.3889    0.5633    0.8818 H   0  0  0  0  0  0  0  0  0  0  0  0
   -1.9345   -0.9295    1.7113 H   0  0  0  0  0  0  0  0  0  0  0  0
   -1.5058    0.3241    3.8021 H   0  0  0  0  0  0  0  0  0  0  0  0
   -1.9719    1.8448    3.0048 H   0  0  0  0  0  0  0  0  0  0  0  0
   -4.1166    0.0034    2.6999 H   0  0  0  0  0  0  0  0  0  0  0  0
   -5.8504    0.9109    5.7066 H   0  0  0  0  0  0  0  0  0  0  0  0
   -5.9889    0.1280    4.1588 H   0  0  0  0  0  0  0  0  0  0  0  0
   -3.7306    1.8938    6.4077 H   0  0  0  0  0  0  0  0  0  0  0  0
   -2.3496    1.8141    5.3589 H   0  0  0  0  0  0  0  0  0  0  0  0
    1.5312    1.2078   -1.3844 N   0  0  0  0  0  0  0  0  0  0  0  0
    2.7450    1.8101   -1.8857 C   0  0  2  0  0  0  0  0  0  0  0  0
    2.4451    3.2657   -2.2187 C   0  0  0  0  0  0  0  0  0  0  0  0
    1.3588    3.6446   -2.6518 O   0  0  0  0  0  0  0  0  0  0  0  0
    3.2667    1.0695   -3.1072 C   0  0  0  0  0  0  0  0  0  0  0  0
    0.6507    1.5229   -1.7808 H   0  0  0  0  0  0  0  0  0  0  0  0
    3.4794    1.7644   -1.0741 H   0  0  0  0  0  0  0  0  0  0  0  0
    2.5444    1.1044   -3.9310 H   0  0  0  0  0  0  0  0  0  0  0  0
    4.2018    1.5097   -3.4688 H   0  0  0  0  0  0  0  0  0  0  0  0
    3.4537    0.0158   -2.8737 H   0  0  0  0  0  0  0  0  0  0  0  0
    3.5467    4.0851   -2.0161 N   0  0  0  0  0  0  0  0  0  0  0  0
    3.5281    5.5010   -2.3006 C   0  0  0  0  0  0  0  0  0  0  0  0
    4.3943    3.6931   -1.6164 H   0  0  0  0  0  0  0  0  0  0  0  0
    3.8864    5.6742   -3.3261 H   0  0  0  0  0  0  0  0  0  0  0  0
    2.5005    5.8811   -2.2023 H   0  0  0  0  0  0  0  0  0  0  0  0
    4.1829    6.0263   -1.5899 H   0  0  0  0  0  0  0  0  0  0  0  0
  1  3  1  0  0  0  0
  1  7  1  0  0  0  0
  1  2  2  0  0  0  0
 42 43  1  0  0  0  0
 43 51  1  0  0  0  0
 43 44  2  0  0  0  0
  8  9  1  0  0  0  0
  9 17  1  0  0  0  0
  9 10  2  0  0  0  0
 18 19  1  0  0  0  0
 19 41  1  0  0  0  0
 19 20  2  0  0  0  0
 25 26  1  0  0  0  0
 25 27  1  0  0  0  0
 24 25  2  0  0  0  0
 42 45  1  0  0  0  0
  8 11  1  0  0  0  0
 51 52  1  0  0  0  0
 21 22  1  0  0  0  0
 22 23  1  0  0  0  0
 18 21  1  0  0  0  0
 23 24  1  0  0  0  0
 41 42  1  0  0  0  0
  7  8  1  0  0  0  0
 17 18  1  0  0  0  0
  3  4  1  0  0  0  0
  3  5  1  0  0  0  0
  3  6  1  0  0  0  0
 45 48  1  0  0  0  0
 45 49  1  0  0  0  0
 45 50  1  0  0  0  0
 11 14  1  0  0  0  0
 11 15  1  0  0  0  0
 11 16  1  0  0  0  0
 52 54  1  0  0  0  0
 52 55  1  0  0  0  0
 52 56  1  0  0  0  0
 22 32  1  0  0  0  0
 22 33  1  0  0  0  0
 21 30  1  0  0  0  0
 21 31  1  0  0  0  0
 23 34  1  0  0  0  0
 23 35  1  0  0  0  0
 42 47  1  0  0  0  0
  8 13  1  0  0  0  0
 18 29  1  0  0  0  0
 26 37  1  0  0  0  0
 26 38  1  0  0  0  0
 27 39  1  0  0  0  0
 27 40  1  0  0  0  0
 51 53  1  0  0  0  0
  7 12  1  0  0  0  0
 41 46  1  0  0  0  0
 17 28  1  0  0  0  0
 24 36  1  0  0  0  0
M  CHG  1  24   1
M  END
$$$$

  -OEChem-05262214473D

 56 55  0     1  0  0  0  0  0999 V2000
    0.7735   -5.8042   -2.0022 C   0  0  0  0  0  0  0  0  0  0  0  0
   -0.2086   -6.3825   -1.5519 O   0  0  0  0  0  0  0  0  0  0  0  0
    1.4751   -6.3646   -3.1946 C   0  0  0  0  0  0  0  0  0  0  0  0
    2.2765   -7.0687   -2.9186 H   0  0  0  0  0  0  0  0  0  0  0  0
    0.7988   -6.9360   -3.8504 H   0  0  0  0  0  0  0  0  0  0  0  0
    1.9556   -5.6216   -3.8511 H   0  0  0  0  0  0  0  0  0  0  0  0
    1.3322   -4.6359   -1.5106 N   0  0  0  0  0  0  0  0  0  0  0  0
    0.8124   -3.9290   -0.3698 C   0  0  2  0  0  0  0  0  0  0  0  0
    1.0666   -2.4424   -0.5818 C   0  0  0  0  0  0  0  0  0  0  0  0
    2.0598   -2.0076   -1.1610 O   0  0  0  0  0  0  0  0  0  0  0  0
    1.4560   -4.4118    0.9207 C   0  0  0  0  0  0  0  0  0  0  0  0
    2.1528   -4.2578   -1.9805 H   0  0  0  0  0  0  0  0  0  0  0  0
   -0.2667   -4.1160   -0.3467 H   0  0  0  0  0  0  0  0  0  0  0  0
    2.5374   -4.2329    0.9160 H   0  0  0  0  0  0  0  0  0  0  0  0
    1.0390   -3.8932    1.7903 H   0  0  0  0  0  0  0  0  0  0  0  0
    1.2976   -5.4871    1.0566 H   0  0  0  0  0  0  0  0  0  0  0  0
    0.0755   -1.6529   -0.0105 N   0  0  0  0  0  0  0  0  0  0  0  0
    0.1113   -0.2132   -0.0391 C   0  0  2  0  0  0  0  0  0  0  0  0
    1.5262    0.2023   -0.4278 C   0  0  0  0  0  0  0  0  0  0  0  0
    2.5228   -0.4481   -0.1195 O   0  0  0  0  0  0  0  0  0  0  0  0
   -0.2747    0.3994    1.3110 C   0  0  0  0  0  0  0  0  0  0  0  0
   -1.7451    0.1492    1.6670 C   0  0  0  0  0  0  0  0  0  0  0  0
   -2.1238    0.7611    3.0117 C   0  0  0  0  0  0  0  0  0  0  0  0
   -3.5192    0.5005    3.3581 N   0  3  0  0  0  0  0  0  0  0  0  0
   -4.0771    0.9095    4.5707 C   0  0  0  0  0  0  0  0  0  0  0  0
   -5.4134    0.6267    4.8331 N   0  0  0  0  0  0  0  0  0  0  0  0
   -3.3291    1.5938    5.5232 N   0  0  0  0  0  0  0  0  0  0  0  0
   -0.7323   -2.1024    0.4149 H   0  0  0  0  0  0  0  0  0  0  0  0
   -0.5834    0.1062   -0.8243 H   0  0  0  0  0  0  0  0  0  0  0  0
   -0.0857    1.4794    1.2893 H   0  0  0  0  0  0  0  0  0  0  0  0
    0.3665   -0.0111    2.1023 H   0  0  0  0  0  0  0  0  0  0  0  0
   -2.3889    0.5633    0.8818 H   0  0  0  0  0  0  0  0  0  0  0  0
   -1.9345   -0.9295    1.7113 H   0  0  0  0  0  0  0  0  0  0  0  0
   -1.5058    0.3241    3.8021 H   0  0  0  0  0  0  0  0  0  0  0  0
   -1.9719    1.8448    3.0048 H   0  0  0  0  0  0  0  0  0  0  0  0
   -4.1166    0.0034    2.6999 H   0  0  0  0  0  0  0  0  0  0  0  0
   -5.8504    0.9109    5.7066 H   0  0  0  0  0  0  0  0  0  0  0  0
   -5.9889    0.1280    4.1588 H   0  0  0  0  0  0  0  0  0  0  0  0
   -3.7306    1.8938    6.4077 H   0  0  0  0  0  0  0  0  0  0  0  0
   -2.3496    1.8141    5.3589 H   0  0  0  0  0  0  0  0  0  0  0  0
    1.5464    1.4078   -1.1153 N   0  0  0  0  0  0  0  0  0  0  0  0
    2.7681    2.0430   -1.5528 C   0  0  2  0  0  0  0  0  0  0  0  0
    2.5573    3.5506   -1.5054 C   0  0  0  0  0  0  0  0  0  0  0  0
    1.4774    4.0849   -1.7494 O   0  0  0  0  0  0  0  0  0  0  0  0
    3.1557    1.5921   -2.9524 C   0  0  0  0  0  0  0  0  0  0  0  0
    0.6688    1.8596   -1.3548 H   0  0  0  0  0  0  0  0  0  0  0  0
    3.5462    1.7598   -0.8356 H   0  0  0  0  0  0  0  0  0  0  0  0
    2.3880    1.8671   -3.6848 H   0  0  0  0  0  0  0  0  0  0  0  0
    4.0967    2.0524   -3.2712 H   0  0  0  0  0  0  0  0  0  0  0  0
    3.2779    0.5042   -2.9916 H   0  0  0  0  0  0  0  0  0  0  0  0
    3.7275    4.2319   -1.2010 N   0  0  0  0  0  0  0  0  0  0  0  0
    3.7967    5.6732   -1.1384 C   0  0  0  0  0  0  0  0  0  0  0  0
    4.5667    3.7068   -0.9738 H   0  0  0  0  0  0  0  0  0  0  0  0
    4.1023    6.0690   -2.1182 H   0  0  0  0  0  0  0  0  0  0  0  0
    2.8086    6.0764   -0.8721 H   0  0  0  0  0  0  0  0  0  0  0  0
    4.5321    5.9721   -0.3768 H   0  0  0  0  0  0  0  0  0  0  0  0
  1  3  1  0  0  0  0
  1  7  1  0  0  0  0
  1  2  2  0  0  0  0
 42 43  1  0  0  0  0
 43 51  1  0  0  0  0
 43 44  2  0  0  0  0
  8  9  1  0  0  0  0
  9 17  1  0  0  0  0
  9 10  2  0  0  0  0
 18 19  1  0  0  0  0
 19 41  1  0  0  0  0
 19 20  2  0  0  0  0
 25 26  1  0  0  0  0
 25 27  1  0  0  0  0
 24 25  2  0  0  0  0
 42 45  1  0  0  0  0
  8 11  1  0  0  0  0
 51 52  1  0  0  0  0
 21 22  1  0  0  0  0
 22 23  1  0  0  0  0
 18 21  1  0  0  0  0
 23 24  1  0  0  0  0
 41 42  1  0  0  0  0
  7  8  1  0  0  0  0
 17 18  1  0  0  0  0
  3  4  1  0  0  0  0
  3  5  1  0  0  0  0
  3  6  1  0  0  0  0
 45 48  1  0  0  0  0
 45 49  1  0  0  0  0
 45 50  1  0  0  0  0
 11 14  1  0  0  0  0
 11 15  1  0  0  0  0
 11 16  1  0  0  0  0
 52 54  1  0  0  0  0
 52 55  1  0  0  0  0
 52 56  1  0  0  0  0
 22 32  1  0  0  0  0
 22 33  1  0  0  0  0
 21 30  1  0  0  0  0
 21 31  1  0  0  0  0
 23 34  1  0  0  0  0
 23 35  1  0  0  0  0
 42 47  1  0  0  0  0
  8 13  1  0  0  0  0
 18 29  1  0  0  0  0
 26 37  1  0  0  0  0
 26 38  1  0  0  0  0
 27 39  1  0  0  0  0
 27 40  1  0  0  0  0
 51 53  1  0  0  0  0
  7 12  1  0  0  0  0
 41 46  1  0  0  0  0
 17 28  1  0  0  0  0
 24 36  1  0  0  0  0
M  CHG  1  24   1
M  END
$$$$

  -OEChem-05262214473D

 56 55  0     1  0  0  0  0  0999 V2000
    0.7735   -5.8042   -2.0022 C   0  0  0  0  0  0  0  0  0  0  0  0
   -0.2086   -6.3825   -1.5519 O   0  0  0  0  0  0  0  0  0  0  0  0
    1.4751   -6.3646   -3.1946 C   0  0  0  0  0  0  0  0  0  0  0  0
    2.2765   -7.0687   -2.9186 H   0  0  0  0  0  0  0  0  0  0  0  0
    0.7988   -6.9360   -3.8504 H   0  0  0  0  0  0  0  0  0  0  0  0
    1.9556   -5.6216   -3.8511 H   0  0  0  0  0  0  0  0  0  0  0  0
    1.3322   -4.6359   -1.5106 N   0  0  0  0  0  0  0  0  0  0  0  0
    0.8124   -3.9290   -0.3698 C   0  0  2  0  0  0  0  0  0  0  0  0
    1.0666   -2.4424   -0.5818 C   0  0  0  0  0  0  0  0  0  0  0  0
    2.0598   -2.0076   -1.1610 O   0  0  0  0  0  0  0  0  0  0  0  0
    1.4560   -4.4118    0.9207 C   0  0  0  0  0  0  0  0  0  0  0  0
    2.1528   -4.2578   -1.9805 H   0  0  0  0  0  0  0  0  0  0  0  0
   -0.2667   -4.1160   -0.3467 H   0  0  0  0  0  0  0  0  0  0  0  0
    2.5374   -4.2329    0.9160 H   0  0  0  0  0  0  0  0  0  0  0  0
    1.0390   -3.8932    1.7903 H   0  0  0  0  0  0  0  0  0  0  0  0
    1.2976   -5.4871    1.0566 H   0  0  0  0  0  0  0  0  0  0  0  0
    0.0755   -1.6529   -0.0105 N   0  0  0  0  0  0  0  0  0  0  0  0
    0.1113   -0.2132   -0.0391 C   0  0  2  0  0  0  0  0  0  0  0  0
    1.5262    0.2023   -0.4278 C   0  0  0  0  0  0  0  0  0  0  0  0
    2.4888   -0.5595   -0.3623 O   0  0  0  0  0  0  0  0  0  0  0  0
   -0.2747    0.3994    1.3110 C   0  0  0  0  0  0  0  0  0  0  0  0
   -1.7451    0.1492    1.6670 C   0  0  0  0  0  0  0  0  0  0  0  0
   -2.1238    0.7611    3.0117 C   0  0  0  0  0  0  0  0  0  0  0  0
   -3.5192    0.5005    3.3581 N   0  3  0  0  0  0  0  0  0  0  0  0
   -4.0771    0.9095    4.5707 C   0  0  0  0  0  0  0  0  0  0  0  0
   -5.4134    0.6267    4.8331 N   0  0  0  0  0  0  0  0  0  0  0  0
   -3.3291    1.5938    5.5232 N   0  0  0  0  0  0  0  0  0  0  0  0
   -0.7323   -2.1024    0.4149 H   0  0  0  0  0  0  0  0  0  0  0  0
   -0.5834    0.1062   -0.8243 H   0  0  0  0  0  0  0  0  0  0  0  0
   -0.0857    1.4794    1.2893 H   0  0  0  0  0  0  0  0  0  0  0  0
    0.3665   -0.0111    2.1023 H   0  0  0  0  0  0  0  0  0  0  0  0
   -2.3889    0.5633    0.8818 H   0  0  0  0  0  0  0  0  0  0  0  0
   -1.9345   -0.9295    1.7113 H   0  0  0  0  0  0  0  0  0  0  0  0
   -1.5058    0.3241    3.8021 H   0  0  0  0  0  0  0  0  0  0  0  0
   -1.9719    1.8448    3.0048 H   0  0  0  0  0  0  0  0  0  0  0  0
   -4.1166    0.0034    2.6999 H   0  0  0  0  0  0  0  0  0  0  0  0
   -5.8504    0.9109    5.7066 H   0  0  0  0  0  0  0  0  0  0  0  0
   -5.9889    0.1280    4.1588 H   0  0  0  0  0  0  0  0  0  0  0  0
   -3.7306    1.8938    6.4077 H   0  0  0  0  0  0  0  0  0  0  0  0
   -2.3496    1.8141    5.3589 H   0  0  0  0  0  0  0  0  0  0  0  0
    1.5933    1.5353   -0.8083 N   0  0  0  0  0  0  0  0  0  0  0  0
    2.8292    2.1866   -1.1768 C   0  0  2  0  0  0  0  0  0  0  0  0
    2.7348    3.6472   -0.7560 C   0  0  0  0  0  0  0  0  0  0  0  0
    1.6847    4.2857   -0.7803 O   0  0  0  0  0  0  0  0  0  0  0  0
    3.0940    2.0670   -2.6696 C   0  0  0  0  0  0  0  0  0  0  0  0
    0.7386    2.0813   -0.8639 H   0  0  0  0  0  0  0  0  0  0  0  0
    3.6273    1.6937   -0.6110 H   0  0  0  0  0  0  0  0  0  0  0  0
    2.3047    2.5550   -3.2529 H   0  0  0  0  0  0  0  0  0  0  0  0
    4.0449    2.5362   -2.9427 H   0  0  0  0  0  0  0  0  0  0  0  0
    3.1319    1.0160   -2.9757 H   0  0  0  0  0  0  0  0  0  0  0  0
    3.9693    4.1661   -0.3912 N   0  0  0  0  0  0  0  0  0  0  0  0
    4.1496    5.5427    0.0067 C   0  0  0  0  0  0  0  0  0  0  0  0
    4.7796    3.5543   -0.3621 H   0  0  0  0  0  0  0  0  0  0  0  0
    4.4220    6.1461   -0.8718 H   0  0  0  0  0  0  0  0  0  0  0  0
    3.2128    5.9253    0.4380 H   0  0  0  0  0  0  0  0  0  0  0  0
    4.9513    5.6053    0.7572 H   0  0  0  0  0  0  0  0  0  0  0  0
  1  3  1  0  0  0  0
  1  7  1  0  0  0  0
  1  2  2  0  0  0  0
 42 43  1  0  0  0  0
 43 51  1  0  0  0  0
 43 44  2  0  0  0  0
  8  9  1  0  0  0  0
  9 17  1  0  0  0  0
  9 10  2  0  0  0  0
 18 19  1  0  0  0  0
 19 41  1  0  0  0  0
 19 20  2  0  0  0  0
 25 26  1  0  0  0  0
 25 27  1  0  0  0  0
 24 25  2  0  0  0  0
 42 45  1  0  0  0  0
  8 11  1  0  0  0  0
 51 52  1  0  0  0  0
 21 22  1  0  0  0  0
 22 23  1  0  0  0  0
 18 21  1  0  0  0  0
 23 24  1  0  0  0  0
 41 42  1  0  0  0  0
  7  8  1  0  0  0  0
 17 18  1  0  0  0  0
  3  4  1  0  0  0  0
  3  5  1  0  0  0  0
  3  6  1  0  0  0  0
 45 48  1  0  0  0  0
 45 49  1  0  0  0  0
 45 50  1  0  0  0  0
 11 14  1  0  0  0  0
 11 15  1  0  0  0  0
 11 16  1  0  0  0  0
 52 54  1  0  0  0  0
 52 55  1  0  0  0  0
 52 56  1  0  0  0  0
 22 32  1  0  0  0  0
 22 33  1  0  0  0  0
 21 30  1  0  0  0  0
 21 31  1  0  0  0  0
 23 34  1  0  0  0  0
 23 35  1  0  0  0  0
 42 47  1  0  0  0  0
  8 13  1  0  0  0  0
 18 29  1  0  0  0  0
 26 37  1  0  0  0  0
 26 38  1  0  0  0  0
 27 39  1  0  0  0  0
 27 40  1  0  0  0  0
 51 53  1  0  0  0  0
  7 12  1  0  0  0  0
 41 46  1  0  0  0  0
 17 28  1  0  0  0  0
 24 36  1  0  0  0  0
M  CHG  1  24   1
M  END
$$$$

  -OEChem-05262214473D

 56 55  0     1  0  0  0  0  0999 V2000
    0.7735   -5.8042   -2.0022 C   0  0  0  0  0  0  0  0  0  0  0  0
   -0.2086   -6.3825   -1.5519 O   0  0  0  0  0  0  0  0  0  0  0  0
    1.4751   -6.3646   -3.1946 C   0  0  0  0  0  0  0  0  0  0  0  0
    2.2765   -7.0687   -2.9186 H   0  0  0  0  0  0  0  0  0  0  0  0
    0.7988   -6.9360   -3.8504 H   0  0  0  0  0  0  0  0  0  0  0  0
    1.9556   -5.6216   -3.8511 H   0  0  0  0  0  0  0  0  0  0  0  0
    1.3322   -4.6359   -1.5106 N   0  0  0  0  0  0  0  0  0  0  0  0
    0.8124   -3.9290   -0.3698 C   0  0  2  0  0  0  0  0  0  0  0  0
    1.0666   -2.4424   -0.5818 C   0  0  0  0  0  0  0  0  0  0  0  0
    2.0598   -2.0076   -1.1610 O   0  0  0  0  0  0  0  0  0  0  0  0
    1.4560   -4.4118    0.9207 C   0  0  0  0  0  0  0  0  0  0  0  0
    2.1528   -4.2578   -1.9805 H   0  0  0  0  0  0  0  0  0  0  0  0
   -0.2667   -4.1160   -0.3467 H   0  0  0  0  0  0  0  0  0  0  0  0
    2.5374   -4.2329    0.9160 H   0  0  0  0  0  0  0  0  0  0  0  0
    1.0390   -3.8932    1.7903 H   0  0  0  0  0  0  0  0  0  0  0  0
    1.2976   -5.4871    1.0566 H   0  0  0  0  0  0  0  0  0  0  0  0
    0.0755   -1.6529   -0.0105 N   0  0  0  0  0  0  0  0  0  0  0  0
    0.1113   -0.2132   -0.0391 C   0  0  2  0  0  0  0  0  0  0  0  0
    1.3800    0.1989   -0.7782 C   0  0  0  0  0  0  0  0  0  0  0  0
    2.1996   -0.6124   -1.2038 O   0  0  0  0  0  0  0  0  0  0  0  0
    0.0913    0.3914    1.3684 C   0  0  0  0  0  0  0  0  0  0  0  0
   -1.2384    0.1450    2.0912 C   0  0  0  0  0  0  0  0  0  0  0  0
   -1.2526    0.7490    3.4916 C   0  0  0  0  0  0  0  0  0  0  0  0
   -2.5125    0.4919    4.1857 N   0  3  0  0  0  0  0  0  0  0  0  0
   -2.7353    0.8947    5.5037 C   0  0  0  0  0  0  0  0  0  0  0  0
   -3.9599    0.6157    6.1013 N   0  0  0  0  0  0  0  0  0  0  0  0
   -1.7623    1.5689    6.2342 N   0  0  0  0  0  0  0  0  0  0  0  0
   -0.7323   -2.1024    0.4149 H   0  0  0  0  0  0  0  0  0  0  0  0
   -0.7609    0.1148   -0.6160 H   0  0  0  0  0  0  0  0  0  0  0  0
    0.2748    1.4707    1.3048 H   0  0  0  0  0  0  0  0  0  0  0  0
    0.9129   -0.0275    1.9645 H   0  0  0  0  0  0  0  0  0  0  0  0
   -2.0609    0.5675    1.5017 H   0  0  0  0  0  0  0  0  0  0  0  0
   -1.4163   -0.9331    2.1768 H   0  0  0  0  0  0  0  0  0  0  0  0
   -0.4539    0.3037    4.0927 H   0  0  0  0  0  0  0  0  0  0  0  0
   -1.1012    1.8320    3.4519 H   0  0  0  0  0  0  0  0  0  0  0  0
   -3.2628    0.0020    3.7016 H   0  0  0  0  0  0  0  0  0  0  0  0
   -4.1544    0.8955    7.0597 H   0  0  0  0  0  0  0  0  0  0  0  0
   -4.6932    0.1243    5.5959 H   0  0  0  0  0  0  0  0  0  0  0  0
   -1.9195    1.8644    7.1943 H   0  0  0  0  0  0  0  0  0  0  0  0
   -0.8574    1.7862    5.8234 H   0  0  0  0  0  0  0  0  0  0  0  0
    1.5111    1.5781   -0.8618 N   0  0  0  0  0  0  0  0  0  0  0  0
    2.6505    2.2240   -1.4718 C   0  0  2  0  0  0  0  0  0  0  0  0
    2.8954    3.5363   -0.7387 C   0  0  0  0  0  0  0  0  0  0  0  0
    1.9890    4.2235   -0.2726 O   0  0  0  0  0  0  0  0  0  0  0  0
    2.4212    2.4650   -2.9557 C   0  0  0  0  0  0  0  0  0  0  0  0
    0.7660    2.1718   -0.5097 H   0  0  0  0  0  0  0  0  0  0  0  0
    3.5077    1.5577   -1.3253 H   0  0  0  0  0  0  0  0  0  0  0  0
    1.5663    3.1304   -3.1222 H   0  0  0  0  0  0  0  0  0  0  0  0
    3.2967    2.9285   -3.4223 H   0  0  0  0  0  0  0  0  0  0  0  0
    2.2158    1.5234   -3.4763 H   0  0  0  0  0  0  0  0  0  0  0  0
    4.2418    3.8713   -0.7039 N   0  0  0  0  0  0  0  0  0  0  0  0
    4.7263    5.0913   -0.1016 C   0  0  0  0  0  0  0  0  0  0  0  0
    4.9278    3.2233   -1.0797 H   0  0  0  0  0  0  0  0  0  0  0  0
    4.7950    5.8772   -0.8683 H   0  0  0  0  0  0  0  0  0  0  0  0
    4.0318    5.4106    0.6894 H   0  0  0  0  0  0  0  0  0  0  0  0
    5.7214    4.9155    0.3331 H   0  0  0  0  0  0  0  0  0  0  0  0
  1  3  1  0  0  0  0
  1  7  1  0  0  0  0
  1  2  2  0  0  0  0
 42 43  1  0  0  0  0
 43 51  1  0  0  0  0
 43 44  2  0  0  0  0
  8  9  1  0  0  0  0
  9 17  1  0  0  0  0
  9 10  2  0  0  0  0
 18 19  1  0  0  0  0
 19 41  1  0  0  0  0
 19 20  2  0  0  0  0
 25 26  1  0  0  0  0
 25 27  1  0  0  0  0
 24 25  2  0  0  0  0
 42 45  1  0  0  0  0
  8 11  1  0  0  0  0
 51 52  1  0  0  0  0
 21 22  1  0  0  0  0
 22 23  1  0  0  0  0
 18 21  1  0  0  0  0
 23 24  1  0  0  0  0
 41 42  1  0  0  0  0
  7  8  1  0  0  0  0
 17 18  1  0  0  0  0
  3  4  1  0  0  0  0
  3  5  1  0  0  0  0
  3  6  1  0  0  0  0
 45 48  1  0  0  0  0
 45 49  1  0  0  0  0
 45 50  1  0  0  0  0
 11 14  1  0  0  0  0
 11 15  1  0  0  0  0
 11 16  1  0  0  0  0
 52 54  1  0  0  0  0
 52 55  1  0  0  0  0
 52 56  1  0  0  0  0
 22 32  1  0  0  0  0
 22 33  1  0  0  0  0
 21 30  1  0  0  0  0
 21 31  1  0  0  0  0
 23 34  1  0  0  0  0
 23 35  1  0  0  0  0
 42 47  1  0  0  0  0
  8 13  1  0  0  0  0
 18 29  1  0  0  0  0
 26 37  1  0  0  0  0
 26 38  1  0  0  0  0
 27 39  1  0  0  0  0
 27 40  1  0  0  0  0
 51 53  1  0  0  0  0
  7 12  1  0  0  0  0
 41 46  1  0  0  0  0
 17 28  1  0  0  0  0
 24 36  1  0  0  0  0
M  CHG  1  24   1
M  END
$$$$

  -OEChem-05262214473D

 56 55  0     1  0  0  0  0  0999 V2000
    0.7735   -5.8042   -2.0022 C   0  0  0  0  0  0  0  0  0  0  0  0
   -0.2086   -6.3825   -1.5519 O   0  0  0  0  0  0  0  0  0  0  0  0
    1.4751   -6.3646   -3.1946 C   0  0  0  0  0  0  0  0  0  0  0  0
    2.2765   -7.0687   -2.9186 H   0  0  0  0  0  0  0  0  0  0  0  0
    0.7988   -6.9360   -3.8504 H   0  0  0  0  0  0  0  0  0  0  0  0
    1.9556   -5.6216   -3.8511 H   0  0  0  0  0  0  0  0  0  0  0  0
    1.3322   -4.6359   -1.5106 N   0  0  0  0  0  0  0  0  0  0  0  0
    0.8124   -3.9290   -0.3698 C   0  0  2  0  0  0  0  0  0  0  0  0
    1.0666   -2.4424   -0.5818 C   0  0  0  0  0  0  0  0  0  0  0  0
    2.0598   -2.0076   -1.1610 O   0  0  0  0  0  0  0  0  0  0  0  0
    1.4560   -4.4118    0.9207 C   0  0  0  0  0  0  0  0  0  0  0  0
    2.1528   -4.2578   -1.9805 H   0  0  0  0  0  0  0  0  0  0  0  0
   -0.2667   -4.1160   -0.3467 H   0  0  0  0  0  0  0  0  0  0  0  0
    2.5374   -4.2329    0.9160 H   0  0  0  0  0  0  0  0  0  0  0  0
    1.0390   -3.8932    1.7903 H   0  0  0  0  0  0  0  0  0  0  0  0
    1.2976   -5.4871    1.0566 H   0  0  0  0  0  0  0  0  0  0  0  0
    0.0755   -1.6529   -0.0105 N   0  0  0  0  0  0  0  0  0  0  0  0
    0.1113   -0.2132   -0.0391 C   0  0  2  0  0  0  0  0  0  0  0  0
    1.3800    0.1989   -0.7782 C   0  0  0  0  0  0  0  0  0  0  0  0
    2.0591   -0.5897   -1.4324 O   0  0  0  0  0  0  0  0  0  0  0  0
    0.0913    0.3914    1.3684 C   0  0  0  0  0  0  0  0  0  0  0  0
   -1.2384    0.1450    2.0912 C   0  0  0  0  0  0  0  0  0  0  0  0
   -1.2526    0.7490    3.4916 C   0  0  0  0  0  0  0  0  0  0  0  0
   -2.5125    0.4919    4.1857 N   0  3  0  0  0  0  0  0  0  0  0  0
   -2.7353    0.8947    5.5037 C   0  0  0  0  0  0  0  0  0  0  0  0
   -3.9599    0.6157    6.1013 N   0  0  0  0  0  0  0  0  0  0  0  0
   -1.7623    1.5689    6.2342 N   0  0  0  0  0  0  0  0  0  0  0  0
   -0.7323   -2.1024    0.4149 H   0  0  0  0  0  0  0  0  0  0  0  0
   -0.7609    0.1148   -0.6160 H   0  0  0  0  0  0  0  0  0  0  0  0
    0.2748    1.4707    1.3048 H   0  0  0  0  0  0  0  0  0  0  0  0
    0.9129   -0.0275    1.9645 H   0  0  0  0  0  0  0  0  0  0  0  0
   -2.0609    0.5675    1.5017 H   0  0  0  0  0  0  0  0  0  0  0  0
   -1.4163   -0.9331    2.1768 H   0  0  0  0  0  0  0  0  0  0  0  0
   -0.4539    0.3037    4.0927 H   0  0  0  0  0  0  0  0  0  0  0  0
   -1.1012    1.8320    3.4519 H   0  0  0  0  0  0  0  0  0  0  0  0
   -3.2628    0.0020    3.7016 H   0  0  0  0  0  0  0  0  0  0  0  0
   -4.1544    0.8955    7.0597 H   0  0  0  0  0  0  0  0  0  0  0  0
   -4.6932    0.1243    5.5959 H   0  0  0  0  0  0  0  0  0  0  0  0
   -1.9195    1.8644    7.1943 H   0  0  0  0  0  0  0  0  0  0  0  0
   -0.8574    1.7862    5.8234 H   0  0  0  0  0  0  0  0  0  0  0  0
    1.6886    1.5375   -0.5798 N   0  0  0  0  0  0  0  0  0  0  0  0
    2.8678    2.1628   -1.1330 C   0  0  2  0  0  0  0  0  0  0  0  0
    3.3259    3.2437   -0.1628 C   0  0  0  0  0  0  0  0  0  0  0  0
    2.5467    3.9136    0.5118 O   0  0  0  0  0  0  0  0  0  0  0  0
    2.5895    2.7493   -2.5083 C   0  0  0  0  0  0  0  0  0  0  0  0
    1.0501    2.1228   -0.0493 H   0  0  0  0  0  0  0  0  0  0  0  0
    3.6354    1.3845   -1.2026 H   0  0  0  0  0  0  0  0  0  0  0  0
    1.8227    3.5311   -2.4586 H   0  0  0  0  0  0  0  0  0  0  0  0
    3.4912    3.1977   -2.9383 H   0  0  0  0  0  0  0  0  0  0  0  0
    2.2316    1.9761   -3.1966 H   0  0  0  0  0  0  0  0  0  0  0  0
    4.7047    3.4019   -0.1710 N   0  0  0  0  0  0  0  0  0  0  0  0
    5.3804    4.3940    0.6322 C   0  0  0  0  0  0  0  0  0  0  0  0
    5.2762    2.7762   -0.7310 H   0  0  0  0  0  0  0  0  0  0  0  0
    5.5098    5.3154    0.0455 H   0  0  0  0  0  0  0  0  0  0  0  0
    4.7801    4.6112    1.5281 H   0  0  0  0  0  0  0  0  0  0  0  0
    6.3660    4.0110    0.9353 H   0  0  0  0  0  0  0  0  0  0  0  0
  1  3  1  0  0  0  0
  1  7  1  0  0  0  0
  1  2  2  0  0  0  0
 42 43  1  0  0  0  0
 43 51  1  0  0  0  0
 43 44  2  0  0  0  0
  8  9  1  0  0  0  0
  9 17  1  0  0  0  0
  9 10  2  0  0  0  0
 18 19  1  0  0  0  0
 19 41  1  0  0  0  0
 19 20  2  0  0  0  0
 25 26  1  0  0  0  0
 25 27  1  0  0  0  0
 24 25  2  0  0  0  0
 42 45  1  0  0  0  0
  8 11  1  0  0  0  0
 51 52  1  0  0  0  0
 21 22  1  0  0  0  0
 22 23  1  0  0  0  0
 18 21  1  0  0  0  0
 23 24  1  0  0  0  0
 41 42  1  0  0  0  0
  7  8  1  0  0  0  0
 17 18  1  0  0  0  0
  3  4  1  0  0  0  0
  3  5  1  0  0  0  0
  3  6  1  0  0  0  0
 45 48  1  0  0  0  0
 45 49  1  0  0  0  0
 45 50  1  0  0  0  0
 11 14  1  0  0  0  0
 11 15  1  0  0  0  0
 11 16  1  0  0  0  0
 52 54  1  0  0  0  0
 52 55  1  0  0  0  0
 52 56  1  0  0  0  0
 22 32  1  0  0  0  0
 22 33  1  0  0  0  0
 21 30  1  0  0  0  0
 21 31  1  0  0  0  0
 23 34  1  0  0  0  0
 23 35  1  0  0  0  0
 42 47  1  0  0  0  0
  8 13  1  0  0  0  0
 18 29  1  0  0  0  0
 26 37  1  0  0  0  0
 26 38  1  0  0  0  0
 27 39  1  0  0  0  0
 27 40  1  0  0  0  0
 51 53  1  0  0  0  0
  7 12  1  0  0  0  0
 41 46  1  0  0  0  0
 17 28  1  0  0  0  0
 24 36  1  0  0  0  0
M  CHG  1  24   1
M  END
$$$$

  -OEChem-05262214473D

 56 55  0     1  0  0  0  0  0999 V2000
    0.7735   -5.8042   -2.0022 C   0  0  0  0  0  0  0  0  0  0  0  0
   -0.2086   -6.3825   -1.5519 O   0  0  0  0  0  0  0  0  0  0  0  0
    1.4751   -6.3646   -3.1946 C   0  0  0  0  0  0  0  0  0  0  0  0
    2.2765   -7.0687   -2.9186 H   0  0  0  0  0  0  0  0  0  0  0  0
    0.7988   -6.9360   -3.8504 H   0  0  0  0  0  0  0  0  0  0  0  0
    1.9556   -5.6216   -3.8511 H   0  0  0  0  0  0  0  0  0  0  0  0
    1.3322   -4.6359   -1.5106 N   0  0  0  0  0  0  0  0  0  0  0  0
    0.8124   -3.9290   -0.3698 C   0  0  2  0  0  0  0  0  0  0  0  0
    1.0666   -2.4424   -0.5818 C   0  0  0  0  0  0  0  0  0  0  0  0
    2.0598   -2.0076   -1.1610 O   0  0  0  0  0  0  0  0  0  0  0  0
    1.4560   -4.4118    0.9207 C   0  0  0  0  0  0  0  0  0  0  0  0
    2.1528   -4.2578   -1.9805 H   0  0  0  0  0  0  0  0  0  0  0  0
   -0.2667   -4.1160   -0.3467 H   0  0  0  0  0  0  0  0  0  0  0  0
    2.5374   -4.2329    0.9160 H   0  0  0  0  0  0  0  0  0  0  0  0
    1.0390   -3.8932    1.7903 H   0  0  0  0  0  0  0  0  0  0  0  0
    1.2976   -5.4871    1.0566 H   0  0  0  0  0  0  0  0  0  0  0  0
    0.0755   -1.6529   -0.0105 N   0  0  0  0  0  0  0  0  0  0  0  0
    0.1113   -0.2132   -0.0391 C   0  0  2  0  0  0  0  0  0  0  0  0
    1.3800    0.1989   -0.7782 C   0  0  0  0  0  0  0  0  0  0  0  0
    1.9103   -0.5010   -1.6385 O   0  0  0  0  0  0  0  0  0  0  0  0
    0.0913    0.3914    1.3684 C   0  0  0  0  0  0  0  0  0  0  0  0
   -1.2384    0.1450    2.0912 C   0  0  0  0  0  0  0  0  0  0  0  0
   -1.2526    0.7490    3.4916 C   0  0  0  0  0  0  0  0  0  0  0  0
   -2.5125    0.4919    4.1857 N   0  3  0  0  0  0  0  0  0  0  0  0
   -2.7353    0.8947    5.5037 C   0  0  0  0  0  0  0  0  0  0  0  0
   -3.9599    0.6157    6.1013 N   0  0  0  0  0  0  0  0  0  0  0  0
   -1.7623    1.5689    6.2342 N   0  0  0  0  0  0  0  0  0  0  0  0
   -0.7323   -2.1024    0.4149 H   0  0  0  0  0  0  0  0  0  0  0  0
   -0.7609    0.1148   -0.6160 H   0  0  0  0  0  0  0  0  0  0  0  0
    0.2748    1.4707    1.3048 H   0  0  0  0  0  0  0  0  0  0  0  0
    0.9129   -0.0275    1.9645 H   0  0  0  0  0  0  0  0  0  0  0  0
   -2.0609    0.5675    1.5017 H   0  0  0  0  0  0  0  0  0  0  0  0
   -1.4163   -0.9331    2.1768 H   0  0  0  0  0  0  0  0  0  0  0  0
   -0.4539    0.3037    4.0927 H   0  0  0  0  0  0  0  0  0  0  0  0
   -1.1012    1.8320    3.4519 H   0  0  0  0  0  0  0  0  0  0  0  0
   -3.2628    0.0020    3.7016 H   0  0  0  0  0  0  0  0  0  0  0  0
   -4.1544    0.8955    7.0597 H   0  0  0  0  0  0  0  0  0  0  0  0
   -4.6932    0.1243    5.5959 H   0  0  0  0  0  0  0  0  0  0  0  0
   -1.9195    1.8644    7.1943 H   0  0  0  0  0  0  0  0  0  0  0  0
   -0.8574    1.7862    5.8234 H   0  0  0  0  0  0  0  0  0  0  0  0
    1.8747    1.4153   -0.3286 N   0  0  0  0  0  0  0  0  0  0  0  0
    3.0936    2.0036   -0.8342 C   0  0  2  0  0  0  0  0  0  0  0  0
    3.7454    2.7831    0.3003 C   0  0  0  0  0  0  0  0  0  0  0  0
    3.1014    3.3753    1.1638 O   0  0  0  0  0  0  0  0  0  0  0  0
    2.8190    2.9066   -2.0266 C   0  0  0  0  0  0  0  0  0  0  0  0
    1.3506    1.9407    0.3649 H   0  0  0  0  0  0  0  0  0  0  0  0
    3.7457    1.1747   -1.1303 H   0  0  0  0  0  0  0  0  0  0  0  0
    2.1671    3.7430   -1.7492 H   0  0  0  0  0  0  0  0  0  0  0  0
    3.7467    3.3291   -2.4263 H   0  0  0  0  0  0  0  0  0  0  0  0
    2.3233    2.3512   -2.8301 H   0  0  0  0  0  0  0  0  0  0  0  0
    5.1303    2.7757    0.2103 N   0  0  0  0  0  0  0  0  0  0  0  0
    5.9761    3.4804    1.1452 C   0  0  0  0  0  0  0  0  0  0  0  0
    5.5810    2.2256   -0.5149 H   0  0  0  0  0  0  0  0  0  0  0  0
    6.1937    4.4864    0.7573 H   0  0  0  0  0  0  0  0  0  0  0  0
    5.4613    3.5645    2.1137 H   0  0  0  0  0  0  0  0  0  0  0  0
    6.9174    2.9268    1.2771 H   0  0  0  0  0  0  0  0  0  0  0  0
  1  3  1  0  0  0  0
  1  7  1  0  0  0  0
  1  2  2  0  0  0  0
 42 43  1  0  0  0  0
 43 51  1  0  0  0  0
 43 44  2  0  0  0  0
  8  9  1  0  0  0  0
  9 17  1  0  0  0  0
  9 10  2  0  0  0  0
 18 19  1  0  0  0  0
 19 41  1  0  0  0  0
 19 20  2  0  0  0  0
 25 26  1  0  0  0  0
 25 27  1  0  0  0  0
 24 25  2  0  0  0  0
 42 45  1  0  0  0  0
  8 11  1  0  0  0  0
 51 52  1  0  0  0  0
 21 22  1  0  0  0  0
 22 23  1  0  0  0  0
 18 21  1  0  0  0  0
 23 24  1  0  0  0  0
 41 42  1  0  0  0  0
  7  8  1  0  0  0  0
 17 18  1  0  0  0  0
  3  4  1  0  0  0  0
  3  5  1  0  0  0  0
  3  6  1  0  0  0  0
 45 48  1  0  0  0  0
 45 49  1  0  0  0  0
 45 50  1  0  0  0  0
 11 14  1  0  0  0  0
 11 15  1  0  0  0  0
 11 16  1  0  0  0  0
 52 54  1  0  0  0  0
 52 55  1  0  0  0  0
 52 56  1  0  0  0  0
 22 32  1  0  0  0  0
 22 33  1  0  0  0  0
 21 30  1  0  0  0  0
 21 31  1  0  0  0  0
 23 34  1  0  0  0  0
 23 35  1  0  0  0  0
 42 47  1  0  0  0  0
  8 13  1  0  0  0  0
 18 29  1  0  0  0  0
 26 37  1  0  0  0  0
 26 38  1  0  0  0  0
 27 39  1  0  0  0  0
 27 40  1  0  0  0  0
 51 53  1  0  0  0  0
  7 12  1  0  0  0  0
 41 46  1  0  0  0  0
 17 28  1  0  0  0  0
 24 36  1  0  0  0  0
M  CHG  1  24   1
M  END
$$$$

  -OEChem-05262214473D

 56 55  0     1  0  0  0  0  0999 V2000
    0.7735   -5.8042   -2.0022 C   0  0  0  0  0  0  0  0  0  0  0  0
   -0.2086   -6.3825   -1.5519 O   0  0  0  0  0  0  0  0  0  0  0  0
    1.4751   -6.3646   -3.1946 C   0  0  0  0  0  0  0  0  0  0  0  0
    2.2765   -7.0687   -2.9186 H   0  0  0  0  0  0  0  0  0  0  0  0
    0.7988   -6.9360   -3.8504 H   0  0  0  0  0  0  0  0  0  0  0  0
    1.9556   -5.6216   -3.8511 H   0  0  0  0  0  0  0  0  0  0  0  0
    1.3322   -4.6359   -1.5106 N   0  0  0  0  0  0  0  0  0  0  0  0
    0.8124   -3.9290   -0.3698 C   0  0  2  0  0  0  0  0  0  0  0  0
    1.0666   -2.4424   -0.5818 C   0  0  0  0  0  0  0  0  0  0  0  0
    2.0598   -2.0076   -1.1610 O   0  0  0  0  0  0  0  0  0  0  0  0
    1.4560   -4.4118    0.9207 C   0  0  0  0  0  0  0  0  0  0  0  0
    2.1528   -4.2578   -1.9805 H   0  0  0  0  0  0  0  0  0  0  0  0
   -0.2667   -4.1160   -0.3467 H   0  0  0  0  0  0  0  0  0  0  0  0
    2.5374   -4.2329    0.9160 H   0  0  0  0  0  0  0  0  0  0  0  0
    1.0390   -3.8932    1.7903 H   0  0  0  0  0  0  0  0  0  0  0  0
    1.2976   -5.4871    1.0566 H   0  0  0  0  0  0  0  0  0  0  0  0
    0.0755   -1.6529   -0.0105 N   0  0  0  0  0  0  0  0  0  0  0  0
    0.1113   -0.2132   -0.0391 C   0  0  2  0  0  0  0  0  0  0  0  0
    1.3800    0.1989   -0.7782 C   0  0  0  0  0  0  0  0  0  0  0  0
    1.7632   -0.3523   -1.8080 O   0  0  0  0  0  0  0  0  0  0  0  0
    0.0913    0.3914    1.3684 C   0  0  0  0  0  0  0  0  0  0  0  0
   -1.2384    0.1450    2.0912 C   0  0  0  0  0  0  0  0  0  0  0  0
   -1.2526    0.7490    3.4916 C   0  0  0  0  0  0  0  0  0  0  0  0
   -2.5125    0.4919    4.1857 N   0  3  0  0  0  0  0  0  0  0  0  0
   -2.7353    0.8947    5.5037 C   0  0  0  0  0  0  0  0  0  0  0  0
   -3.9599    0.6157    6.1013 N   0  0  0  0  0  0  0  0  0  0  0  0
   -1.7623    1.5689    6.2342 N   0  0  0  0  0  0  0  0  0  0  0  0
   -0.7323   -2.1024    0.4149 H   0  0  0  0  0  0  0  0  0  0  0  0
   -0.7609    0.1148   -0.6160 H   0  0  0  0  0  0  0  0  0  0  0  0
    0.2748    1.4707    1.3048 H   0  0  0  0  0  0  0  0  0  0  0  0
    0.9129   -0.0275    1.9645 H   0  0  0  0  0  0  0  0  0  0  0  0
   -2.0609    0.5675    1.5017 H   0  0  0  0  0  0  0  0  0  0  0  0
   -1.4163   -0.9331    2.1768 H   0  0  0  0  0  0  0  0  0  0  0  0
   -0.4539    0.3037    4.0927 H   0  0  0  0  0  0  0  0  0  0  0  0
   -1.1012    1.8320    3.4519 H   0  0  0  0  0  0  0  0  0  0  0  0
   -3.2628    0.0020    3.7016 H   0  0  0  0  0  0  0  0  0  0  0  0
   -4.1544    0.8955    7.0597 H   0  0  0  0  0  0  0  0  0  0  0  0
   -4.6932    0.1243    5.5959 H   0  0  0  0  0  0  0  0  0  0  0  0
   -1.9195    1.8644    7.1943 H   0  0  0  0  0  0  0  0  0  0  0  0
   -0.8574    1.7862    5.8234 H   0  0  0  0  0  0  0  0  0  0  0  0
    2.0567    1.2198   -0.1253 N   0  0  0  0  0  0  0  0  0  0  0  0
    3.3126    1.7571   -0.5956 C   0  0  2  0  0  0  0  0  0  0  0  0
    4.1251    2.1859    0.6191 C   0  0  0  0  0  0  0  0  0  0  0  0
    3.6153    2.6455    1.6389 O   0  0  0  0  0  0  0  0  0  0  0  0
    3.0941    2.9260   -1.5436 C   0  0  0  0  0  0  0  0  0  0  0  0
    1.6470    1.6379    0.7048 H   0  0  0  0  0  0  0  0  0  0  0  0
    3.8310    0.9427   -1.1134 H   0  0  0  0  0  0  0  0  0  0  0  0
    2.5759    3.7518   -1.0425 H   0  0  0  0  0  0  0  0  0  0  0  0
    4.0459    3.3137   -1.9214 H   0  0  0  0  0  0  0  0  0  0  0  0
    2.4845    2.6231   -2.4018 H   0  0  0  0  0  0  0  0  0  0  0  0
    5.4894    2.0354    0.4140 N   0  0  0  0  0  0  0  0  0  0  0  0
    6.4727    2.4127    1.4023 C   0  0  0  0  0  0  0  0  0  0  0  0
    5.8214    1.6089   -0.4460 H   0  0  0  0  0  0  0  0  0  0  0  0
    6.8002    3.4466    1.2184 H   0  0  0  0  0  0  0  0  0  0  0  0
    6.0290    2.3419    2.4064 H   0  0  0  0  0  0  0  0  0  0  0  0
    7.3379    1.7368    1.3353 H   0  0  0  0  0  0  0  0  0  0  0  0
  1  3  1  0  0  0  0
  1  7  1  0  0  0  0
  1  2  2  0  0  0  0
 42 43  1  0  0  0  0
 43 51  1  0  0  0  0
 43 44  2  0  0  0  0
  8  9  1  0  0  0  0
  9 17  1  0  0  0  0
  9 10  2  0  0  0  0
 18 19  1  0  0  0  0
 19 41  1  0  0  0  0
 19 20  2  0  0  0  0
 25 26  1  0  0  0  0
 25 27  1  0  0  0  0
 24 25  2  0  0  0  0
 42 45  1  0  0  0  0
  8 11  1  0  0  0  0
 51 52  1  0  0  0  0
 21 22  1  0  0  0  0
 22 23  1  0  0  0  0
 18 21  1  0  0  0  0
 23 24  1  0  0  0  0
 41 42  1  0  0  0  0
  7  8  1  0  0  0  0
 17 18  1  0  0  0  0
  3  4  1  0  0  0  0
  3  5  1  0  0  0  0
  3  6  1  0  0  0  0
 45 48  1  0  0  0  0
 45 49  1  0  0  0  0
 45 50  1  0  0  0  0
 11 14  1  0  0  0  0
 11 15  1  0  0  0  0
 11 16  1  0  0  0  0
 52 54  1  0  0  0  0
 52 55  1  0  0  0  0
 52 56  1  0  0  0  0
 22 32  1  0  0  0  0
 22 33  1  0  0  0  0
 21 30  1  0  0  0  0
 21 31  1  0  0  0  0
 23 34  1  0  0  0  0
 23 35  1  0  0  0  0
 42 47  1  0  0  0  0
  8 13  1  0  0  0  0
 18 29  1  0  0  0  0
 26 37  1  0  0  0  0
 26 38  1  0  0  0  0
 27 39  1  0  0  0  0
 27 40  1  0  0  0  0
 51 53  1  0  0  0  0
  7 12  1  0  0  0  0
 41 46  1  0  0  0  0
 17 28  1  0  0  0  0
 24 36  1  0  0  0  0
M  CHG  1  24   1
M  END
$$$$

  -OEChem-05262214473D

 56 55  0     1  0  0  0  0  0999 V2000
    0.7735   -5.8042   -2.0022 C   0  0  0  0  0  0  0  0  0  0  0  0
   -0.2086   -6.3825   -1.5519 O   0  0  0  0  0  0  0  0  0  0  0  0
    1.4751   -6.3646   -3.1946 C   0  0  0  0  0  0  0  0  0  0  0  0
    2.2765   -7.0687   -2.9186 H   0  0  0  0  0  0  0  0  0  0  0  0
    0.7988   -6.9360   -3.8504 H   0  0  0  0  0  0  0  0  0  0  0  0
    1.9556   -5.6216   -3.8511 H   0  0  0  0  0  0  0  0  0  0  0  0
    1.3322   -4.6359   -1.5106 N   0  0  0  0  0  0  0  0  0  0  0  0
    0.8124   -3.9290   -0.3698 C   0  0  2  0  0  0  0  0  0  0  0  0
    1.0666   -2.4424   -0.5818 C   0  0  0  0  0  0  0  0  0  0  0  0
    2.0598   -2.0076   -1.1610 O   0  0  0  0  0  0  0  0  0  0  0  0
    1.4560   -4.4118    0.9207 C   0  0  0  0  0  0  0  0  0  0  0  0
    2.1528   -4.2578   -1.9805 H   0  0  0  0  0  0  0  0  0  0  0  0
   -0.2667   -4.1160   -0.3467 H   0  0  0  0  0  0  0  0  0  0  0  0
    2.5374   -4.2329    0.9160 H   0  0  0  0  0  0  0  0  0  0  0  0
    1.0390   -3.8932    1.7903 H   0  0  0  0  0  0  0  0  0  0  0  0
    1.2976   -5.4871    1.0566 H   0  0  0  0  0  0  0  0  0  0  0  0
    0.0755   -1.6529   -0.0105 N   0  0  0  0  0  0  0  0  0  0  0  0
    0.1113   -0.2132   -0.0391 C   0  0  2  0  0  0  0  0  0  0  0  0
    1.3800    0.1989   -0.7782 C   0  0  0  0  0  0  0  0  0  0  0  0
    1.6279   -0.1537   -1.9294 O   0  0  0  0  0  0  0  0  0  0  0  0
    0.0913    0.3914    1.3684 C   0  0  0  0  0  0  0  0  0  0  0  0
   -1.2384    0.1450    2.0912 C   0  0  0  0  0  0  0  0  0  0  0  0
   -1.2526    0.7490    3.4916 C   0  0  0  0  0  0  0  0  0  0  0  0
   -2.5125    0.4919    4.1857 N   0  3  0  0  0  0  0  0  0  0  0  0
   -2.7353    0.8947    5.5037 C   0  0  0  0  0  0  0  0  0  0  0  0
   -3.9599    0.6157    6.1013 N   0  0  0  0  0  0  0  0  0  0  0  0
   -1.7623    1.5689    6.2342 N   0  0  0  0  0  0  0  0  0  0  0  0
   -0.7323   -2.1024    0.4149 H   0  0  0  0  0  0  0  0  0  0  0  0
   -0.7609    0.1148   -0.6160 H   0  0  0  0  0  0  0  0  0  0  0  0
    0.2748    1.4707    1.3048 H   0  0  0  0  0  0  0  0  0  0  0  0
    0.9129   -0.0275    1.9645 H   0  0  0  0  0  0  0  0  0  0  0  0
   -2.0609    0.5675    1.5017 H   0  0  0  0  0  0  0  0  0  0  0  0
   -1.4163   -0.9331    2.1768 H   0  0  0  0  0  0  0  0  0  0  0  0
   -0.4539    0.3037    4.0927 H   0  0  0  0  0  0  0  0  0  0  0  0
   -1.1012    1.8320    3.4519 H   0  0  0  0  0  0  0  0  0  0  0  0
   -3.2628    0.0020    3.7016 H   0  0  0  0  0  0  0  0  0  0  0  0
   -4.1544    0.8955    7.0597 H   0  0  0  0  0  0  0  0  0  0  0  0
   -4.6932    0.1243    5.5959 H   0  0  0  0  0  0  0  0  0  0  0  0
   -1.9195    1.8644    7.1943 H   0  0  0  0  0  0  0  0  0  0  0  0
   -0.8574    1.7862    5.8234 H   0  0  0  0  0  0  0  0  0  0  0  0
    2.2221    0.9643    0.0163 N   0  0  0  0  0  0  0  0  0  0  0  0
    3.5100    1.4401   -0.4336 C   0  0  2  0  0  0  0  0  0  0  0  0
    4.4393    1.4928    0.7719 C   0  0  0  0  0  0  0  0  0  0  0  0
    4.0533    1.7737    1.9046 O   0  0  0  0  0  0  0  0  0  0  0  0
    3.3960    2.8062   -1.0921 C   0  0  0  0  0  0  0  0  0  0  0  0
    1.9191    1.2351    0.9472 H   0  0  0  0  0  0  0  0  0  0  0  0
    3.8854    0.7042   -1.1530 H   0  0  0  0  0  0  0  0  0  0  0  0
    3.0214    3.5568   -0.3866 H   0  0  0  0  0  0  0  0  0  0  0  0
    4.3682    3.1527   -1.4580 H   0  0  0  0  0  0  0  0  0  0  0  0
    2.7042    2.7733   -1.9407 H   0  0  0  0  0  0  0  0  0  0  0  0
    5.7578    1.2314    0.4262 N   0  0  0  0  0  0  0  0  0  0  0  0
    6.8365    1.2638    1.3861 C   0  0  0  0  0  0  0  0  0  0  0  0
    5.9812    0.9683   -0.5291 H   0  0  0  0  0  0  0  0  0  0  0  0
    7.2878    2.2669    1.3975 H   0  0  0  0  0  0  0  0  0  0  0  0
    6.4445    1.0268    2.3862 H   0  0  0  0  0  0  0  0  0  0  0  0
    7.5989    0.5220    1.1058 H   0  0  0  0  0  0  0  0  0  0  0  0
  1  3  1  0  0  0  0
  1  7  1  0  0  0  0
  1  2  2  0  0  0  0
 42 43  1  0  0  0  0
 43 51  1  0  0  0  0
 43 44  2  0  0  0  0
  8  9  1  0  0  0  0
  9 17  1  0  0  0  0
  9 10  2  0  0  0  0
 18 19  1  0  0  0  0
 19 41  1  0  0  0  0
 19 20  2  0  0  0  0
 25 26  1  0  0  0  0
 25 27  1  0  0  0  0
 24 25  2  0  0  0  0
 42 45  1  0  0  0  0
  8 11  1  0  0  0  0
 51 52  1  0  0  0  0
 21 22  1  0  0  0  0
 22 23  1  0  0  0  0
 18 21  1  0  0  0  0
 23 24  1  0  0  0  0
 41 42  1  0  0  0  0
  7  8  1  0  0  0  0
 17 18  1  0  0  0  0
  3  4  1  0  0  0  0
  3  5  1  0  0  0  0
  3  6  1  0  0  0  0
 45 48  1  0  0  0  0
 45 49  1  0  0  0  0
 45 50  1  0  0  0  0
 11 14  1  0  0  0  0
 11 15  1  0  0  0  0
 11 16  1  0  0  0  0
 52 54  1  0  0  0  0
 52 55  1  0  0  0  0
 52 56  1  0  0  0  0
 22 32  1  0  0  0  0
 22 33  1  0  0  0  0
 21 30  1  0  0  0  0
 21 31  1  0  0  0  0
 23 34  1  0  0  0  0
 23 35  1  0  0  0  0
 42 47  1  0  0  0  0
  8 13  1  0  0  0  0
 18 29  1  0  0  0  0
 26 37  1  0  0  0  0
 26 38  1  0  0  0  0
 27 39  1  0  0  0  0
 27 40  1  0  0  0  0
 51 53  1  0  0  0  0
  7 12  1  0  0  0  0
 41 46  1  0  0  0  0
 17 28  1  0  0  0  0
 24 36  1  0  0  0  0
M  CHG  1  24   1
M  END
$$$$

  -OEChem-05262214473D

 56 55  0     1  0  0  0  0  0999 V2000
    0.7735   -5.8042   -2.0022 C   0  0  0  0  0  0  0  0  0  0  0  0
   -0.2086   -6.3825   -1.5519 O   0  0  0  0  0  0  0  0  0  0  0  0
    1.4751   -6.3646   -3.1946 C   0  0  0  0  0  0  0  0  0  0  0  0
    2.2765   -7.0687   -2.9186 H   0  0  0  0  0  0  0  0  0  0  0  0
    0.7988   -6.9360   -3.8504 H   0  0  0  0  0  0  0  0  0  0  0  0
    1.9556   -5.6216   -3.8511 H   0  0  0  0  0  0  0  0  0  0  0  0
    1.3322   -4.6359   -1.5106 N   0  0  0  0  0  0  0  0  0  0  0  0
    0.8124   -3.9290   -0.3698 C   0  0  2  0  0  0  0  0  0  0  0  0
    1.0666   -2.4424   -0.5818 C   0  0  0  0  0  0  0  0  0  0  0  0
    2.0598   -2.0076   -1.1610 O   0  0  0  0  0  0  0  0  0  0  0  0
    1.4560   -4.4118    0.9207 C   0  0  0  0  0  0  0  0  0  0  0  0
    2.1528   -4.2578   -1.9805 H   0  0  0  0  0  0  0  0  0  0  0  0
   -0.2667   -4.1160   -0.3467 H   0  0  0  0  0  0  0  0  0  0  0  0
    2.5374   -4.2329    0.9160 H   0  0  0  0  0  0  0  0  0  0  0  0
    1.0390   -3.8932    1.7903 H   0  0  0  0  0  0  0  0  0  0  0  0
    1.2976   -5.4871    1.0566 H   0  0  0  0  0  0  0  0  0  0  0  0
    0.0755   -1.6529   -0.0105 N   0  0  0  0  0  0  0  0  0  0  0  0
    0.1113   -0.2132   -0.0391 C   0  0  2  0  0  0  0  0  0  0  0  0
    1.3800    0.1989   -0.7782 C   0  0  0  0  0  0  0  0  0  0  0  0
    1.5137    0.0813   -1.9945 O   0  0  0  0  0  0  0  0  0  0  0  0
    0.0913    0.3914    1.3684 C   0  0  0  0  0  0  0  0  0  0  0  0
   -1.2384    0.1450    2.0912 C   0  0  0  0  0  0  0  0  0  0  0  0
   -1.2526    0.7490    3.4916 C   0  0  0  0  0  0  0  0  0  0  0  0
   -2.5125    0.4919    4.1857 N   0  3  0  0  0  0  0  0  0  0  0  0
   -2.7353    0.8947    5.5037 C   0  0  0  0  0  0  0  0  0  0  0  0
   -3.9599    0.6157    6.1013 N   0  0  0  0  0  0  0  0  0  0  0  0
   -1.7623    1.5689    6.2342 N   0  0  0  0  0  0  0  0  0  0  0  0
   -0.7323   -2.1024    0.4149 H   0  0  0  0  0  0  0  0  0  0  0  0
   -0.7609    0.1148   -0.6160 H   0  0  0  0  0  0  0  0  0  0  0  0
    0.2748    1.4707    1.3048 H   0  0  0  0  0  0  0  0  0  0  0  0
    0.9129   -0.0275    1.9645 H   0  0  0  0  0  0  0  0  0  0  0  0
   -2.0609    0.5675    1.5017 H   0  0  0  0  0  0  0  0  0  0  0  0
   -1.4163   -0.9331    2.1768 H   0  0  0  0  0  0  0  0  0  0  0  0
   -0.4539    0.3037    4.0927 H   0  0  0  0  0  0  0  0  0  0  0  0
   -1.1012    1.8320    3.4519 H   0  0  0  0  0  0  0  0  0  0  0  0
   -3.2628    0.0020    3.7016 H   0  0  0  0  0  0  0  0  0  0  0  0
   -4.1544    0.8955    7.0597 H   0  0  0  0  0  0  0  0  0  0  0  0
   -4.6932    0.1243    5.5959 H   0  0  0  0  0  0  0  0  0  0  0  0
   -1.9195    1.8644    7.1943 H   0  0  0  0  0  0  0  0  0  0  0  0
   -0.8574    1.7862    5.8234 H   0  0  0  0  0  0  0  0  0  0  0  0
    2.3598    0.6664    0.0865 N   0  0  0  0  0  0  0  0  0  0  0  0
    3.6722    1.0744   -0.3591 C   0  0  2  0  0  0  0  0  0  0  0  0
    4.6665    0.7510    0.7482 C   0  0  0  0  0  0  0  0  0  0  0  0
    4.3857    0.8195    1.9430 O   0  0  0  0  0  0  0  0  0  0  0  0
    3.7042    2.5554   -0.7029 C   0  0  0  0  0  0  0  0  0  0  0  0
    2.1483    0.7597    1.0756 H   0  0  0  0  0  0  0  0  0  0  0  0
    3.9053    0.4756   -1.2463 H   0  0  0  0  0  0  0  0  0  0  0  0
    3.4731    3.1714    0.1738 H   0  0  0  0  0  0  0  0  0  0  0  0
    4.6917    2.8568   -1.0675 H   0  0  0  0  0  0  0  0  0  0  0  0
    2.9676    2.7915   -1.4784 H   0  0  0  0  0  0  0  0  0  0  0  0
    5.9170    0.4185    0.2462 N   0  0  0  0  0  0  0  0  0  0  0  0
    7.0426    0.1119    1.0975 C   0  0  0  0  0  0  0  0  0  0  0  0
    6.0493    0.3474   -0.7584 H   0  0  0  0  0  0  0  0  0  0  0  0
    7.6234    1.0277    1.2824 H   0  0  0  0  0  0  0  0  0  0  0  0
    6.6794   -0.2912    2.0544 H   0  0  0  0  0  0  0  0  0  0  0  0
    7.6825   -0.6346    0.6044 H   0  0  0  0  0  0  0  0  0  0  0  0
  1  3  1  0  0  0  0
  1  7  1  0  0  0  0
  1  2  2  0  0  0  0
 42 43  1  0  0  0  0
 43 51  1  0  0  0  0
 43 44  2  0  0  0  0
  8  9  1  0  0  0  0
  9 17  1  0  0  0  0
  9 10  2  0  0  0  0
 18 19  1  0  0  0  0
 19 41  1  0  0  0  0
 19 20  2  0  0  0  0
 25 26  1  0  0  0  0
 25 27  1  0  0  0  0
 24 25  2  0  0  0  0
 42 45  1  0  0  0  0
  8 11  1  0  0  0  0
 51 52  1  0  0  0  0
 21 22  1  0  0  0  0
 22 23  1  0  0  0  0
 18 21  1  0  0  0  0
 23 24  1  0  0  0  0
 41 42  1  0  0  0  0
  7  8  1  0  0  0  0
 17 18  1  0  0  0  0
  3  4  1  0  0  0  0
  3  5  1  0  0  0  0
  3  6  1  0  0  0  0
 45 48  1  0  0  0  0
 45 49  1  0  0  0  0
 45 50  1  0  0  0  0
 11 14  1  0  0  0  0
 11 15  1  0  0  0  0
 11 16  1  0  0  0  0
 52 54  1  0  0  0  0
 52 55  1  0  0  0  0
 52 56  1  0  0  0  0
 22 32  1  0  0  0  0
 22 33  1  0  0  0  0
 21 30  1  0  0  0  0
 21 31  1  0  0  0  0
 23 34  1  0  0  0  0
 23 35  1  0  0  0  0
 42 47  1  0  0  0  0
  8 13  1  0  0  0  0
 18 29  1  0  0  0  0
 26 37  1  0  0  0  0
 26 38  1  0  0  0  0
 27 39  1  0  0  0  0
 27 40  1  0  0  0  0
 51 53  1  0  0  0  0
  7 12  1  0  0  0  0
 41 46  1  0  0  0  0
 17 28  1  0  0  0  0
 24 36  1  0  0  0  0
M  CHG  1  24   1
M  END
$$$$

  -OEChem-05262214473D

 56 55  0     1  0  0  0  0  0999 V2000
    0.7735   -5.8042   -2.0022 C   0  0  0  0  0  0  0  0  0  0  0  0
   -0.2086   -6.3825   -1.5519 O   0  0  0  0  0  0  0  0  0  0  0  0
    1.4751   -6.3646   -3.1946 C   0  0  0  0  0  0  0  0  0  0  0  0
    2.2765   -7.0687   -2.9186 H   0  0  0  0  0  0  0  0  0  0  0  0
    0.7988   -6.9360   -3.8504 H   0  0  0  0  0  0  0  0  0  0  0  0
    1.9556   -5.6216   -3.8511 H   0  0  0  0  0  0  0  0  0  0  0  0
    1.3322   -4.6359   -1.5106 N   0  0  0  0  0  0  0  0  0  0  0  0
    0.8124   -3.9290   -0.3698 C   0  0  2  0  0  0  0  0  0  0  0  0
    1.0666   -2.4424   -0.5818 C   0  0  0  0  0  0  0  0  0  0  0  0
    2.0598   -2.0076   -1.1610 O   0  0  0  0  0  0  0  0  0  0  0  0
    1.4560   -4.4118    0.9207 C   0  0  0  0  0  0  0  0  0  0  0  0
    2.1528   -4.2578   -1.9805 H   0  0  0  0  0  0  0  0  0  0  0  0
   -0.2667   -4.1160   -0.3467 H   0  0  0  0  0  0  0  0  0  0  0  0
    2.5374   -4.2329    0.9160 H   0  0  0  0  0  0  0  0  0  0  0  0
    1.0390   -3.8932    1.7903 H   0  0  0  0  0  0  0  0  0  0  0  0
    1.2976   -5.4871    1.0566 H   0  0  0  0  0  0  0  0  0  0  0  0
    0.0755   -1.6529   -0.0105 N   0  0  0  0  0  0  0  0  0  0  0  0
    0.1113   -0.2132   -0.0391 C   0  0  2  0  0  0  0  0  0  0  0  0
    1.3800    0.1989   -0.7782 C   0  0  0  0  0  0  0  0  0  0  0  0
    1.4282    0.3366   -1.9988 O   0  0  0  0  0  0  0  0  0  0  0  0
    0.0913    0.3914    1.3684 C   0  0  0  0  0  0  0  0  0  0  0  0
   -1.2384    0.1450    2.0912 C   0  0  0  0  0  0  0  0  0  0  0  0
   -1.2526    0.7490    3.4916 C   0  0  0  0  0  0  0  0  0  0  0  0
   -2.5125    0.4919    4.1857 N   0  3  0  0  0  0  0  0  0  0  0  0
   -2.7353    0.8947    5.5037 C   0  0  0  0  0  0  0  0  0  0  0  0
   -3.9599    0.6157    6.1013 N   0  0  0  0  0  0  0  0  0  0  0  0
   -1.7623    1.5689    6.2342 N   0  0  0  0  0  0  0  0  0  0  0  0
   -0.7323   -2.1024    0.4149 H   0  0  0  0  0  0  0  0  0  0  0  0
   -0.7609    0.1148   -0.6160 H   0  0  0  0  0  0  0  0  0  0  0  0
    0.2748    1.4707    1.3048 H   0  0  0  0  0  0  0  0  0  0  0  0
    0.9129   -0.0275    1.9645 H   0  0  0  0  0  0  0  0  0  0  0  0
   -2.0609    0.5675    1.5017 H   0  0  0  0  0  0  0  0  0  0  0  0
   -1.4163   -0.9331    2.1768 H   0  0  0  0  0  0  0  0  0  0  0  0
   -0.4539    0.3037    4.0927 H   0  0  0  0  0  0  0  0  0  0  0  0
   -1.1012    1.8320    3.4519 H   0  0  0  0  0  0  0  0  0  0  0  0
   -3.2628    0.0020    3.7016 H   0  0  0  0  0  0  0  0  0  0  0  0
   -4.1544    0.8955    7.0597 H   0  0  0  0  0  0  0  0  0  0  0  0
   -4.6932    0.1243    5.5959 H   0  0  0  0  0  0  0  0  0  0  0  0
   -1.9195    1.8644    7.1943 H   0  0  0  0  0  0  0  0  0  0  0  0
   -0.8574    1.7862    5.8234 H   0  0  0  0  0  0  0  0  0  0  0  0
    2.4604    0.3461    0.0806 N   0  0  0  0  0  0  0  0  0  0  0  0
    3.7882    0.6846   -0.3773 C   0  0  2  0  0  0  0  0  0  0  0  0
    4.7913    0.0110    0.5498 C   0  0  0  0  0  0  0  0  0  0  0  0
    4.5897   -0.1521    1.7514 O   0  0  0  0  0  0  0  0  0  0  0  0
    3.9977    2.1907   -0.4025 C   0  0  0  0  0  0  0  0  0  0  0  0
    2.3191    0.2440    1.0812 H   0  0  0  0  0  0  0  0  0  0  0  0
    3.8893    0.2723   -1.3871 H   0  0  0  0  0  0  0  0  0  0  0  0
    3.9003    2.6218    0.6006 H   0  0  0  0  0  0  0  0  0  0  0  0
    4.9945    2.4465   -0.7767 H   0  0  0  0  0  0  0  0  0  0  0  0
    3.2567    2.6765   -1.0464 H   0  0  0  0  0  0  0  0  0  0  0  0
    5.9562   -0.3478   -0.1139 N   0  0  0  0  0  0  0  0  0  0  0  0
    7.0771   -0.9645    0.5564 C   0  0  0  0  0  0  0  0  0  0  0  0
    6.0212   -0.2115   -1.1184 H   0  0  0  0  0  0  0  0  0  0  0  0
    7.7840   -0.1867    0.8809 H   0  0  0  0  0  0  0  0  0  0  0  0
    6.7178   -1.5224    1.4337 H   0  0  0  0  0  0  0  0  0  0  0  0
    7.5832   -1.6544   -0.1349 H   0  0  0  0  0  0  0  0  0  0  0  0
  1  3  1  0  0  0  0
  1  7  1  0  0  0  0
  1  2  2  0  0  0  0
 42 43  1  0  0  0  0
 43 51  1  0  0  0  0
 43 44  2  0  0  0  0
  8  9  1  0  0  0  0
  9 17  1  0  0  0  0
  9 10  2  0  0  0  0
 18 19  1  0  0  0  0
 19 41  1  0  0  0  0
 19 20  2  0  0  0  0
 25 26  1  0  0  0  0
 25 27  1  0  0  0  0
 24 25  2  0  0  0  0
 42 45  1  0  0  0  0
  8 11  1  0  0  0  0
 51 52  1  0  0  0  0
 21 22  1  0  0  0  0
 22 23  1  0  0  0  0
 18 21  1  0  0  0  0
 23 24  1  0  0  0  0
 41 42  1  0  0  0  0
  7  8  1  0  0  0  0
 17 18  1  0  0  0  0
  3  4  1  0  0  0  0
  3  5  1  0  0  0  0
  3  6  1  0  0  0  0
 45 48  1  0  0  0  0
 45 49  1  0  0  0  0
 45 50  1  0  0  0  0
 11 14  1  0  0  0  0
 11 15  1  0  0  0  0
 11 16  1  0  0  0  0
 52 54  1  0  0  0  0
 52 55  1  0  0  0  0
 52 56  1  0  0  0  0
 22 32  1  0  0  0  0
 22 33  1  0  0  0  0
 21 30  1  0  0  0  0
 21 31  1  0  0  0  0
 23 34  1  0  0  0  0
 23 35  1  0  0  0  0
 42 47  1  0  0  0  0
  8 13  1  0  0  0  0
 18 29  1  0  0  0  0
 26 37  1  0  0  0  0
 26 38  1  0  0  0  0
 27 39  1  0  0  0  0
 27 40  1  0  0  0  0
 51 53  1  0  0  0  0
  7 12  1  0  0  0  0
 41 46  1  0  0  0  0
 17 28  1  0  0  0  0
 24 36  1  0  0  0  0
M  CHG  1  24   1
M  END
$$$$

  -OEChem-05262214473D

 56 55  0     1  0  0  0  0  0999 V2000
    0.7735   -5.8042   -2.0022 C   0  0  0  0  0  0  0  0  0  0  0  0
   -0.2086   -6.3825   -1.5519 O   0  0  0  0  0  0  0  0  0  0  0  0
    1.4751   -6.3646   -3.1946 C   0  0  0  0  0  0  0  0  0  0  0  0
    2.2765   -7.0687   -2.9186 H   0  0  0  0  0  0  0  0  0  0  0  0
    0.7988   -6.9360   -3.8504 H   0  0  0  0  0  0  0  0  0  0  0  0
    1.9556   -5.6216   -3.8511 H   0  0  0  0  0  0  0  0  0  0  0  0
    1.3322   -4.6359   -1.5106 N   0  0  0  0  0  0  0  0  0  0  0  0
    0.8124   -3.9290   -0.3698 C   0  0  2  0  0  0  0  0  0  0  0  0
    1.0666   -2.4424   -0.5818 C   0  0  0  0  0  0  0  0  0  0  0  0
    2.0598   -2.0076   -1.1610 O   0  0  0  0  0  0  0  0  0  0  0  0
    1.4560   -4.4118    0.9207 C   0  0  0  0  0  0  0  0  0  0  0  0
    2.1528   -4.2578   -1.9805 H   0  0  0  0  0  0  0  0  0  0  0  0
   -0.2667   -4.1160   -0.3467 H   0  0  0  0  0  0  0  0  0  0  0  0
    2.5374   -4.2329    0.9160 H   0  0  0  0  0  0  0  0  0  0  0  0
    1.0390   -3.8932    1.7903 H   0  0  0  0  0  0  0  0  0  0  0  0
    1.2976   -5.4871    1.0566 H   0  0  0  0  0  0  0  0  0  0  0  0
    0.0755   -1.6529   -0.0105 N   0  0  0  0  0  0  0  0  0  0  0  0
    0.1113   -0.2132   -0.0391 C   0  0  2  0  0  0  0  0  0  0  0  0
    1.3800    0.1989   -0.7782 C   0  0  0  0  0  0  0  0  0  0  0  0
    1.3774    0.5948   -1.9420 O   0  0  0  0  0  0  0  0  0  0  0  0
    0.0913    0.3914    1.3684 C   0  0  0  0  0  0  0  0  0  0  0  0
   -1.2384    0.1450    2.0912 C   0  0  0  0  0  0  0  0  0  0  0  0
   -1.2526    0.7490    3.4916 C   0  0  0  0  0  0  0  0  0  0  0  0
   -2.5125    0.4919    4.1857 N   0  3  0  0  0  0  0  0  0  0  0  0
   -2.7353    0.8947    5.5037 C   0  0  0  0  0  0  0  0  0  0  0  0
   -3.9599    0.6157    6.1013 N   0  0  0  0  0  0  0  0  0  0  0  0
   -1.7623    1.5689    6.2342 N   0  0  0  0  0  0  0  0  0  0  0  0
   -0.7323   -2.1024    0.4149 H   0  0  0  0  0  0  0  0  0  0  0  0
   -0.7609    0.1148   -0.6160 H   0  0  0  0  0  0  0  0  0  0  0  0
    0.2748    1.4707    1.3048 H   0  0  0  0  0  0  0  0  0  0  0  0
    0.9129   -0.0275    1.9645 H   0  0  0  0  0  0  0  0  0  0  0  0
   -2.0609    0.5675    1.5017 H   0  0  0  0  0  0  0  0  0  0  0  0
   -1.4163   -0.9331    2.1768 H   0  0  0  0  0  0  0  0  0  0  0  0
   -0.4539    0.3037    4.0927 H   0  0  0  0  0  0  0  0  0  0  0  0
   -1.1012    1.8320    3.4519 H   0  0  0  0  0  0  0  0  0  0  0  0
   -3.2628    0.0020    3.7016 H   0  0  0  0  0  0  0  0  0  0  0  0
   -4.1544    0.8955    7.0597 H   0  0  0  0  0  0  0  0  0  0  0  0
   -4.6932    0.1243    5.5959 H   0  0  0  0  0  0  0  0  0  0  0  0
   -1.9195    1.8644    7.1943 H   0  0  0  0  0  0  0  0  0  0  0  0
   -0.8574    1.7862    5.8234 H   0  0  0  0  0  0  0  0  0  0  0  0
    2.5169    0.0255   -0.0012 N   0  0  0  0  0  0  0  0  0  0  0  0
    3.8502    0.2976   -0.4869 C   0  0  2  0  0  0  0  0  0  0  0  0
    4.8052   -0.6767    0.1900 C   0  0  0  0  0  0  0  0  0  0  0  0
    4.6515   -1.0750    1.3428 O   0  0  0  0  0  0  0  0  0  0  0  0
    4.2564    1.7369   -0.2114 C   0  0  0  0  0  0  0  0  0  0  0  0
    2.4198   -0.2766    0.9636 H   0  0  0  0  0  0  0  0  0  0  0  0
    3.8385    0.1083   -1.5658 H   0  0  0  0  0  0  0  0  0  0  0  0
    4.2738    1.9454    0.8646 H   0  0  0  0  0  0  0  0  0  0  0  0
    5.2558    1.9495   -0.6053 H   0  0  0  0  0  0  0  0  0  0  0  0
    3.5516    2.4362   -0.6741 H   0  0  0  0  0  0  0  0  0  0  0  0
    5.8727   -1.0155   -0.6295 N   0  0  0  0  0  0  0  0  0  0  0  0
    6.9375   -1.8920   -0.2005 C   0  0  0  0  0  0  0  0  0  0  0  0
    5.8987   -0.6704   -1.5845 H   0  0  0  0  0  0  0  0  0  0  0  0
    7.7587   -1.2933    0.2204 H   0  0  0  0  0  0  0  0  0  0  0  0
    6.5571   -2.5828    0.5663 H   0  0  0  0  0  0  0  0  0  0  0  0
    7.3076   -2.4678   -1.0616 H   0  0  0  0  0  0  0  0  0  0  0  0
  1  3  1  0  0  0  0
  1  7  1  0  0  0  0
  1  2  2  0  0  0  0
 42 43  1  0  0  0  0
 43 51  1  0  0  0  0
 43 44  2  0  0  0  0
  8  9  1  0  0  0  0
  9 17  1  0  0  0  0
  9 10  2  0  0  0  0
 18 19  1  0  0  0  0
 19 41  1  0  0  0  0
 19 20  2  0  0  0  0
 25 26  1  0  0  0  0
 25 27  1  0  0  0  0
 24 25  2  0  0  0  0
 42 45  1  0  0  0  0
  8 11  1  0  0  0  0
 51 52  1  0  0  0  0
 21 22  1  0  0  0  0
 22 23  1  0  0  0  0
 18 21  1  0  0  0  0
 23 24  1  0  0  0  0
 41 42  1  0  0  0  0
  7  8  1  0  0  0  0
 17 18  1  0  0  0  0
  3  4  1  0  0  0  0
  3  5  1  0  0  0  0
  3  6  1  0  0  0  0
 45 48  1  0  0  0  0
 45 49  1  0  0  0  0
 45 50  1  0  0  0  0
 11 14  1  0  0  0  0
 11 15  1  0  0  0  0
 11 16  1  0  0  0  0
 52 54  1  0  0  0  0
 52 55  1  0  0  0  0
 52 56  1  0  0  0  0
 22 32  1  0  0  0  0
 22 33  1  0  0  0  0
 21 30  1  0  0  0  0
 21 31  1  0  0  0  0
 23 34  1  0  0  0  0
 23 35  1  0  0  0  0
 42 47  1  0  0  0  0
  8 13  1  0  0  0  0
 18 29  1  0  0  0  0
 26 37  1  0  0  0  0
 26 38  1  0  0  0  0
 27 39  1  0  0  0  0
 27 40  1  0  0  0  0
 51 53  1  0  0  0  0
  7 12  1  0  0  0  0
 41 46  1  0  0  0  0
 17 28  1  0  0  0  0
 24 36  1  0  0  0  0
M  CHG  1  24   1
M  END
$$$$

  -OEChem-05262214473D

 56 55  0     1  0  0  0  0  0999 V2000
    0.7735   -5.8042   -2.0022 C   0  0  0  0  0  0  0  0  0  0  0  0
   -0.2086   -6.3825   -1.5519 O   0  0  0  0  0  0  0  0  0  0  0  0
    1.4751   -6.3646   -3.1946 C   0  0  0  0  0  0  0  0  0  0  0  0
    2.2765   -7.0687   -2.9186 H   0  0  0  0  0  0  0  0  0  0  0  0
    0.7988   -6.9360   -3.8504 H   0  0  0  0  0  0  0  0  0  0  0  0
    1.9556   -5.6216   -3.8511 H   0  0  0  0  0  0  0  0  0  0  0  0
    1.3322   -4.6359   -1.5106 N   0  0  0  0  0  0  0  0  0  0  0  0
    0.8124   -3.9290   -0.3698 C   0  0  2  0  0  0  0  0  0  0  0  0
    1.0666   -2.4424   -0.5818 C   0  0  0  0  0  0  0  0  0  0  0  0
    2.0598   -2.0076   -1.1610 O   0  0  0  0  0  0  0  0  0  0  0  0
    1.4560   -4.4118    0.9207 C   0  0  0  0  0  0  0  0  0  0  0  0
    2.1528   -4.2578   -1.9805 H   0  0  0  0  0  0  0  0  0  0  0  0
   -0.2667   -4.1160   -0.3467 H   0  0  0  0  0  0  0  0  0  0  0  0
    2.5374   -4.2329    0.9160 H   0  0  0  0  0  0  0  0  0  0  0  0
    1.0390   -3.8932    1.7903 H   0  0  0  0  0  0  0  0  0  0  0  0
    1.2976   -5.4871    1.0566 H   0  0  0  0  0  0  0  0  0  0  0  0
    0.0755   -1.6529   -0.0105 N   0  0  0  0  0  0  0  0  0  0  0  0
    0.1113   -0.2132   -0.0391 C   0  0  2  0  0  0  0  0  0  0  0  0
    1.3800    0.1989   -0.7782 C   0  0  0  0  0  0  0  0  0  0  0  0
    1.3647    0.8384   -1.8280 O   0  0  0  0  0  0  0  0  0  0  0  0
    0.0913    0.3914    1.3684 C   0  0  0  0  0  0  0  0  0  0  0  0
   -1.2384    0.1450    2.0912 C   0  0  0  0  0  0  0  0  0  0  0  0
   -1.2526    0.7490    3.4916 C   0  0  0  0  0  0  0  0  0  0  0  0
   -2.5125    0.4919    4.1857 N   0  3  0  0  0  0  0  0  0  0  0  0
   -2.7353    0.8947    5.5037 C   0  0  0  0  0  0  0  0  0  0  0  0
   -3.9599    0.6157    6.1013 N   0  0  0  0  0  0  0  0  0  0  0  0
   -1.7623    1.5689    6.2342 N   0  0  0  0  0  0  0  0  0  0  0  0
   -0.7323   -2.1024    0.4149 H   0  0  0  0  0  0  0  0  0  0  0  0
   -0.7609    0.1148   -0.6160 H   0  0  0  0  0  0  0  0  0  0  0  0
    0.2748    1.4707    1.3048 H   0  0  0  0  0  0  0  0  0  0  0  0
    0.9129   -0.0275    1.9645 H   0  0  0  0  0  0  0  0  0  0  0  0
   -2.0609    0.5675    1.5017 H   0  0  0  0  0  0  0  0  0  0  0  0
   -1.4163   -0.9331    2.1768 H   0  0  0  0  0  0  0  0  0  0  0  0
   -0.4539    0.3037    4.0927 H   0  0  0  0  0  0  0  0  0  0  0  0
   -1.1012    1.8320    3.4519 H   0  0  0  0  0  0  0  0  0  0  0  0
   -3.2628    0.0020    3.7016 H   0  0  0  0  0  0  0  0  0  0  0  0
   -4.1544    0.8955    7.0597 H   0  0  0  0  0  0  0  0  0  0  0  0
   -4.6932    0.1243    5.5959 H   0  0  0  0  0  0  0  0  0  0  0  0
   -1.9195    1.8644    7.1943 H   0  0  0  0  0  0  0  0  0  0  0  0
   -0.8574    1.7862    5.8234 H   0  0  0  0  0  0  0  0  0  0  0  0
    2.5256   -0.2737   -0.1532 N   0  0  0  0  0  0  0  0  0  0  0  0
    3.8538   -0.0605   -0.6804 C   0  0  2  0  0  0  0  0  0  0  0  0
    4.7071   -1.2652   -0.3065 C   0  0  0  0  0  0  0  0  0  0  0  0
    4.5669   -1.8862    0.7451 O   0  0  0  0  0  0  0  0  0  0  0  0
    4.4628    1.2250   -0.1426 C   0  0  0  0  0  0  0  0  0  0  0  0
    2.4435   -0.7669    0.7309 H   0  0  0  0  0  0  0  0  0  0  0  0
    3.7564   -0.0053   -1.7701 H   0  0  0  0  0  0  0  0  0  0  0  0
    4.5682    1.1884    0.9478 H   0  0  0  0  0  0  0  0  0  0  0  0
    5.4578    1.3997   -0.5651 H   0  0  0  0  0  0  0  0  0  0  0  0
    3.8325    2.0869   -0.3868 H   0  0  0  0  0  0  0  0  0  0  0  0
    5.6723   -1.5389   -1.2655 N   0  0  0  0  0  0  0  0  0  0  0  0
    6.6334   -2.6074   -1.1216 C   0  0  0  0  0  0  0  0  0  0  0  0
    5.6903   -0.9979   -2.1249 H   0  0  0  0  0  0  0  0  0  0  0  0
    7.5493   -2.2169   -0.6541 H   0  0  0  0  0  0  0  0  0  0  0  0
    6.2081   -3.4001   -0.4885 H   0  0  0  0  0  0  0  0  0  0  0  0
    6.8746   -3.0194   -2.1126 H   0  0  0  0  0  0  0  0  0  0  0  0
  1  3  1  0  0  0  0
  1  7  1  0  0  0  0
  1  2  2  0  0  0  0
 42 43  1  0  0  0  0
 43 51  1  0  0  0  0
 43 44  2  0  0  0  0
  8  9  1  0  0  0  0
  9 17  1  0  0  0  0
  9 10  2  0  0  0  0
 18 19  1  0  0  0  0
 19 41  1  0  0  0  0
 19 20  2  0  0  0  0
 25 26  1  0  0  0  0
 25 27  1  0  0  0  0
 24 25  2  0  0  0  0
 42 45  1  0  0  0  0
  8 11  1  0  0  0  0
 51 52  1  0  0  0  0
 21 22  1  0  0  0  0
 22 23  1  0  0  0  0
 18 21  1  0  0  0  0
 23 24  1  0  0  0  0
 41 42  1  0  0  0  0
  7  8  1  0  0  0  0
 17 18  1  0  0  0  0
  3  4  1  0  0  0  0
  3  5  1  0  0  0  0
  3  6  1  0  0  0  0
 45 48  1  0  0  0  0
 45 49  1  0  0  0  0
 45 50  1  0  0  0  0
 11 14  1  0  0  0  0
 11 15  1  0  0  0  0
 11 16  1  0  0  0  0
 52 54  1  0  0  0  0
 52 55  1  0  0  0  0
 52 56  1  0  0  0  0
 22 32  1  0  0  0  0
 22 33  1  0  0  0  0
 21 30  1  0  0  0  0
 21 31  1  0  0  0  0
 23 34  1  0  0  0  0
 23 35  1  0  0  0  0
 42 47  1  0  0  0  0
  8 13  1  0  0  0  0
 18 29  1  0  0  0  0
 26 37  1  0  0  0  0
 26 38  1  0  0  0  0
 27 39  1  0  0  0  0
 27 40  1  0  0  0  0
 51 53  1  0  0  0  0
  7 12  1  0  0  0  0
 41 46  1  0  0  0  0
 17 28  1  0  0  0  0
 24 36  1  0  0  0  0
M  CHG  1  24   1
M  END
$$$$

  -OEChem-05262214473D

 56 55  0     1  0  0  0  0  0999 V2000
    0.7735   -5.8042   -2.0022 C   0  0  0  0  0  0  0  0  0  0  0  0
   -0.2086   -6.3825   -1.5519 O   0  0  0  0  0  0  0  0  0  0  0  0
    1.4751   -6.3646   -3.1946 C   0  0  0  0  0  0  0  0  0  0  0  0
    2.2765   -7.0687   -2.9186 H   0  0  0  0  0  0  0  0  0  0  0  0
    0.7988   -6.9360   -3.8504 H   0  0  0  0  0  0  0  0  0  0  0  0
    1.9556   -5.6216   -3.8511 H   0  0  0  0  0  0  0  0  0  0  0  0
    1.3322   -4.6359   -1.5106 N   0  0  0  0  0  0  0  0  0  0  0  0
    0.8124   -3.9290   -0.3698 C   0  0  2  0  0  0  0  0  0  0  0  0
    1.0666   -2.4424   -0.5818 C   0  0  0  0  0  0  0  0  0  0  0  0
    2.0598   -2.0076   -1.1610 O   0  0  0  0  0  0  0  0  0  0  0  0
    1.4560   -4.4118    0.9207 C   0  0  0  0  0  0  0  0  0  0  0  0
    2.1528   -4.2578   -1.9805 H   0  0  0  0  0  0  0  0  0  0  0  0
   -0.2667   -4.1160   -0.3467 H   0  0  0  0  0  0  0  0  0  0  0  0
    2.5374   -4.2329    0.9160 H   0  0  0  0  0  0  0  0  0  0  0  0
    1.0390   -3.8932    1.7903 H   0  0  0  0  0  0  0  0  0  0  0  0
    1.2976   -5.4871    1.0566 H   0  0  0  0  0  0  0  0  0  0  0  0
    0.0755   -1.6529   -0.0105 N   0  0  0  0  0  0  0  0  0  0  0  0
    0.1113   -0.2132   -0.0391 C   0  0  2  0  0  0  0  0  0  0  0  0
    1.3800    0.1989   -0.7782 C   0  0  0  0  0  0  0  0  0  0  0  0
    1.3910    1.0507   -1.6645 O   0  0  0  0  0  0  0  0  0  0  0  0
    0.0913    0.3914    1.3684 C   0  0  0  0  0  0  0  0  0  0  0  0
   -1.2384    0.1450    2.0912 C   0  0  0  0  0  0  0  0  0  0  0  0
   -1.2526    0.7490    3.4916 C   0  0  0  0  0  0  0  0  0  0  0  0
   -2.5125    0.4919    4.1857 N   0  3  0  0  0  0  0  0  0  0  0  0
   -2.7353    0.8947    5.5037 C   0  0  0  0  0  0  0  0  0  0  0  0
   -3.9599    0.6157    6.1013 N   0  0  0  0  0  0  0  0  0  0  0  0
   -1.7623    1.5689    6.2342 N   0  0  0  0  0  0  0  0  0  0  0  0
   -0.7323   -2.1024    0.4149 H   0  0  0  0  0  0  0  0  0  0  0  0
   -0.7609    0.1148   -0.6160 H   0  0  0  0  0  0  0  0  0  0  0  0
    0.2748    1.4707    1.3048 H   0  0  0  0  0  0  0  0  0  0  0  0
    0.9129   -0.0275    1.9645 H   0  0  0  0  0  0  0  0  0  0  0  0
   -2.0609    0.5675    1.5017 H   0  0  0  0  0  0  0  0  0  0  0  0
   -1.4163   -0.9331    2.1768 H   0  0  0  0  0  0  0  0  0  0  0  0
   -0.4539    0.3037    4.0927 H   0  0  0  0  0  0  0  0  0  0  0  0
   -1.1012    1.8320    3.4519 H   0  0  0  0  0  0  0  0  0  0  0  0
   -3.2628    0.0020    3.7016 H   0  0  0  0  0  0  0  0  0  0  0  0
   -4.1544    0.8955    7.0597 H   0  0  0  0  0  0  0  0  0  0  0  0
   -4.6932    0.1243    5.5959 H   0  0  0  0  0  0  0  0  0  0  0  0
   -1.9195    1.8644    7.1943 H   0  0  0  0  0  0  0  0  0  0  0  0
   -0.8574    1.7862    5.8234 H   0  0  0  0  0  0  0  0  0  0  0  0
    2.4858   -0.5310   -0.3650 N   0  0  0  0  0  0  0  0  0  0  0  0
    3.7988   -0.3651   -0.9447 C   0  0  2  0  0  0  0  0  0  0  0  0
    4.5039   -1.7145   -0.9059 C   0  0  0  0  0  0  0  0  0  0  0  0
    4.3415   -2.5304   -0.0010 O   0  0  0  0  0  0  0  0  0  0  0  0
    4.6028    0.6899   -0.2008 C   0  0  0  0  0  0  0  0  0  0  0  0
    2.3886   -1.1933    0.3990 H   0  0  0  0  0  0  0  0  0  0  0  0
    3.6485   -0.0607   -1.9862 H   0  0  0  0  0  0  0  0  0  0  0  0
    4.7635    0.4023    0.8446 H   0  0  0  0  0  0  0  0  0  0  0  0
    5.5868    0.8347   -0.6587 H   0  0  0  0  0  0  0  0  0  0  0  0
    4.0800    1.6524   -0.2041 H   0  0  0  0  0  0  0  0  0  0  0  0
    5.3686   -1.8825   -1.9784 N   0  0  0  0  0  0  0  0  0  0  0  0
    6.1855   -3.0620   -2.1440 C   0  0  0  0  0  0  0  0  0  0  0  0
    5.4101   -1.1717   -2.7029 H   0  0  0  0  0  0  0  0  0  0  0  0
    7.1701   -2.8944   -1.6830 H   0  0  0  0  0  0  0  0  0  0  0  0
    5.6947   -3.9187   -1.6590 H   0  0  0  0  0  0  0  0  0  0  0  0
    6.3136   -3.2716   -3.2162 H   0  0  0  0  0  0  0  0  0  0  0  0
  1  3  1  0  0  0  0
  1  7  1  0  0  0  0
  1  2  2  0  0  0  0
 42 43  1  0  0  0  0
 43 51  1  0  0  0  0
 43 44  2  0  0  0  0
  8  9  1  0  0  0  0
  9 17  1  0  0  0  0
  9 10  2  0  0  0  0
 18 19  1  0  0  0  0
 19 41  1  0  0  0  0
 19 20  2  0  0  0  0
 25 26  1  0  0  0  0
 25 27  1  0  0  0  0
 24 25  2  0  0  0  0
 42 45  1  0  0  0  0
  8 11  1  0  0  0  0
 51 52  1  0  0  0  0
 21 22  1  0  0  0  0
 22 23  1  0  0  0  0
 18 21  1  0  0  0  0
 23 24  1  0  0  0  0
 41 42  1  0  0  0  0
  7  8  1  0  0  0  0
 17 18  1  0  0  0  0
  3  4  1  0  0  0  0
  3  5  1  0  0  0  0
  3  6  1  0  0  0  0
 45 48  1  0  0  0  0
 45 49  1  0  0  0  0
 45 50  1  0  0  0  0
 11 14  1  0  0  0  0
 11 15  1  0  0  0  0
 11 16  1  0  0  0  0
 52 54  1  0  0  0  0
 52 55  1  0  0  0  0
 52 56  1  0  0  0  0
 22 32  1  0  0  0  0
 22 33  1  0  0  0  0
 21 30  1  0  0  0  0
 21 31  1  0  0  0  0
 23 34  1  0  0  0  0
 23 35  1  0  0  0  0
 42 47  1  0  0  0  0
  8 13  1  0  0  0  0
 18 29  1  0  0  0  0
 26 37  1  0  0  0  0
 26 38  1  0  0  0  0
 27 39  1  0  0  0  0
 27 40  1  0  0  0  0
 51 53  1  0  0  0  0
  7 12  1  0  0  0  0
 41 46  1  0  0  0  0
 17 28  1  0  0  0  0
 24 36  1  0  0  0  0
M  CHG  1  24   1
M  END
$$$$

  -OEChem-05262214473D

 56 55  0     1  0  0  0  0  0999 V2000
    0.7735   -5.8042   -2.0022 C   0  0  0  0  0  0  0  0  0  0  0  0
   -0.2086   -6.3825   -1.5519 O   0  0  0  0  0  0  0  0  0  0  0  0
    1.4751   -6.3646   -3.1946 C   0  0  0  0  0  0  0  0  0  0  0  0
    2.2765   -7.0687   -2.9186 H   0  0  0  0  0  0  0  0  0  0  0  0
    0.7988   -6.9360   -3.8504 H   0  0  0  0  0  0  0  0  0  0  0  0
    1.9556   -5.6216   -3.8511 H   0  0  0  0  0  0  0  0  0  0  0  0
    1.3322   -4.6359   -1.5106 N   0  0  0  0  0  0  0  0  0  0  0  0
    0.8124   -3.9290   -0.3698 C   0  0  2  0  0  0  0  0  0  0  0  0
    1.0666   -2.4424   -0.5818 C   0  0  0  0  0  0  0  0  0  0  0  0
    2.0598   -2.0076   -1.1610 O   0  0  0  0  0  0  0  0  0  0  0  0
    1.4560   -4.4118    0.9207 C   0  0  0  0  0  0  0  0  0  0  0  0
    2.1528   -4.2578   -1.9805 H   0  0  0  0  0  0  0  0  0  0  0  0
   -0.2667   -4.1160   -0.3467 H   0  0  0  0  0  0  0  0  0  0  0  0
    2.5374   -4.2329    0.9160 H   0  0  0  0  0  0  0  0  0  0  0  0
    1.0390   -3.8932    1.7903 H   0  0  0  0  0  0  0  0  0  0  0  0
    1.2976   -5.4871    1.0566 H   0  0  0  0  0  0  0  0  0  0  0  0
    0.0755   -1.6529   -0.0105 N   0  0  0  0  0  0  0  0  0  0  0  0
    0.1113   -0.2132   -0.0391 C   0  0  2  0  0  0  0  0  0  0  0  0
    1.3800    0.1989   -0.7782 C   0  0  0  0  0  0  0  0  0  0  0  0
    1.4544    1.2173   -1.4627 O   0  0  0  0  0  0  0  0  0  0  0  0
    0.0913    0.3914    1.3684 C   0  0  0  0  0  0  0  0  0  0  0  0
   -1.2384    0.1450    2.0912 C   0  0  0  0  0  0  0  0  0  0  0  0
   -1.2526    0.7490    3.4916 C   0  0  0  0  0  0  0  0  0  0  0  0
   -2.5125    0.4919    4.1857 N   0  3  0  0  0  0  0  0  0  0  0  0
   -2.7353    0.8947    5.5037 C   0  0  0  0  0  0  0  0  0  0  0  0
   -3.9599    0.6157    6.1013 N   0  0  0  0  0  0  0  0  0  0  0  0
   -1.7623    1.5689    6.2342 N   0  0  0  0  0  0  0  0  0  0  0  0
   -0.7323   -2.1024    0.4149 H   0  0  0  0  0  0  0  0  0  0  0  0
   -0.7609    0.1148   -0.6160 H   0  0  0  0  0  0  0  0  0  0  0  0
    0.2748    1.4707    1.3048 H   0  0  0  0  0  0  0  0  0  0  0  0
    0.9129   -0.0275    1.9645 H   0  0  0  0  0  0  0  0  0  0  0  0
   -2.0609    0.5675    1.5017 H   0  0  0  0  0  0  0  0  0  0  0  0
   -1.4163   -0.9331    2.1768 H   0  0  0  0  0  0  0  0  0  0  0  0
   -0.4539    0.3037    4.0927 H   0  0  0  0  0  0  0  0  0  0  0  0
   -1.1012    1.8320    3.4519 H   0  0  0  0  0  0  0  0  0  0  0  0
   -3.2628    0.0020    3.7016 H   0  0  0  0  0  0  0  0  0  0  0  0
   -4.1544    0.8955    7.0597 H   0  0  0  0  0  0  0  0  0  0  0  0
   -4.6932    0.1243    5.5959 H   0  0  0  0  0  0  0  0  0  0  0  0
   -1.9195    1.8644    7.1943 H   0  0  0  0  0  0  0  0  0  0  0  0
   -0.8574    1.7862    5.8234 H   0  0  0  0  0  0  0  0  0  0  0  0
    2.4003   -0.7290   -0.6222 N   0  0  0  0  0  0  0  0  0  0  0  0
    3.6890   -0.5956   -1.2617 C   0  0  2  0  0  0  0  0  0  0  0  0
    4.2093   -1.9939   -1.5675 C   0  0  0  0  0  0  0  0  0  0  0  0
    3.9909   -2.9638   -0.8446 O   0  0  0  0  0  0  0  0  0  0  0  0
    4.6668    0.1679   -0.3821 C   0  0  0  0  0  0  0  0  0  0  0  0
    2.2589   -1.5268   -0.0097 H   0  0  0  0  0  0  0  0  0  0  0  0
    3.5222   -0.0542   -2.1993 H   0  0  0  0  0  0  0  0  0  0  0  0
    4.8463   -0.3593    0.5620 H   0  0  0  0  0  0  0  0  0  0  0  0
    5.6340    0.2930   -0.8799 H   0  0  0  0  0  0  0  0  0  0  0  0
    4.2774    1.1624   -0.1386 H   0  0  0  0  0  0  0  0  0  0  0  0
    4.9823   -2.0227   -2.7198 N   0  0  0  0  0  0  0  0  0  0  0  0
    5.6242   -3.2248   -3.1981 C   0  0  0  0  0  0  0  0  0  0  0  0
    5.0772   -1.1800   -3.2790 H   0  0  0  0  0  0  0  0  0  0  0  0
    6.6467   -3.2798   -2.7963 H   0  0  0  0  0  0  0  0  0  0  0  0
    5.0519   -4.1032   -2.8653 H   0  0  0  0  0  0  0  0  0  0  0  0
    5.6629   -3.2072   -4.2973 H   0  0  0  0  0  0  0  0  0  0  0  0
  1  3  1  0  0  0  0
  1  7  1  0  0  0  0
  1  2  2  0  0  0  0
 42 43  1  0  0  0  0
 43 51  1  0  0  0  0
 43 44  2  0  0  0  0
  8  9  1  0  0  0  0
  9 17  1  0  0  0  0
  9 10  2  0  0  0  0
 18 19  1  0  0  0  0
 19 41  1  0  0  0  0
 19 20  2  0  0  0  0
 25 26  1  0  0  0  0
 25 27  1  0  0  0  0
 24 25  2  0  0  0  0
 42 45  1  0  0  0  0
  8 11  1  0  0  0  0
 51 52  1  0  0  0  0
 21 22  1  0  0  0  0
 22 23  1  0  0  0  0
 18 21  1  0  0  0  0
 23 24  1  0  0  0  0
 41 42  1  0  0  0  0
  7  8  1  0  0  0  0
 17 18  1  0  0  0  0
  3  4  1  0  0  0  0
  3  5  1  0  0  0  0
  3  6  1  0  0  0  0
 45 48  1  0  0  0  0
 45 49  1  0  0  0  0
 45 50  1  0  0  0  0
 11 14  1  0  0  0  0
 11 15  1  0  0  0  0
 11 16  1  0  0  0  0
 52 54  1  0  0  0  0
 52 55  1  0  0  0  0
 52 56  1  0  0  0  0
 22 32  1  0  0  0  0
 22 33  1  0  0  0  0
 21 30  1  0  0  0  0
 21 31  1  0  0  0  0
 23 34  1  0  0  0  0
 23 35  1  0  0  0  0
 42 47  1  0  0  0  0
  8 13  1  0  0  0  0
 18 29  1  0  0  0  0
 26 37  1  0  0  0  0
 26 38  1  0  0  0  0
 27 39  1  0  0  0  0
 27 40  1  0  0  0  0
 51 53  1  0  0  0  0
  7 12  1  0  0  0  0
 41 46  1  0  0  0  0
 17 28  1  0  0  0  0
 24 36  1  0  0  0  0
M  CHG  1  24   1
M  END
$$$$

  -OEChem-05262214473D

 56 55  0     1  0  0  0  0  0999 V2000
    0.7735   -5.8042   -2.0022 C   0  0  0  0  0  0  0  0  0  0  0  0
   -0.2086   -6.3825   -1.5519 O   0  0  0  0  0  0  0  0  0  0  0  0
    1.4751   -6.3646   -3.1946 C   0  0  0  0  0  0  0  0  0  0  0  0
    2.2765   -7.0687   -2.9186 H   0  0  0  0  0  0  0  0  0  0  0  0
    0.7988   -6.9360   -3.8504 H   0  0  0  0  0  0  0  0  0  0  0  0
    1.9556   -5.6216   -3.8511 H   0  0  0  0  0  0  0  0  0  0  0  0
    1.3322   -4.6359   -1.5106 N   0  0  0  0  0  0  0  0  0  0  0  0
    0.8124   -3.9290   -0.3698 C   0  0  2  0  0  0  0  0  0  0  0  0
    1.0666   -2.4424   -0.5818 C   0  0  0  0  0  0  0  0  0  0  0  0
    2.0598   -2.0076   -1.1610 O   0  0  0  0  0  0  0  0  0  0  0  0
    1.4560   -4.4118    0.9207 C   0  0  0  0  0  0  0  0  0  0  0  0
    2.1528   -4.2578   -1.9805 H   0  0  0  0  0  0  0  0  0  0  0  0
   -0.2667   -4.1160   -0.3467 H   0  0  0  0  0  0  0  0  0  0  0  0
    2.5374   -4.2329    0.9160 H   0  0  0  0  0  0  0  0  0  0  0  0
    1.0390   -3.8932    1.7903 H   0  0  0  0  0  0  0  0  0  0  0  0
    1.2976   -5.4871    1.0566 H   0  0  0  0  0  0  0  0  0  0  0  0
    0.0755   -1.6529   -0.0105 N   0  0  0  0  0  0  0  0  0  0  0  0
    0.1113   -0.2132   -0.0391 C   0  0  2  0  0  0  0  0  0  0  0  0
    1.3800    0.1989   -0.7782 C   0  0  0  0  0  0  0  0  0  0  0  0
    1.5507    1.3268   -1.2364 O   0  0  0  0  0  0  0  0  0  0  0  0
    0.0913    0.3914    1.3684 C   0  0  0  0  0  0  0  0  0  0  0  0
   -1.2384    0.1450    2.0912 C   0  0  0  0  0  0  0  0  0  0  0  0
   -1.2526    0.7490    3.4916 C   0  0  0  0  0  0  0  0  0  0  0  0
   -2.5125    0.4919    4.1857 N   0  3  0  0  0  0  0  0  0  0  0  0
   -2.7353    0.8947    5.5037 C   0  0  0  0  0  0  0  0  0  0  0  0
   -3.9599    0.6157    6.1013 N   0  0  0  0  0  0  0  0  0  0  0  0
   -1.7623    1.5689    6.2342 N   0  0  0  0  0  0  0  0  0  0  0  0
   -0.7323   -2.1024    0.4149 H   0  0  0  0  0  0  0  0  0  0  0  0
   -0.7609    0.1148   -0.6160 H   0  0  0  0  0  0  0  0  0  0  0  0
    0.2748    1.4707    1.3048 H   0  0  0  0  0  0  0  0  0  0  0  0
    0.9129   -0.0275    1.9645 H   0  0  0  0  0  0  0  0  0  0  0  0
   -2.0609    0.5675    1.5017 H   0  0  0  0  0  0  0  0  0  0  0  0
   -1.4163   -0.9331    2.1768 H   0  0  0  0  0  0  0  0  0  0  0  0
   -0.4539    0.3037    4.0927 H   0  0  0  0  0  0  0  0  0  0  0  0
   -1.1012    1.8320    3.4519 H   0  0  0  0  0  0  0  0  0  0  0  0
   -3.2628    0.0020    3.7016 H   0  0  0  0  0  0  0  0  0  0  0  0
   -4.1544    0.8955    7.0597 H   0  0  0  0  0  0  0  0  0  0  0  0
   -4.6932    0.1243    5.5959 H   0  0  0  0  0  0  0  0  0  0  0  0
   -1.9195    1.8644    7.1943 H   0  0  0  0  0  0  0  0  0  0  0  0
   -0.8574    1.7862    5.8234 H   0  0  0  0  0  0  0  0  0  0  0  0
    2.2748   -0.8541   -0.9073 N   0  0  0  0  0  0  0  0  0  0  0  0
    3.5318   -0.7361   -1.6098 C   0  0  2  0  0  0  0  0  0  0  0  0
    3.8434   -2.0843   -2.2461 C   0  0  0  0  0  0  0  0  0  0  0  0
    3.5388   -3.1568   -1.7282 O   0  0  0  0  0  0  0  0  0  0  0  0
    4.6504   -0.3053   -0.6740 C   0  0  0  0  0  0  0  0  0  0  0  0
    2.0632   -1.7447   -0.4672 H   0  0  0  0  0  0  0  0  0  0  0  0
    3.3862    0.0139   -2.3949 H   0  0  0  0  0  0  0  0  0  0  0  0
    4.8110   -1.0444    0.1193 H   0  0  0  0  0  0  0  0  0  0  0  0
    5.5962   -0.1887   -1.2134 H   0  0  0  0  0  0  0  0  0  0  0  0
    4.4112    0.6501   -0.1946 H   0  0  0  0  0  0  0  0  0  0  0  0
    4.5396   -1.9500   -3.4391 N   0  0  0  0  0  0  0  0  0  0  0  0
    4.9880   -3.0846   -4.2121 C   0  0  0  0  0  0  0  0  0  0  0  0
    4.7143   -1.0223   -3.8140 H   0  0  0  0  0  0  0  0  0  0  0  0
    6.0151   -3.3466   -3.9179 H   0  0  0  0  0  0  0  0  0  0  0  0
    4.3235   -3.9411   -4.0253 H   0  0  0  0  0  0  0  0  0  0  0  0
    4.9668   -2.8306   -5.2822 H   0  0  0  0  0  0  0  0  0  0  0  0
  1  3  1  0  0  0  0
  1  7  1  0  0  0  0
  1  2  2  0  0  0  0
 42 43  1  0  0  0  0
 43 51  1  0  0  0  0
 43 44  2  0  0  0  0
  8  9  1  0  0  0  0
  9 17  1  0  0  0  0
  9 10  2  0  0  0  0
 18 19  1  0  0  0  0
 19 41  1  0  0  0  0
 19 20  2  0  0  0  0
 25 26  1  0  0  0  0
 25 27  1  0  0  0  0
 24 25  2  0  0  0  0
 42 45  1  0  0  0  0
  8 11  1  0  0  0  0
 51 52  1  0  0  0  0
 21 22  1  0  0  0  0
 22 23  1  0  0  0  0
 18 21  1  0  0  0  0
 23 24  1  0  0  0  0
 41 42  1  0  0  0  0
  7  8  1  0  0  0  0
 17 18  1  0  0  0  0
  3  4  1  0  0  0  0
  3  5  1  0  0  0  0
  3  6  1  0  0  0  0
 45 48  1  0  0  0  0
 45 49  1  0  0  0  0
 45 50  1  0  0  0  0
 11 14  1  0  0  0  0
 11 15  1  0  0  0  0
 11 16  1  0  0  0  0
 52 54  1  0  0  0  0
 52 55  1  0  0  0  0
 52 56  1  0  0  0  0
 22 32  1  0  0  0  0
 22 33  1  0  0  0  0
 21 30  1  0  0  0  0
 21 31  1  0  0  0  0
 23 34  1  0  0  0  0
 23 35  1  0  0  0  0
 42 47  1  0  0  0  0
  8 13  1  0  0  0  0
 18 29  1  0  0  0  0
 26 37  1  0  0  0  0
 26 38  1  0  0  0  0
 27 39  1  0  0  0  0
 27 40  1  0  0  0  0
 51 53  1  0  0  0  0
  7 12  1  0  0  0  0
 41 46  1  0  0  0  0
 17 28  1  0  0  0  0
 24 36  1  0  0  0  0
M  CHG  1  24   1
M  END
$$$$

  -OEChem-05262214473D

 56 55  0     1  0  0  0  0  0999 V2000
    0.7735   -5.8042   -2.0022 C   0  0  0  0  0  0  0  0  0  0  0  0
   -0.2086   -6.3825   -1.5519 O   0  0  0  0  0  0  0  0  0  0  0  0
    1.4751   -6.3646   -3.1946 C   0  0  0  0  0  0  0  0  0  0  0  0
    2.2765   -7.0687   -2.9186 H   0  0  0  0  0  0  0  0  0  0  0  0
    0.7988   -6.9360   -3.8504 H   0  0  0  0  0  0  0  0  0  0  0  0
    1.9556   -5.6216   -3.8511 H   0  0  0  0  0  0  0  0  0  0  0  0
    1.3322   -4.6359   -1.5106 N   0  0  0  0  0  0  0  0  0  0  0  0
    0.8124   -3.9290   -0.3698 C   0  0  2  0  0  0  0  0  0  0  0  0
    1.0666   -2.4424   -0.5818 C   0  0  0  0  0  0  0  0  0  0  0  0
    2.0598   -2.0076   -1.1610 O   0  0  0  0  0  0  0  0  0  0  0  0
    1.4560   -4.4118    0.9207 C   0  0  0  0  0  0  0  0  0  0  0  0
    2.1528   -4.2578   -1.9805 H   0  0  0  0  0  0  0  0  0  0  0  0
   -0.2667   -4.1160   -0.3467 H   0  0  0  0  0  0  0  0  0  0  0  0
    2.5374   -4.2329    0.9160 H   0  0  0  0  0  0  0  0  0  0  0  0
    1.0390   -3.8932    1.7903 H   0  0  0  0  0  0  0  0  0  0  0  0
    1.2976   -5.4871    1.0566 H   0  0  0  0  0  0  0  0  0  0  0  0
    0.0755   -1.6529   -0.0105 N   0  0  0  0  0  0  0  0  0  0  0  0
    0.1113   -0.2132   -0.0391 C   0  0  2  0  0  0  0  0  0  0  0  0
    1.3800    0.1989   -0.7782 C   0  0  0  0  0  0  0  0  0  0  0  0
    1.6732    1.3718   -1.0009 O   0  0  0  0  0  0  0  0  0  0  0  0
    0.0913    0.3914    1.3684 C   0  0  0  0  0  0  0  0  0  0  0  0
   -1.2384    0.1450    2.0912 C   0  0  0  0  0  0  0  0  0  0  0  0
   -1.2526    0.7490    3.4916 C   0  0  0  0  0  0  0  0  0  0  0  0
   -2.5125    0.4919    4.1857 N   0  3  0  0  0  0  0  0  0  0  0  0
   -2.7353    0.8947    5.5037 C   0  0  0  0  0  0  0  0  0  0  0  0
   -3.9599    0.6157    6.1013 N   0  0  0  0  0  0  0  0  0  0  0  0
   -1.7623    1.5689    6.2342 N   0  0  0  0  0  0  0  0  0  0  0  0
   -0.7323   -2.1024    0.4149 H   0  0  0  0  0  0  0  0  0  0  0  0
   -0.7609    0.1148   -0.6160 H   0  0  0  0  0  0  0  0  0  0  0  0
    0.2748    1.4707    1.3048 H   0  0  0  0  0  0  0  0  0  0  0  0
    0.9129   -0.0275    1.9645 H   0  0  0  0  0  0  0  0  0  0  0  0
   -2.0609    0.5675    1.5017 H   0  0  0  0  0  0  0  0  0  0  0  0
   -1.4163   -0.9331    2.1768 H   0  0  0  0  0  0  0  0  0  0  0  0
   -0.4539    0.3037    4.0927 H   0  0  0  0  0  0  0  0  0  0  0  0
   -1.1012    1.8320    3.4519 H   0  0  0  0  0  0  0  0  0  0  0  0
   -3.2628    0.0020    3.7016 H   0  0  0  0  0  0  0  0  0  0  0  0
   -4.1544    0.8955    7.0597 H   0  0  0  0  0  0  0  0  0  0  0  0
   -4.6932    0.1243    5.5959 H   0  0  0  0  0  0  0  0  0  0  0  0
   -1.9195    1.8644    7.1943 H   0  0  0  0  0  0  0  0  0  0  0  0
   -0.8574    1.7862    5.8234 H   0  0  0  0  0  0  0  0  0  0  0  0
    2.1180   -0.8979   -1.2009 N   0  0  0  0  0  0  0  0  0  0  0  0
    3.3380   -0.7772   -1.9654 C   0  0  2  0  0  0  0  0  0  0  0  0
    3.4311   -1.9797   -2.8954 C   0  0  0  0  0  0  0  0  0  0  0  0
    3.0161   -3.0963   -2.5917 O   0  0  0  0  0  0  0  0  0  0  0  0
    4.5549   -0.6974   -1.0567 C   0  0  0  0  0  0  0  0  0  0  0  0
    1.8148   -1.8321   -0.9423 H   0  0  0  0  0  0  0  0  0  0  0  0
    3.2496    0.1388   -2.5596 H   0  0  0  0  0  0  0  0  0  0  0  0
    4.6599   -1.6065   -0.4534 H   0  0  0  0  0  0  0  0  0  0  0  0
    5.4759   -0.5773   -1.6366 H   0  0  0  0  0  0  0  0  0  0  0  0
    4.4723    0.1506   -0.3684 H   0  0  0  0  0  0  0  0  0  0  0  0
    4.0709   -1.6694   -4.0872 N   0  0  0  0  0  0  0  0  0  0  0  0
    4.3201   -2.6511   -5.1169 C   0  0  0  0  0  0  0  0  0  0  0  0
    4.3461   -0.7092   -4.2714 H   0  0  0  0  0  0  0  0  0  0  0  0
    5.3180   -3.0905   -4.9715 H   0  0  0  0  0  0  0  0  0  0  0  0
    3.5590   -3.4433   -5.0600 H   0  0  0  0  0  0  0  0  0  0  0  0
    4.2727   -2.1674   -6.1037 H   0  0  0  0  0  0  0  0  0  0  0  0
  1  3  1  0  0  0  0
  1  7  1  0  0  0  0
  1  2  2  0  0  0  0
 42 43  1  0  0  0  0
 43 51  1  0  0  0  0
 43 44  2  0  0  0  0
  8  9  1  0  0  0  0
  9 17  1  0  0  0  0
  9 10  2  0  0  0  0
 18 19  1  0  0  0  0
 19 41  1  0  0  0  0
 19 20  2  0  0  0  0
 25 26  1  0  0  0  0
 25 27  1  0  0  0  0
 24 25  2  0  0  0  0
 42 45  1  0  0  0  0
  8 11  1  0  0  0  0
 51 52  1  0  0  0  0
 21 22  1  0  0  0  0
 22 23  1  0  0  0  0
 18 21  1  0  0  0  0
 23 24  1  0  0  0  0
 41 42  1  0  0  0  0
  7  8  1  0  0  0  0
 17 18  1  0  0  0  0
  3  4  1  0  0  0  0
  3  5  1  0  0  0  0
  3  6  1  0  0  0  0
 45 48  1  0  0  0  0
 45 49  1  0  0  0  0
 45 50  1  0  0  0  0
 11 14  1  0  0  0  0
 11 15  1  0  0  0  0
 11 16  1  0  0  0  0
 52 54  1  0  0  0  0
 52 55  1  0  0  0  0
 52 56  1  0  0  0  0
 22 32  1  0  0  0  0
 22 33  1  0  0  0  0
 21 30  1  0  0  0  0
 21 31  1  0  0  0  0
 23 34  1  0  0  0  0
 23 35  1  0  0  0  0
 42 47  1  0  0  0  0
  8 13  1  0  0  0  0
 18 29  1  0  0  0  0
 26 37  1  0  0  0  0
 26 38  1  0  0  0  0
 27 39  1  0  0  0  0
 27 40  1  0  0  0  0
 51 53  1  0  0  0  0
  7 12  1  0  0  0  0
 41 46  1  0  0  0  0
 17 28  1  0  0  0  0
 24 36  1  0  0  0  0
M  CHG  1  24   1
M  END
$$$$

  -OEChem-05262214473D

 56 55  0     1  0  0  0  0  0999 V2000
    0.7735   -5.8042   -2.0022 C   0  0  0  0  0  0  0  0  0  0  0  0
   -0.2086   -6.3825   -1.5519 O   0  0  0  0  0  0  0  0  0  0  0  0
    1.4751   -6.3646   -3.1946 C   0  0  0  0  0  0  0  0  0  0  0  0
    2.2765   -7.0687   -2.9186 H   0  0  0  0  0  0  0  0  0  0  0  0
    0.7988   -6.9360   -3.8504 H   0  0  0  0  0  0  0  0  0  0  0  0
    1.9556   -5.6216   -3.8511 H   0  0  0  0  0  0  0  0  0  0  0  0
    1.3322   -4.6359   -1.5106 N   0  0  0  0  0  0  0  0  0  0  0  0
    0.8124   -3.9290   -0.3698 C   0  0  2  0  0  0  0  0  0  0  0  0
    1.0666   -2.4424   -0.5818 C   0  0  0  0  0  0  0  0  0  0  0  0
    2.0598   -2.0076   -1.1610 O   0  0  0  0  0  0  0  0  0  0  0  0
    1.4560   -4.4118    0.9207 C   0  0  0  0  0  0  0  0  0  0  0  0
    2.1528   -4.2578   -1.9805 H   0  0  0  0  0  0  0  0  0  0  0  0
   -0.2667   -4.1160   -0.3467 H   0  0  0  0  0  0  0  0  0  0  0  0
    2.5374   -4.2329    0.9160 H   0  0  0  0  0  0  0  0  0  0  0  0
    1.0390   -3.8932    1.7903 H   0  0  0  0  0  0  0  0  0  0  0  0
    1.2976   -5.4871    1.0566 H   0  0  0  0  0  0  0  0  0  0  0  0
    0.0755   -1.6529   -0.0105 N   0  0  0  0  0  0  0  0  0  0  0  0
    0.1113   -0.2132   -0.0391 C   0  0  2  0  0  0  0  0  0  0  0  0
    1.3800    0.1989   -0.7782 C   0  0  0  0  0  0  0  0  0  0  0  0
    1.8137    1.3492   -0.7723 O   0  0  0  0  0  0  0  0  0  0  0  0
    0.0913    0.3914    1.3684 C   0  0  0  0  0  0  0  0  0  0  0  0
   -1.2384    0.1450    2.0912 C   0  0  0  0  0  0  0  0  0  0  0  0
   -1.2526    0.7490    3.4916 C   0  0  0  0  0  0  0  0  0  0  0  0
   -2.5125    0.4919    4.1857 N   0  3  0  0  0  0  0  0  0  0  0  0
   -2.7353    0.8947    5.5037 C   0  0  0  0  0  0  0  0  0  0  0  0
   -3.9599    0.6157    6.1013 N   0  0  0  0  0  0  0  0  0  0  0  0
   -1.7623    1.5689    6.2342 N   0  0  0  0  0  0  0  0  0  0  0  0
   -0.7323   -2.1024    0.4149 H   0  0  0  0  0  0  0  0  0  0  0  0
   -0.7609    0.1148   -0.6160 H   0  0  0  0  0  0  0  0  0  0  0  0
    0.2748    1.4707    1.3048 H   0  0  0  0  0  0  0  0  0  0  0  0
    0.9129   -0.0275    1.9645 H   0  0  0  0  0  0  0  0  0  0  0  0
   -2.0609    0.5675    1.5017 H   0  0  0  0  0  0  0  0  0  0  0  0
   -1.4163   -0.9331    2.1768 H   0  0  0  0  0  0  0  0  0  0  0  0
   -0.4539    0.3037    4.0927 H   0  0  0  0  0  0  0  0  0  0  0  0
   -1.1012    1.8320    3.4519 H   0  0  0  0  0  0  0  0  0  0  0  0
   -3.2628    0.0020    3.7016 H   0  0  0  0  0  0  0  0  0  0  0  0
   -4.1544    0.8955    7.0597 H   0  0  0  0  0  0  0  0  0  0  0  0
   -4.6932    0.1243    5.5959 H   0  0  0  0  0  0  0  0  0  0  0  0
   -1.9195    1.8644    7.1943 H   0  0  0  0  0  0  0  0  0  0  0  0
   -0.8574    1.7862    5.8234 H   0  0  0  0  0  0  0  0  0  0  0  0
    1.9406   -0.8572   -1.4829 N   0  0  0  0  0  0  0  0  0  0  0  0
    3.1208   -0.7161   -2.3041 C   0  0  2  0  0  0  0  0  0  0  0  0
    3.0006   -1.6872   -3.4712 C   0  0  0  0  0  0  0  0  0  0  0  0
    2.4585   -2.7863   -3.3762 O   0  0  0  0  0  0  0  0  0  0  0  0
    4.3866   -0.9818   -1.5042 C   0  0  0  0  0  0  0  0  0  0  0  0
    1.5307   -1.7831   -1.4026 H   0  0  0  0  0  0  0  0  0  0  0  0
    3.1219    0.3120   -2.6824 H   0  0  0  0  0  0  0  0  0  0  0  0
    4.4035   -2.0071   -1.1170 H   0  0  0  0  0  0  0  0  0  0  0  0
    5.2814   -0.8465   -2.1207 H   0  0  0  0  0  0  0  0  0  0  0  0
    4.4564   -0.3021   -0.6480 H   0  0  0  0  0  0  0  0  0  0  0  0
    3.6080   -1.2001   -4.6201 N   0  0  0  0  0  0  0  0  0  0  0  0
    3.6660   -1.9538   -5.8508 C   0  0  0  0  0  0  0  0  0  0  0  0
    3.9977   -0.2621   -4.6200 H   0  0  0  0  0  0  0  0  0  0  0  0
    4.6032   -2.5287   -5.8854 H   0  0  0  0  0  0  0  0  0  0  0  0
    2.8107   -2.6438   -5.8987 H   0  0  0  0  0  0  0  0  0  0  0  0
    3.6281   -1.2629   -6.7059 H   0  0  0  0  0  0  0  0  0  0  0  0
  1  3  1  0  0  0  0
  1  7  1  0  0  0  0
  1  2  2  0  0  0  0
 42 43  1  0  0  0  0
 43 51  1  0  0  0  0
 43 44  2  0  0  0  0
  8  9  1  0  0  0  0
  9 17  1  0  0  0  0
  9 10  2  0  0  0  0
 18 19  1  0  0  0  0
 19 41  1  0  0  0  0
 19 20  2  0  0  0  0
 25 26  1  0  0  0  0
 25 27  1  0  0  0  0
 24 25  2  0  0  0  0
 42 45  1  0  0  0  0
  8 11  1  0  0  0  0
 51 52  1  0  0  0  0
 21 22  1  0  0  0  0
 22 23  1  0  0  0  0
 18 21  1  0  0  0  0
 23 24  1  0  0  0  0
 41 42  1  0  0  0  0
  7  8  1  0  0  0  0
 17 18  1  0  0  0  0
  3  4  1  0  0  0  0
  3  5  1  0  0  0  0
  3  6  1  0  0  0  0
 45 48  1  0  0  0  0
 45 49  1  0  0  0  0
 45 50  1  0  0  0  0
 11 14  1  0  0  0  0
 11 15  1  0  0  0  0
 11 16  1  0  0  0  0
 52 54  1  0  0  0  0
 52 55  1  0  0  0  0
 52 56  1  0  0  0  0
 22 32  1  0  0  0  0
 22 33  1  0  0  0  0
 21 30  1  0  0  0  0
 21 31  1  0  0  0  0
 23 34  1  0  0  0  0
 23 35  1  0  0  0  0
 42 47  1  0  0  0  0
  8 13  1  0  0  0  0
 18 29  1  0  0  0  0
 26 37  1  0  0  0  0
 26 38  1  0  0  0  0
 27 39  1  0  0  0  0
 27 40  1  0  0  0  0
 51 53  1  0  0  0  0
  7 12  1  0  0  0  0
 41 46  1  0  0  0  0
 17 28  1  0  0  0  0
 24 36  1  0  0  0  0
M  CHG  1  24   1
M  END
$$$$

  -OEChem-05262214473D

 56 55  0     1  0  0  0  0  0999 V2000
    0.7735   -5.8042   -2.0022 C   0  0  0  0  0  0  0  0  0  0  0  0
   -0.2086   -6.3825   -1.5519 O   0  0  0  0  0  0  0  0  0  0  0  0
    1.4751   -6.3646   -3.1946 C   0  0  0  0  0  0  0  0  0  0  0  0
    2.2765   -7.0687   -2.9186 H   0  0  0  0  0  0  0  0  0  0  0  0
    0.7988   -6.9360   -3.8504 H   0  0  0  0  0  0  0  0  0  0  0  0
    1.9556   -5.6216   -3.8511 H   0  0  0  0  0  0  0  0  0  0  0  0
    1.3322   -4.6359   -1.5106 N   0  0  0  0  0  0  0  0  0  0  0  0
    0.8124   -3.9290   -0.3698 C   0  0  2  0  0  0  0  0  0  0  0  0
    1.0666   -2.4424   -0.5818 C   0  0  0  0  0  0  0  0  0  0  0  0
    2.0598   -2.0076   -1.1610 O   0  0  0  0  0  0  0  0  0  0  0  0
    1.4560   -4.4118    0.9207 C   0  0  0  0  0  0  0  0  0  0  0  0
    2.1528   -4.2578   -1.9805 H   0  0  0  0  0  0  0  0  0  0  0  0
   -0.2667   -4.1160   -0.3467 H   0  0  0  0  0  0  0  0  0  0  0  0
    2.5374   -4.2329    0.9160 H   0  0  0  0  0  0  0  0  0  0  0  0
    1.0390   -3.8932    1.7903 H   0  0  0  0  0  0  0  0  0  0  0  0
    1.2976   -5.4871    1.0566 H   0  0  0  0  0  0  0  0  0  0  0  0
    0.0755   -1.6529   -0.0105 N   0  0  0  0  0  0  0  0  0  0  0  0
    0.1113   -0.2132   -0.0391 C   0  0  2  0  0  0  0  0  0  0  0  0
    1.3800    0.1989   -0.7782 C   0  0  0  0  0  0  0  0  0  0  0  0
    1.9626    1.2604   -0.5662 O   0  0  0  0  0  0  0  0  0  0  0  0
    0.0913    0.3914    1.3684 C   0  0  0  0  0  0  0  0  0  0  0  0
   -1.2384    0.1450    2.0912 C   0  0  0  0  0  0  0  0  0  0  0  0
   -1.2526    0.7490    3.4916 C   0  0  0  0  0  0  0  0  0  0  0  0
   -2.5125    0.4919    4.1857 N   0  3  0  0  0  0  0  0  0  0  0  0
   -2.7353    0.8947    5.5037 C   0  0  0  0  0  0  0  0  0  0  0  0
   -3.9599    0.6157    6.1013 N   0  0  0  0  0  0  0  0  0  0  0  0
   -1.7623    1.5689    6.2342 N   0  0  0  0  0  0  0  0  0  0  0  0
   -0.7323   -2.1024    0.4149 H   0  0  0  0  0  0  0  0  0  0  0  0
   -0.7609    0.1148   -0.6160 H   0  0  0  0  0  0  0  0  0  0  0  0
    0.2748    1.4707    1.3048 H   0  0  0  0  0  0  0  0  0  0  0  0
    0.9129   -0.0275    1.9645 H   0  0  0  0  0  0  0  0  0  0  0  0
   -2.0609    0.5675    1.5017 H   0  0  0  0  0  0  0  0  0  0  0  0
   -1.4163   -0.9331    2.1768 H   0  0  0  0  0  0  0  0  0  0  0  0
   -0.4539    0.3037    4.0927 H   0  0  0  0  0  0  0  0  0  0  0  0
   -1.1012    1.8320    3.4519 H   0  0  0  0  0  0  0  0  0  0  0  0
   -3.2628    0.0020    3.7016 H   0  0  0  0  0  0  0  0  0  0  0  0
   -4.1544    0.8955    7.0597 H   0  0  0  0  0  0  0  0  0  0  0  0
   -4.6932    0.1243    5.5959 H   0  0  0  0  0  0  0  0  0  0  0  0
   -1.9195    1.8644    7.1943 H   0  0  0  0  0  0  0  0  0  0  0  0
   -0.8574    1.7862    5.8234 H   0  0  0  0  0  0  0  0  0  0  0  0
    1.7545   -0.7350   -1.7341 N   0  0  0  0  0  0  0  0  0  0  0  0
    2.8950   -0.5568   -2.6030 C   0  0  2  0  0  0  0  0  0  0  0  0
    2.5812   -1.2266   -3.9343 C   0  0  0  0  0  0  0  0  0  0  0  0
    1.9038   -2.2481   -4.0281 O   0  0  0  0  0  0  0  0  0  0  0  0
    4.1571   -1.1390   -1.9858 C   0  0  0  0  0  0  0  0  0  0  0  0
    1.2302   -1.6010   -1.8169 H   0  0  0  0  0  0  0  0  0  0  0  0
    3.0116    0.5218   -2.7546 H   0  0  0  0  0  0  0  0  0  0  0  0
    4.0591   -2.2190   -1.8264 H   0  0  0  0  0  0  0  0  0  0  0  0
    5.0258   -0.9779   -2.6326 H   0  0  0  0  0  0  0  0  0  0  0  0
    4.3648   -0.6772   -1.0145 H   0  0  0  0  0  0  0  0  0  0  0  0
    3.1824   -0.5739   -5.0014 N   0  0  0  0  0  0  0  0  0  0  0  0
    3.0704   -1.0402   -6.3638 C   0  0  0  0  0  0  0  0  0  0  0  0
    3.6929    0.2885   -4.8361 H   0  0  0  0  0  0  0  0  0  0  0  0
    3.9193   -1.6997   -6.5971 H   0  0  0  0  0  0  0  0  0  0  0  0
    2.1295   -1.5972   -6.4843 H   0  0  0  0  0  0  0  0  0  0  0  0
    3.0767   -0.1787   -7.0477 H   0  0  0  0  0  0  0  0  0  0  0  0
  1  3  1  0  0  0  0
  1  7  1  0  0  0  0
  1  2  2  0  0  0  0
 42 43  1  0  0  0  0
 43 51  1  0  0  0  0
 43 44  2  0  0  0  0
  8  9  1  0  0  0  0
  9 17  1  0  0  0  0
  9 10  2  0  0  0  0
 18 19  1  0  0  0  0
 19 41  1  0  0  0  0
 19 20  2  0  0  0  0
 25 26  1  0  0  0  0
 25 27  1  0  0  0  0
 24 25  2  0  0  0  0
 42 45  1  0  0  0  0
  8 11  1  0  0  0  0
 51 52  1  0  0  0  0
 21 22  1  0  0  0  0
 22 23  1  0  0  0  0
 18 21  1  0  0  0  0
 23 24  1  0  0  0  0
 41 42  1  0  0  0  0
  7  8  1  0  0  0  0
 17 18  1  0  0  0  0
  3  4  1  0  0  0  0
  3  5  1  0  0  0  0
  3  6  1  0  0  0  0
 45 48  1  0  0  0  0
 45 49  1  0  0  0  0
 45 50  1  0  0  0  0
 11 14  1  0  0  0  0
 11 15  1  0  0  0  0
 11 16  1  0  0  0  0
 52 54  1  0  0  0  0
 52 55  1  0  0  0  0
 52 56  1  0  0  0  0
 22 32  1  0  0  0  0
 22 33  1  0  0  0  0
 21 30  1  0  0  0  0
 21 31  1  0  0  0  0
 23 34  1  0  0  0  0
 23 35  1  0  0  0  0
 42 47  1  0  0  0  0
  8 13  1  0  0  0  0
 18 29  1  0  0  0  0
 26 37  1  0  0  0  0
 26 38  1  0  0  0  0
 27 39  1  0  0  0  0
 27 40  1  0  0  0  0
 51 53  1  0  0  0  0
  7 12  1  0  0  0  0
 41 46  1  0  0  0  0
 17 28  1  0  0  0  0
 24 36  1  0  0  0  0
M  CHG  1  24   1
M  END
$$$$

  -OEChem-05262214473D

 56 55  0     1  0  0  0  0  0999 V2000
    0.7735   -5.8042   -2.0022 C   0  0  0  0  0  0  0  0  0  0  0  0
   -0.2086   -6.3825   -1.5519 O   0  0  0  0  0  0  0  0  0  0  0  0
    1.4751   -6.3646   -3.1946 C   0  0  0  0  0  0  0  0  0  0  0  0
    2.2765   -7.0687   -2.9186 H   0  0  0  0  0  0  0  0  0  0  0  0
    0.7988   -6.9360   -3.8504 H   0  0  0  0  0  0  0  0  0  0  0  0
    1.9556   -5.6216   -3.8511 H   0  0  0  0  0  0  0  0  0  0  0  0
    1.3322   -4.6359   -1.5106 N   0  0  0  0  0  0  0  0  0  0  0  0
    0.8124   -3.9290   -0.3698 C   0  0  2  0  0  0  0  0  0  0  0  0
    1.0666   -2.4424   -0.5818 C   0  0  0  0  0  0  0  0  0  0  0  0
    2.0598   -2.0076   -1.1610 O   0  0  0  0  0  0  0  0  0  0  0  0
    1.4560   -4.4118    0.9207 C   0  0  0  0  0  0  0  0  0  0  0  0
    2.1528   -4.2578   -1.9805 H   0  0  0  0  0  0  0  0  0  0  0  0
   -0.2667   -4.1160   -0.3467 H   0  0  0  0  0  0  0  0  0  0  0  0
    2.5374   -4.2329    0.9160 H   0  0  0  0  0  0  0  0  0  0  0  0
    1.0390   -3.8932    1.7903 H   0  0  0  0  0  0  0  0  0  0  0  0
    1.2976   -5.4871    1.0566 H   0  0  0  0  0  0  0  0  0  0  0  0
    0.0755   -1.6529   -0.0105 N   0  0  0  0  0  0  0  0  0  0  0  0
    0.1113   -0.2132   -0.0391 C   0  0  2  0  0  0  0  0  0  0  0  0
    1.3800    0.1989   -0.7782 C   0  0  0  0  0  0  0  0  0  0  0  0
    2.1097    1.1117   -0.3967 O   0  0  0  0  0  0  0  0  0  0  0  0
    0.0913    0.3914    1.3684 C   0  0  0  0  0  0  0  0  0  0  0  0
   -1.2384    0.1450    2.0912 C   0  0  0  0  0  0  0  0  0  0  0  0
   -1.2526    0.7490    3.4916 C   0  0  0  0  0  0  0  0  0  0  0  0
   -2.5125    0.4919    4.1857 N   0  3  0  0  0  0  0  0  0  0  0  0
   -2.7353    0.8947    5.5037 C   0  0  0  0  0  0  0  0  0  0  0  0
   -3.9599    0.6157    6.1013 N   0  0  0  0  0  0  0  0  0  0  0  0
   -1.7623    1.5689    6.2342 N   0  0  0  0  0  0  0  0  0  0  0  0
   -0.7323   -2.1024    0.4149 H   0  0  0  0  0  0  0  0  0  0  0  0
   -0.7609    0.1148   -0.6160 H   0  0  0  0  0  0  0  0  0  0  0  0
    0.2748    1.4707    1.3048 H   0  0  0  0  0  0  0  0  0  0  0  0
    0.9129   -0.0275    1.9645 H   0  0  0  0  0  0  0  0  0  0  0  0
   -2.0609    0.5675    1.5017 H   0  0  0  0  0  0  0  0  0  0  0  0
   -1.4163   -0.9331    2.1768 H   0  0  0  0  0  0  0  0  0  0  0  0
   -0.4539    0.3037    4.0927 H   0  0  0  0  0  0  0  0  0  0  0  0
   -1.1012    1.8320    3.4519 H   0  0  0  0  0  0  0  0  0  0  0  0
   -3.2628    0.0020    3.7016 H   0  0  0  0  0  0  0  0  0  0  0  0
   -4.1544    0.8955    7.0597 H   0  0  0  0  0  0  0  0  0  0  0  0
   -4.6932    0.1243    5.5959 H   0  0  0  0  0  0  0  0  0  0  0  0
   -1.9195    1.8644    7.1943 H   0  0  0  0  0  0  0  0  0  0  0  0
   -0.8574    1.7862    5.8234 H   0  0  0  0  0  0  0  0  0  0  0  0
    1.5725   -0.5395   -1.9375 N   0  0  0  0  0  0  0  0  0  0  0  0
    2.6759   -0.3103   -2.8416 C   0  0  2  0  0  0  0  0  0  0  0  0
    2.2015   -0.6294   -4.2531 C   0  0  0  0  0  0  0  0  0  0  0  0
    1.3899   -1.5182   -4.5032 O   0  0  0  0  0  0  0  0  0  0  0  0
    3.8820   -1.1584   -2.4688 C   0  0  0  0  0  0  0  0  0  0  0  0
    0.9338   -1.2983   -2.1568 H   0  0  0  0  0  0  0  0  0  0  0  0
    2.9263    0.7538   -2.7716 H   0  0  0  0  0  0  0  0  0  0  0  0
    3.6503   -2.2278   -2.5331 H   0  0  0  0  0  0  0  0  0  0  0  0
    4.7267   -0.9625   -3.1375 H   0  0  0  0  0  0  0  0  0  0  0  0
    4.2036   -0.9491   -1.4429 H   0  0  0  0  0  0  0  0  0  0  0  0
    2.8233    0.1664   -5.2051 N   0  0  0  0  0  0  0  0  0  0  0  0
    2.5737    0.0275   -6.6209 C   0  0  0  0  0  0  0  0  0  0  0  0
    3.4525    0.9052   -4.9050 H   0  0  0  0  0  0  0  0  0  0  0  0
    3.3128   -0.6599   -7.0582 H   0  0  0  0  0  0  0  0  0  0  0  0
    1.5618   -0.3746   -6.7770 H   0  0  0  0  0  0  0  0  0  0  0  0
    2.6562    1.0113   -7.1059 H   0  0  0  0  0  0  0  0  0  0  0  0
  1  3  1  0  0  0  0
  1  7  1  0  0  0  0
  1  2  2  0  0  0  0
 42 43  1  0  0  0  0
 43 51  1  0  0  0  0
 43 44  2  0  0  0  0
  8  9  1  0  0  0  0
  9 17  1  0  0  0  0
  9 10  2  0  0  0  0
 18 19  1  0  0  0  0
 19 41  1  0  0  0  0
 19 20  2  0  0  0  0
 25 26  1  0  0  0  0
 25 27  1  0  0  0  0
 24 25  2  0  0  0  0
 42 45  1  0  0  0  0
  8 11  1  0  0  0  0
 51 52  1  0  0  0  0
 21 22  1  0  0  0  0
 22 23  1  0  0  0  0
 18 21  1  0  0  0  0
 23 24  1  0  0  0  0
 41 42  1  0  0  0  0
  7  8  1  0  0  0  0
 17 18  1  0  0  0  0
  3  4  1  0  0  0  0
  3  5  1  0  0  0  0
  3  6  1  0  0  0  0
 45 48  1  0  0  0  0
 45 49  1  0  0  0  0
 45 50  1  0  0  0  0
 11 14  1  0  0  0  0
 11 15  1  0  0  0  0
 11 16  1  0  0  0  0
 52 54  1  0  0  0  0
 52 55  1  0  0  0  0
 52 56  1  0  0  0  0
 22 32  1  0  0  0  0
 22 33  1  0  0  0  0
 21 30  1  0  0  0  0
 21 31  1  0  0  0  0
 23 34  1  0  0  0  0
 23 35  1  0  0  0  0
 42 47  1  0  0  0  0
  8 13  1  0  0  0  0
 18 29  1  0  0  0  0
 26 37  1  0  0  0  0
 26 38  1  0  0  0  0
 27 39  1  0  0  0  0
 27 40  1  0  0  0  0
 51 53  1  0  0  0  0
  7 12  1  0  0  0  0
 41 46  1  0  0  0  0
 17 28  1  0  0  0  0
 24 36  1  0  0  0  0
M  CHG  1  24   1
M  END
$$$$

  -OEChem-05262214473D

 56 55  0     1  0  0  0  0  0999 V2000
    0.7735   -5.8042   -2.0022 C   0  0  0  0  0  0  0  0  0  0  0  0
   -0.2086   -6.3825   -1.5519 O   0  0  0  0  0  0  0  0  0  0  0  0
    1.4751   -6.3646   -3.1946 C   0  0  0  0  0  0  0  0  0  0  0  0
    2.2765   -7.0687   -2.9186 H   0  0  0  0  0  0  0  0  0  0  0  0
    0.7988   -6.9360   -3.8504 H   0  0  0  0  0  0  0  0  0  0  0  0
    1.9556   -5.6216   -3.8511 H   0  0  0  0  0  0  0  0  0  0  0  0
    1.3322   -4.6359   -1.5106 N   0  0  0  0  0  0  0  0  0  0  0  0
    0.8124   -3.9290   -0.3698 C   0  0  2  0  0  0  0  0  0  0  0  0
    1.0666   -2.4424   -0.5818 C   0  0  0  0  0  0  0  0  0  0  0  0
    2.0598   -2.0076   -1.1610 O   0  0  0  0  0  0  0  0  0  0  0  0
    1.4560   -4.4118    0.9207 C   0  0  0  0  0  0  0  0  0  0  0  0
    2.1528   -4.2578   -1.9805 H   0  0  0  0  0  0  0  0  0  0  0  0
   -0.2667   -4.1160   -0.3467 H   0  0  0  0  0  0  0  0  0  0  0  0
    2.5374   -4.2329    0.9160 H   0  0  0  0  0  0  0  0  0  0  0  0
    1.0390   -3.8932    1.7903 H   0  0  0  0  0  0  0  0  0  0  0  0
    1.2976   -5.4871    1.0566 H   0  0  0  0  0  0  0  0  0  0  0  0
    0.0755   -1.6529   -0.0105 N   0  0  0  0  0  0  0  0  0  0  0  0
    0.1113   -0.2132   -0.0391 C   0  0  2  0  0  0  0  0  0  0  0  0
    1.3800    0.1989   -0.7782 C   0  0  0  0  0  0  0  0  0  0  0  0
    2.2450    0.9131   -0.2752 O   0  0  0  0  0  0  0  0  0  0  0  0
    0.0913    0.3914    1.3684 C   0  0  0  0  0  0  0  0  0  0  0  0
   -1.2384    0.1450    2.0912 C   0  0  0  0  0  0  0  0  0  0  0  0
   -1.2526    0.7490    3.4916 C   0  0  0  0  0  0  0  0  0  0  0  0
   -2.5125    0.4919    4.1857 N   0  3  0  0  0  0  0  0  0  0  0  0
   -2.7353    0.8947    5.5037 C   0  0  0  0  0  0  0  0  0  0  0  0
   -3.9599    0.6157    6.1013 N   0  0  0  0  0  0  0  0  0  0  0  0
   -1.7623    1.5689    6.2342 N   0  0  0  0  0  0  0  0  0  0  0  0
   -0.7323   -2.1024    0.4149 H   0  0  0  0  0  0  0  0  0  0  0  0
   -0.7609    0.1148   -0.6160 H   0  0  0  0  0  0  0  0  0  0  0  0
    0.2748    1.4707    1.3048 H   0  0  0  0  0  0  0  0  0  0  0  0
    0.9129   -0.0275    1.9645 H   0  0  0  0  0  0  0  0  0  0  0  0
   -2.0609    0.5675    1.5017 H   0  0  0  0  0  0  0  0  0  0  0  0
   -1.4163   -0.9331    2.1768 H   0  0  0  0  0  0  0  0  0  0  0  0
   -0.4539    0.3037    4.0927 H   0  0  0  0  0  0  0  0  0  0  0  0
   -1.1012    1.8320    3.4519 H   0  0  0  0  0  0  0  0  0  0  0  0
   -3.2628    0.0020    3.7016 H   0  0  0  0  0  0  0  0  0  0  0  0
   -4.1544    0.8955    7.0597 H   0  0  0  0  0  0  0  0  0  0  0  0
   -4.6932    0.1243    5.5959 H   0  0  0  0  0  0  0  0  0  0  0  0
   -1.9195    1.8644    7.1943 H   0  0  0  0  0  0  0  0  0  0  0  0
   -0.8574    1.7862    5.8234 H   0  0  0  0  0  0  0  0  0  0  0  0
    1.4071   -0.2841   -2.0791 N   0  0  0  0  0  0  0  0  0  0  0  0
    2.4786    0.0066   -3.0036 C   0  0  2  0  0  0  0  0  0  0  0  0
    1.8872    0.0638   -4.4059 C   0  0  0  0  0  0  0  0  0  0  0  0
    0.9519   -0.6464   -4.7690 O   0  0  0  0  0  0  0  0  0  0  0  0
    3.5801   -1.0386   -2.9204 C   0  0  0  0  0  0  0  0  0  0  0  0
    0.6618   -0.8954   -2.3992 H   0  0  0  0  0  0  0  0  0  0  0  0
    2.8719    0.9923   -2.7320 H   0  0  0  0  0  0  0  0  0  0  0  0
    3.2048   -2.0328   -3.1890 H   0  0  0  0  0  0  0  0  0  0  0  0
    4.4044   -0.8014   -3.6010 H   0  0  0  0  0  0  0  0  0  0  0  0
    3.9838   -1.0993   -1.9039 H   0  0  0  0  0  0  0  0  0  0  0  0
    2.5549    0.9704   -5.2173 N   0  0  0  0  0  0  0  0  0  0  0  0
    2.2100    1.1764   -6.6046 C   0  0  0  0  0  0  0  0  0  0  0  0
    3.2928    1.5458   -4.8219 H   0  0  0  0  0  0  0  0  0  0  0  0
    2.8252    0.5198   -7.2374 H   0  0  0  0  0  0  0  0  0  0  0  0
    1.1464    0.9405   -6.7567 H   0  0  0  0  0  0  0  0  0  0  0  0
    2.3952    2.2260   -6.8764 H   0  0  0  0  0  0  0  0  0  0  0  0
  1  3  1  0  0  0  0
  1  7  1  0  0  0  0
  1  2  2  0  0  0  0
 42 43  1  0  0  0  0
 43 51  1  0  0  0  0
 43 44  2  0  0  0  0
  8  9  1  0  0  0  0
  9 17  1  0  0  0  0
  9 10  2  0  0  0  0
 18 19  1  0  0  0  0
 19 41  1  0  0  0  0
 19 20  2  0  0  0  0
 25 26  1  0  0  0  0
 25 27  1  0  0  0  0
 24 25  2  0  0  0  0
 42 45  1  0  0  0  0
  8 11  1  0  0  0  0
 51 52  1  0  0  0  0
 21 22  1  0  0  0  0
 22 23  1  0  0  0  0
 18 21  1  0  0  0  0
 23 24  1  0  0  0  0
 41 42  1  0  0  0  0
  7  8  1  0  0  0  0
 17 18  1  0  0  0  0
  3  4  1  0  0  0  0
  3  5  1  0  0  0  0
  3  6  1  0  0  0  0
 45 48  1  0  0  0  0
 45 49  1  0  0  0  0
 45 50  1  0  0  0  0
 11 14  1  0  0  0  0
 11 15  1  0  0  0  0
 11 16  1  0  0  0  0
 52 54  1  0  0  0  0
 52 55  1  0  0  0  0
 52 56  1  0  0  0  0
 22 32  1  0  0  0  0
 22 33  1  0  0  0  0
 21 30  1  0  0  0  0
 21 31  1  0  0  0  0
 23 34  1  0  0  0  0
 23 35  1  0  0  0  0
 42 47  1  0  0  0  0
  8 13  1  0  0  0  0
 18 29  1  0  0  0  0
 26 37  1  0  0  0  0
 26 38  1  0  0  0  0
 27 39  1  0  0  0  0
 27 40  1  0  0  0  0
 51 53  1  0  0  0  0
  7 12  1  0  0  0  0
 41 46  1  0  0  0  0
 17 28  1  0  0  0  0
 24 36  1  0  0  0  0
M  CHG  1  24   1
M  END
$$$$

  -OEChem-05262214473D

 56 55  0     1  0  0  0  0  0999 V2000
    0.7735   -5.8042   -2.0022 C   0  0  0  0  0  0  0  0  0  0  0  0
   -0.2086   -6.3825   -1.5519 O   0  0  0  0  0  0  0  0  0  0  0  0
    1.4751   -6.3646   -3.1946 C   0  0  0  0  0  0  0  0  0  0  0  0
    2.2765   -7.0687   -2.9186 H   0  0  0  0  0  0  0  0  0  0  0  0
    0.7988   -6.9360   -3.8504 H   0  0  0  0  0  0  0  0  0  0  0  0
    1.9556   -5.6216   -3.8511 H   0  0  0  0  0  0  0  0  0  0  0  0
    1.3322   -4.6359   -1.5106 N   0  0  0  0  0  0  0  0  0  0  0  0
    0.8124   -3.9290   -0.3698 C   0  0  2  0  0  0  0  0  0  0  0  0
    1.0666   -2.4424   -0.5818 C   0  0  0  0  0  0  0  0  0  0  0  0
    2.0598   -2.0076   -1.1610 O   0  0  0  0  0  0  0  0  0  0  0  0
    1.4560   -4.4118    0.9207 C   0  0  0  0  0  0  0  0  0  0  0  0
    2.1528   -4.2578   -1.9805 H   0  0  0  0  0  0  0  0  0  0  0  0
   -0.2667   -4.1160   -0.3467 H   0  0  0  0  0  0  0  0  0  0  0  0
    2.5374   -4.2329    0.9160 H   0  0  0  0  0  0  0  0  0  0  0  0
    1.0390   -3.8932    1.7903 H   0  0  0  0  0  0  0  0  0  0  0  0
    1.2976   -5.4871    1.0566 H   0  0  0  0  0  0  0  0  0  0  0  0
    0.0755   -1.6529   -0.0105 N   0  0  0  0  0  0  0  0  0  0  0  0
    0.1113   -0.2132   -0.0391 C   0  0  2  0  0  0  0  0  0  0  0  0
    1.3800    0.1989   -0.7782 C   0  0  0  0  0  0  0  0  0  0  0  0
    2.3592    0.6781   -0.2102 O   0  0  0  0  0  0  0  0  0  0  0  0
    0.0913    0.3914    1.3684 C   0  0  0  0  0  0  0  0  0  0  0  0
   -1.2384    0.1450    2.0912 C   0  0  0  0  0  0  0  0  0  0  0  0
   -1.2526    0.7490    3.4916 C   0  0  0  0  0  0  0  0  0  0  0  0
   -2.5125    0.4919    4.1857 N   0  3  0  0  0  0  0  0  0  0  0  0
   -2.7353    0.8947    5.5037 C   0  0  0  0  0  0  0  0  0  0  0  0
   -3.9599    0.6157    6.1013 N   0  0  0  0  0  0  0  0  0  0  0  0
   -1.7623    1.5689    6.2342 N   0  0  0  0  0  0  0  0  0  0  0  0
   -0.7323   -2.1024    0.4149 H   0  0  0  0  0  0  0  0  0  0  0  0
   -0.7609    0.1148   -0.6160 H   0  0  0  0  0  0  0  0  0  0  0  0
    0.2748    1.4707    1.3048 H   0  0  0  0  0  0  0  0  0  0  0  0
    0.9129   -0.0275    1.9645 H   0  0  0  0  0  0  0  0  0  0  0  0
   -2.0609    0.5675    1.5017 H   0  0  0  0  0  0  0  0  0  0  0  0
   -1.4163   -0.9331    2.1768 H   0  0  0  0  0  0  0  0  0  0  0  0
   -0.4539    0.3037    4.0927 H   0  0  0  0  0  0  0  0  0  0  0  0
   -1.1012    1.8320    3.4519 H   0  0  0  0  0  0  0  0  0  0  0  0
   -3.2628    0.0020    3.7016 H   0  0  0  0  0  0  0  0  0  0  0  0
   -4.1544    0.8955    7.0597 H   0  0  0  0  0  0  0  0  0  0  0  0
   -4.6932    0.1243    5.5959 H   0  0  0  0  0  0  0  0  0  0  0  0
   -1.9195    1.8644    7.1943 H   0  0  0  0  0  0  0  0  0  0  0  0
   -0.8574    1.7862    5.8234 H   0  0  0  0  0  0  0  0  0  0  0  0
    1.2694    0.0139   -2.1493 N   0  0  0  0  0  0  0  0  0  0  0  0
    2.3164    0.3724   -3.0781 C   0  0  2  0  0  0  0  0  0  0  0  0
    1.6600    0.8056   -4.3823 C   0  0  0  0  0  0  0  0  0  0  0  0
    0.6195    0.3078   -4.8073 O   0  0  0  0  0  0  0  0  0  0  0  0
    3.2719   -0.7878   -3.3096 C   0  0  0  0  0  0  0  0  0  0  0  0
    0.4325   -0.4200   -2.5276 H   0  0  0  0  0  0  0  0  0  0  0  0
    2.8520    1.2209   -2.6387 H   0  0  0  0  0  0  0  0  0  0  0  0
    2.7531   -1.6474   -3.7495 H   0  0  0  0  0  0  0  0  0  0  0  0
    4.0808   -0.5056   -3.9914 H   0  0  0  0  0  0  0  0  0  0  0  0
    3.7204   -1.1175   -2.3662 H   0  0  0  0  0  0  0  0  0  0  0  0
    2.3957    1.7833   -5.0373 N   0  0  0  0  0  0  0  0  0  0  0  0
    2.0038    2.3283   -6.3161 C   0  0  0  0  0  0  0  0  0  0  0  0
    3.2246    2.1667   -4.5926 H   0  0  0  0  0  0  0  0  0  0  0  0
    2.4896    1.7591   -7.1223 H   0  0  0  0  0  0  0  0  0  0  0  0
    0.9114    2.2585   -6.4250 H   0  0  0  0  0  0  0  0  0  0  0  0
    2.3116    3.3827   -6.3750 H   0  0  0  0  0  0  0  0  0  0  0  0
  1  3  1  0  0  0  0
  1  7  1  0  0  0  0
  1  2  2  0  0  0  0
 42 43  1  0  0  0  0
 43 51  1  0  0  0  0
 43 44  2  0  0  0  0
  8  9  1  0  0  0  0
  9 17  1  0  0  0  0
  9 10  2  0  0  0  0
 18 19  1  0  0  0  0
 19 41  1  0  0  0  0
 19 20  2  0  0  0  0
 25 26  1  0  0  0  0
 25 27  1  0  0  0  0
 24 25  2  0  0  0  0
 42 45  1  0  0  0  0
  8 11  1  0  0  0  0
 51 52  1  0  0  0  0
 21 22  1  0  0  0  0
 22 23  1  0  0  0  0
 18 21  1  0  0  0  0
 23 24  1  0  0  0  0
 41 42  1  0  0  0  0
  7  8  1  0  0  0  0
 17 18  1  0  0  0  0
  3  4  1  0  0  0  0
  3  5  1  0  0  0  0
  3  6  1  0  0  0  0
 45 48  1  0  0  0  0
 45 49  1  0  0  0  0
 45 50  1  0  0  0  0
 11 14  1  0  0  0  0
 11 15  1  0  0  0  0
 11 16  1  0  0  0  0
 52 54  1  0  0  0  0
 52 55  1  0  0  0  0
 52 56  1  0  0  0  0
 22 32  1  0  0  0  0
 22 33  1  0  0  0  0
 21 30  1  0  0  0  0
 21 31  1  0  0  0  0
 23 34  1  0  0  0  0
 23 35  1  0  0  0  0
 42 47  1  0  0  0  0
  8 13  1  0  0  0  0
 18 29  1  0  0  0  0
 26 37  1  0  0  0  0
 26 38  1  0  0  0  0
 27 39  1  0  0  0  0
 27 40  1  0  0  0  0
 51 53  1  0  0  0  0
  7 12  1  0  0  0  0
 41 46  1  0  0  0  0
 17 28  1  0  0  0  0
 24 36  1  0  0  0  0
M  CHG  1  24   1
M  END
$$$$

  -OEChem-05262214473D

 56 55  0     1  0  0  0  0  0999 V2000
    0.7735   -5.8042   -2.0022 C   0  0  0  0  0  0  0  0  0  0  0  0
   -0.2086   -6.3825   -1.5519 O   0  0  0  0  0  0  0  0  0  0  0  0
    1.4751   -6.3646   -3.1946 C   0  0  0  0  0  0  0  0  0  0  0  0
    2.2765   -7.0687   -2.9186 H   0  0  0  0  0  0  0  0  0  0  0  0
    0.7988   -6.9360   -3.8504 H   0  0  0  0  0  0  0  0  0  0  0  0
    1.9556   -5.6216   -3.8511 H   0  0  0  0  0  0  0  0  0  0  0  0
    1.3322   -4.6359   -1.5106 N   0  0  0  0  0  0  0  0  0  0  0  0
    0.8124   -3.9290   -0.3698 C   0  0  2  0  0  0  0  0  0  0  0  0
    1.0666   -2.4424   -0.5818 C   0  0  0  0  0  0  0  0  0  0  0  0
    2.0598   -2.0076   -1.1610 O   0  0  0  0  0  0  0  0  0  0  0  0
    1.4560   -4.4118    0.9207 C   0  0  0  0  0  0  0  0  0  0  0  0
    2.1528   -4.2578   -1.9805 H   0  0  0  0  0  0  0  0  0  0  0  0
   -0.2667   -4.1160   -0.3467 H   0  0  0  0  0  0  0  0  0  0  0  0
    2.5374   -4.2329    0.9160 H   0  0  0  0  0  0  0  0  0  0  0  0
    1.0390   -3.8932    1.7903 H   0  0  0  0  0  0  0  0  0  0  0  0
    1.2976   -5.4871    1.0566 H   0  0  0  0  0  0  0  0  0  0  0  0
    0.0755   -1.6529   -0.0105 N   0  0  0  0  0  0  0  0  0  0  0  0
    0.1113   -0.2132   -0.0391 C   0  0  2  0  0  0  0  0  0  0  0  0
    1.3800    0.1989   -0.7782 C   0  0  0  0  0  0  0  0  0  0  0  0
    2.4447    0.4228   -0.2059 O   0  0  0  0  0  0  0  0  0  0  0  0
    0.0913    0.3914    1.3684 C   0  0  0  0  0  0  0  0  0  0  0  0
   -1.2384    0.1450    2.0912 C   0  0  0  0  0  0  0  0  0  0  0  0
   -1.2526    0.7490    3.4916 C   0  0  0  0  0  0  0  0  0  0  0  0
   -2.5125    0.4919    4.1857 N   0  3  0  0  0  0  0  0  0  0  0  0
   -2.7353    0.8947    5.5037 C   0  0  0  0  0  0  0  0  0  0  0  0
   -3.9599    0.6157    6.1013 N   0  0  0  0  0  0  0  0  0  0  0  0
   -1.7623    1.5689    6.2342 N   0  0  0  0  0  0  0  0  0  0  0  0
   -0.7323   -2.1024    0.4149 H   0  0  0  0  0  0  0  0  0  0  0  0
   -0.7609    0.1148   -0.6160 H   0  0  0  0  0  0  0  0  0  0  0  0
    0.2748    1.4707    1.3048 H   0  0  0  0  0  0  0  0  0  0  0  0
    0.9129   -0.0275    1.9645 H   0  0  0  0  0  0  0  0  0  0  0  0
   -2.0609    0.5675    1.5017 H   0  0  0  0  0  0  0  0  0  0  0  0
   -1.4163   -0.9331    2.1768 H   0  0  0  0  0  0  0  0  0  0  0  0
   -0.4539    0.3037    4.0927 H   0  0  0  0  0  0  0  0  0  0  0  0
   -1.1012    1.8320    3.4519 H   0  0  0  0  0  0  0  0  0  0  0  0
   -3.2628    0.0020    3.7016 H   0  0  0  0  0  0  0  0  0  0  0  0
   -4.1544    0.8955    7.0597 H   0  0  0  0  0  0  0  0  0  0  0  0
   -4.6932    0.1243    5.5959 H   0  0  0  0  0  0  0  0  0  0  0  0
   -1.9195    1.8644    7.1943 H   0  0  0  0  0  0  0  0  0  0  0  0
   -0.8574    1.7862    5.8234 H   0  0  0  0  0  0  0  0  0  0  0  0
    1.1688    0.3341   -2.1433 N   0  0  0  0  0  0  0  0  0  0  0  0
    2.2003    0.7621   -3.0599 C   0  0  2  0  0  0  0  0  0  0  0  0
    1.5352    1.5456   -4.1839 C   0  0  0  0  0  0  0  0  0  0  0  0
    0.4155    1.2794   -4.6157 O   0  0  0  0  0  0  0  0  0  0  0  0
    2.9784   -0.4231   -3.6100 C   0  0  0  0  0  0  0  0  0  0  0  0
    0.2617    0.0956   -2.5332 H   0  0  0  0  0  0  0  0  0  0  0  0
    2.8680    1.4242   -2.4979 H   0  0  0  0  0  0  0  0  0  0  0  0
    2.3260   -1.0978   -4.1762 H   0  0  0  0  0  0  0  0  0  0  0  0
    3.7781   -0.0952   -4.2823 H   0  0  0  0  0  0  0  0  0  0  0  0
    3.4314   -1.0025   -2.7982 H   0  0  0  0  0  0  0  0  0  0  0  0
    2.3565    2.5497   -4.6772 N   0  0  0  0  0  0  0  0  0  0  0  0
    1.9694    3.4047   -5.7749 C   0  0  0  0  0  0  0  0  0  0  0  0
    3.2527    2.7256   -4.2326 H   0  0  0  0  0  0  0  0  0  0  0  0
    2.3290    2.9734   -6.7208 H   0  0  0  0  0  0  0  0  0  0  0  0
    0.8730    3.4897   -5.8043 H   0  0  0  0  0  0  0  0  0  0  0  0
    2.4109    4.4025   -5.6357 H   0  0  0  0  0  0  0  0  0  0  0  0
  1  3  1  0  0  0  0
  1  7  1  0  0  0  0
  1  2  2  0  0  0  0
 42 43  1  0  0  0  0
 43 51  1  0  0  0  0
 43 44  2  0  0  0  0
  8  9  1  0  0  0  0
  9 17  1  0  0  0  0
  9 10  2  0  0  0  0
 18 19  1  0  0  0  0
 19 41  1  0  0  0  0
 19 20  2  0  0  0  0
 25 26  1  0  0  0  0
 25 27  1  0  0  0  0
 24 25  2  0  0  0  0
 42 45  1  0  0  0  0
  8 11  1  0  0  0  0
 51 52  1  0  0  0  0
 21 22  1  0  0  0  0
 22 23  1  0  0  0  0
 18 21  1  0  0  0  0
 23 24  1  0  0  0  0
 41 42  1  0  0  0  0
  7  8  1  0  0  0  0
 17 18  1  0  0  0  0
  3  4  1  0  0  0  0
  3  5  1  0  0  0  0
  3  6  1  0  0  0  0
 45 48  1  0  0  0  0
 45 49  1  0  0  0  0
 45 50  1  0  0  0  0
 11 14  1  0  0  0  0
 11 15  1  0  0  0  0
 11 16  1  0  0  0  0
 52 54  1  0  0  0  0
 52 55  1  0  0  0  0
 52 56  1  0  0  0  0
 22 32  1  0  0  0  0
 22 33  1  0  0  0  0
 21 30  1  0  0  0  0
 21 31  1  0  0  0  0
 23 34  1  0  0  0  0
 23 35  1  0  0  0  0
 42 47  1  0  0  0  0
  8 13  1  0  0  0  0
 18 29  1  0  0  0  0
 26 37  1  0  0  0  0
 26 38  1  0  0  0  0
 27 39  1  0  0  0  0
 27 40  1  0  0  0  0
 51 53  1  0  0  0  0
  7 12  1  0  0  0  0
 41 46  1  0  0  0  0
 17 28  1  0  0  0  0
 24 36  1  0  0  0  0
M  CHG  1  24   1
M  END
$$$$

  -OEChem-05262214473D

 56 55  0     1  0  0  0  0  0999 V2000
    0.7735   -5.8042   -2.0022 C   0  0  0  0  0  0  0  0  0  0  0  0
   -0.2086   -6.3825   -1.5519 O   0  0  0  0  0  0  0  0  0  0  0  0
    1.4751   -6.3646   -3.1946 C   0  0  0  0  0  0  0  0  0  0  0  0
    2.2765   -7.0687   -2.9186 H   0  0  0  0  0  0  0  0  0  0  0  0
    0.7988   -6.9360   -3.8504 H   0  0  0  0  0  0  0  0  0  0  0  0
    1.9556   -5.6216   -3.8511 H   0  0  0  0  0  0  0  0  0  0  0  0
    1.3322   -4.6359   -1.5106 N   0  0  0  0  0  0  0  0  0  0  0  0
    0.8124   -3.9290   -0.3698 C   0  0  2  0  0  0  0  0  0  0  0  0
    1.0666   -2.4424   -0.5818 C   0  0  0  0  0  0  0  0  0  0  0  0
    2.0598   -2.0076   -1.1610 O   0  0  0  0  0  0  0  0  0  0  0  0
    1.4560   -4.4118    0.9207 C   0  0  0  0  0  0  0  0  0  0  0  0
    2.1528   -4.2578   -1.9805 H   0  0  0  0  0  0  0  0  0  0  0  0
   -0.2667   -4.1160   -0.3467 H   0  0  0  0  0  0  0  0  0  0  0  0
    2.5374   -4.2329    0.9160 H   0  0  0  0  0  0  0  0  0  0  0  0
    1.0390   -3.8932    1.7903 H   0  0  0  0  0  0  0  0  0  0  0  0
    1.2976   -5.4871    1.0566 H   0  0  0  0  0  0  0  0  0  0  0  0
    0.0755   -1.6529   -0.0105 N   0  0  0  0  0  0  0  0  0  0  0  0
    0.1113   -0.2132   -0.0391 C   0  0  2  0  0  0  0  0  0  0  0  0
    1.3800    0.1989   -0.7782 C   0  0  0  0  0  0  0  0  0  0  0  0
    2.4955    0.1646   -0.2627 O   0  0  0  0  0  0  0  0  0  0  0  0
    0.0913    0.3914    1.3684 C   0  0  0  0  0  0  0  0  0  0  0  0
   -1.2384    0.1450    2.0912 C   0  0  0  0  0  0  0  0  0  0  0  0
   -1.2526    0.7490    3.4916 C   0  0  0  0  0  0  0  0  0  0  0  0
   -2.5125    0.4919    4.1857 N   0  3  0  0  0  0  0  0  0  0  0  0
   -2.7353    0.8947    5.5037 C   0  0  0  0  0  0  0  0  0  0  0  0
   -3.9599    0.6157    6.1013 N   0  0  0  0  0  0  0  0  0  0  0  0
   -1.7623    1.5689    6.2342 N   0  0  0  0  0  0  0  0  0  0  0  0
   -0.7323   -2.1024    0.4149 H   0  0  0  0  0  0  0  0  0  0  0  0
   -0.7609    0.1148   -0.6160 H   0  0  0  0  0  0  0  0  0  0  0  0
    0.2748    1.4707    1.3048 H   0  0  0  0  0  0  0  0  0  0  0  0
    0.9129   -0.0275    1.9645 H   0  0  0  0  0  0  0  0  0  0  0  0
   -2.0609    0.5675    1.5017 H   0  0  0  0  0  0  0  0  0  0  0  0
   -1.4163   -0.9331    2.1768 H   0  0  0  0  0  0  0  0  0  0  0  0
   -0.4539    0.3037    4.0927 H   0  0  0  0  0  0  0  0  0  0  0  0
   -1.1012    1.8320    3.4519 H   0  0  0  0  0  0  0  0  0  0  0  0
   -3.2628    0.0020    3.7016 H   0  0  0  0  0  0  0  0  0  0  0  0
   -4.1544    0.8955    7.0597 H   0  0  0  0  0  0  0  0  0  0  0  0
   -4.6932    0.1243    5.5959 H   0  0  0  0  0  0  0  0  0  0  0  0
   -1.9195    1.8644    7.1943 H   0  0  0  0  0  0  0  0  0  0  0  0
   -0.8574    1.7862    5.8234 H   0  0  0  0  0  0  0  0  0  0  0  0
    1.1123    0.6547   -2.0615 N   0  0  0  0  0  0  0  0  0  0  0  0
    2.1384    1.1492   -2.9503 C   0  0  2  0  0  0  0  0  0  0  0  0
    1.5214    2.2332   -3.8241 C   0  0  0  0  0  0  0  0  0  0  0  0
    0.3537    2.2023   -4.2071 O   0  0  0  0  0  0  0  0  0  0  0  0
    2.7196    0.0306   -3.8011 C   0  0  0  0  0  0  0  0  0  0  0  0
    0.1611    0.6163   -2.4156 H   0  0  0  0  0  0  0  0  0  0  0  0
    2.9188    1.5882   -2.3192 H   0  0  0  0  0  0  0  0  0  0  0  0
    1.9524   -0.4214   -4.4402 H   0  0  0  0  0  0  0  0  0  0  0  0
    3.5168    0.4018   -4.4536 H   0  0  0  0  0  0  0  0  0  0  0  0
    3.1364   -0.7622   -3.1706 H   0  0  0  0  0  0  0  0  0  0  0  0
    2.4400    3.2173   -4.1616 N   0  0  0  0  0  0  0  0  0  0  0  0
    2.1089    4.3322   -5.0180 C   0  0  0  0  0  0  0  0  0  0  0  0
    3.3752    3.1845   -3.7665 H   0  0  0  0  0  0  0  0  0  0  0  0
    2.3542    4.0800   -6.0603 H   0  0  0  0  0  0  0  0  0  0  0  0
    1.0338    4.5501   -4.9369 H   0  0  0  0  0  0  0  0  0  0  0  0
    2.6865    5.2159   -4.7090 H   0  0  0  0  0  0  0  0  0  0  0  0
  1  3  1  0  0  0  0
  1  7  1  0  0  0  0
  1  2  2  0  0  0  0
 42 43  1  0  0  0  0
 43 51  1  0  0  0  0
 43 44  2  0  0  0  0
  8  9  1  0  0  0  0
  9 17  1  0  0  0  0
  9 10  2  0  0  0  0
 18 19  1  0  0  0  0
 19 41  1  0  0  0  0
 19 20  2  0  0  0  0
 25 26  1  0  0  0  0
 25 27  1  0  0  0  0
 24 25  2  0  0  0  0
 42 45  1  0  0  0  0
  8 11  1  0  0  0  0
 51 52  1  0  0  0  0
 21 22  1  0  0  0  0
 22 23  1  0  0  0  0
 18 21  1  0  0  0  0
 23 24  1  0  0  0  0
 41 42  1  0  0  0  0
  7  8  1  0  0  0  0
 17 18  1  0  0  0  0
  3  4  1  0  0  0  0
  3  5  1  0  0  0  0
  3  6  1  0  0  0  0
 45 48  1  0  0  0  0
 45 49  1  0  0  0  0
 45 50  1  0  0  0  0
 11 14  1  0  0  0  0
 11 15  1  0  0  0  0
 11 16  1  0  0  0  0
 52 54  1  0  0  0  0
 52 55  1  0  0  0  0
 52 56  1  0  0  0  0
 22 32  1  0  0  0  0
 22 33  1  0  0  0  0
 21 30  1  0  0  0  0
 21 31  1  0  0  0  0
 23 34  1  0  0  0  0
 23 35  1  0  0  0  0
 42 47  1  0  0  0  0
  8 13  1  0  0  0  0
 18 29  1  0  0  0  0
 26 37  1  0  0  0  0
 26 38  1  0  0  0  0
 27 39  1  0  0  0  0
 27 40  1  0  0  0  0
 51 53  1  0  0  0  0
  7 12  1  0  0  0  0
 41 46  1  0  0  0  0
 17 28  1  0  0  0  0
 24 36  1  0  0  0  0
M  CHG  1  24   1
M  END
$$$$

  -OEChem-05262214473D

 56 55  0     1  0  0  0  0  0999 V2000
    0.7735   -5.8042   -2.0022 C   0  0  0  0  0  0  0  0  0  0  0  0
   -0.2086   -6.3825   -1.5519 O   0  0  0  0  0  0  0  0  0  0  0  0
    1.4751   -6.3646   -3.1946 C   0  0  0  0  0  0  0  0  0  0  0  0
    2.2765   -7.0687   -2.9186 H   0  0  0  0  0  0  0  0  0  0  0  0
    0.7988   -6.9360   -3.8504 H   0  0  0  0  0  0  0  0  0  0  0  0
    1.9556   -5.6216   -3.8511 H   0  0  0  0  0  0  0  0  0  0  0  0
    1.3322   -4.6359   -1.5106 N   0  0  0  0  0  0  0  0  0  0  0  0
    0.8124   -3.9290   -0.3698 C   0  0  2  0  0  0  0  0  0  0  0  0
    1.0666   -2.4424   -0.5818 C   0  0  0  0  0  0  0  0  0  0  0  0
    2.0598   -2.0076   -1.1610 O   0  0  0  0  0  0  0  0  0  0  0  0
    1.4560   -4.4118    0.9207 C   0  0  0  0  0  0  0  0  0  0  0  0
    2.1528   -4.2578   -1.9805 H   0  0  0  0  0  0  0  0  0  0  0  0
   -0.2667   -4.1160   -0.3467 H   0  0  0  0  0  0  0  0  0  0  0  0
    2.5374   -4.2329    0.9160 H   0  0  0  0  0  0  0  0  0  0  0  0
    1.0390   -3.8932    1.7903 H   0  0  0  0  0  0  0  0  0  0  0  0
    1.2976   -5.4871    1.0566 H   0  0  0  0  0  0  0  0  0  0  0  0
    0.0755   -1.6529   -0.0105 N   0  0  0  0  0  0  0  0  0  0  0  0
    0.1113   -0.2132   -0.0391 C   0  0  2  0  0  0  0  0  0  0  0  0
    1.3800    0.1989   -0.7782 C   0  0  0  0  0  0  0  0  0  0  0  0
    2.5082   -0.0790   -0.3767 O   0  0  0  0  0  0  0  0  0  0  0  0
    0.0913    0.3914    1.3684 C   0  0  0  0  0  0  0  0  0  0  0  0
   -1.2384    0.1450    2.0912 C   0  0  0  0  0  0  0  0  0  0  0  0
   -1.2526    0.7490    3.4916 C   0  0  0  0  0  0  0  0  0  0  0  0
   -2.5125    0.4919    4.1857 N   0  3  0  0  0  0  0  0  0  0  0  0
   -2.7353    0.8947    5.5037 C   0  0  0  0  0  0  0  0  0  0  0  0
   -3.9599    0.6157    6.1013 N   0  0  0  0  0  0  0  0  0  0  0  0
   -1.7623    1.5689    6.2342 N   0  0  0  0  0  0  0  0  0  0  0  0
   -0.7323   -2.1024    0.4149 H   0  0  0  0  0  0  0  0  0  0  0  0
   -0.7609    0.1148   -0.6160 H   0  0  0  0  0  0  0  0  0  0  0  0
    0.2748    1.4707    1.3048 H   0  0  0  0  0  0  0  0  0  0  0  0
    0.9129   -0.0275    1.9645 H   0  0  0  0  0  0  0  0  0  0  0  0
   -2.0609    0.5675    1.5017 H   0  0  0  0  0  0  0  0  0  0  0  0
   -1.4163   -0.9331    2.1768 H   0  0  0  0  0  0  0  0  0  0  0  0
   -0.4539    0.3037    4.0927 H   0  0  0  0  0  0  0  0  0  0  0  0
   -1.1012    1.8320    3.4519 H   0  0  0  0  0  0  0  0  0  0  0  0
   -3.2628    0.0020    3.7016 H   0  0  0  0  0  0  0  0  0  0  0  0
   -4.1544    0.8955    7.0597 H   0  0  0  0  0  0  0  0  0  0  0  0
   -4.6932    0.1243    5.5959 H   0  0  0  0  0  0  0  0  0  0  0  0
   -1.9195    1.8644    7.1943 H   0  0  0  0  0  0  0  0  0  0  0  0
   -0.8574    1.7862    5.8234 H   0  0  0  0  0  0  0  0  0  0  0  0
    1.1036    0.9539   -1.9095 N   0  0  0  0  0  0  0  0  0  0  0  0
    2.1348    1.5072   -2.7568 C   0  0  2  0  0  0  0  0  0  0  0  0
    1.6194    2.8218   -3.3276 C   0  0  0  0  0  0  0  0  0  0  0  0
    0.4383    3.0135   -3.6094 O   0  0  0  0  0  0  0  0  0  0  0  0
    2.5132    0.5426   -3.8698 C   0  0  0  0  0  0  0  0  0  0  0  0
    0.1374    1.1065   -2.1829 H   0  0  0  0  0  0  0  0  0  0  0  0
    3.0009    1.7018   -2.1149 H   0  0  0  0  0  0  0  0  0  0  0  0
    1.6580    0.3356   -4.5234 H   0  0  0  0  0  0  0  0  0  0  0  0
    3.3148    0.9515   -4.4939 H   0  0  0  0  0  0  0  0  0  0  0  0
    2.8556   -0.4129   -3.4579 H   0  0  0  0  0  0  0  0  0  0  0  0
    2.6404    3.7408   -3.5256 N   0  0  0  0  0  0  0  0  0  0  0  0
    2.4131    5.0476   -4.0970 C   0  0  0  0  0  0  0  0  0  0  0  0
    3.5836    3.5120   -3.2261 H   0  0  0  0  0  0  0  0  0  0  0  0
    2.5636    5.0036   -5.1857 H   0  0  0  0  0  0  0  0  0  0  0  0
    1.3828    5.3674   -3.8821 H   0  0  0  0  0  0  0  0  0  0  0  0
    3.1195    5.7675   -3.6580 H   0  0  0  0  0  0  0  0  0  0  0  0
  1  3  1  0  0  0  0
  1  7  1  0  0  0  0
  1  2  2  0  0  0  0
 42 43  1  0  0  0  0
 43 51  1  0  0  0  0
 43 44  2  0  0  0  0
  8  9  1  0  0  0  0
  9 17  1  0  0  0  0
  9 10  2  0  0  0  0
 18 19  1  0  0  0  0
 19 41  1  0  0  0  0
 19 20  2  0  0  0  0
 25 26  1  0  0  0  0
 25 27  1  0  0  0  0
 24 25  2  0  0  0  0
 42 45  1  0  0  0  0
  8 11  1  0  0  0  0
 51 52  1  0  0  0  0
 21 22  1  0  0  0  0
 22 23  1  0  0  0  0
 18 21  1  0  0  0  0
 23 24  1  0  0  0  0
 41 42  1  0  0  0  0
  7  8  1  0  0  0  0
 17 18  1  0  0  0  0
  3  4  1  0  0  0  0
  3  5  1  0  0  0  0
  3  6  1  0  0  0  0
 45 48  1  0  0  0  0
 45 49  1  0  0  0  0
 45 50  1  0  0  0  0
 11 14  1  0  0  0  0
 11 15  1  0  0  0  0
 11 16  1  0  0  0  0
 52 54  1  0  0  0  0
 52 55  1  0  0  0  0
 52 56  1  0  0  0  0
 22 32  1  0  0  0  0
 22 33  1  0  0  0  0
 21 30  1  0  0  0  0
 21 31  1  0  0  0  0
 23 34  1  0  0  0  0
 23 35  1  0  0  0  0
 42 47  1  0  0  0  0
  8 13  1  0  0  0  0
 18 29  1  0  0  0  0
 26 37  1  0  0  0  0
 26 38  1  0  0  0  0
 27 39  1  0  0  0  0
 27 40  1  0  0  0  0
 51 53  1  0  0  0  0
  7 12  1  0  0  0  0
 41 46  1  0  0  0  0
 17 28  1  0  0  0  0
 24 36  1  0  0  0  0
M  CHG  1  24   1
M  END
$$$$

  -OEChem-05262214473D

 56 55  0     1  0  0  0  0  0999 V2000
    0.7735   -5.8042   -2.0022 C   0  0  0  0  0  0  0  0  0  0  0  0
   -0.2086   -6.3825   -1.5519 O   0  0  0  0  0  0  0  0  0  0  0  0
    1.4751   -6.3646   -3.1946 C   0  0  0  0  0  0  0  0  0  0  0  0
    2.2765   -7.0687   -2.9186 H   0  0  0  0  0  0  0  0  0  0  0  0
    0.7988   -6.9360   -3.8504 H   0  0  0  0  0  0  0  0  0  0  0  0
    1.9556   -5.6216   -3.8511 H   0  0  0  0  0  0  0  0  0  0  0  0
    1.3322   -4.6359   -1.5106 N   0  0  0  0  0  0  0  0  0  0  0  0
    0.8124   -3.9290   -0.3698 C   0  0  2  0  0  0  0  0  0  0  0  0
    1.0666   -2.4424   -0.5818 C   0  0  0  0  0  0  0  0  0  0  0  0
    2.0598   -2.0076   -1.1610 O   0  0  0  0  0  0  0  0  0  0  0  0
    1.4560   -4.4118    0.9207 C   0  0  0  0  0  0  0  0  0  0  0  0
    2.1528   -4.2578   -1.9805 H   0  0  0  0  0  0  0  0  0  0  0  0
   -0.2667   -4.1160   -0.3467 H   0  0  0  0  0  0  0  0  0  0  0  0
    2.5374   -4.2329    0.9160 H   0  0  0  0  0  0  0  0  0  0  0  0
    1.0390   -3.8932    1.7903 H   0  0  0  0  0  0  0  0  0  0  0  0
    1.2976   -5.4871    1.0566 H   0  0  0  0  0  0  0  0  0  0  0  0
    0.0755   -1.6529   -0.0105 N   0  0  0  0  0  0  0  0  0  0  0  0
    0.1113   -0.2132   -0.0391 C   0  0  2  0  0  0  0  0  0  0  0  0
    1.3800    0.1989   -0.7782 C   0  0  0  0  0  0  0  0  0  0  0  0
    2.4819   -0.2913   -0.5402 O   0  0  0  0  0  0  0  0  0  0  0  0
    0.0913    0.3914    1.3684 C   0  0  0  0  0  0  0  0  0  0  0  0
   -1.2384    0.1450    2.0912 C   0  0  0  0  0  0  0  0  0  0  0  0
   -1.2526    0.7490    3.4916 C   0  0  0  0  0  0  0  0  0  0  0  0
   -2.5125    0.4919    4.1857 N   0  3  0  0  0  0  0  0  0  0  0  0
   -2.7353    0.8947    5.5037 C   0  0  0  0  0  0  0  0  0  0  0  0
   -3.9599    0.6157    6.1013 N   0  0  0  0  0  0  0  0  0  0  0  0
   -1.7623    1.5689    6.2342 N   0  0  0  0  0  0  0  0  0  0  0  0
   -0.7323   -2.1024    0.4149 H   0  0  0  0  0  0  0  0  0  0  0  0
   -0.7609    0.1148   -0.6160 H   0  0  0  0  0  0  0  0  0  0  0  0
    0.2748    1.4707    1.3048 H   0  0  0  0  0  0  0  0  0  0  0  0
    0.9129   -0.0275    1.9645 H   0  0  0  0  0  0  0  0  0  0  0  0
   -2.0609    0.5675    1.5017 H   0  0  0  0  0  0  0  0  0  0  0  0
   -1.4163   -0.9331    2.1768 H   0  0  0  0  0  0  0  0  0  0  0  0
   -0.4539    0.3037    4.0927 H   0  0  0  0  0  0  0  0  0  0  0  0
   -1.1012    1.8320    3.4519 H   0  0  0  0  0  0  0  0  0  0  0  0
   -3.2628    0.0020    3.7016 H   0  0  0  0  0  0  0  0  0  0  0  0
   -4.1544    0.8955    7.0597 H   0  0  0  0  0  0  0  0  0  0  0  0
   -4.6932    0.1243    5.5959 H   0  0  0  0  0  0  0  0  0  0  0  0
   -1.9195    1.8644    7.1943 H   0  0  0  0  0  0  0  0  0  0  0  0
   -0.8574    1.7862    5.8234 H   0  0  0  0  0  0  0  0  0  0  0  0
    1.1434    1.2112   -1.6977 N   0  0  0  0  0  0  0  0  0  0  0  0
    2.1898    1.8119   -2.4925 C   0  0  2  0  0  0  0  0  0  0  0  0
    1.8227    3.2710   -2.7281 C   0  0  0  0  0  0  0  0  0  0  0  0
    0.6637    3.6577   -2.8633 O   0  0  0  0  0  0  0  0  0  0  0  0
    2.3733    1.0777   -3.8116 C   0  0  0  0  0  0  0  0  0  0  0  0
    0.1922    1.5329   -1.8509 H   0  0  0  0  0  0  0  0  0  0  0  0
    3.1088    1.7572   -1.8988 H   0  0  0  0  0  0  0  0  0  0  0  0
    1.4627    1.1217   -4.4203 H   0  0  0  0  0  0  0  0  0  0  0  0
    3.1857    1.5165   -4.4002 H   0  0  0  0  0  0  0  0  0  0  0  0
    2.6080    0.0216   -3.6405 H   0  0  0  0  0  0  0  0  0  0  0  0
    2.9441    4.0843   -2.8127 N   0  0  0  0  0  0  0  0  0  0  0  0
    2.8610    5.5022   -3.0745 C   0  0  0  0  0  0  0  0  0  0  0  0
    3.8638    3.6858   -2.6481 H   0  0  0  0  0  0  0  0  0  0  0  0
    2.9429    5.6811   -4.1568 H   0  0  0  0  0  0  0  0  0  0  0  0
    1.8961    5.8860   -2.7116 H   0  0  0  0  0  0  0  0  0  0  0  0
    3.6805    6.0197   -2.5544 H   0  0  0  0  0  0  0  0  0  0  0  0
  1  3  1  0  0  0  0
  1  7  1  0  0  0  0
  1  2  2  0  0  0  0
 42 43  1  0  0  0  0
 43 51  1  0  0  0  0
 43 44  2  0  0  0  0
  8  9  1  0  0  0  0
  9 17  1  0  0  0  0
  9 10  2  0  0  0  0
 18 19  1  0  0  0  0
 19 41  1  0  0  0  0
 19 20  2  0  0  0  0
 25 26  1  0  0  0  0
 25 27  1  0  0  0  0
 24 25  2  0  0  0  0
 42 45  1  0  0  0  0
  8 11  1  0  0  0  0
 51 52  1  0  0  0  0
 21 22  1  0  0  0  0
 22 23  1  0  0  0  0
 18 21  1  0  0  0  0
 23 24  1  0  0  0  0
 41 42  1  0  0  0  0
  7  8  1  0  0  0  0
 17 18  1  0  0  0  0
  3  4  1  0  0  0  0
  3  5  1  0  0  0  0
  3  6  1  0  0  0  0
 45 48  1  0  0  0  0
 45 49  1  0  0  0  0
 45 50  1  0  0  0  0
 11 14  1  0  0  0  0
 11 15  1  0  0  0  0
 11 16  1  0  0  0  0
 52 54  1  0  0  0  0
 52 55  1  0  0  0  0
 52 56  1  0  0  0  0
 22 32  1  0  0  0  0
 22 33  1  0  0  0  0
 21 30  1  0  0  0  0
 21 31  1  0  0  0  0
 23 34  1  0  0  0  0
 23 35  1  0  0  0  0
 42 47  1  0  0  0  0
  8 13  1  0  0  0  0
 18 29  1  0  0  0  0
 26 37  1  0  0  0  0
 26 38  1  0  0  0  0
 27 39  1  0  0  0  0
 27 40  1  0  0  0  0
 51 53  1  0  0  0  0
  7 12  1  0  0  0  0
 41 46  1  0  0  0  0
 17 28  1  0  0  0  0
 24 36  1  0  0  0  0
M  CHG  1  24   1
M  END
$$$$

  -OEChem-05262214473D

 56 55  0     1  0  0  0  0  0999 V2000
    0.7735   -5.8042   -2.0022 C   0  0  0  0  0  0  0  0  0  0  0  0
   -0.2086   -6.3825   -1.5519 O   0  0  0  0  0  0  0  0  0  0  0  0
    1.4751   -6.3646   -3.1946 C   0  0  0  0  0  0  0  0  0  0  0  0
    2.2765   -7.0687   -2.9186 H   0  0  0  0  0  0  0  0  0  0  0  0
    0.7988   -6.9360   -3.8504 H   0  0  0  0  0  0  0  0  0  0  0  0
    1.9556   -5.6216   -3.8511 H   0  0  0  0  0  0  0  0  0  0  0  0
    1.3322   -4.6359   -1.5106 N   0  0  0  0  0  0  0  0  0  0  0  0
    0.8124   -3.9290   -0.3698 C   0  0  2  0  0  0  0  0  0  0  0  0
    1.0666   -2.4424   -0.5818 C   0  0  0  0  0  0  0  0  0  0  0  0
    2.0598   -2.0076   -1.1610 O   0  0  0  0  0  0  0  0  0  0  0  0
    1.4560   -4.4118    0.9207 C   0  0  0  0  0  0  0  0  0  0  0  0
    2.1528   -4.2578   -1.9805 H   0  0  0  0  0  0  0  0  0  0  0  0
   -0.2667   -4.1160   -0.3467 H   0  0  0  0  0  0  0  0  0  0  0  0
    2.5374   -4.2329    0.9160 H   0  0  0  0  0  0  0  0  0  0  0  0
    1.0390   -3.8932    1.7903 H   0  0  0  0  0  0  0  0  0  0  0  0
    1.2976   -5.4871    1.0566 H   0  0  0  0  0  0  0  0  0  0  0  0
    0.0755   -1.6529   -0.0105 N   0  0  0  0  0  0  0  0  0  0  0  0
    0.1113   -0.2132   -0.0391 C   0  0  2  0  0  0  0  0  0  0  0  0
    1.3800    0.1989   -0.7782 C   0  0  0  0  0  0  0  0  0  0  0  0
    2.4185   -0.4579   -0.7420 O   0  0  0  0  0  0  0  0  0  0  0  0
    0.0913    0.3914    1.3684 C   0  0  0  0  0  0  0  0  0  0  0  0
   -1.2384    0.1450    2.0912 C   0  0  0  0  0  0  0  0  0  0  0  0
   -1.2526    0.7490    3.4916 C   0  0  0  0  0  0  0  0  0  0  0  0
   -2.5125    0.4919    4.1857 N   0  3  0  0  0  0  0  0  0  0  0  0
   -2.7353    0.8947    5.5037 C   0  0  0  0  0  0  0  0  0  0  0  0
   -3.9599    0.6157    6.1013 N   0  0  0  0  0  0  0  0  0  0  0  0
   -1.7623    1.5689    6.2342 N   0  0  0  0  0  0  0  0  0  0  0  0
   -0.7323   -2.1024    0.4149 H   0  0  0  0  0  0  0  0  0  0  0  0
   -0.7609    0.1148   -0.6160 H   0  0  0  0  0  0  0  0  0  0  0  0
    0.2748    1.4707    1.3048 H   0  0  0  0  0  0  0  0  0  0  0  0
    0.9129   -0.0275    1.9645 H   0  0  0  0  0  0  0  0  0  0  0  0
   -2.0609    0.5675    1.5017 H   0  0  0  0  0  0  0  0  0  0  0  0
   -1.4163   -0.9331    2.1768 H   0  0  0  0  0  0  0  0  0  0  0  0
   -0.4539    0.3037    4.0927 H   0  0  0  0  0  0  0  0  0  0  0  0
   -1.1012    1.8320    3.4519 H   0  0  0  0  0  0  0  0  0  0  0  0
   -3.2628    0.0020    3.7016 H   0  0  0  0  0  0  0  0  0  0  0  0
   -4.1544    0.8955    7.0597 H   0  0  0  0  0  0  0  0  0  0  0  0
   -4.6932    0.1243    5.5959 H   0  0  0  0  0  0  0  0  0  0  0  0
   -1.9195    1.8644    7.1943 H   0  0  0  0  0  0  0  0  0  0  0  0
   -0.8574    1.7862    5.8234 H   0  0  0  0  0  0  0  0  0  0  0  0
    1.2289    1.4092   -1.4405 N   0  0  0  0  0  0  0  0  0  0  0  0
    2.2996    2.0423   -2.1755 C   0  0  2  0  0  0  0  0  0  0  0  0
    2.1173    3.5504   -2.0666 C   0  0  0  0  0  0  0  0  0  0  0  0
    1.0143    4.0911   -2.0197 O   0  0  0  0  0  0  0  0  0  0  0  0
    2.3093    1.5997   -3.6304 C   0  0  0  0  0  0  0  0  0  0  0  0
    0.3219    1.8665   -1.4423 H   0  0  0  0  0  0  0  0  0  0  0  0
    3.2351    1.7507   -1.6857 H   0  0  0  0  0  0  0  0  0  0  0  0
    1.3799    1.8832   -4.1377 H   0  0  0  0  0  0  0  0  0  0  0  0
    3.1385    2.0583   -4.1791 H   0  0  0  0  0  0  0  0  0  0  0  0
    2.4106    0.5116   -3.7060 H   0  0  0  0  0  0  0  0  0  0  0  0
    3.3305    4.2245   -2.0713 N   0  0  0  0  0  0  0  0  0  0  0  0
    3.4222    5.6650   -2.0204 C   0  0  0  0  0  0  0  0  0  0  0  0
    4.1968    3.6941   -2.0720 H   0  0  0  0  0  0  0  0  0  0  0  0
    3.4662    6.0665   -3.0436 H   0  0  0  0  0  0  0  0  0  0  0  0
    2.5390    6.0705   -1.5052 H   0  0  0  0  0  0  0  0  0  0  0  0
    4.3313    5.9553   -1.4733 H   0  0  0  0  0  0  0  0  0  0  0  0
  1  3  1  0  0  0  0
  1  7  1  0  0  0  0
  1  2  2  0  0  0  0
 42 43  1  0  0  0  0
 43 51  1  0  0  0  0
 43 44  2  0  0  0  0
  8  9  1  0  0  0  0
  9 17  1  0  0  0  0
  9 10  2  0  0  0  0
 18 19  1  0  0  0  0
 19 41  1  0  0  0  0
 19 20  2  0  0  0  0
 25 26  1  0  0  0  0
 25 27  1  0  0  0  0
 24 25  2  0  0  0  0
 42 45  1  0  0  0  0
  8 11  1  0  0  0  0
 51 52  1  0  0  0  0
 21 22  1  0  0  0  0
 22 23  1  0  0  0  0
 18 21  1  0  0  0  0
 23 24  1  0  0  0  0
 41 42  1  0  0  0  0
  7  8  1  0  0  0  0
 17 18  1  0  0  0  0
  3  4  1  0  0  0  0
  3  5  1  0  0  0  0
  3  6  1  0  0  0  0
 45 48  1  0  0  0  0
 45 49  1  0  0  0  0
 45 50  1  0  0  0  0
 11 14  1  0  0  0  0
 11 15  1  0  0  0  0
 11 16  1  0  0  0  0
 52 54  1  0  0  0  0
 52 55  1  0  0  0  0
 52 56  1  0  0  0  0
 22 32  1  0  0  0  0
 22 33  1  0  0  0  0
 21 30  1  0  0  0  0
 21 31  1  0  0  0  0
 23 34  1  0  0  0  0
 23 35  1  0  0  0  0
 42 47  1  0  0  0  0
  8 13  1  0  0  0  0
 18 29  1  0  0  0  0
 26 37  1  0  0  0  0
 26 38  1  0  0  0  0
 27 39  1  0  0  0  0
 27 40  1  0  0  0  0
 51 53  1  0  0  0  0
  7 12  1  0  0  0  0
 41 46  1  0  0  0  0
 17 28  1  0  0  0  0
 24 36  1  0  0  0  0
M  CHG  1  24   1
M  END
$$$$

  -OEChem-05262214473D

 56 55  0     1  0  0  0  0  0999 V2000
    0.7735   -5.8042   -2.0022 C   0  0  0  0  0  0  0  0  0  0  0  0
   -0.2086   -6.3825   -1.5519 O   0  0  0  0  0  0  0  0  0  0  0  0
    1.4751   -6.3646   -3.1946 C   0  0  0  0  0  0  0  0  0  0  0  0
    2.2765   -7.0687   -2.9186 H   0  0  0  0  0  0  0  0  0  0  0  0
    0.7988   -6.9360   -3.8504 H   0  0  0  0  0  0  0  0  0  0  0  0
    1.9556   -5.6216   -3.8511 H   0  0  0  0  0  0  0  0  0  0  0  0
    1.3322   -4.6359   -1.5106 N   0  0  0  0  0  0  0  0  0  0  0  0
    0.8124   -3.9290   -0.3698 C   0  0  2  0  0  0  0  0  0  0  0  0
    1.0666   -2.4424   -0.5818 C   0  0  0  0  0  0  0  0  0  0  0  0
    2.0598   -2.0076   -1.1610 O   0  0  0  0  0  0  0  0  0  0  0  0
    1.4560   -4.4118    0.9207 C   0  0  0  0  0  0  0  0  0  0  0  0
    2.1528   -4.2578   -1.9805 H   0  0  0  0  0  0  0  0  0  0  0  0
   -0.2667   -4.1160   -0.3467 H   0  0  0  0  0  0  0  0  0  0  0  0
    2.5374   -4.2329    0.9160 H   0  0  0  0  0  0  0  0  0  0  0  0
    1.0390   -3.8932    1.7903 H   0  0  0  0  0  0  0  0  0  0  0  0
    1.2976   -5.4871    1.0566 H   0  0  0  0  0  0  0  0  0  0  0  0
    0.0755   -1.6529   -0.0105 N   0  0  0  0  0  0  0  0  0  0  0  0
    0.1113   -0.2132   -0.0391 C   0  0  2  0  0  0  0  0  0  0  0  0
    1.3800    0.1989   -0.7782 C   0  0  0  0  0  0  0  0  0  0  0  0
    2.3222   -0.5674   -0.9683 O   0  0  0  0  0  0  0  0  0  0  0  0
    0.0913    0.3914    1.3684 C   0  0  0  0  0  0  0  0  0  0  0  0
   -1.2384    0.1450    2.0912 C   0  0  0  0  0  0  0  0  0  0  0  0
   -1.2526    0.7490    3.4916 C   0  0  0  0  0  0  0  0  0  0  0  0
   -2.5125    0.4919    4.1857 N   0  3  0  0  0  0  0  0  0  0  0  0
   -2.7353    0.8947    5.5037 C   0  0  0  0  0  0  0  0  0  0  0  0
   -3.9599    0.6157    6.1013 N   0  0  0  0  0  0  0  0  0  0  0  0
   -1.7623    1.5689    6.2342 N   0  0  0  0  0  0  0  0  0  0  0  0
   -0.7323   -2.1024    0.4149 H   0  0  0  0  0  0  0  0  0  0  0  0
   -0.7609    0.1148   -0.6160 H   0  0  0  0  0  0  0  0  0  0  0  0
    0.2748    1.4707    1.3048 H   0  0  0  0  0  0  0  0  0  0  0  0
    0.9129   -0.0275    1.9645 H   0  0  0  0  0  0  0  0  0  0  0  0
   -2.0609    0.5675    1.5017 H   0  0  0  0  0  0  0  0  0  0  0  0
   -1.4163   -0.9331    2.1768 H   0  0  0  0  0  0  0  0  0  0  0  0
   -0.4539    0.3037    4.0927 H   0  0  0  0  0  0  0  0  0  0  0  0
   -1.1012    1.8320    3.4519 H   0  0  0  0  0  0  0  0  0  0  0  0
   -3.2628    0.0020    3.7016 H   0  0  0  0  0  0  0  0  0  0  0  0
   -4.1544    0.8955    7.0597 H   0  0  0  0  0  0  0  0  0  0  0  0
   -4.6932    0.1243    5.5959 H   0  0  0  0  0  0  0  0  0  0  0  0
   -1.9195    1.8644    7.1943 H   0  0  0  0  0  0  0  0  0  0  0  0
   -0.8574    1.7862    5.8234 H   0  0  0  0  0  0  0  0  0  0  0  0
    1.3543    1.5344   -1.1554 N   0  0  0  0  0  0  0  0  0  0  0  0
    2.4568    2.1829   -1.8273 C   0  0  2  0  0  0  0  0  0  0  0  0
    2.4832    3.6409   -1.3880 C   0  0  0  0  0  0  0  0  0  0  0  0
    1.4664    4.2841   -1.1361 O   0  0  0  0  0  0  0  0  0  0  0  0
    2.3257    2.0728   -3.3384 C   0  0  0  0  0  0  0  0  0  0  0  0
    0.5176    2.0844   -0.9848 H   0  0  0  0  0  0  0  0  0  0  0  0
    3.3711    1.6826   -1.4901 H   0  0  0  0  0  0  0  0  0  0  0  0
    1.4153    2.5684   -3.6949 H   0  0  0  0  0  0  0  0  0  0  0  0
    3.1764    2.5399   -3.8456 H   0  0  0  0  0  0  0  0  0  0  0  0
    2.2768    1.0239   -3.6500 H   0  0  0  0  0  0  0  0  0  0  0  0
    3.7731    4.1518   -1.3520 N   0  0  0  0  0  0  0  0  0  0  0  0
    4.0584    5.5248   -1.0064 C   0  0  0  0  0  0  0  0  0  0  0  0
    4.5597    3.5364   -1.5370 H   0  0  0  0  0  0  0  0  0  0  0  0
    4.0979    6.1333   -1.9219 H   0  0  0  0  0  0  0  0  0  0  0  0
    3.2674    5.9084   -0.3452 H   0  0  0  0  0  0  0  0  0  0  0  0
    5.0273    5.5786   -0.4884 H   0  0  0  0  0  0  0  0  0  0  0  0
  1  3  1  0  0  0  0
  1  7  1  0  0  0  0
  1  2  2  0  0  0  0
 42 43  1  0  0  0  0
 43 51  1  0  0  0  0
 43 44  2  0  0  0  0
  8  9  1  0  0  0  0
  9 17  1  0  0  0  0
  9 10  2  0  0  0  0
 18 19  1  0  0  0  0
 19 41  1  0  0  0  0
 19 20  2  0  0  0  0
 25 26  1  0  0  0  0
 25 27  1  0  0  0  0
 24 25  2  0  0  0  0
 42 45  1  0  0  0  0
  8 11  1  0  0  0  0
 51 52  1  0  0  0  0
 21 22  1  0  0  0  0
 22 23  1  0  0  0  0
 18 21  1  0  0  0  0
 23 24  1  0  0  0  0
 41 42  1  0  0  0  0
  7  8  1  0  0  0  0
 17 18  1  0  0  0  0
  3  4  1  0  0  0  0
  3  5  1  0  0  0  0
  3  6  1  0  0  0  0
 45 48  1  0  0  0  0
 45 49  1  0  0  0  0
 45 50  1  0  0  0  0
 11 14  1  0  0  0  0
 11 15  1  0  0  0  0
 11 16  1  0  0  0  0
 52 54  1  0  0  0  0
 52 55  1  0  0  0  0
 52 56  1  0  0  0  0
 22 32  1  0  0  0  0
 22 33  1  0  0  0  0
 21 30  1  0  0  0  0
 21 31  1  0  0  0  0
 23 34  1  0  0  0  0
 23 35  1  0  0  0  0
 42 47  1  0  0  0  0
  8 13  1  0  0  0  0
 18 29  1  0  0  0  0
 26 37  1  0  0  0  0
 26 38  1  0  0  0  0
 27 39  1  0  0  0  0
 27 40  1  0  0  0  0
 51 53  1  0  0  0  0
  7 12  1  0  0  0  0
 41 46  1  0  0  0  0
 17 28  1  0  0  0  0
 24 36  1  0  0  0  0
M  CHG  1  24   1
M  END
$$$$

  -OEChem-05262214473D

 56 55  0     1  0  0  0  0  0999 V2000
    0.7735   -5.8042   -2.0022 C   0  0  0  0  0  0  0  0  0  0  0  0
   -0.2086   -6.3825   -1.5519 O   0  0  0  0  0  0  0  0  0  0  0  0
    1.4751   -6.3646   -3.1946 C   0  0  0  0  0  0  0  0  0  0  0  0
    2.2765   -7.0687   -2.9186 H   0  0  0  0  0  0  0  0  0  0  0  0
    0.7988   -6.9360   -3.8504 H   0  0  0  0  0  0  0  0  0  0  0  0
    1.9556   -5.6216   -3.8511 H   0  0  0  0  0  0  0  0  0  0  0  0
    1.3322   -4.6359   -1.5106 N   0  0  0  0  0  0  0  0  0  0  0  0
    0.8124   -3.9290   -0.3698 C   0  0  2  0  0  0  0  0  0  0  0  0
    1.0666   -2.4424   -0.5818 C   0  0  0  0  0  0  0  0  0  0  0  0
    2.0598   -2.0076   -1.1610 O   0  0  0  0  0  0  0  0  0  0  0  0
    1.4560   -4.4118    0.9207 C   0  0  0  0  0  0  0  0  0  0  0  0
    2.1528   -4.2578   -1.9805 H   0  0  0  0  0  0  0  0  0  0  0  0
   -0.2667   -4.1160   -0.3467 H   0  0  0  0  0  0  0  0  0  0  0  0
    2.5374   -4.2329    0.9160 H   0  0  0  0  0  0  0  0  0  0  0  0
    1.0390   -3.8932    1.7903 H   0  0  0  0  0  0  0  0  0  0  0  0
    1.2976   -5.4871    1.0566 H   0  0  0  0  0  0  0  0  0  0  0  0
    0.0755   -1.6529   -0.0105 N   0  0  0  0  0  0  0  0  0  0  0  0
    0.1113   -0.2132   -0.0391 C   0  0  2  0  0  0  0  0  0  0  0  0
    1.1481    0.1987   -1.0788 C   0  0  0  0  0  0  0  0  0  0  0  0
    1.8249   -0.6131   -1.7067 O   0  0  0  0  0  0  0  0  0  0  0  0
    0.4597    0.3815    1.3292 C   0  0  0  0  0  0  0  0  0  0  0  0
   -0.6392    0.1356    2.3699 C   0  0  0  0  0  0  0  0  0  0  0  0
   -0.2871    0.7297    3.7298 C   0  0  0  0  0  0  0  0  0  0  0  0
   -1.3261    0.4731    4.7247 N   0  3  0  0  0  0  0  0  0  0  0  0
   -1.1980    0.8674    6.0578 C   0  0  0  0  0  0  0  0  0  0  0  0
   -2.2280    0.5894    6.9502 N   0  0  0  0  0  0  0  0  0  0  0  0
   -0.0651    1.5322    6.5156 N   0  0  0  0  0  0  0  0  0  0  0  0
   -0.7323   -2.1024    0.4149 H   0  0  0  0  0  0  0  0  0  0  0  0
   -0.8785    0.1226   -0.3688 H   0  0  0  0  0  0  0  0  0  0  0  0
    0.6270    1.4604    1.2264 H   0  0  0  0  0  0  0  0  0  0  0  0
    1.4050   -0.0452    1.6900 H   0  0  0  0  0  0  0  0  0  0  0  0
   -1.5837    0.5658    2.0157 H   0  0  0  0  0  0  0  0  0  0  0  0
   -0.7954   -0.9423    2.4924 H   0  0  0  0  0  0  0  0  0  0  0  0
    0.6372    0.2767    4.1012 H   0  0  0  0  0  0  0  0  0  0  0  0
   -0.1447    1.8123    3.6585 H   0  0  0  0  0  0  0  0  0  0  0  0
   -2.1790   -0.0101    4.4483 H   0  0  0  0  0  0  0  0  0  0  0  0
   -2.1662    0.8633    7.9279 H   0  0  0  0  0  0  0  0  0  0  0  0
   -3.0699    0.1048    6.6489 H   0  0  0  0  0  0  0  0  0  0  0  0
    0.0331    1.8215    7.4853 H   0  0  0  0  0  0  0  0  0  0  0  0
    0.7041    1.7485    5.8859 H   0  0  0  0  0  0  0  0  0  0  0  0
    1.2614    1.5779   -1.1856 N   0  0  0  0  0  0  0  0  0  0  0  0
    2.2081    2.2232   -2.0658 C   0  0  2  0  0  0  0  0  0  0  0  0
    2.6422    3.5292   -1.4135 C   0  0  0  0  0  0  0  0  0  0  0  0
    1.8913    4.2170   -0.7248 O   0  0  0  0  0  0  0  0  0  0  0  0
    1.6042    2.4757   -3.4385 C   0  0  0  0  0  0  0  0  0  0  0  0
    0.6363    2.1722   -0.6493 H   0  0  0  0  0  0  0  0  0  0  0  0
    3.0699    1.5522   -2.1500 H   0  0  0  0  0  0  0  0  0  0  0  0
    0.7393    3.1460   -3.3743 H   0  0  0  0  0  0  0  0  0  0  0  0
    2.3319    2.9388   -4.1130 H   0  0  0  0  0  0  0  0  0  0  0  0
    1.2655    1.5387   -3.8936 H   0  0  0  0  0  0  0  0  0  0  0  0
    3.9537    3.8581   -1.7262 N   0  0  0  0  0  0  0  0  0  0  0  0
    4.5848    5.0718   -1.2628 C   0  0  0  0  0  0  0  0  0  0  0  0
    4.5153    3.2099   -2.2704 H   0  0  0  0  0  0  0  0  0  0  0  0
    4.4575    5.8627   -2.0166 H   0  0  0  0  0  0  0  0  0  0  0  0
    4.1205    5.3884   -0.3172 H   0  0  0  0  0  0  0  0  0  0  0  0
    5.6574    4.8885   -1.1013 H   0  0  0  0  0  0  0  0  0  0  0  0
  1  3  1  0  0  0  0
  1  7  1  0  0  0  0
  1  2  2  0  0  0  0
 42 43  1  0  0  0  0
 43 51  1  0  0  0  0
 43 44  2  0  0  0  0
  8  9  1  0  0  0  0
  9 17  1  0  0  0  0
  9 10  2  0  0  0  0
 18 19  1  0  0  0  0
 19 41  1  0  0  0  0
 19 20  2  0  0  0  0
 25 26  1  0  0  0  0
 25 27  1  0  0  0  0
 24 25  2  0  0  0  0
 42 45  1  0  0  0  0
  8 11  1  0  0  0  0
 51 52  1  0  0  0  0
 21 22  1  0  0  0  0
 22 23  1  0  0  0  0
 18 21  1  0  0  0  0
 23 24  1  0  0  0  0
 41 42  1  0  0  0  0
  7  8  1  0  0  0  0
 17 18  1  0  0  0  0
  3  4  1  0  0  0  0
  3  5  1  0  0  0  0
  3  6  1  0  0  0  0
 45 48  1  0  0  0  0
 45 49  1  0  0  0  0
 45 50  1  0  0  0  0
 11 14  1  0  0  0  0
 11 15  1  0  0  0  0
 11 16  1  0  0  0  0
 52 54  1  0  0  0  0
 52 55  1  0  0  0  0
 52 56  1  0  0  0  0
 22 32  1  0  0  0  0
 22 33  1  0  0  0  0
 21 30  1  0  0  0  0
 21 31  1  0  0  0  0
 23 34  1  0  0  0  0
 23 35  1  0  0  0  0
 42 47  1  0  0  0  0
  8 13  1  0  0  0  0
 18 29  1  0  0  0  0
 26 37  1  0  0  0  0
 26 38  1  0  0  0  0
 27 39  1  0  0  0  0
 27 40  1  0  0  0  0
 51 53  1  0  0  0  0
  7 12  1  0  0  0  0
 41 46  1  0  0  0  0
 17 28  1  0  0  0  0
 24 36  1  0  0  0  0
M  CHG  1  24   1
M  END
$$$$

  -OEChem-05262214473D

 56 55  0     1  0  0  0  0  0999 V2000
    0.7735   -5.8042   -2.0022 C   0  0  0  0  0  0  0  0  0  0  0  0
   -0.2086   -6.3825   -1.5519 O   0  0  0  0  0  0  0  0  0  0  0  0
    1.4751   -6.3646   -3.1946 C   0  0  0  0  0  0  0  0  0  0  0  0
    2.2765   -7.0687   -2.9186 H   0  0  0  0  0  0  0  0  0  0  0  0
    0.7988   -6.9360   -3.8504 H   0  0  0  0  0  0  0  0  0  0  0  0
    1.9556   -5.6216   -3.8511 H   0  0  0  0  0  0  0  0  0  0  0  0
    1.3322   -4.6359   -1.5106 N   0  0  0  0  0  0  0  0  0  0  0  0
    0.8124   -3.9290   -0.3698 C   0  0  2  0  0  0  0  0  0  0  0  0
    1.0666   -2.4424   -0.5818 C   0  0  0  0  0  0  0  0  0  0  0  0
    2.0598   -2.0076   -1.1610 O   0  0  0  0  0  0  0  0  0  0  0  0
    1.4560   -4.4118    0.9207 C   0  0  0  0  0  0  0  0  0  0  0  0
    2.1528   -4.2578   -1.9805 H   0  0  0  0  0  0  0  0  0  0  0  0
   -0.2667   -4.1160   -0.3467 H   0  0  0  0  0  0  0  0  0  0  0  0
    2.5374   -4.2329    0.9160 H   0  0  0  0  0  0  0  0  0  0  0  0
    1.0390   -3.8932    1.7903 H   0  0  0  0  0  0  0  0  0  0  0  0
    1.2976   -5.4871    1.0566 H   0  0  0  0  0  0  0  0  0  0  0  0
    0.0755   -1.6529   -0.0105 N   0  0  0  0  0  0  0  0  0  0  0  0
    0.1113   -0.2132   -0.0391 C   0  0  2  0  0  0  0  0  0  0  0  0
    1.1481    0.1987   -1.0788 C   0  0  0  0  0  0  0  0  0  0  0  0
    1.6302   -0.5882   -1.8910 O   0  0  0  0  0  0  0  0  0  0  0  0
    0.4597    0.3815    1.3292 C   0  0  0  0  0  0  0  0  0  0  0  0
   -0.6392    0.1356    2.3699 C   0  0  0  0  0  0  0  0  0  0  0  0
   -0.2871    0.7297    3.7298 C   0  0  0  0  0  0  0  0  0  0  0  0
   -1.3261    0.4731    4.7247 N   0  3  0  0  0  0  0  0  0  0  0  0
   -1.1980    0.8674    6.0578 C   0  0  0  0  0  0  0  0  0  0  0  0
   -2.2280    0.5894    6.9502 N   0  0  0  0  0  0  0  0  0  0  0  0
   -0.0651    1.5322    6.5156 N   0  0  0  0  0  0  0  0  0  0  0  0
   -0.7323   -2.1024    0.4149 H   0  0  0  0  0  0  0  0  0  0  0  0
   -0.8785    0.1226   -0.3688 H   0  0  0  0  0  0  0  0  0  0  0  0
    0.6270    1.4604    1.2264 H   0  0  0  0  0  0  0  0  0  0  0  0
    1.4050   -0.0452    1.6900 H   0  0  0  0  0  0  0  0  0  0  0  0
   -1.5837    0.5658    2.0157 H   0  0  0  0  0  0  0  0  0  0  0  0
   -0.7954   -0.9423    2.4924 H   0  0  0  0  0  0  0  0  0  0  0  0
    0.6372    0.2767    4.1012 H   0  0  0  0  0  0  0  0  0  0  0  0
   -0.1447    1.8123    3.6585 H   0  0  0  0  0  0  0  0  0  0  0  0
   -2.1790   -0.0101    4.4483 H   0  0  0  0  0  0  0  0  0  0  0  0
   -2.1662    0.8633    7.9279 H   0  0  0  0  0  0  0  0  0  0  0  0
   -3.0699    0.1048    6.6489 H   0  0  0  0  0  0  0  0  0  0  0  0
    0.0331    1.8215    7.4853 H   0  0  0  0  0  0  0  0  0  0  0  0
    0.7041    1.7485    5.8859 H   0  0  0  0  0  0  0  0  0  0  0  0
    1.5056    1.5345   -0.9594 N   0  0  0  0  0  0  0  0  0  0  0  0
    2.5052    2.1587   -1.7952 C   0  0  2  0  0  0  0  0  0  0  0  0
    3.2052    3.2307   -0.9703 C   0  0  0  0  0  0  0  0  0  0  0  0
    2.6311    3.8990   -0.1132 O   0  0  0  0  0  0  0  0  0  0  0  0
    1.8842    2.7562   -3.0482 C   0  0  0  0  0  0  0  0  0  0  0  0
    1.0295    2.1187   -0.2784 H   0  0  0  0  0  0  0  0  0  0  0  0
    3.2240    1.3776   -2.0655 H   0  0  0  0  0  0  0  0  0  0  0  0
    1.1610    3.5408   -2.7973 H   0  0  0  0  0  0  0  0  0  0  0  0
    2.6466    3.2037   -3.6942 H   0  0  0  0  0  0  0  0  0  0  0  0
    1.3558    1.9894   -3.6250 H   0  0  0  0  0  0  0  0  0  0  0  0
    4.5359    3.3830   -1.3340 N   0  0  0  0  0  0  0  0  0  0  0  0
    5.4023    4.3664   -0.7272 C   0  0  0  0  0  0  0  0  0  0  0  0
    4.9392    2.7588   -2.0264 H   0  0  0  0  0  0  0  0  0  0  0  0
    5.3810    5.2914   -1.3221 H   0  0  0  0  0  0  0  0  0  0  0  0
    5.0555    4.5798    0.2947 H   0  0  0  0  0  0  0  0  0  0  0  0
    6.4304    3.9770   -0.6916 H   0  0  0  0  0  0  0  0  0  0  0  0
  1  3  1  0  0  0  0
  1  7  1  0  0  0  0
  1  2  2  0  0  0  0
 42 43  1  0  0  0  0
 43 51  1  0  0  0  0
 43 44  2  0  0  0  0
  8  9  1  0  0  0  0
  9 17  1  0  0  0  0
  9 10  2  0  0  0  0
 18 19  1  0  0  0  0
 19 41  1  0  0  0  0
 19 20  2  0  0  0  0
 25 26  1  0  0  0  0
 25 27  1  0  0  0  0
 24 25  2  0  0  0  0
 42 45  1  0  0  0  0
  8 11  1  0  0  0  0
 51 52  1  0  0  0  0
 21 22  1  0  0  0  0
 22 23  1  0  0  0  0
 18 21  1  0  0  0  0
 23 24  1  0  0  0  0
 41 42  1  0  0  0  0
  7  8  1  0  0  0  0
 17 18  1  0  0  0  0
  3  4  1  0  0  0  0
  3  5  1  0  0  0  0
  3  6  1  0  0  0  0
 45 48  1  0  0  0  0
 45 49  1  0  0  0  0
 45 50  1  0  0  0  0
 11 14  1  0  0  0  0
 11 15  1  0  0  0  0
 11 16  1  0  0  0  0
 52 54  1  0  0  0  0
 52 55  1  0  0  0  0
 52 56  1  0  0  0  0
 22 32  1  0  0  0  0
 22 33  1  0  0  0  0
 21 30  1  0  0  0  0
 21 31  1  0  0  0  0
 23 34  1  0  0  0  0
 23 35  1  0  0  0  0
 42 47  1  0  0  0  0
  8 13  1  0  0  0  0
 18 29  1  0  0  0  0
 26 37  1  0  0  0  0
 26 38  1  0  0  0  0
 27 39  1  0  0  0  0
 27 40  1  0  0  0  0
 51 53  1  0  0  0  0
  7 12  1  0  0  0  0
 41 46  1  0  0  0  0
 17 28  1  0  0  0  0
 24 36  1  0  0  0  0
M  CHG  1  24   1
M  END
$$$$

  -OEChem-05262214473D

 56 55  0     1  0  0  0  0  0999 V2000
    0.7735   -5.8042   -2.0022 C   0  0  0  0  0  0  0  0  0  0  0  0
   -0.2086   -6.3825   -1.5519 O   0  0  0  0  0  0  0  0  0  0  0  0
    1.4751   -6.3646   -3.1946 C   0  0  0  0  0  0  0  0  0  0  0  0
    2.2765   -7.0687   -2.9186 H   0  0  0  0  0  0  0  0  0  0  0  0
    0.7988   -6.9360   -3.8504 H   0  0  0  0  0  0  0  0  0  0  0  0
    1.9556   -5.6216   -3.8511 H   0  0  0  0  0  0  0  0  0  0  0  0
    1.3322   -4.6359   -1.5106 N   0  0  0  0  0  0  0  0  0  0  0  0
    0.8124   -3.9290   -0.3698 C   0  0  2  0  0  0  0  0  0  0  0  0
    1.0666   -2.4424   -0.5818 C   0  0  0  0  0  0  0  0  0  0  0  0
    2.0598   -2.0076   -1.1610 O   0  0  0  0  0  0  0  0  0  0  0  0
    1.4560   -4.4118    0.9207 C   0  0  0  0  0  0  0  0  0  0  0  0
    2.1528   -4.2578   -1.9805 H   0  0  0  0  0  0  0  0  0  0  0  0
   -0.2667   -4.1160   -0.3467 H   0  0  0  0  0  0  0  0  0  0  0  0
    2.5374   -4.2329    0.9160 H   0  0  0  0  0  0  0  0  0  0  0  0
    1.0390   -3.8932    1.7903 H   0  0  0  0  0  0  0  0  0  0  0  0
    1.2976   -5.4871    1.0566 H   0  0  0  0  0  0  0  0  0  0  0  0
    0.0755   -1.6529   -0.0105 N   0  0  0  0  0  0  0  0  0  0  0  0
    0.1113   -0.2132   -0.0391 C   0  0  2  0  0  0  0  0  0  0  0  0
    1.1481    0.1987   -1.0788 C   0  0  0  0  0  0  0  0  0  0  0  0
    1.4336   -0.4974   -2.0510 O   0  0  0  0  0  0  0  0  0  0  0  0
    0.4597    0.3815    1.3292 C   0  0  0  0  0  0  0  0  0  0  0  0
   -0.6392    0.1356    2.3699 C   0  0  0  0  0  0  0  0  0  0  0  0
   -0.2871    0.7297    3.7298 C   0  0  0  0  0  0  0  0  0  0  0  0
   -1.3261    0.4731    4.7247 N   0  3  0  0  0  0  0  0  0  0  0  0
   -1.1980    0.8674    6.0578 C   0  0  0  0  0  0  0  0  0  0  0  0
   -2.2280    0.5894    6.9502 N   0  0  0  0  0  0  0  0  0  0  0  0
   -0.0651    1.5322    6.5156 N   0  0  0  0  0  0  0  0  0  0  0  0
   -0.7323   -2.1024    0.4149 H   0  0  0  0  0  0  0  0  0  0  0  0
   -0.8785    0.1226   -0.3688 H   0  0  0  0  0  0  0  0  0  0  0  0
    0.6270    1.4604    1.2264 H   0  0  0  0  0  0  0  0  0  0  0  0
    1.4050   -0.0452    1.6900 H   0  0  0  0  0  0  0  0  0  0  0  0
   -1.5837    0.5658    2.0157 H   0  0  0  0  0  0  0  0  0  0  0  0
   -0.7954   -0.9423    2.4924 H   0  0  0  0  0  0  0  0  0  0  0  0
    0.6372    0.2767    4.1012 H   0  0  0  0  0  0  0  0  0  0  0  0
   -0.1447    1.8123    3.6585 H   0  0  0  0  0  0  0  0  0  0  0  0
   -2.1790   -0.0101    4.4483 H   0  0  0  0  0  0  0  0  0  0  0  0
   -2.1662    0.8633    7.9279 H   0  0  0  0  0  0  0  0  0  0  0  0
   -3.0699    0.1048    6.6489 H   0  0  0  0  0  0  0  0  0  0  0  0
    0.0331    1.8215    7.4853 H   0  0  0  0  0  0  0  0  0  0  0  0
    0.7041    1.7485    5.8859 H   0  0  0  0  0  0  0  0  0  0  0  0
    1.7495    1.4097   -0.7655 N   0  0  0  0  0  0  0  0  0  0  0  0
    2.7997    1.9964   -1.5658 C   0  0  2  0  0  0  0  0  0  0  0  0
    3.7274    2.7650   -0.6341 C   0  0  0  0  0  0  0  0  0  0  0  0
    3.3323    3.3538    0.3700 O   0  0  0  0  0  0  0  0  0  0  0  0
    2.2314    2.9090   -2.6414 C   0  0  0  0  0  0  0  0  0  0  0  0
    1.4258    1.9324    0.0430 H   0  0  0  0  0  0  0  0  0  0  0  0
    3.3480    1.1668   -2.0254 H   0  0  0  0  0  0  0  0  0  0  0  0
    1.6785    3.7462   -2.2000 H   0  0  0  0  0  0  0  0  0  0  0  0
    3.0267    3.3304   -3.2651 H   0  0  0  0  0  0  0  0  0  0  0  0
    1.5414    2.3615   -3.2925 H   0  0  0  0  0  0  0  0  0  0  0  0
    5.0418    2.7523   -1.0794 N   0  0  0  0  0  0  0  0  0  0  0  0
    6.1048    3.4466   -0.3910 C   0  0  0  0  0  0  0  0  0  0  0  0
    5.2863    2.2053   -1.8996 H   0  0  0  0  0  0  0  0  0  0  0  0
    6.2208    4.4544   -0.8163 H   0  0  0  0  0  0  0  0  0  0  0  0
    5.8587    3.5260    0.6781 H   0  0  0  0  0  0  0  0  0  0  0  0
    7.0449    2.8881   -0.5104 H   0  0  0  0  0  0  0  0  0  0  0  0
  1  3  1  0  0  0  0
  1  7  1  0  0  0  0
  1  2  2  0  0  0  0
 42 43  1  0  0  0  0
 43 51  1  0  0  0  0
 43 44  2  0  0  0  0
  8  9  1  0  0  0  0
  9 17  1  0  0  0  0
  9 10  2  0  0  0  0
 18 19  1  0  0  0  0
 19 41  1  0  0  0  0
 19 20  2  0  0  0  0
 25 26  1  0  0  0  0
 25 27  1  0  0  0  0
 24 25  2  0  0  0  0
 42 45  1  0  0  0  0
  8 11  1  0  0  0  0
 51 52  1  0  0  0  0
 21 22  1  0  0  0  0
 22 23  1  0  0  0  0
 18 21  1  0  0  0  0
 23 24  1  0  0  0  0
 41 42  1  0  0  0  0
  7  8  1  0  0  0  0
 17 18  1  0  0  0  0
  3  4  1  0  0  0  0
  3  5  1  0  0  0  0
  3  6  1  0  0  0  0
 45 48  1  0  0  0  0
 45 49  1  0  0  0  0
 45 50  1  0  0  0  0
 11 14  1  0  0  0  0
 11 15  1  0  0  0  0
 11 16  1  0  0  0  0
 52 54  1  0  0  0  0
 52 55  1  0  0  0  0
 52 56  1  0  0  0  0
 22 32  1  0  0  0  0
 22 33  1  0  0  0  0
 21 30  1  0  0  0  0
 21 31  1  0  0  0  0
 23 34  1  0  0  0  0
 23 35  1  0  0  0  0
 42 47  1  0  0  0  0
  8 13  1  0  0  0  0
 18 29  1  0  0  0  0
 26 37  1  0  0  0  0
 26 38  1  0  0  0  0
 27 39  1  0  0  0  0
 27 40  1  0  0  0  0
 51 53  1  0  0  0  0
  7 12  1  0  0  0  0
 41 46  1  0  0  0  0
 17 28  1  0  0  0  0
 24 36  1  0  0  0  0
M  CHG  1  24   1
M  END
$$$$

  -OEChem-05262214473D

 56 55  0     1  0  0  0  0  0999 V2000
    0.7735   -5.8042   -2.0022 C   0  0  0  0  0  0  0  0  0  0  0  0
   -0.2086   -6.3825   -1.5519 O   0  0  0  0  0  0  0  0  0  0  0  0
    1.4751   -6.3646   -3.1946 C   0  0  0  0  0  0  0  0  0  0  0  0
    2.2765   -7.0687   -2.9186 H   0  0  0  0  0  0  0  0  0  0  0  0
    0.7988   -6.9360   -3.8504 H   0  0  0  0  0  0  0  0  0  0  0  0
    1.9556   -5.6216   -3.8511 H   0  0  0  0  0  0  0  0  0  0  0  0
    1.3322   -4.6359   -1.5106 N   0  0  0  0  0  0  0  0  0  0  0  0
    0.8124   -3.9290   -0.3698 C   0  0  2  0  0  0  0  0  0  0  0  0
    1.0666   -2.4424   -0.5818 C   0  0  0  0  0  0  0  0  0  0  0  0
    2.0598   -2.0076   -1.1610 O   0  0  0  0  0  0  0  0  0  0  0  0
    1.4560   -4.4118    0.9207 C   0  0  0  0  0  0  0  0  0  0  0  0
    2.1528   -4.2578   -1.9805 H   0  0  0  0  0  0  0  0  0  0  0  0
   -0.2667   -4.1160   -0.3467 H   0  0  0  0  0  0  0  0  0  0  0  0
    2.5374   -4.2329    0.9160 H   0  0  0  0  0  0  0  0  0  0  0  0
    1.0390   -3.8932    1.7903 H   0  0  0  0  0  0  0  0  0  0  0  0
    1.2976   -5.4871    1.0566 H   0  0  0  0  0  0  0  0  0  0  0  0
    0.0755   -1.6529   -0.0105 N   0  0  0  0  0  0  0  0  0  0  0  0
    0.1113   -0.2132   -0.0391 C   0  0  2  0  0  0  0  0  0  0  0  0
    1.1481    0.1987   -1.0788 C   0  0  0  0  0  0  0  0  0  0  0  0
    1.2486   -0.3468   -2.1759 O   0  0  0  0  0  0  0  0  0  0  0  0
    0.4597    0.3815    1.3292 C   0  0  0  0  0  0  0  0  0  0  0  0
   -0.6392    0.1356    2.3699 C   0  0  0  0  0  0  0  0  0  0  0  0
   -0.2871    0.7297    3.7298 C   0  0  0  0  0  0  0  0  0  0  0  0
   -1.3261    0.4731    4.7247 N   0  3  0  0  0  0  0  0  0  0  0  0
   -1.1980    0.8674    6.0578 C   0  0  0  0  0  0  0  0  0  0  0  0
   -2.2280    0.5894    6.9502 N   0  0  0  0  0  0  0  0  0  0  0  0
   -0.0651    1.5322    6.5156 N   0  0  0  0  0  0  0  0  0  0  0  0
   -0.7323   -2.1024    0.4149 H   0  0  0  0  0  0  0  0  0  0  0  0
   -0.8785    0.1226   -0.3688 H   0  0  0  0  0  0  0  0  0  0  0  0
    0.6270    1.4604    1.2264 H   0  0  0  0  0  0  0  0  0  0  0  0
    1.4050   -0.0452    1.6900 H   0  0  0  0  0  0  0  0  0  0  0  0
   -1.5837    0.5658    2.0157 H   0  0  0  0  0  0  0  0  0  0  0  0
   -0.7954   -0.9423    2.4924 H   0  0  0  0  0  0  0  0  0  0  0  0
    0.6372    0.2767    4.1012 H   0  0  0  0  0  0  0  0  0  0  0  0
   -0.1447    1.8123    3.6585 H   0  0  0  0  0  0  0  0  0  0  0  0
   -2.1790   -0.0101    4.4483 H   0  0  0  0  0  0  0  0  0  0  0  0
   -2.1662    0.8633    7.9279 H   0  0  0  0  0  0  0  0  0  0  0  0
   -3.0699    0.1048    6.6489 H   0  0  0  0  0  0  0  0  0  0  0  0
    0.0331    1.8215    7.4853 H   0  0  0  0  0  0  0  0  0  0  0  0
    0.7041    1.7485    5.8859 H   0  0  0  0  0  0  0  0  0  0  0  0
    1.9767    1.2120   -0.6173 N   0  0  0  0  0  0  0  0  0  0  0  0
    3.0715    1.7472   -1.3935 C   0  0  2  0  0  0  0  0  0  0  0  0
    4.1731    2.1639   -0.4279 C   0  0  0  0  0  0  0  0  0  0  0  0
    3.9471    2.6183    0.6917 O   0  0  0  0  0  0  0  0  0  0  0  0
    2.6222    2.9238   -2.2459 C   0  0  0  0  0  0  0  0  0  0  0  0
    1.7982    1.6259    0.2929 H   0  0  0  0  0  0  0  0  0  0  0  0
    3.4333    0.9343   -2.0324 H   0  0  0  0  0  0  0  0  0  0  0  0
    2.2562    3.7482   -1.6231 H   0  0  0  0  0  0  0  0  0  0  0  0
    3.4461    3.3101   -2.8549 H   0  0  0  0  0  0  0  0  0  0  0  0
    1.8095    2.6296   -2.9189 H   0  0  0  0  0  0  0  0  0  0  0  0
    5.4370    2.0090   -0.9798 N   0  0  0  0  0  0  0  0  0  0  0  0
    6.6447    2.3750   -0.2773 C   0  0  0  0  0  0  0  0  0  0  0  0
    5.5326    1.5872   -1.8989 H   0  0  0  0  0  0  0  0  0  0  0  0
    6.9196    3.4088   -0.5338 H   0  0  0  0  0  0  0  0  0  0  0  0
    6.4754    2.2990    0.8069 H   0  0  0  0  0  0  0  0  0  0  0  0
    7.4590    1.6959   -0.5698 H   0  0  0  0  0  0  0  0  0  0  0  0
  1  3  1  0  0  0  0
  1  7  1  0  0  0  0
  1  2  2  0  0  0  0
 42 43  1  0  0  0  0
 43 51  1  0  0  0  0
 43 44  2  0  0  0  0
  8  9  1  0  0  0  0
  9 17  1  0  0  0  0
  9 10  2  0  0  0  0
 18 19  1  0  0  0  0
 19 41  1  0  0  0  0
 19 20  2  0  0  0  0
 25 26  1  0  0  0  0
 25 27  1  0  0  0  0
 24 25  2  0  0  0  0
 42 45  1  0  0  0  0
  8 11  1  0  0  0  0
 51 52  1  0  0  0  0
 21 22  1  0  0  0  0
 22 23  1  0  0  0  0
 18 21  1  0  0  0  0
 23 24  1  0  0  0  0
 41 42  1  0  0  0  0
  7  8  1  0  0  0  0
 17 18  1  0  0  0  0
  3  4  1  0  0  0  0
  3  5  1  0  0  0  0
  3  6  1  0  0  0  0
 45 48  1  0  0  0  0
 45 49  1  0  0  0  0
 45 50  1  0  0  0  0
 11 14  1  0  0  0  0
 11 15  1  0  0  0  0
 11 16  1  0  0  0  0
 52 54  1  0  0  0  0
 52 55  1  0  0  0  0
 52 56  1  0  0  0  0
 22 32  1  0  0  0  0
 22 33  1  0  0  0  0
 21 30  1  0  0  0  0
 21 31  1  0  0  0  0
 23 34  1  0  0  0  0
 23 35  1  0  0  0  0
 42 47  1  0  0  0  0
  8 13  1  0  0  0  0
 18 29  1  0  0  0  0
 26 37  1  0  0  0  0
 26 38  1  0  0  0  0
 27 39  1  0  0  0  0
 27 40  1  0  0  0  0
 51 53  1  0  0  0  0
  7 12  1  0  0  0  0
 41 46  1  0  0  0  0
 17 28  1  0  0  0  0
 24 36  1  0  0  0  0
M  CHG  1  24   1
M  END
$$$$

  -OEChem-05262214473D

 56 55  0     1  0  0  0  0  0999 V2000
    0.7735   -5.8042   -2.0022 C   0  0  0  0  0  0  0  0  0  0  0  0
   -0.2086   -6.3825   -1.5519 O   0  0  0  0  0  0  0  0  0  0  0  0
    1.4751   -6.3646   -3.1946 C   0  0  0  0  0  0  0  0  0  0  0  0
    2.2765   -7.0687   -2.9186 H   0  0  0  0  0  0  0  0  0  0  0  0
    0.7988   -6.9360   -3.8504 H   0  0  0  0  0  0  0  0  0  0  0  0
    1.9556   -5.6216   -3.8511 H   0  0  0  0  0  0  0  0  0  0  0  0
    1.3322   -4.6359   -1.5106 N   0  0  0  0  0  0  0  0  0  0  0  0
    0.8124   -3.9290   -0.3698 C   0  0  2  0  0  0  0  0  0  0  0  0
    1.0666   -2.4424   -0.5818 C   0  0  0  0  0  0  0  0  0  0  0  0
    2.0598   -2.0076   -1.1610 O   0  0  0  0  0  0  0  0  0  0  0  0
    1.4560   -4.4118    0.9207 C   0  0  0  0  0  0  0  0  0  0  0  0
    2.1528   -4.2578   -1.9805 H   0  0  0  0  0  0  0  0  0  0  0  0
   -0.2667   -4.1160   -0.3467 H   0  0  0  0  0  0  0  0  0  0  0  0
    2.5374   -4.2329    0.9160 H   0  0  0  0  0  0  0  0  0  0  0  0
    1.0390   -3.8932    1.7903 H   0  0  0  0  0  0  0  0  0  0  0  0
    1.2976   -5.4871    1.0566 H   0  0  0  0  0  0  0  0  0  0  0  0
    0.0755   -1.6529   -0.0105 N   0  0  0  0  0  0  0  0  0  0  0  0
    0.1113   -0.2132   -0.0391 C   0  0  2  0  0  0  0  0  0  0  0  0
    1.1481    0.1987   -1.0788 C   0  0  0  0  0  0  0  0  0  0  0  0
    1.0877   -0.1468   -2.2571 O   0  0  0  0  0  0  0  0  0  0  0  0
    0.4597    0.3815    1.3292 C   0  0  0  0  0  0  0  0  0  0  0  0
   -0.6392    0.1356    2.3699 C   0  0  0  0  0  0  0  0  0  0  0  0
   -0.2871    0.7297    3.7298 C   0  0  0  0  0  0  0  0  0  0  0  0
   -1.3261    0.4731    4.7247 N   0  3  0  0  0  0  0  0  0  0  0  0
   -1.1980    0.8674    6.0578 C   0  0  0  0  0  0  0  0  0  0  0  0
   -2.2280    0.5894    6.9502 N   0  0  0  0  0  0  0  0  0  0  0  0
   -0.0651    1.5322    6.5156 N   0  0  0  0  0  0  0  0  0  0  0  0
   -0.7323   -2.1024    0.4149 H   0  0  0  0  0  0  0  0  0  0  0  0
   -0.8785    0.1226   -0.3688 H   0  0  0  0  0  0  0  0  0  0  0  0
    0.6270    1.4604    1.2264 H   0  0  0  0  0  0  0  0  0  0  0  0
    1.4050   -0.0452    1.6900 H   0  0  0  0  0  0  0  0  0  0  0  0
   -1.5837    0.5658    2.0157 H   0  0  0  0  0  0  0  0  0  0  0  0
   -0.7954   -0.9423    2.4924 H   0  0  0  0  0  0  0  0  0  0  0  0
    0.6372    0.2767    4.1012 H   0  0  0  0  0  0  0  0  0  0  0  0
   -0.1447    1.8123    3.6585 H   0  0  0  0  0  0  0  0  0  0  0  0
   -2.1790   -0.0101    4.4483 H   0  0  0  0  0  0  0  0  0  0  0  0
   -2.1662    0.8633    7.9279 H   0  0  0  0  0  0  0  0  0  0  0  0
   -3.0699    0.1048    6.6489 H   0  0  0  0  0  0  0  0  0  0  0  0
    0.0331    1.8215    7.4853 H   0  0  0  0  0  0  0  0  0  0  0  0
    0.7041    1.7485    5.8859 H   0  0  0  0  0  0  0  0  0  0  0  0
    2.1717    0.9548   -0.5248 N   0  0  0  0  0  0  0  0  0  0  0  0
    3.3022    1.4283   -1.2899 C   0  0  2  0  0  0  0  0  0  0  0  0
    4.5119    1.4683   -0.3656 C   0  0  0  0  0  0  0  0  0  0  0  0
    4.4338    1.7429    0.8301 O   0  0  0  0  0  0  0  0  0  0  0  0
    3.0299    2.7995   -1.8886 C   0  0  0  0  0  0  0  0  0  0  0  0
    2.1213    1.2202    0.4543 H   0  0  0  0  0  0  0  0  0  0  0  0
    3.4743    0.6959   -2.0861 H   0  0  0  0  0  0  0  0  0  0  0  0
    2.8550    3.5466   -1.1059 H   0  0  0  0  0  0  0  0  0  0  0  0
    3.8764    3.1443   -2.4915 H   0  0  0  0  0  0  0  0  0  0  0  0
    2.1420    2.7756   -2.5295 H   0  0  0  0  0  0  0  0  0  0  0  0
    5.6945    1.2038   -1.0420 N   0  0  0  0  0  0  0  0  0  0  0  0
    6.9850    1.2247   -0.3938 C   0  0  0  0  0  0  0  0  0  0  0  0
    5.6616    0.9465   -2.0241 H   0  0  0  0  0  0  0  0  0  0  0  0
    7.4299    2.2257   -0.4937 H   0  0  0  0  0  0  0  0  0  0  0  0
    6.8636    0.9823    0.6723 H   0  0  0  0  0  0  0  0  0  0  0  0
    7.6445    0.4817   -0.8660 H   0  0  0  0  0  0  0  0  0  0  0  0
  1  3  1  0  0  0  0
  1  7  1  0  0  0  0
  1  2  2  0  0  0  0
 42 43  1  0  0  0  0
 43 51  1  0  0  0  0
 43 44  2  0  0  0  0
  8  9  1  0  0  0  0
  9 17  1  0  0  0  0
  9 10  2  0  0  0  0
 18 19  1  0  0  0  0
 19 41  1  0  0  0  0
 19 20  2  0  0  0  0
 25 26  1  0  0  0  0
 25 27  1  0  0  0  0
 24 25  2  0  0  0  0
 42 45  1  0  0  0  0
  8 11  1  0  0  0  0
 51 52  1  0  0  0  0
 21 22  1  0  0  0  0
 22 23  1  0  0  0  0
 18 21  1  0  0  0  0
 23 24  1  0  0  0  0
 41 42  1  0  0  0  0
  7  8  1  0  0  0  0
 17 18  1  0  0  0  0
  3  4  1  0  0  0  0
  3  5  1  0  0  0  0
  3  6  1  0  0  0  0
 45 48  1  0  0  0  0
 45 49  1  0  0  0  0
 45 50  1  0  0  0  0
 11 14  1  0  0  0  0
 11 15  1  0  0  0  0
 11 16  1  0  0  0  0
 52 54  1  0  0  0  0
 52 55  1  0  0  0  0
 52 56  1  0  0  0  0
 22 32  1  0  0  0  0
 22 33  1  0  0  0  0
 21 30  1  0  0  0  0
 21 31  1  0  0  0  0
 23 34  1  0  0  0  0
 23 35  1  0  0  0  0
 42 47  1  0  0  0  0
  8 13  1  0  0  0  0
 18 29  1  0  0  0  0
 26 37  1  0  0  0  0
 26 38  1  0  0  0  0
 27 39  1  0  0  0  0
 27 40  1  0  0  0  0
 51 53  1  0  0  0  0
  7 12  1  0  0  0  0
 41 46  1  0  0  0  0
 17 28  1  0  0  0  0
 24 36  1  0  0  0  0
M  CHG  1  24   1
M  END
$$$$

  -OEChem-05262214473D

 56 55  0     1  0  0  0  0  0999 V2000
    0.7735   -5.8042   -2.0022 C   0  0  0  0  0  0  0  0  0  0  0  0
   -0.2086   -6.3825   -1.5519 O   0  0  0  0  0  0  0  0  0  0  0  0
    1.4751   -6.3646   -3.1946 C   0  0  0  0  0  0  0  0  0  0  0  0
    2.2765   -7.0687   -2.9186 H   0  0  0  0  0  0  0  0  0  0  0  0
    0.7988   -6.9360   -3.8504 H   0  0  0  0  0  0  0  0  0  0  0  0
    1.9556   -5.6216   -3.8511 H   0  0  0  0  0  0  0  0  0  0  0  0
    1.3322   -4.6359   -1.5106 N   0  0  0  0  0  0  0  0  0  0  0  0
    0.8124   -3.9290   -0.3698 C   0  0  2  0  0  0  0  0  0  0  0  0
    1.0666   -2.4424   -0.5818 C   0  0  0  0  0  0  0  0  0  0  0  0
    2.0598   -2.0076   -1.1610 O   0  0  0  0  0  0  0  0  0  0  0  0
    1.4560   -4.4118    0.9207 C   0  0  0  0  0  0  0  0  0  0  0  0
    2.1528   -4.2578   -1.9805 H   0  0  0  0  0  0  0  0  0  0  0  0
   -0.2667   -4.1160   -0.3467 H   0  0  0  0  0  0  0  0  0  0  0  0
    2.5374   -4.2329    0.9160 H   0  0  0  0  0  0  0  0  0  0  0  0
    1.0390   -3.8932    1.7903 H   0  0  0  0  0  0  0  0  0  0  0  0
    1.2976   -5.4871    1.0566 H   0  0  0  0  0  0  0  0  0  0  0  0
    0.0755   -1.6529   -0.0105 N   0  0  0  0  0  0  0  0  0  0  0  0
    0.1113   -0.2132   -0.0391 C   0  0  2  0  0  0  0  0  0  0  0  0
    1.1481    0.1987   -1.0788 C   0  0  0  0  0  0  0  0  0  0  0  0
    0.9619    0.0892   -2.2890 O   0  0  0  0  0  0  0  0  0  0  0  0
    0.4597    0.3815    1.3292 C   0  0  0  0  0  0  0  0  0  0  0  0
   -0.6392    0.1356    2.3699 C   0  0  0  0  0  0  0  0  0  0  0  0
   -0.2871    0.7297    3.7298 C   0  0  0  0  0  0  0  0  0  0  0  0
   -1.3261    0.4731    4.7247 N   0  3  0  0  0  0  0  0  0  0  0  0
   -1.1980    0.8674    6.0578 C   0  0  0  0  0  0  0  0  0  0  0  0
   -2.2280    0.5894    6.9502 N   0  0  0  0  0  0  0  0  0  0  0  0
   -0.0651    1.5322    6.5156 N   0  0  0  0  0  0  0  0  0  0  0  0
   -0.7323   -2.1024    0.4149 H   0  0  0  0  0  0  0  0  0  0  0  0
   -0.8785    0.1226   -0.3688 H   0  0  0  0  0  0  0  0  0  0  0  0
    0.6270    1.4604    1.2264 H   0  0  0  0  0  0  0  0  0  0  0  0
    1.4050   -0.0452    1.6900 H   0  0  0  0  0  0  0  0  0  0  0  0
   -1.5837    0.5658    2.0157 H   0  0  0  0  0  0  0  0  0  0  0  0
   -0.7954   -0.9423    2.4924 H   0  0  0  0  0  0  0  0  0  0  0  0
    0.6372    0.2767    4.1012 H   0  0  0  0  0  0  0  0  0  0  0  0
   -0.1447    1.8123    3.6585 H   0  0  0  0  0  0  0  0  0  0  0  0
   -2.1790   -0.0101    4.4483 H   0  0  0  0  0  0  0  0  0  0  0  0
   -2.1662    0.8633    7.9279 H   0  0  0  0  0  0  0  0  0  0  0  0
   -3.0699    0.1048    6.6489 H   0  0  0  0  0  0  0  0  0  0  0  0
    0.0331    1.8215    7.4853 H   0  0  0  0  0  0  0  0  0  0  0  0
    0.7041    1.7485    5.8859 H   0  0  0  0  0  0  0  0  0  0  0  0
    2.3210    0.6558   -0.4944 N   0  0  0  0  0  0  0  0  0  0  0  0
    3.4759    1.0613   -1.2620 C   0  0  2  0  0  0  0  0  0  0  0  0
    4.7209    0.7257   -0.4515 C   0  0  0  0  0  0  0  0  0  0  0  0
    4.7590    0.7870    0.7757 O   0  0  0  0  0  0  0  0  0  0  0  0
    3.4268    2.5446   -1.5938 C   0  0  0  0  0  0  0  0  0  0  0  0
    2.3731    0.7429    0.5163 H   0  0  0  0  0  0  0  0  0  0  0  0
    3.4679    0.4678   -2.1827 H   0  0  0  0  0  0  0  0  0  0  0  0
    3.4340    3.1553   -0.6836 H   0  0  0  0  0  0  0  0  0  0  0  0
    4.2882    2.8444   -2.1998 H   0  0  0  0  0  0  0  0  0  0  0  0
    2.5161    2.7894   -2.1510 H   0  0  0  0  0  0  0  0  0  0  0  0
    5.7969    0.3915   -1.2619 N   0  0  0  0  0  0  0  0  0  0  0  0
    7.1026    0.0740   -0.7325 C   0  0  0  0  0  0  0  0  0  0  0  0
    5.6644    0.3270   -2.2669 H   0  0  0  0  0  0  0  0  0  0  0  0
    7.7168    0.9859   -0.6988 H   0  0  0  0  0  0  0  0  0  0  0  0
    6.9968   -0.3344    0.2834 H   0  0  0  0  0  0  0  0  0  0  0  0
    7.5887   -0.6717   -1.3787 H   0  0  0  0  0  0  0  0  0  0  0  0
  1  3  1  0  0  0  0
  1  7  1  0  0  0  0
  1  2  2  0  0  0  0
 42 43  1  0  0  0  0
 43 51  1  0  0  0  0
 43 44  2  0  0  0  0
  8  9  1  0  0  0  0
  9 17  1  0  0  0  0
  9 10  2  0  0  0  0
 18 19  1  0  0  0  0
 19 41  1  0  0  0  0
 19 20  2  0  0  0  0
 25 26  1  0  0  0  0
 25 27  1  0  0  0  0
 24 25  2  0  0  0  0
 42 45  1  0  0  0  0
  8 11  1  0  0  0  0
 51 52  1  0  0  0  0
 21 22  1  0  0  0  0
 22 23  1  0  0  0  0
 18 21  1  0  0  0  0
 23 24  1  0  0  0  0
 41 42  1  0  0  0  0
  7  8  1  0  0  0  0
 17 18  1  0  0  0  0
  3  4  1  0  0  0  0
  3  5  1  0  0  0  0
  3  6  1  0  0  0  0
 45 48  1  0  0  0  0
 45 49  1  0  0  0  0
 45 50  1  0  0  0  0
 11 14  1  0  0  0  0
 11 15  1  0  0  0  0
 11 16  1  0  0  0  0
 52 54  1  0  0  0  0
 52 55  1  0  0  0  0
 52 56  1  0  0  0  0
 22 32  1  0  0  0  0
 22 33  1  0  0  0  0
 21 30  1  0  0  0  0
 21 31  1  0  0  0  0
 23 34  1  0  0  0  0
 23 35  1  0  0  0  0
 42 47  1  0  0  0  0
  8 13  1  0  0  0  0
 18 29  1  0  0  0  0
 26 37  1  0  0  0  0
 26 38  1  0  0  0  0
 27 39  1  0  0  0  0
 27 40  1  0  0  0  0
 51 53  1  0  0  0  0
  7 12  1  0  0  0  0
 41 46  1  0  0  0  0
 17 28  1  0  0  0  0
 24 36  1  0  0  0  0
M  CHG  1  24   1
M  END
$$$$

  -OEChem-05262214473D

 56 55  0     1  0  0  0  0  0999 V2000
    0.7735   -5.8042   -2.0022 C   0  0  0  0  0  0  0  0  0  0  0  0
   -0.2086   -6.3825   -1.5519 O   0  0  0  0  0  0  0  0  0  0  0  0
    1.4751   -6.3646   -3.1946 C   0  0  0  0  0  0  0  0  0  0  0  0
    2.2765   -7.0687   -2.9186 H   0  0  0  0  0  0  0  0  0  0  0  0
    0.7988   -6.9360   -3.8504 H   0  0  0  0  0  0  0  0  0  0  0  0
    1.9556   -5.6216   -3.8511 H   0  0  0  0  0  0  0  0  0  0  0  0
    1.3322   -4.6359   -1.5106 N   0  0  0  0  0  0  0  0  0  0  0  0
    0.8124   -3.9290   -0.3698 C   0  0  2  0  0  0  0  0  0  0  0  0
    1.0666   -2.4424   -0.5818 C   0  0  0  0  0  0  0  0  0  0  0  0
    2.0598   -2.0076   -1.1610 O   0  0  0  0  0  0  0  0  0  0  0  0
    1.4560   -4.4118    0.9207 C   0  0  0  0  0  0  0  0  0  0  0  0
    2.1528   -4.2578   -1.9805 H   0  0  0  0  0  0  0  0  0  0  0  0
   -0.2667   -4.1160   -0.3467 H   0  0  0  0  0  0  0  0  0  0  0  0
    2.5374   -4.2329    0.9160 H   0  0  0  0  0  0  0  0  0  0  0  0
    1.0390   -3.8932    1.7903 H   0  0  0  0  0  0  0  0  0  0  0  0
    1.2976   -5.4871    1.0566 H   0  0  0  0  0  0  0  0  0  0  0  0
    0.0755   -1.6529   -0.0105 N   0  0  0  0  0  0  0  0  0  0  0  0
    0.1113   -0.2132   -0.0391 C   0  0  2  0  0  0  0  0  0  0  0  0
    1.1481    0.1987   -1.0788 C   0  0  0  0  0  0  0  0  0  0  0  0
    0.8798    0.3448   -2.2696 O   0  0  0  0  0  0  0  0  0  0  0  0
    0.4597    0.3815    1.3292 C   0  0  0  0  0  0  0  0  0  0  0  0
   -0.6392    0.1356    2.3699 C   0  0  0  0  0  0  0  0  0  0  0  0
   -0.2871    0.7297    3.7298 C   0  0  0  0  0  0  0  0  0  0  0  0
   -1.3261    0.4731    4.7247 N   0  3  0  0  0  0  0  0  0  0  0  0
   -1.1980    0.8674    6.0578 C   0  0  0  0  0  0  0  0  0  0  0  0
   -2.2280    0.5894    6.9502 N   0  0  0  0  0  0  0  0  0  0  0  0
   -0.0651    1.5322    6.5156 N   0  0  0  0  0  0  0  0  0  0  0  0
   -0.7323   -2.1024    0.4149 H   0  0  0  0  0  0  0  0  0  0  0  0
   -0.8785    0.1226   -0.3688 H   0  0  0  0  0  0  0  0  0  0  0  0
    0.6270    1.4604    1.2264 H   0  0  0  0  0  0  0  0  0  0  0  0
    1.4050   -0.0452    1.6900 H   0  0  0  0  0  0  0  0  0  0  0  0
   -1.5837    0.5658    2.0157 H   0  0  0  0  0  0  0  0  0  0  0  0
   -0.7954   -0.9423    2.4924 H   0  0  0  0  0  0  0  0  0  0  0  0
    0.6372    0.2767    4.1012 H   0  0  0  0  0  0  0  0  0  0  0  0
   -0.1447    1.8123    3.6585 H   0  0  0  0  0  0  0  0  0  0  0  0
   -2.1790   -0.0101    4.4483 H   0  0  0  0  0  0  0  0  0  0  0  0
   -2.1662    0.8633    7.9279 H   0  0  0  0  0  0  0  0  0  0  0  0
   -3.0699    0.1048    6.6489 H   0  0  0  0  0  0  0  0  0  0  0  0
    0.0331    1.8215    7.4853 H   0  0  0  0  0  0  0  0  0  0  0  0
    0.7041    1.7485    5.8859 H   0  0  0  0  0  0  0  0  0  0  0  0
    2.4147    0.3352   -0.5280 N   0  0  0  0  0  0  0  0  0  0  0  0
    3.5810    0.6712   -1.3118 C   0  0  2  0  0  0  0  0  0  0  0  0
    4.7857   -0.0133   -0.6797 C   0  0  0  0  0  0  0  0  0  0  0  0
    4.9007   -0.1841    0.5322 O   0  0  0  0  0  0  0  0  0  0  0  0
    3.7858    2.1765   -1.3817 C   0  0  0  0  0  0  0  0  0  0  0  0
    2.5364    0.2265    0.4745 H   0  0  0  0  0  0  0  0  0  0  0  0
    3.4149    0.2656   -2.3158 H   0  0  0  0  0  0  0  0  0  0  0  0
    3.9537    2.6008   -0.3850 H   0  0  0  0  0  0  0  0  0  0  0  0
    4.6533    2.4306   -1.9995 H   0  0  0  0  0  0  0  0  0  0  0  0
    2.9063    2.6701   -1.8091 H   0  0  0  0  0  0  0  0  0  0  0  0
    5.7370   -0.3724   -1.6243 N   0  0  0  0  0  0  0  0  0  0  0  0
    6.9894   -0.9986   -1.2703 C   0  0  0  0  0  0  0  0  0  0  0  0
    5.5408   -0.2293   -2.6105 H   0  0  0  0  0  0  0  0  0  0  0  0
    7.7609   -0.2262   -1.1352 H   0  0  0  0  0  0  0  0  0  0  0  0
    6.8660   -1.5612   -0.3332 H   0  0  0  0  0  0  0  0  0  0  0  0
    7.2954   -1.6858   -2.0729 H   0  0  0  0  0  0  0  0  0  0  0  0
  1  3  1  0  0  0  0
  1  7  1  0  0  0  0
  1  2  2  0  0  0  0
 42 43  1  0  0  0  0
 43 51  1  0  0  0  0
 43 44  2  0  0  0  0
  8  9  1  0  0  0  0
  9 17  1  0  0  0  0
  9 10  2  0  0  0  0
 18 19  1  0  0  0  0
 19 41  1  0  0  0  0
 19 20  2  0  0  0  0
 25 26  1  0  0  0  0
 25 27  1  0  0  0  0
 24 25  2  0  0  0  0
 42 45  1  0  0  0  0
  8 11  1  0  0  0  0
 51 52  1  0  0  0  0
 21 22  1  0  0  0  0
 22 23  1  0  0  0  0
 18 21  1  0  0  0  0
 23 24  1  0  0  0  0
 41 42  1  0  0  0  0
  7  8  1  0  0  0  0
 17 18  1  0  0  0  0
  3  4  1  0  0  0  0
  3  5  1  0  0  0  0
  3  6  1  0  0  0  0
 45 48  1  0  0  0  0
 45 49  1  0  0  0  0
 45 50  1  0  0  0  0
 11 14  1  0  0  0  0
 11 15  1  0  0  0  0
 11 16  1  0  0  0  0
 52 54  1  0  0  0  0
 52 55  1  0  0  0  0
 52 56  1  0  0  0  0
 22 32  1  0  0  0  0
 22 33  1  0  0  0  0
 21 30  1  0  0  0  0
 21 31  1  0  0  0  0
 23 34  1  0  0  0  0
 23 35  1  0  0  0  0
 42 47  1  0  0  0  0
  8 13  1  0  0  0  0
 18 29  1  0  0  0  0
 26 37  1  0  0  0  0
 26 38  1  0  0  0  0
 27 39  1  0  0  0  0
 27 40  1  0  0  0  0
 51 53  1  0  0  0  0
  7 12  1  0  0  0  0
 41 46  1  0  0  0  0
 17 28  1  0  0  0  0
 24 36  1  0  0  0  0
M  CHG  1  24   1
M  END
$$$$

  -OEChem-05262214473D

 56 55  0     1  0  0  0  0  0999 V2000
    0.7735   -5.8042   -2.0022 C   0  0  0  0  0  0  0  0  0  0  0  0
   -0.2086   -6.3825   -1.5519 O   0  0  0  0  0  0  0  0  0  0  0  0
    1.4751   -6.3646   -3.1946 C   0  0  0  0  0  0  0  0  0  0  0  0
    2.2765   -7.0687   -2.9186 H   0  0  0  0  0  0  0  0  0  0  0  0
    0.7988   -6.9360   -3.8504 H   0  0  0  0  0  0  0  0  0  0  0  0
    1.9556   -5.6216   -3.8511 H   0  0  0  0  0  0  0  0  0  0  0  0
    1.3322   -4.6359   -1.5106 N   0  0  0  0  0  0  0  0  0  0  0  0
    0.8124   -3.9290   -0.3698 C   0  0  2  0  0  0  0  0  0  0  0  0
    1.0666   -2.4424   -0.5818 C   0  0  0  0  0  0  0  0  0  0  0  0
    2.0598   -2.0076   -1.1610 O   0  0  0  0  0  0  0  0  0  0  0  0
    1.4560   -4.4118    0.9207 C   0  0  0  0  0  0  0  0  0  0  0  0
    2.1528   -4.2578   -1.9805 H   0  0  0  0  0  0  0  0  0  0  0  0
   -0.2667   -4.1160   -0.3467 H   0  0  0  0  0  0  0  0  0  0  0  0
    2.5374   -4.2329    0.9160 H   0  0  0  0  0  0  0  0  0  0  0  0
    1.0390   -3.8932    1.7903 H   0  0  0  0  0  0  0  0  0  0  0  0
    1.2976   -5.4871    1.0566 H   0  0  0  0  0  0  0  0  0  0  0  0
    0.0755   -1.6529   -0.0105 N   0  0  0  0  0  0  0  0  0  0  0  0
    0.1113   -0.2132   -0.0391 C   0  0  2  0  0  0  0  0  0  0  0  0
    1.1481    0.1987   -1.0788 C   0  0  0  0  0  0  0  0  0  0  0  0
    0.8469    0.6029   -2.2001 O   0  0  0  0  0  0  0  0  0  0  0  0
    0.4597    0.3815    1.3292 C   0  0  0  0  0  0  0  0  0  0  0  0
   -0.6392    0.1356    2.3699 C   0  0  0  0  0  0  0  0  0  0  0  0
   -0.2871    0.7297    3.7298 C   0  0  0  0  0  0  0  0  0  0  0  0
   -1.3261    0.4731    4.7247 N   0  3  0  0  0  0  0  0  0  0  0  0
   -1.1980    0.8674    6.0578 C   0  0  0  0  0  0  0  0  0  0  0  0
   -2.2280    0.5894    6.9502 N   0  0  0  0  0  0  0  0  0  0  0  0
   -0.0651    1.5322    6.5156 N   0  0  0  0  0  0  0  0  0  0  0  0
   -0.7323   -2.1024    0.4149 H   0  0  0  0  0  0  0  0  0  0  0  0
   -0.8785    0.1226   -0.3688 H   0  0  0  0  0  0  0  0  0  0  0  0
    0.6270    1.4604    1.2264 H   0  0  0  0  0  0  0  0  0  0  0  0
    1.4050   -0.0452    1.6900 H   0  0  0  0  0  0  0  0  0  0  0  0
   -1.5837    0.5658    2.0157 H   0  0  0  0  0  0  0  0  0  0  0  0
   -0.7954   -0.9423    2.4924 H   0  0  0  0  0  0  0  0  0  0  0  0
    0.6372    0.2767    4.1012 H   0  0  0  0  0  0  0  0  0  0  0  0
   -0.1447    1.8123    3.6585 H   0  0  0  0  0  0  0  0  0  0  0  0
   -2.1790   -0.0101    4.4483 H   0  0  0  0  0  0  0  0  0  0  0  0
   -2.1662    0.8633    7.9279 H   0  0  0  0  0  0  0  0  0  0  0  0
   -3.0699    0.1048    6.6489 H   0  0  0  0  0  0  0  0  0  0  0  0
    0.0331    1.8215    7.4853 H   0  0  0  0  0  0  0  0  0  0  0  0
    0.7041    1.7485    5.8859 H   0  0  0  0  0  0  0  0  0  0  0  0
    2.4462    0.0149   -0.6235 N   0  0  0  0  0  0  0  0  0  0  0  0
    3.6101    0.2847   -1.4359 C   0  0  2  0  0  0  0  0  0  0  0  0
    4.7019   -0.6985   -1.0347 C   0  0  0  0  0  0  0  0  0  0  0  0
    4.8492   -1.1043    0.1162 O   0  0  0  0  0  0  0  0  0  0  0  0
    4.0824    1.7203   -1.2666 C   0  0  0  0  0  0  0  0  0  0  0  0
    2.6002   -0.2937    0.3319 H   0  0  0  0  0  0  0  0  0  0  0  0
    3.3186    0.1031   -2.4762 H   0  0  0  0  0  0  0  0  0  0  0  0
    4.3788    1.9210   -0.2306 H   0  0  0  0  0  0  0  0  0  0  0  0
    4.9471    1.9313   -1.9045 H   0  0  0  0  0  0  0  0  0  0  0  0
    3.2861    2.4258   -1.5272 H   0  0  0  0  0  0  0  0  0  0  0  0
    5.5190   -1.0360   -2.1045 N   0  0  0  0  0  0  0  0  0  0  0  0
    6.6532   -1.9201   -1.9707 C   0  0  0  0  0  0  0  0  0  0  0  0
    5.2992   -0.6842   -3.0317 H   0  0  0  0  0  0  0  0  0  0  0  0
    7.5590   -1.3280   -1.7731 H   0  0  0  0  0  0  0  0  0  0  0  0
    6.4800   -2.6147   -1.1355 H   0  0  0  0  0  0  0  0  0  0  0  0
    6.7846   -2.4914   -2.9015 H   0  0  0  0  0  0  0  0  0  0  0  0
  1  3  1  0  0  0  0
  1  7  1  0  0  0  0
  1  2  2  0  0  0  0
 42 43  1  0  0  0  0
 43 51  1  0  0  0  0
 43 44  2  0  0  0  0
  8  9  1  0  0  0  0
  9 17  1  0  0  0  0
  9 10  2  0  0  0  0
 18 19  1  0  0  0  0
 19 41  1  0  0  0  0
 19 20  2  0  0  0  0
 25 26  1  0  0  0  0
 25 27  1  0  0  0  0
 24 25  2  0  0  0  0
 42 45  1  0  0  0  0
  8 11  1  0  0  0  0
 51 52  1  0  0  0  0
 21 22  1  0  0  0  0
 22 23  1  0  0  0  0
 18 21  1  0  0  0  0
 23 24  1  0  0  0  0
 41 42  1  0  0  0  0
  7  8  1  0  0  0  0
 17 18  1  0  0  0  0
  3  4  1  0  0  0  0
  3  5  1  0  0  0  0
  3  6  1  0  0  0  0
 45 48  1  0  0  0  0
 45 49  1  0  0  0  0
 45 50  1  0  0  0  0
 11 14  1  0  0  0  0
 11 15  1  0  0  0  0
 11 16  1  0  0  0  0
 52 54  1  0  0  0  0
 52 55  1  0  0  0  0
 52 56  1  0  0  0  0
 22 32  1  0  0  0  0
 22 33  1  0  0  0  0
 21 30  1  0  0  0  0
 21 31  1  0  0  0  0
 23 34  1  0  0  0  0
 23 35  1  0  0  0  0
 42 47  1  0  0  0  0
  8 13  1  0  0  0  0
 18 29  1  0  0  0  0
 26 37  1  0  0  0  0
 26 38  1  0  0  0  0
 27 39  1  0  0  0  0
 27 40  1  0  0  0  0
 51 53  1  0  0  0  0
  7 12  1  0  0  0  0
 41 46  1  0  0  0  0
 17 28  1  0  0  0  0
 24 36  1  0  0  0  0
M  CHG  1  24   1
M  END
$$$$

  -OEChem-05262214473D

 56 55  0     1  0  0  0  0  0999 V2000
    0.7735   -5.8042   -2.0022 C   0  0  0  0  0  0  0  0  0  0  0  0
   -0.2086   -6.3825   -1.5519 O   0  0  0  0  0  0  0  0  0  0  0  0
    1.4751   -6.3646   -3.1946 C   0  0  0  0  0  0  0  0  0  0  0  0
    2.2765   -7.0687   -2.9186 H   0  0  0  0  0  0  0  0  0  0  0  0
    0.7988   -6.9360   -3.8504 H   0  0  0  0  0  0  0  0  0  0  0  0
    1.9556   -5.6216   -3.8511 H   0  0  0  0  0  0  0  0  0  0  0  0
    1.3322   -4.6359   -1.5106 N   0  0  0  0  0  0  0  0  0  0  0  0
    0.8124   -3.9290   -0.3698 C   0  0  2  0  0  0  0  0  0  0  0  0
    1.0666   -2.4424   -0.5818 C   0  0  0  0  0  0  0  0  0  0  0  0
    2.0598   -2.0076   -1.1610 O   0  0  0  0  0  0  0  0  0  0  0  0
    1.4560   -4.4118    0.9207 C   0  0  0  0  0  0  0  0  0  0  0  0
    2.1528   -4.2578   -1.9805 H   0  0  0  0  0  0  0  0  0  0  0  0
   -0.2667   -4.1160   -0.3467 H   0  0  0  0  0  0  0  0  0  0  0  0
    2.5374   -4.2329    0.9160 H   0  0  0  0  0  0  0  0  0  0  0  0
    1.0390   -3.8932    1.7903 H   0  0  0  0  0  0  0  0  0  0  0  0
    1.2976   -5.4871    1.0566 H   0  0  0  0  0  0  0  0  0  0  0  0
    0.0755   -1.6529   -0.0105 N   0  0  0  0  0  0  0  0  0  0  0  0
    0.1113   -0.2132   -0.0391 C   0  0  2  0  0  0  0  0  0  0  0  0
    1.1481    0.1987   -1.0788 C   0  0  0  0  0  0  0  0  0  0  0  0
    0.8656    0.8457   -2.0852 O   0  0  0  0  0  0  0  0  0  0  0  0
    0.4597    0.3815    1.3292 C   0  0  0  0  0  0  0  0  0  0  0  0
   -0.6392    0.1356    2.3699 C   0  0  0  0  0  0  0  0  0  0  0  0
   -0.2871    0.7297    3.7298 C   0  0  0  0  0  0  0  0  0  0  0  0
   -1.3261    0.4731    4.7247 N   0  3  0  0  0  0  0  0  0  0  0  0
   -1.1980    0.8674    6.0578 C   0  0  0  0  0  0  0  0  0  0  0  0
   -2.2280    0.5894    6.9502 N   0  0  0  0  0  0  0  0  0  0  0  0
   -0.0651    1.5322    6.5156 N   0  0  0  0  0  0  0  0  0  0  0  0
   -0.7323   -2.1024    0.4149 H   0  0  0  0  0  0  0  0  0  0  0  0
   -0.8785    0.1226   -0.3688 H   0  0  0  0  0  0  0  0  0  0  0  0
    0.6270    1.4604    1.2264 H   0  0  0  0  0  0  0  0  0  0  0  0
    1.4050   -0.0452    1.6900 H   0  0  0  0  0  0  0  0  0  0  0  0
   -1.5837    0.5658    2.0157 H   0  0  0  0  0  0  0  0  0  0  0  0
   -0.7954   -0.9423    2.4924 H   0  0  0  0  0  0  0  0  0  0  0  0
    0.6372    0.2767    4.1012 H   0  0  0  0  0  0  0  0  0  0  0  0
   -0.1447    1.8123    3.6585 H   0  0  0  0  0  0  0  0  0  0  0  0
   -2.1790   -0.0101    4.4483 H   0  0  0  0  0  0  0  0  0  0  0  0
   -2.1662    0.8633    7.9279 H   0  0  0  0  0  0  0  0  0  0  0  0
   -3.0699    0.1048    6.6489 H   0  0  0  0  0  0  0  0  0  0  0  0
    0.0331    1.8215    7.4853 H   0  0  0  0  0  0  0  0  0  0  0  0
    0.7041    1.7485    5.8859 H   0  0  0  0  0  0  0  0  0  0  0  0
    2.4135   -0.2832   -0.7742 N   0  0  0  0  0  0  0  0  0  0  0  0
    3.5614   -0.0720   -1.6259 C   0  0  2  0  0  0  0  0  0  0  0  0
    4.4752   -1.2830   -1.4924 C   0  0  0  0  0  0  0  0  0  0  0  0
    4.6080   -1.9109   -0.4439 O   0  0  0  0  0  0  0  0  0  0  0  0
    4.2965    1.2070   -1.2565 C   0  0  0  0  0  0  0  0  0  0  0  0
    2.5599   -0.7824    0.0982 H   0  0  0  0  0  0  0  0  0  0  0  0
    3.1857   -0.0086   -2.6529 H   0  0  0  0  0  0  0  0  0  0  0  0
    4.6802    1.1621   -0.2307 H   0  0  0  0  0  0  0  0  0  0  0  0
    5.1494    1.3805   -1.9210 H   0  0  0  0  0  0  0  0  0  0  0  0
    3.6296    2.0733   -1.3243 H   0  0  0  0  0  0  0  0  0  0  0  0
    5.1578   -1.5541   -2.6700 N   0  0  0  0  0  0  0  0  0  0  0  0
    6.1169   -2.6277   -2.7858 C   0  0  0  0  0  0  0  0  0  0  0  0
    4.9561   -1.0070   -3.5017 H   0  0  0  0  0  0  0  0  0  0  0  0
    7.1250   -2.2444   -2.5690 H   0  0  0  0  0  0  0  0  0  0  0  0
    5.8651   -3.4230   -2.0688 H   0  0  0  0  0  0  0  0  0  0  0  0
    6.0911   -3.0336   -3.8078 H   0  0  0  0  0  0  0  0  0  0  0  0
  1  3  1  0  0  0  0
  1  7  1  0  0  0  0
  1  2  2  0  0  0  0
 42 43  1  0  0  0  0
 43 51  1  0  0  0  0
 43 44  2  0  0  0  0
  8  9  1  0  0  0  0
  9 17  1  0  0  0  0
  9 10  2  0  0  0  0
 18 19  1  0  0  0  0
 19 41  1  0  0  0  0
 19 20  2  0  0  0  0
 25 26  1  0  0  0  0
 25 27  1  0  0  0  0
 24 25  2  0  0  0  0
 42 45  1  0  0  0  0
  8 11  1  0  0  0  0
 51 52  1  0  0  0  0
 21 22  1  0  0  0  0
 22 23  1  0  0  0  0
 18 21  1  0  0  0  0
 23 24  1  0  0  0  0
 41 42  1  0  0  0  0
  7  8  1  0  0  0  0
 17 18  1  0  0  0  0
  3  4  1  0  0  0  0
  3  5  1  0  0  0  0
  3  6  1  0  0  0  0
 45 48  1  0  0  0  0
 45 49  1  0  0  0  0
 45 50  1  0  0  0  0
 11 14  1  0  0  0  0
 11 15  1  0  0  0  0
 11 16  1  0  0  0  0
 52 54  1  0  0  0  0
 52 55  1  0  0  0  0
 52 56  1  0  0  0  0
 22 32  1  0  0  0  0
 22 33  1  0  0  0  0
 21 30  1  0  0  0  0
 21 31  1  0  0  0  0
 23 34  1  0  0  0  0
 23 35  1  0  0  0  0
 42 47  1  0  0  0  0
  8 13  1  0  0  0  0
 18 29  1  0  0  0  0
 26 37  1  0  0  0  0
 26 38  1  0  0  0  0
 27 39  1  0  0  0  0
 27 40  1  0  0  0  0
 51 53  1  0  0  0  0
  7 12  1  0  0  0  0
 41 46  1  0  0  0  0
 17 28  1  0  0  0  0
 24 36  1  0  0  0  0
M  CHG  1  24   1
M  END
$$$$

  -OEChem-05262214473D

 56 55  0     1  0  0  0  0  0999 V2000
    0.7735   -5.8042   -2.0022 C   0  0  0  0  0  0  0  0  0  0  0  0
   -0.2086   -6.3825   -1.5519 O   0  0  0  0  0  0  0  0  0  0  0  0
    1.4751   -6.3646   -3.1946 C   0  0  0  0  0  0  0  0  0  0  0  0
    2.2765   -7.0687   -2.9186 H   0  0  0  0  0  0  0  0  0  0  0  0
    0.7988   -6.9360   -3.8504 H   0  0  0  0  0  0  0  0  0  0  0  0
    1.9556   -5.6216   -3.8511 H   0  0  0  0  0  0  0  0  0  0  0  0
    1.3322   -4.6359   -1.5106 N   0  0  0  0  0  0  0  0  0  0  0  0
    0.8124   -3.9290   -0.3698 C   0  0  2  0  0  0  0  0  0  0  0  0
    1.0666   -2.4424   -0.5818 C   0  0  0  0  0  0  0  0  0  0  0  0
    2.0598   -2.0076   -1.1610 O   0  0  0  0  0  0  0  0  0  0  0  0
    1.4560   -4.4118    0.9207 C   0  0  0  0  0  0  0  0  0  0  0  0
    2.1528   -4.2578   -1.9805 H   0  0  0  0  0  0  0  0  0  0  0  0
   -0.2667   -4.1160   -0.3467 H   0  0  0  0  0  0  0  0  0  0  0  0
    2.5374   -4.2329    0.9160 H   0  0  0  0  0  0  0  0  0  0  0  0
    1.0390   -3.8932    1.7903 H   0  0  0  0  0  0  0  0  0  0  0  0
    1.2976   -5.4871    1.0566 H   0  0  0  0  0  0  0  0  0  0  0  0
    0.0755   -1.6529   -0.0105 N   0  0  0  0  0  0  0  0  0  0  0  0
    0.1113   -0.2132   -0.0391 C   0  0  2  0  0  0  0  0  0  0  0  0
    1.1481    0.1987   -1.0788 C   0  0  0  0  0  0  0  0  0  0  0  0
    0.9345    1.0567   -1.9329 O   0  0  0  0  0  0  0  0  0  0  0  0
    0.4597    0.3815    1.3292 C   0  0  0  0  0  0  0  0  0  0  0  0
   -0.6392    0.1356    2.3699 C   0  0  0  0  0  0  0  0  0  0  0  0
   -0.2871    0.7297    3.7298 C   0  0  0  0  0  0  0  0  0  0  0  0
   -1.3261    0.4731    4.7247 N   0  3  0  0  0  0  0  0  0  0  0  0
   -1.1980    0.8674    6.0578 C   0  0  0  0  0  0  0  0  0  0  0  0
   -2.2280    0.5894    6.9502 N   0  0  0  0  0  0  0  0  0  0  0  0
   -0.0651    1.5322    6.5156 N   0  0  0  0  0  0  0  0  0  0  0  0
   -0.7323   -2.1024    0.4149 H   0  0  0  0  0  0  0  0  0  0  0  0
   -0.8785    0.1226   -0.3688 H   0  0  0  0  0  0  0  0  0  0  0  0
    0.6270    1.4604    1.2264 H   0  0  0  0  0  0  0  0  0  0  0  0
    1.4050   -0.0452    1.6900 H   0  0  0  0  0  0  0  0  0  0  0  0
   -1.5837    0.5658    2.0157 H   0  0  0  0  0  0  0  0  0  0  0  0
   -0.7954   -0.9423    2.4924 H   0  0  0  0  0  0  0  0  0  0  0  0
    0.6372    0.2767    4.1012 H   0  0  0  0  0  0  0  0  0  0  0  0
   -0.1447    1.8123    3.6585 H   0  0  0  0  0  0  0  0  0  0  0  0
   -2.1790   -0.0101    4.4483 H   0  0  0  0  0  0  0  0  0  0  0  0
   -2.1662    0.8633    7.9279 H   0  0  0  0  0  0  0  0  0  0  0  0
   -3.0699    0.1048    6.6489 H   0  0  0  0  0  0  0  0  0  0  0  0
    0.0331    1.8215    7.4853 H   0  0  0  0  0  0  0  0  0  0  0  0
    0.7041    1.7485    5.8859 H   0  0  0  0  0  0  0  0  0  0  0  0
    2.3187   -0.5389   -0.9700 N   0  0  0  0  0  0  0  0  0  0  0  0
    3.4381   -0.3745   -1.8687 C   0  0  2  0  0  0  0  0  0  0  0  0
    4.1211   -1.7271   -2.0214 C   0  0  0  0  0  0  0  0  0  0  0  0
    4.1935   -2.5488   -1.1100 O   0  0  0  0  0  0  0  0  0  0  0  0
    4.4134    0.6717   -1.3521 C   0  0  0  0  0  0  0  0  0  0  0  0
    2.4185   -1.2062   -0.2108 H   0  0  0  0  0  0  0  0  0  0  0  0
    3.0253   -0.0620   -2.8341 H   0  0  0  0  0  0  0  0  0  0  0  0
    4.8374    0.3760   -0.3854 H   0  0  0  0  0  0  0  0  0  0  0  0
    5.2464    0.8156   -2.0481 H   0  0  0  0  0  0  0  0  0  0  0  0
    3.9134    1.6365   -1.2145 H   0  0  0  0  0  0  0  0  0  0  0  0
    4.6779   -1.8912   -3.2821 N   0  0  0  0  0  0  0  0  0  0  0  0
    5.4171   -3.0730   -3.6601 C   0  0  0  0  0  0  0  0  0  0  0  0
    4.5348   -1.1755   -3.9885 H   0  0  0  0  0  0  0  0  0  0  0  0
    6.4884   -2.9130   -3.4686 H   0  0  0  0  0  0  0  0  0  0  0  0
    5.0634   -3.9310   -3.0696 H   0  0  0  0  0  0  0  0  0  0  0  0
    5.2622   -3.2755   -4.7302 H   0  0  0  0  0  0  0  0  0  0  0  0
  1  3  1  0  0  0  0
  1  7  1  0  0  0  0
  1  2  2  0  0  0  0
 42 43  1  0  0  0  0
 43 51  1  0  0  0  0
 43 44  2  0  0  0  0
  8  9  1  0  0  0  0
  9 17  1  0  0  0  0
  9 10  2  0  0  0  0
 18 19  1  0  0  0  0
 19 41  1  0  0  0  0
 19 20  2  0  0  0  0
 25 26  1  0  0  0  0
 25 27  1  0  0  0  0
 24 25  2  0  0  0  0
 42 45  1  0  0  0  0
  8 11  1  0  0  0  0
 51 52  1  0  0  0  0
 21 22  1  0  0  0  0
 22 23  1  0  0  0  0
 18 21  1  0  0  0  0
 23 24  1  0  0  0  0
 41 42  1  0  0  0  0
  7  8  1  0  0  0  0
 17 18  1  0  0  0  0
  3  4  1  0  0  0  0
  3  5  1  0  0  0  0
  3  6  1  0  0  0  0
 45 48  1  0  0  0  0
 45 49  1  0  0  0  0
 45 50  1  0  0  0  0
 11 14  1  0  0  0  0
 11 15  1  0  0  0  0
 11 16  1  0  0  0  0
 52 54  1  0  0  0  0
 52 55  1  0  0  0  0
 52 56  1  0  0  0  0
 22 32  1  0  0  0  0
 22 33  1  0  0  0  0
 21 30  1  0  0  0  0
 21 31  1  0  0  0  0
 23 34  1  0  0  0  0
 23 35  1  0  0  0  0
 42 47  1  0  0  0  0
  8 13  1  0  0  0  0
 18 29  1  0  0  0  0
 26 37  1  0  0  0  0
 26 38  1  0  0  0  0
 27 39  1  0  0  0  0
 27 40  1  0  0  0  0
 51 53  1  0  0  0  0
  7 12  1  0  0  0  0
 41 46  1  0  0  0  0
 17 28  1  0  0  0  0
 24 36  1  0  0  0  0
M  CHG  1  24   1
M  END
$$$$

  -OEChem-05262214473D

 56 55  0     1  0  0  0  0  0999 V2000
    0.7735   -5.8042   -2.0022 C   0  0  0  0  0  0  0  0  0  0  0  0
   -0.2086   -6.3825   -1.5519 O   0  0  0  0  0  0  0  0  0  0  0  0
    1.4751   -6.3646   -3.1946 C   0  0  0  0  0  0  0  0  0  0  0  0
    2.2765   -7.0687   -2.9186 H   0  0  0  0  0  0  0  0  0  0  0  0
    0.7988   -6.9360   -3.8504 H   0  0  0  0  0  0  0  0  0  0  0  0
    1.9556   -5.6216   -3.8511 H   0  0  0  0  0  0  0  0  0  0  0  0
    1.3322   -4.6359   -1.5106 N   0  0  0  0  0  0  0  0  0  0  0  0
    0.8124   -3.9290   -0.3698 C   0  0  2  0  0  0  0  0  0  0  0  0
    1.0666   -2.4424   -0.5818 C   0  0  0  0  0  0  0  0  0  0  0  0
    2.0598   -2.0076   -1.1610 O   0  0  0  0  0  0  0  0  0  0  0  0
    1.4560   -4.4118    0.9207 C   0  0  0  0  0  0  0  0  0  0  0  0
    2.1528   -4.2578   -1.9805 H   0  0  0  0  0  0  0  0  0  0  0  0
   -0.2667   -4.1160   -0.3467 H   0  0  0  0  0  0  0  0  0  0  0  0
    2.5374   -4.2329    0.9160 H   0  0  0  0  0  0  0  0  0  0  0  0
    1.0390   -3.8932    1.7903 H   0  0  0  0  0  0  0  0  0  0  0  0
    1.2976   -5.4871    1.0566 H   0  0  0  0  0  0  0  0  0  0  0  0
    0.0755   -1.6529   -0.0105 N   0  0  0  0  0  0  0  0  0  0  0  0
    0.1113   -0.2132   -0.0391 C   0  0  2  0  0  0  0  0  0  0  0  0
    1.1481    0.1987   -1.0788 C   0  0  0  0  0  0  0  0  0  0  0  0
    1.0490    1.2216   -1.7534 O   0  0  0  0  0  0  0  0  0  0  0  0
    0.4597    0.3815    1.3292 C   0  0  0  0  0  0  0  0  0  0  0  0
   -0.6392    0.1356    2.3699 C   0  0  0  0  0  0  0  0  0  0  0  0
   -0.2871    0.7297    3.7298 C   0  0  0  0  0  0  0  0  0  0  0  0
   -1.3261    0.4731    4.7247 N   0  3  0  0  0  0  0  0  0  0  0  0
   -1.1980    0.8674    6.0578 C   0  0  0  0  0  0  0  0  0  0  0  0
   -2.2280    0.5894    6.9502 N   0  0  0  0  0  0  0  0  0  0  0  0
   -0.0651    1.5322    6.5156 N   0  0  0  0  0  0  0  0  0  0  0  0
   -0.7323   -2.1024    0.4149 H   0  0  0  0  0  0  0  0  0  0  0  0
   -0.8785    0.1226   -0.3688 H   0  0  0  0  0  0  0  0  0  0  0  0
    0.6270    1.4604    1.2264 H   0  0  0  0  0  0  0  0  0  0  0  0
    1.4050   -0.0452    1.6900 H   0  0  0  0  0  0  0  0  0  0  0  0
   -1.5837    0.5658    2.0157 H   0  0  0  0  0  0  0  0  0  0  0  0
   -0.7954   -0.9423    2.4924 H   0  0  0  0  0  0  0  0  0  0  0  0
    0.6372    0.2767    4.1012 H   0  0  0  0  0  0  0  0  0  0  0  0
   -0.1447    1.8123    3.6585 H   0  0  0  0  0  0  0  0  0  0  0  0
   -2.1790   -0.0101    4.4483 H   0  0  0  0  0  0  0  0  0  0  0  0
   -2.1662    0.8633    7.9279 H   0  0  0  0  0  0  0  0  0  0  0  0
   -3.0699    0.1048    6.6489 H   0  0  0  0  0  0  0  0  0  0  0  0
    0.0331    1.8215    7.4853 H   0  0  0  0  0  0  0  0  0  0  0  0
    0.7041    1.7485    5.8859 H   0  0  0  0  0  0  0  0  0  0  0  0
    2.1684   -0.7347   -1.1975 N   0  0  0  0  0  0  0  0  0  0  0  0
    3.2486   -0.6022   -2.1478 C   0  0  2  0  0  0  0  0  0  0  0  0
    3.6637   -2.0005   -2.5859 C   0  0  0  0  0  0  0  0  0  0  0  0
    3.6339   -2.9747   -1.8367 O   0  0  0  0  0  0  0  0  0  0  0  0
    4.4252    0.1508   -1.5467 C   0  0  0  0  0  0  0  0  0  0  0  0
    2.1855   -1.5362   -0.5739 H   0  0  0  0  0  0  0  0  0  0  0  0
    2.8483   -0.0534   -3.0072 H   0  0  0  0  0  0  0  0  0  0  0  0
    4.8397   -0.3839   -0.6842 H   0  0  0  0  0  0  0  0  0  0  0  0
    5.2315    0.2752   -2.2770 H   0  0  0  0  0  0  0  0  0  0  0  0
    4.1181    1.1451   -1.2051 H   0  0  0  0  0  0  0  0  0  0  0  0
    4.1121   -2.0244   -3.8991 N   0  0  0  0  0  0  0  0  0  0  0  0
    4.6013   -3.2259   -4.5341 C   0  0  0  0  0  0  0  0  0  0  0  0
    4.0642   -1.1783   -4.4589 H   0  0  0  0  0  0  0  0  0  0  0  0
    5.6926   -3.2881   -4.4108 H   0  0  0  0  0  0  0  0  0  0  0  0
    4.1293   -4.1042   -4.0697 H   0  0  0  0  0  0  0  0  0  0  0  0
    4.3544   -3.2006   -5.6057 H   0  0  0  0  0  0  0  0  0  0  0  0
  1  3  1  0  0  0  0
  1  7  1  0  0  0  0
  1  2  2  0  0  0  0
 42 43  1  0  0  0  0
 43 51  1  0  0  0  0
 43 44  2  0  0  0  0
  8  9  1  0  0  0  0
  9 17  1  0  0  0  0
  9 10  2  0  0  0  0
 18 19  1  0  0  0  0
 19 41  1  0  0  0  0
 19 20  2  0  0  0  0
 25 26  1  0  0  0  0
 25 27  1  0  0  0  0
 24 25  2  0  0  0  0
 42 45  1  0  0  0  0
  8 11  1  0  0  0  0
 51 52  1  0  0  0  0
 21 22  1  0  0  0  0
 22 23  1  0  0  0  0
 18 21  1  0  0  0  0
 23 24  1  0  0  0  0
 41 42  1  0  0  0  0
  7  8  1  0  0  0  0
 17 18  1  0  0  0  0
  3  4  1  0  0  0  0
  3  5  1  0  0  0  0
  3  6  1  0  0  0  0
 45 48  1  0  0  0  0
 45 49  1  0  0  0  0
 45 50  1  0  0  0  0
 11 14  1  0  0  0  0
 11 15  1  0  0  0  0
 11 16  1  0  0  0  0
 52 54  1  0  0  0  0
 52 55  1  0  0  0  0
 52 56  1  0  0  0  0
 22 32  1  0  0  0  0
 22 33  1  0  0  0  0
 21 30  1  0  0  0  0
 21 31  1  0  0  0  0
 23 34  1  0  0  0  0
 23 35  1  0  0  0  0
 42 47  1  0  0  0  0
  8 13  1  0  0  0  0
 18 29  1  0  0  0  0
 26 37  1  0  0  0  0
 26 38  1  0  0  0  0
 27 39  1  0  0  0  0
 27 40  1  0  0  0  0
 51 53  1  0  0  0  0
  7 12  1  0  0  0  0
 41 46  1  0  0  0  0
 17 28  1  0  0  0  0
 24 36  1  0  0  0  0
M  CHG  1  24   1
M  END
$$$$

  -OEChem-05262214473D

 56 55  0     1  0  0  0  0  0999 V2000
    0.7735   -5.8042   -2.0022 C   0  0  0  0  0  0  0  0  0  0  0  0
   -0.2086   -6.3825   -1.5519 O   0  0  0  0  0  0  0  0  0  0  0  0
    1.4751   -6.3646   -3.1946 C   0  0  0  0  0  0  0  0  0  0  0  0
    2.2765   -7.0687   -2.9186 H   0  0  0  0  0  0  0  0  0  0  0  0
    0.7988   -6.9360   -3.8504 H   0  0  0  0  0  0  0  0  0  0  0  0
    1.9556   -5.6216   -3.8511 H   0  0  0  0  0  0  0  0  0  0  0  0
    1.3322   -4.6359   -1.5106 N   0  0  0  0  0  0  0  0  0  0  0  0
    0.8124   -3.9290   -0.3698 C   0  0  2  0  0  0  0  0  0  0  0  0
    1.0666   -2.4424   -0.5818 C   0  0  0  0  0  0  0  0  0  0  0  0
    2.0598   -2.0076   -1.1610 O   0  0  0  0  0  0  0  0  0  0  0  0
    1.4560   -4.4118    0.9207 C   0  0  0  0  0  0  0  0  0  0  0  0
    2.1528   -4.2578   -1.9805 H   0  0  0  0  0  0  0  0  0  0  0  0
   -0.2667   -4.1160   -0.3467 H   0  0  0  0  0  0  0  0  0  0  0  0
    2.5374   -4.2329    0.9160 H   0  0  0  0  0  0  0  0  0  0  0  0
    1.0390   -3.8932    1.7903 H   0  0  0  0  0  0  0  0  0  0  0  0
    1.2976   -5.4871    1.0566 H   0  0  0  0  0  0  0  0  0  0  0  0
    0.0755   -1.6529   -0.0105 N   0  0  0  0  0  0  0  0  0  0  0  0
    0.1113   -0.2132   -0.0391 C   0  0  2  0  0  0  0  0  0  0  0  0
    1.1481    0.1987   -1.0788 C   0  0  0  0  0  0  0  0  0  0  0  0
    1.2012    1.3291   -1.5591 O   0  0  0  0  0  0  0  0  0  0  0  0
    0.4597    0.3815    1.3292 C   0  0  0  0  0  0  0  0  0  0  0  0
   -0.6392    0.1356    2.3699 C   0  0  0  0  0  0  0  0  0  0  0  0
   -0.2871    0.7297    3.7298 C   0  0  0  0  0  0  0  0  0  0  0  0
   -1.3261    0.4731    4.7247 N   0  3  0  0  0  0  0  0  0  0  0  0
   -1.1980    0.8674    6.0578 C   0  0  0  0  0  0  0  0  0  0  0  0
   -2.2280    0.5894    6.9502 N   0  0  0  0  0  0  0  0  0  0  0  0
   -0.0651    1.5322    6.5156 N   0  0  0  0  0  0  0  0  0  0  0  0
   -0.7323   -2.1024    0.4149 H   0  0  0  0  0  0  0  0  0  0  0  0
   -0.8785    0.1226   -0.3688 H   0  0  0  0  0  0  0  0  0  0  0  0
    0.6270    1.4604    1.2264 H   0  0  0  0  0  0  0  0  0  0  0  0
    1.4050   -0.0452    1.6900 H   0  0  0  0  0  0  0  0  0  0  0  0
   -1.5837    0.5658    2.0157 H   0  0  0  0  0  0  0  0  0  0  0  0
   -0.7954   -0.9423    2.4924 H   0  0  0  0  0  0  0  0  0  0  0  0
    0.6372    0.2767    4.1012 H   0  0  0  0  0  0  0  0  0  0  0  0
   -0.1447    1.8123    3.6585 H   0  0  0  0  0  0  0  0  0  0  0  0
   -2.1790   -0.0101    4.4483 H   0  0  0  0  0  0  0  0  0  0  0  0
   -2.1662    0.8633    7.9279 H   0  0  0  0  0  0  0  0  0  0  0  0
   -3.0699    0.1048    6.6489 H   0  0  0  0  0  0  0  0  0  0  0  0
    0.0331    1.8215    7.4853 H   0  0  0  0  0  0  0  0  0  0  0  0
    0.7041    1.7485    5.8859 H   0  0  0  0  0  0  0  0  0  0  0  0
    1.9728   -0.8572   -1.4412 N   0  0  0  0  0  0  0  0  0  0  0  0
    3.0059   -0.7396   -2.4442 C   0  0  2  0  0  0  0  0  0  0  0  0
    3.1342   -2.0846   -3.1472 C   0  0  0  0  0  0  0  0  0  0  0  0
    2.9675   -3.1594   -2.5744 O   0  0  0  0  0  0  0  0  0  0  0  0
    4.3311   -0.3202   -1.8272 C   0  0  0  0  0  0  0  0  0  0  0  0
    1.8768   -1.7500   -0.9664 H   0  0  0  0  0  0  0  0  0  0  0  0
    2.6667    0.0166   -3.1606 H   0  0  0  0  0  0  0  0  0  0  0  0
    4.6869   -1.0657   -1.1067 H   0  0  0  0  0  0  0  0  0  0  0  0
    5.1058   -0.2039   -2.5922 H   0  0  0  0  0  0  0  0  0  0  0  0
    4.2297    0.6327   -1.2967 H   0  0  0  0  0  0  0  0  0  0  0  0
    3.4990   -1.9448   -4.4789 N   0  0  0  0  0  0  0  0  0  0  0  0
    3.7253   -3.0758   -5.3482 C   0  0  0  0  0  0  0  0  0  0  0  0
    3.5762   -1.0151   -4.8809 H   0  0  0  0  0  0  0  0  0  0  0  0
    4.7919   -3.3443   -5.3312 H   0  0  0  0  0  0  0  0  0  0  0  0
    3.1266   -3.9306   -5.0008 H   0  0  0  0  0  0  0  0  0  0  0  0
    3.4295   -2.8140   -6.3748 H   0  0  0  0  0  0  0  0  0  0  0  0
  1  3  1  0  0  0  0
  1  7  1  0  0  0  0
  1  2  2  0  0  0  0
 42 43  1  0  0  0  0
 43 51  1  0  0  0  0
 43 44  2  0  0  0  0
  8  9  1  0  0  0  0
  9 17  1  0  0  0  0
  9 10  2  0  0  0  0
 18 19  1  0  0  0  0
 19 41  1  0  0  0  0
 19 20  2  0  0  0  0
 25 26  1  0  0  0  0
 25 27  1  0  0  0  0
 24 25  2  0  0  0  0
 42 45  1  0  0  0  0
  8 11  1  0  0  0  0
 51 52  1  0  0  0  0
 21 22  1  0  0  0  0
 22 23  1  0  0  0  0
 18 21  1  0  0  0  0
 23 24  1  0  0  0  0
 41 42  1  0  0  0  0
  7  8  1  0  0  0  0
 17 18  1  0  0  0  0
  3  4  1  0  0  0  0
  3  5  1  0  0  0  0
  3  6  1  0  0  0  0
 45 48  1  0  0  0  0
 45 49  1  0  0  0  0
 45 50  1  0  0  0  0
 11 14  1  0  0  0  0
 11 15  1  0  0  0  0
 11 16  1  0  0  0  0
 52 54  1  0  0  0  0
 52 55  1  0  0  0  0
 52 56  1  0  0  0  0
 22 32  1  0  0  0  0
 22 33  1  0  0  0  0
 21 30  1  0  0  0  0
 21 31  1  0  0  0  0
 23 34  1  0  0  0  0
 23 35  1  0  0  0  0
 42 47  1  0  0  0  0
  8 13  1  0  0  0  0
 18 29  1  0  0  0  0
 26 37  1  0  0  0  0
 26 38  1  0  0  0  0
 27 39  1  0  0  0  0
 27 40  1  0  0  0  0
 51 53  1  0  0  0  0
  7 12  1  0  0  0  0
 41 46  1  0  0  0  0
 17 28  1  0  0  0  0
 24 36  1  0  0  0  0
M  CHG  1  24   1
M  END
$$$$

  -OEChem-05262214473D

 56 55  0     1  0  0  0  0  0999 V2000
    0.7735   -5.8042   -2.0022 C   0  0  0  0  0  0  0  0  0  0  0  0
   -0.2086   -6.3825   -1.5519 O   0  0  0  0  0  0  0  0  0  0  0  0
    1.4751   -6.3646   -3.1946 C   0  0  0  0  0  0  0  0  0  0  0  0
    2.2765   -7.0687   -2.9186 H   0  0  0  0  0  0  0  0  0  0  0  0
    0.7988   -6.9360   -3.8504 H   0  0  0  0  0  0  0  0  0  0  0  0
    1.9556   -5.6216   -3.8511 H   0  0  0  0  0  0  0  0  0  0  0  0
    1.3322   -4.6359   -1.5106 N   0  0  0  0  0  0  0  0  0  0  0  0
    0.8124   -3.9290   -0.3698 C   0  0  2  0  0  0  0  0  0  0  0  0
    1.0666   -2.4424   -0.5818 C   0  0  0  0  0  0  0  0  0  0  0  0
    2.0598   -2.0076   -1.1610 O   0  0  0  0  0  0  0  0  0  0  0  0
    1.4560   -4.4118    0.9207 C   0  0  0  0  0  0  0  0  0  0  0  0
    2.1528   -4.2578   -1.9805 H   0  0  0  0  0  0  0  0  0  0  0  0
   -0.2667   -4.1160   -0.3467 H   0  0  0  0  0  0  0  0  0  0  0  0
    2.5374   -4.2329    0.9160 H   0  0  0  0  0  0  0  0  0  0  0  0
    1.0390   -3.8932    1.7903 H   0  0  0  0  0  0  0  0  0  0  0  0
    1.2976   -5.4871    1.0566 H   0  0  0  0  0  0  0  0  0  0  0  0
    0.0755   -1.6529   -0.0105 N   0  0  0  0  0  0  0  0  0  0  0  0
    0.1113   -0.2132   -0.0391 C   0  0  2  0  0  0  0  0  0  0  0  0
    1.1481    0.1987   -1.0788 C   0  0  0  0  0  0  0  0  0  0  0  0
    1.3808    1.3719   -1.3630 O   0  0  0  0  0  0  0  0  0  0  0  0
    0.4597    0.3815    1.3292 C   0  0  0  0  0  0  0  0  0  0  0  0
   -0.6392    0.1356    2.3699 C   0  0  0  0  0  0  0  0  0  0  0  0
   -0.2871    0.7297    3.7298 C   0  0  0  0  0  0  0  0  0  0  0  0
   -1.3261    0.4731    4.7247 N   0  3  0  0  0  0  0  0  0  0  0  0
   -1.1980    0.8674    6.0578 C   0  0  0  0  0  0  0  0  0  0  0  0
   -2.2280    0.5894    6.9502 N   0  0  0  0  0  0  0  0  0  0  0  0
   -0.0651    1.5322    6.5156 N   0  0  0  0  0  0  0  0  0  0  0  0
   -0.7323   -2.1024    0.4149 H   0  0  0  0  0  0  0  0  0  0  0  0
   -0.8785    0.1226   -0.3688 H   0  0  0  0  0  0  0  0  0  0  0  0
    0.6270    1.4604    1.2264 H   0  0  0  0  0  0  0  0  0  0  0  0
    1.4050   -0.0452    1.6900 H   0  0  0  0  0  0  0  0  0  0  0  0
   -1.5837    0.5658    2.0157 H   0  0  0  0  0  0  0  0  0  0  0  0
   -0.7954   -0.9423    2.4924 H   0  0  0  0  0  0  0  0  0  0  0  0
    0.6372    0.2767    4.1012 H   0  0  0  0  0  0  0  0  0  0  0  0
   -0.1447    1.8123    3.6585 H   0  0  0  0  0  0  0  0  0  0  0  0
   -2.1790   -0.0101    4.4483 H   0  0  0  0  0  0  0  0  0  0  0  0
   -2.1662    0.8633    7.9279 H   0  0  0  0  0  0  0  0  0  0  0  0
   -3.0699    0.1048    6.6489 H   0  0  0  0  0  0  0  0  0  0  0  0
    0.0331    1.8215    7.4853 H   0  0  0  0  0  0  0  0  0  0  0  0
    0.7041    1.7485    5.8859 H   0  0  0  0  0  0  0  0  0  0  0  0
    1.7451   -0.8982   -1.6844 N   0  0  0  0  0  0  0  0  0  0  0  0
    2.7265   -0.7774   -2.7378 C   0  0  2  0  0  0  0  0  0  0  0  0
    2.5687   -1.9736   -3.6671 C   0  0  0  0  0  0  0  0  0  0  0  0
    2.2397   -3.0905   -3.2729 O   0  0  0  0  0  0  0  0  0  0  0  0
    4.1374   -0.7092   -2.1744 C   0  0  0  0  0  0  0  0  0  0  0  0
    1.5135   -1.8330   -1.3616 H   0  0  0  0  0  0  0  0  0  0  0  0
    2.4929    0.1432   -3.2837 H   0  0  0  0  0  0  0  0  0  0  0  0
    4.3895   -1.6230   -1.6241 H   0  0  0  0  0  0  0  0  0  0  0  0
    4.8778   -0.5890   -2.9722 H   0  0  0  0  0  0  0  0  0  0  0  0
    4.2408    0.1342   -1.4833 H   0  0  0  0  0  0  0  0  0  0  0  0
    2.8802   -1.6576   -4.9821 N   0  0  0  0  0  0  0  0  0  0  0  0
    2.8487   -2.6330   -6.0468 C   0  0  0  0  0  0  0  0  0  0  0  0
    3.1041   -0.6972   -5.2256 H   0  0  0  0  0  0  0  0  0  0  0  0
    3.8476   -3.0776   -6.1671 H   0  0  0  0  0  0  0  0  0  0  0  0
    2.1235   -3.4222   -5.7995 H   0  0  0  0  0  0  0  0  0  0  0  0
    2.5506   -2.1420   -6.9850 H   0  0  0  0  0  0  0  0  0  0  0  0
  1  3  1  0  0  0  0
  1  7  1  0  0  0  0
  1  2  2  0  0  0  0
 42 43  1  0  0  0  0
 43 51  1  0  0  0  0
 43 44  2  0  0  0  0
  8  9  1  0  0  0  0
  9 17  1  0  0  0  0
  9 10  2  0  0  0  0
 18 19  1  0  0  0  0
 19 41  1  0  0  0  0
 19 20  2  0  0  0  0
 25 26  1  0  0  0  0
 25 27  1  0  0  0  0
 24 25  2  0  0  0  0
 42 45  1  0  0  0  0
  8 11  1  0  0  0  0
 51 52  1  0  0  0  0
 21 22  1  0  0  0  0
 22 23  1  0  0  0  0
 18 21  1  0  0  0  0
 23 24  1  0  0  0  0
 41 42  1  0  0  0  0
  7  8  1  0  0  0  0
 17 18  1  0  0  0  0
  3  4  1  0  0  0  0
  3  5  1  0  0  0  0
  3  6  1  0  0  0  0
 45 48  1  0  0  0  0
 45 49  1  0  0  0  0
 45 50  1  0  0  0  0
 11 14  1  0  0  0  0
 11 15  1  0  0  0  0
 11 16  1  0  0  0  0
 52 54  1  0  0  0  0
 52 55  1  0  0  0  0
 52 56  1  0  0  0  0
 22 32  1  0  0  0  0
 22 33  1  0  0  0  0
 21 30  1  0  0  0  0
 21 31  1  0  0  0  0
 23 34  1  0  0  0  0
 23 35  1  0  0  0  0
 42 47  1  0  0  0  0
  8 13  1  0  0  0  0
 18 29  1  0  0  0  0
 26 37  1  0  0  0  0
 26 38  1  0  0  0  0
 27 39  1  0  0  0  0
 27 40  1  0  0  0  0
 51 53  1  0  0  0  0
  7 12  1  0  0  0  0
 41 46  1  0  0  0  0
 17 28  1  0  0  0  0
 24 36  1  0  0  0  0
M  CHG  1  24   1
M  END
$$$$

  -OEChem-05262214473D

 56 55  0     1  0  0  0  0  0999 V2000
    0.7735   -5.8042   -2.0022 C   0  0  0  0  0  0  0  0  0  0  0  0
   -0.2086   -6.3825   -1.5519 O   0  0  0  0  0  0  0  0  0  0  0  0
    1.4751   -6.3646   -3.1946 C   0  0  0  0  0  0  0  0  0  0  0  0
    2.2765   -7.0687   -2.9186 H   0  0  0  0  0  0  0  0  0  0  0  0
    0.7988   -6.9360   -3.8504 H   0  0  0  0  0  0  0  0  0  0  0  0
    1.9556   -5.6216   -3.8511 H   0  0  0  0  0  0  0  0  0  0  0  0
    1.3322   -4.6359   -1.5106 N   0  0  0  0  0  0  0  0  0  0  0  0
    0.8124   -3.9290   -0.3698 C   0  0  2  0  0  0  0  0  0  0  0  0
    1.0666   -2.4424   -0.5818 C   0  0  0  0  0  0  0  0  0  0  0  0
    2.0598   -2.0076   -1.1610 O   0  0  0  0  0  0  0  0  0  0  0  0
    1.4560   -4.4118    0.9207 C   0  0  0  0  0  0  0  0  0  0  0  0
    2.1528   -4.2578   -1.9805 H   0  0  0  0  0  0  0  0  0  0  0  0
   -0.2667   -4.1160   -0.3467 H   0  0  0  0  0  0  0  0  0  0  0  0
    2.5374   -4.2329    0.9160 H   0  0  0  0  0  0  0  0  0  0  0  0
    1.0390   -3.8932    1.7903 H   0  0  0  0  0  0  0  0  0  0  0  0
    1.2976   -5.4871    1.0566 H   0  0  0  0  0  0  0  0  0  0  0  0
    0.0755   -1.6529   -0.0105 N   0  0  0  0  0  0  0  0  0  0  0  0
    0.1113   -0.2132   -0.0391 C   0  0  2  0  0  0  0  0  0  0  0  0
    1.1481    0.1987   -1.0788 C   0  0  0  0  0  0  0  0  0  0  0  0
    1.5755    1.3470   -1.1787 O   0  0  0  0  0  0  0  0  0  0  0  0
    0.4597    0.3815    1.3292 C   0  0  0  0  0  0  0  0  0  0  0  0
   -0.6392    0.1356    2.3699 C   0  0  0  0  0  0  0  0  0  0  0  0
   -0.2871    0.7297    3.7298 C   0  0  0  0  0  0  0  0  0  0  0  0
   -1.3261    0.4731    4.7247 N   0  3  0  0  0  0  0  0  0  0  0  0
   -1.1980    0.8674    6.0578 C   0  0  0  0  0  0  0  0  0  0  0  0
   -2.2280    0.5894    6.9502 N   0  0  0  0  0  0  0  0  0  0  0  0
   -0.0651    1.5322    6.5156 N   0  0  0  0  0  0  0  0  0  0  0  0
   -0.7323   -2.1024    0.4149 H   0  0  0  0  0  0  0  0  0  0  0  0
   -0.8785    0.1226   -0.3688 H   0  0  0  0  0  0  0  0  0  0  0  0
    0.6270    1.4604    1.2264 H   0  0  0  0  0  0  0  0  0  0  0  0
    1.4050   -0.0452    1.6900 H   0  0  0  0  0  0  0  0  0  0  0  0
   -1.5837    0.5658    2.0157 H   0  0  0  0  0  0  0  0  0  0  0  0
   -0.7954   -0.9423    2.4924 H   0  0  0  0  0  0  0  0  0  0  0  0
    0.6372    0.2767    4.1012 H   0  0  0  0  0  0  0  0  0  0  0  0
   -0.1447    1.8123    3.6585 H   0  0  0  0  0  0  0  0  0  0  0  0
   -2.1790   -0.0101    4.4483 H   0  0  0  0  0  0  0  0  0  0  0  0
   -2.1662    0.8633    7.9279 H   0  0  0  0  0  0  0  0  0  0  0  0
   -3.0699    0.1048    6.6489 H   0  0  0  0  0  0  0  0  0  0  0  0
    0.0331    1.8215    7.4853 H   0  0  0  0  0  0  0  0  0  0  0  0
    0.7041    1.7485    5.8859 H   0  0  0  0  0  0  0  0  0  0  0  0
    1.5010   -0.8548   -1.9107 N   0  0  0  0  0  0  0  0  0  0  0  0
    2.4294   -0.7129   -3.0085 C   0  0  2  0  0  0  0  0  0  0  0  0
    2.0056   -1.6751   -4.1103 C   0  0  0  0  0  0  0  0  0  0  0  0
    1.4999   -2.7725   -3.8845 O   0  0  0  0  0  0  0  0  0  0  0  0
    3.8574   -0.9897   -2.5647 C   0  0  0  0  0  0  0  0  0  0  0  0
    1.1203   -1.7795   -1.7325 H   0  0  0  0  0  0  0  0  0  0  0  0
    2.3388    0.3179   -3.3681 H   0  0  0  0  0  0  0  0  0  0  0  0
    3.9678   -2.0178   -2.2011 H   0  0  0  0  0  0  0  0  0  0  0  0
    4.5631   -0.8539   -3.3910 H   0  0  0  0  0  0  0  0  0  0  0  0
    4.1504   -0.3164   -1.7519 H   0  0  0  0  0  0  0  0  0  0  0  0
    2.2980   -1.1824   -5.3744 N   0  0  0  0  0  0  0  0  0  0  0  0
    2.0313   -1.9276   -6.5825 C   0  0  0  0  0  0  0  0  0  0  0  0
    2.6802   -0.2461   -5.4697 H   0  0  0  0  0  0  0  0  0  0  0  0
    2.9241   -2.5063   -6.8617 H   0  0  0  0  0  0  0  0  0  0  0  0
    1.1885   -2.6136   -6.4114 H   0  0  0  0  0  0  0  0  0  0  0  0
    1.7775   -1.2305   -7.3947 H   0  0  0  0  0  0  0  0  0  0  0  0
  1  3  1  0  0  0  0
  1  7  1  0  0  0  0
  1  2  2  0  0  0  0
 42 43  1  0  0  0  0
 43 51  1  0  0  0  0
 43 44  2  0  0  0  0
  8  9  1  0  0  0  0
  9 17  1  0  0  0  0
  9 10  2  0  0  0  0
 18 19  1  0  0  0  0
 19 41  1  0  0  0  0
 19 20  2  0  0  0  0
 25 26  1  0  0  0  0
 25 27  1  0  0  0  0
 24 25  2  0  0  0  0
 42 45  1  0  0  0  0
  8 11  1  0  0  0  0
 51 52  1  0  0  0  0
 21 22  1  0  0  0  0
 22 23  1  0  0  0  0
 18 21  1  0  0  0  0
 23 24  1  0  0  0  0
 41 42  1  0  0  0  0
  7  8  1  0  0  0  0
 17 18  1  0  0  0  0
  3  4  1  0  0  0  0
  3  5  1  0  0  0  0
  3  6  1  0  0  0  0
 45 48  1  0  0  0  0
 45 49  1  0  0  0  0
 45 50  1  0  0  0  0
 11 14  1  0  0  0  0
 11 15  1  0  0  0  0
 11 16  1  0  0  0  0
 52 54  1  0  0  0  0
 52 55  1  0  0  0  0
 52 56  1  0  0  0  0
 22 32  1  0  0  0  0
 22 33  1  0  0  0  0
 21 30  1  0  0  0  0
 21 31  1  0  0  0  0
 23 34  1  0  0  0  0
 23 35  1  0  0  0  0
 42 47  1  0  0  0  0
  8 13  1  0  0  0  0
 18 29  1  0  0  0  0
 26 37  1  0  0  0  0
 26 38  1  0  0  0  0
 27 39  1  0  0  0  0
 27 40  1  0  0  0  0
 51 53  1  0  0  0  0
  7 12  1  0  0  0  0
 41 46  1  0  0  0  0
 17 28  1  0  0  0  0
 24 36  1  0  0  0  0
M  CHG  1  24   1
M  END
$$$$

  -OEChem-05262214473D

 56 55  0     1  0  0  0  0  0999 V2000
    0.7735   -5.8042   -2.0022 C   0  0  0  0  0  0  0  0  0  0  0  0
   -0.2086   -6.3825   -1.5519 O   0  0  0  0  0  0  0  0  0  0  0  0
    1.4751   -6.3646   -3.1946 C   0  0  0  0  0  0  0  0  0  0  0  0
    2.2765   -7.0687   -2.9186 H   0  0  0  0  0  0  0  0  0  0  0  0
    0.7988   -6.9360   -3.8504 H   0  0  0  0  0  0  0  0  0  0  0  0
    1.9556   -5.6216   -3.8511 H   0  0  0  0  0  0  0  0  0  0  0  0
    1.3322   -4.6359   -1.5106 N   0  0  0  0  0  0  0  0  0  0  0  0
    0.8124   -3.9290   -0.3698 C   0  0  2  0  0  0  0  0  0  0  0  0
    1.0666   -2.4424   -0.5818 C   0  0  0  0  0  0  0  0  0  0  0  0
    2.0598   -2.0076   -1.1610 O   0  0  0  0  0  0  0  0  0  0  0  0
    1.4560   -4.4118    0.9207 C   0  0  0  0  0  0  0  0  0  0  0  0
    2.1528   -4.2578   -1.9805 H   0  0  0  0  0  0  0  0  0  0  0  0
   -0.2667   -4.1160   -0.3467 H   0  0  0  0  0  0  0  0  0  0  0  0
    2.5374   -4.2329    0.9160 H   0  0  0  0  0  0  0  0  0  0  0  0
    1.0390   -3.8932    1.7903 H   0  0  0  0  0  0  0  0  0  0  0  0
    1.2976   -5.4871    1.0566 H   0  0  0  0  0  0  0  0  0  0  0  0
    0.0755   -1.6529   -0.0105 N   0  0  0  0  0  0  0  0  0  0  0  0
    0.1113   -0.2132   -0.0391 C   0  0  2  0  0  0  0  0  0  0  0  0
    1.1481    0.1987   -1.0788 C   0  0  0  0  0  0  0  0  0  0  0  0
    1.7721    1.2562   -1.0187 O   0  0  0  0  0  0  0  0  0  0  0  0
    0.4597    0.3815    1.3292 C   0  0  0  0  0  0  0  0  0  0  0  0
   -0.6392    0.1356    2.3699 C   0  0  0  0  0  0  0  0  0  0  0  0
   -0.2871    0.7297    3.7298 C   0  0  0  0  0  0  0  0  0  0  0  0
   -1.3261    0.4731    4.7247 N   0  3  0  0  0  0  0  0  0  0  0  0
   -1.1980    0.8674    6.0578 C   0  0  0  0  0  0  0  0  0  0  0  0
   -2.2280    0.5894    6.9502 N   0  0  0  0  0  0  0  0  0  0  0  0
   -0.0651    1.5322    6.5156 N   0  0  0  0  0  0  0  0  0  0  0  0
   -0.7323   -2.1024    0.4149 H   0  0  0  0  0  0  0  0  0  0  0  0
   -0.8785    0.1226   -0.3688 H   0  0  0  0  0  0  0  0  0  0  0  0
    0.6270    1.4604    1.2264 H   0  0  0  0  0  0  0  0  0  0  0  0
    1.4050   -0.0452    1.6900 H   0  0  0  0  0  0  0  0  0  0  0  0
   -1.5837    0.5658    2.0157 H   0  0  0  0  0  0  0  0  0  0  0  0
   -0.7954   -0.9423    2.4924 H   0  0  0  0  0  0  0  0  0  0  0  0
    0.6372    0.2767    4.1012 H   0  0  0  0  0  0  0  0  0  0  0  0
   -0.1447    1.8123    3.6585 H   0  0  0  0  0  0  0  0  0  0  0  0
   -2.1790   -0.0101    4.4483 H   0  0  0  0  0  0  0  0  0  0  0  0
   -2.1662    0.8633    7.9279 H   0  0  0  0  0  0  0  0  0  0  0  0
   -3.0699    0.1048    6.6489 H   0  0  0  0  0  0  0  0  0  0  0  0
    0.0331    1.8215    7.4853 H   0  0  0  0  0  0  0  0  0  0  0  0
    0.7041    1.7485    5.8859 H   0  0  0  0  0  0  0  0  0  0  0  0
    1.2570   -0.7300   -2.1045 N   0  0  0  0  0  0  0  0  0  0  0  0
    2.1350   -0.5505   -3.2378 C   0  0  2  0  0  0  0  0  0  0  0  0
    1.4834   -1.2094   -4.4465 C   0  0  0  0  0  0  0  0  0  0  0  0
    0.7987   -2.2273   -4.3677 O   0  0  0  0  0  0  0  0  0  0  0  0
    3.5102   -1.1425   -2.9715 C   0  0  0  0  0  0  0  0  0  0  0  0
    0.7239   -1.5931   -2.0538 H   0  0  0  0  0  0  0  0  0  0  0  0
    2.2148    0.5286   -3.4082 H   0  0  0  0  0  0  0  0  0  0  0  0
    3.4504   -2.2232   -2.7984 H   0  0  0  0  0  0  0  0  0  0  0  0
    4.1830   -0.9805   -3.8201 H   0  0  0  0  0  0  0  0  0  0  0  0
    3.9649   -0.6885   -2.0844 H   0  0  0  0  0  0  0  0  0  0  0  0
    1.7921   -0.5517   -5.6290 N   0  0  0  0  0  0  0  0  0  0  0  0
    1.3287   -1.0078   -6.9186 C   0  0  0  0  0  0  0  0  0  0  0  0
    2.3331    0.3073   -5.5964 H   0  0  0  0  0  0  0  0  0  0  0  0
    2.0843   -1.6693   -7.3674 H   0  0  0  0  0  0  0  0  0  0  0  0
    0.3853   -1.5599   -6.7949 H   0  0  0  0  0  0  0  0  0  0  0  0
    1.1630   -0.1415   -7.5760 H   0  0  0  0  0  0  0  0  0  0  0  0
  1  3  1  0  0  0  0
  1  7  1  0  0  0  0
  1  2  2  0  0  0  0
 42 43  1  0  0  0  0
 43 51  1  0  0  0  0
 43 44  2  0  0  0  0
  8  9  1  0  0  0  0
  9 17  1  0  0  0  0
  9 10  2  0  0  0  0
 18 19  1  0  0  0  0
 19 41  1  0  0  0  0
 19 20  2  0  0  0  0
 25 26  1  0  0  0  0
 25 27  1  0  0  0  0
 24 25  2  0  0  0  0
 42 45  1  0  0  0  0
  8 11  1  0  0  0  0
 51 52  1  0  0  0  0
 21 22  1  0  0  0  0
 22 23  1  0  0  0  0
 18 21  1  0  0  0  0
 23 24  1  0  0  0  0
 41 42  1  0  0  0  0
  7  8  1  0  0  0  0
 17 18  1  0  0  0  0
  3  4  1  0  0  0  0
  3  5  1  0  0  0  0
  3  6  1  0  0  0  0
 45 48  1  0  0  0  0
 45 49  1  0  0  0  0
 45 50  1  0  0  0  0
 11 14  1  0  0  0  0
 11 15  1  0  0  0  0
 11 16  1  0  0  0  0
 52 54  1  0  0  0  0
 52 55  1  0  0  0  0
 52 56  1  0  0  0  0
 22 32  1  0  0  0  0
 22 33  1  0  0  0  0
 21 30  1  0  0  0  0
 21 31  1  0  0  0  0
 23 34  1  0  0  0  0
 23 35  1  0  0  0  0
 42 47  1  0  0  0  0
  8 13  1  0  0  0  0
 18 29  1  0  0  0  0
 26 37  1  0  0  0  0
 26 38  1  0  0  0  0
 27 39  1  0  0  0  0
 27 40  1  0  0  0  0
 51 53  1  0  0  0  0
  7 12  1  0  0  0  0
 41 46  1  0  0  0  0
 17 28  1  0  0  0  0
 24 36  1  0  0  0  0
M  CHG  1  24   1
M  END
$$$$

  -OEChem-05262214473D

 56 55  0     1  0  0  0  0  0999 V2000
    0.7735   -5.8042   -2.0022 C   0  0  0  0  0  0  0  0  0  0  0  0
   -0.2086   -6.3825   -1.5519 O   0  0  0  0  0  0  0  0  0  0  0  0
    1.4751   -6.3646   -3.1946 C   0  0  0  0  0  0  0  0  0  0  0  0
    2.2765   -7.0687   -2.9186 H   0  0  0  0  0  0  0  0  0  0  0  0
    0.7988   -6.9360   -3.8504 H   0  0  0  0  0  0  0  0  0  0  0  0
    1.9556   -5.6216   -3.8511 H   0  0  0  0  0  0  0  0  0  0  0  0
    1.3322   -4.6359   -1.5106 N   0  0  0  0  0  0  0  0  0  0  0  0
    0.8124   -3.9290   -0.3698 C   0  0  2  0  0  0  0  0  0  0  0  0
    1.0666   -2.4424   -0.5818 C   0  0  0  0  0  0  0  0  0  0  0  0
    2.0598   -2.0076   -1.1610 O   0  0  0  0  0  0  0  0  0  0  0  0
    1.4560   -4.4118    0.9207 C   0  0  0  0  0  0  0  0  0  0  0  0
    2.1528   -4.2578   -1.9805 H   0  0  0  0  0  0  0  0  0  0  0  0
   -0.2667   -4.1160   -0.3467 H   0  0  0  0  0  0  0  0  0  0  0  0
    2.5374   -4.2329    0.9160 H   0  0  0  0  0  0  0  0  0  0  0  0
    1.0390   -3.8932    1.7903 H   0  0  0  0  0  0  0  0  0  0  0  0
    1.2976   -5.4871    1.0566 H   0  0  0  0  0  0  0  0  0  0  0  0
    0.0755   -1.6529   -0.0105 N   0  0  0  0  0  0  0  0  0  0  0  0
    0.1113   -0.2132   -0.0391 C   0  0  2  0  0  0  0  0  0  0  0  0
    1.1481    0.1987   -1.0788 C   0  0  0  0  0  0  0  0  0  0  0  0
    1.9571    1.1056   -0.8939 O   0  0  0  0  0  0  0  0  0  0  0  0
    0.4597    0.3815    1.3292 C   0  0  0  0  0  0  0  0  0  0  0  0
   -0.6392    0.1356    2.3699 C   0  0  0  0  0  0  0  0  0  0  0  0
   -0.2871    0.7297    3.7298 C   0  0  0  0  0  0  0  0  0  0  0  0
   -1.3261    0.4731    4.7247 N   0  3  0  0  0  0  0  0  0  0  0  0
   -1.1980    0.8674    6.0578 C   0  0  0  0  0  0  0  0  0  0  0  0
   -2.2280    0.5894    6.9502 N   0  0  0  0  0  0  0  0  0  0  0  0
   -0.0651    1.5322    6.5156 N   0  0  0  0  0  0  0  0  0  0  0  0
   -0.7323   -2.1024    0.4149 H   0  0  0  0  0  0  0  0  0  0  0  0
   -0.8785    0.1226   -0.3688 H   0  0  0  0  0  0  0  0  0  0  0  0
    0.6270    1.4604    1.2264 H   0  0  0  0  0  0  0  0  0  0  0  0
    1.4050   -0.0452    1.6900 H   0  0  0  0  0  0  0  0  0  0  0  0
   -1.5837    0.5658    2.0157 H   0  0  0  0  0  0  0  0  0  0  0  0
   -0.7954   -0.9423    2.4924 H   0  0  0  0  0  0  0  0  0  0  0  0
    0.6372    0.2767    4.1012 H   0  0  0  0  0  0  0  0  0  0  0  0
   -0.1447    1.8123    3.6585 H   0  0  0  0  0  0  0  0  0  0  0  0
   -2.1790   -0.0101    4.4483 H   0  0  0  0  0  0  0  0  0  0  0  0
   -2.1662    0.8633    7.9279 H   0  0  0  0  0  0  0  0  0  0  0  0
   -3.0699    0.1048    6.6489 H   0  0  0  0  0  0  0  0  0  0  0  0
    0.0331    1.8215    7.4853 H   0  0  0  0  0  0  0  0  0  0  0  0
    0.7041    1.7485    5.8859 H   0  0  0  0  0  0  0  0  0  0  0  0
    1.0298   -0.5323   -2.2527 N   0  0  0  0  0  0  0  0  0  0  0  0
    1.8631   -0.3014   -3.4101 C   0  0  2  0  0  0  0  0  0  0  0  0
    1.0377   -0.6083   -4.6527 C   0  0  0  0  0  0  0  0  0  0  0  0
    0.1839   -1.4918   -4.6894 O   0  0  0  0  0  0  0  0  0  0  0  0
    3.1194   -1.1573   -3.3670 C   0  0  0  0  0  0  0  0  0  0  0  0
    0.3515   -1.2867   -2.3037 H   0  0  0  0  0  0  0  0  0  0  0  0
    2.1295    0.7612   -3.4012 H   0  0  0  0  0  0  0  0  0  0  0  0
    2.8726   -2.2252   -3.3753 H   0  0  0  0  0  0  0  0  0  0  0  0
    3.7636   -0.9603   -4.2303 H   0  0  0  0  0  0  0  0  0  0  0  0
    3.6967   -0.9566   -2.4580 H   0  0  0  0  0  0  0  0  0  0  0  0
    1.3969    0.1915   -5.7285 N   0  0  0  0  0  0  0  0  0  0  0  0
    0.7888    0.0637   -7.0323 C   0  0  0  0  0  0  0  0  0  0  0  0
    2.0868    0.9254   -5.5972 H   0  0  0  0  0  0  0  0  0  0  0  0
    1.3855   -0.6237   -7.6500 H   0  0  0  0  0  0  0  0  0  0  0  0
   -0.2314   -0.3329   -6.9237 H   0  0  0  0  0  0  0  0  0  0  0  0
    0.7489    1.0507   -7.5165 H   0  0  0  0  0  0  0  0  0  0  0  0
  1  3  1  0  0  0  0
  1  7  1  0  0  0  0
  1  2  2  0  0  0  0
 42 43  1  0  0  0  0
 43 51  1  0  0  0  0
 43 44  2  0  0  0  0
  8  9  1  0  0  0  0
  9 17  1  0  0  0  0
  9 10  2  0  0  0  0
 18 19  1  0  0  0  0
 19 41  1  0  0  0  0
 19 20  2  0  0  0  0
 25 26  1  0  0  0  0
 25 27  1  0  0  0  0
 24 25  2  0  0  0  0
 42 45  1  0  0  0  0
  8 11  1  0  0  0  0
 51 52  1  0  0  0  0
 21 22  1  0  0  0  0
 22 23  1  0  0  0  0
 18 21  1  0  0  0  0
 23 24  1  0  0  0  0
 41 42  1  0  0  0  0
  7  8  1  0  0  0  0
 17 18  1  0  0  0  0
  3  4  1  0  0  0  0
  3  5  1  0  0  0  0
  3  6  1  0  0  0  0
 45 48  1  0  0  0  0
 45 49  1  0  0  0  0
 45 50  1  0  0  0  0
 11 14  1  0  0  0  0
 11 15  1  0  0  0  0
 11 16  1  0  0  0  0
 52 54  1  0  0  0  0
 52 55  1  0  0  0  0
 52 56  1  0  0  0  0
 22 32  1  0  0  0  0
 22 33  1  0  0  0  0
 21 30  1  0  0  0  0
 21 31  1  0  0  0  0
 23 34  1  0  0  0  0
 23 35  1  0  0  0  0
 42 47  1  0  0  0  0
  8 13  1  0  0  0  0
 18 29  1  0  0  0  0
 26 37  1  0  0  0  0
 26 38  1  0  0  0  0
 27 39  1  0  0  0  0
 27 40  1  0  0  0  0
 51 53  1  0  0  0  0
  7 12  1  0  0  0  0
 41 46  1  0  0  0  0
 17 28  1  0  0  0  0
 24 36  1  0  0  0  0
M  CHG  1  24   1
M  END
$$$$

  -OEChem-05262214473D

 56 55  0     1  0  0  0  0  0999 V2000
    0.7735   -5.8042   -2.0022 C   0  0  0  0  0  0  0  0  0  0  0  0
   -0.2086   -6.3825   -1.5519 O   0  0  0  0  0  0  0  0  0  0  0  0
    1.4751   -6.3646   -3.1946 C   0  0  0  0  0  0  0  0  0  0  0  0
    2.2765   -7.0687   -2.9186 H   0  0  0  0  0  0  0  0  0  0  0  0
    0.7988   -6.9360   -3.8504 H   0  0  0  0  0  0  0  0  0  0  0  0
    1.9556   -5.6216   -3.8511 H   0  0  0  0  0  0  0  0  0  0  0  0
    1.3322   -4.6359   -1.5106 N   0  0  0  0  0  0  0  0  0  0  0  0
    0.8124   -3.9290   -0.3698 C   0  0  2  0  0  0  0  0  0  0  0  0
    1.0666   -2.4424   -0.5818 C   0  0  0  0  0  0  0  0  0  0  0  0
    2.0598   -2.0076   -1.1610 O   0  0  0  0  0  0  0  0  0  0  0  0
    1.4560   -4.4118    0.9207 C   0  0  0  0  0  0  0  0  0  0  0  0
    2.1528   -4.2578   -1.9805 H   0  0  0  0  0  0  0  0  0  0  0  0
   -0.2667   -4.1160   -0.3467 H   0  0  0  0  0  0  0  0  0  0  0  0
    2.5374   -4.2329    0.9160 H   0  0  0  0  0  0  0  0  0  0  0  0
    1.0390   -3.8932    1.7903 H   0  0  0  0  0  0  0  0  0  0  0  0
    1.2976   -5.4871    1.0566 H   0  0  0  0  0  0  0  0  0  0  0  0
    0.0755   -1.6529   -0.0105 N   0  0  0  0  0  0  0  0  0  0  0  0
    0.1113   -0.2132   -0.0391 C   0  0  2  0  0  0  0  0  0  0  0  0
    1.1481    0.1987   -1.0788 C   0  0  0  0  0  0  0  0  0  0  0  0
    2.1180    0.9056   -0.8127 O   0  0  0  0  0  0  0  0  0  0  0  0
    0.4597    0.3815    1.3292 C   0  0  0  0  0  0  0  0  0  0  0  0
   -0.6392    0.1356    2.3699 C   0  0  0  0  0  0  0  0  0  0  0  0
   -0.2871    0.7297    3.7298 C   0  0  0  0  0  0  0  0  0  0  0  0
   -1.3261    0.4731    4.7247 N   0  3  0  0  0  0  0  0  0  0  0  0
   -1.1980    0.8674    6.0578 C   0  0  0  0  0  0  0  0  0  0  0  0
   -2.2280    0.5894    6.9502 N   0  0  0  0  0  0  0  0  0  0  0  0
   -0.0651    1.5322    6.5156 N   0  0  0  0  0  0  0  0  0  0  0  0
   -0.7323   -2.1024    0.4149 H   0  0  0  0  0  0  0  0  0  0  0  0
   -0.8785    0.1226   -0.3688 H   0  0  0  0  0  0  0  0  0  0  0  0
    0.6270    1.4604    1.2264 H   0  0  0  0  0  0  0  0  0  0  0  0
    1.4050   -0.0452    1.6900 H   0  0  0  0  0  0  0  0  0  0  0  0
   -1.5837    0.5658    2.0157 H   0  0  0  0  0  0  0  0  0  0  0  0
   -0.7954   -0.9423    2.4924 H   0  0  0  0  0  0  0  0  0  0  0  0
    0.6372    0.2767    4.1012 H   0  0  0  0  0  0  0  0  0  0  0  0
   -0.1447    1.8123    3.6585 H   0  0  0  0  0  0  0  0  0  0  0  0
   -2.1790   -0.0101    4.4483 H   0  0  0  0  0  0  0  0  0  0  0  0
   -2.1662    0.8633    7.9279 H   0  0  0  0  0  0  0  0  0  0  0  0
   -3.0699    0.1048    6.6489 H   0  0  0  0  0  0  0  0  0  0  0  0
    0.0331    1.8215    7.4853 H   0  0  0  0  0  0  0  0  0  0  0  0
    0.7041    1.7485    5.8859 H   0  0  0  0  0  0  0  0  0  0  0  0
    0.8348   -0.2751   -2.3452 N   0  0  0  0  0  0  0  0  0  0  0  0
    1.6325    0.0175   -3.5138 C   0  0  2  0  0  0  0  0  0  0  0  0
    0.6989    0.0872   -4.7150 C   0  0  0  0  0  0  0  0  0  0  0  0
   -0.3028   -0.6164   -4.8278 O   0  0  0  0  0  0  0  0  0  0  0  0
    2.7117   -1.0330   -3.7244 C   0  0  0  0  0  0  0  0  0  0  0  0
    0.0284   -0.8810   -2.4652 H   0  0  0  0  0  0  0  0  0  0  0  0
    2.0886    0.9996   -3.3475 H   0  0  0  0  0  0  0  0  0  0  0  0
    2.2738   -2.0236   -3.8925 H   0  0  0  0  0  0  0  0  0  0  0  0
    3.3333   -0.7945   -4.5937 H   0  0  0  0  0  0  0  0  0  0  0  0
    3.3642   -1.1026   -2.8473 H   0  0  0  0  0  0  0  0  0  0  0  0
    1.1394    0.9967   -5.6663 N   0  0  0  0  0  0  0  0  0  0  0  0
    0.4485    1.2141   -6.9159 C   0  0  0  0  0  0  0  0  0  0  0  0
    1.9578    1.5661   -5.4719 H   0  0  0  0  0  0  0  0  0  0  0  0
    0.8752    0.5594   -7.6900 H   0  0  0  0  0  0  0  0  0  0  0  0
   -0.6196    0.9838   -6.7890 H   0  0  0  0  0  0  0  0  0  0  0  0
    0.5635    2.2648   -7.2203 H   0  0  0  0  0  0  0  0  0  0  0  0
  1  3  1  0  0  0  0
  1  7  1  0  0  0  0
  1  2  2  0  0  0  0
 42 43  1  0  0  0  0
 43 51  1  0  0  0  0
 43 44  2  0  0  0  0
  8  9  1  0  0  0  0
  9 17  1  0  0  0  0
  9 10  2  0  0  0  0
 18 19  1  0  0  0  0
 19 41  1  0  0  0  0
 19 20  2  0  0  0  0
 25 26  1  0  0  0  0
 25 27  1  0  0  0  0
 24 25  2  0  0  0  0
 42 45  1  0  0  0  0
  8 11  1  0  0  0  0
 51 52  1  0  0  0  0
 21 22  1  0  0  0  0
 22 23  1  0  0  0  0
 18 21  1  0  0  0  0
 23 24  1  0  0  0  0
 41 42  1  0  0  0  0
  7  8  1  0  0  0  0
 17 18  1  0  0  0  0
  3  4  1  0  0  0  0
  3  5  1  0  0  0  0
  3  6  1  0  0  0  0
 45 48  1  0  0  0  0
 45 49  1  0  0  0  0
 45 50  1  0  0  0  0
 11 14  1  0  0  0  0
 11 15  1  0  0  0  0
 11 16  1  0  0  0  0
 52 54  1  0  0  0  0
 52 55  1  0  0  0  0
 52 56  1  0  0  0  0
 22 32  1  0  0  0  0
 22 33  1  0  0  0  0
 21 30  1  0  0  0  0
 21 31  1  0  0  0  0
 23 34  1  0  0  0  0
 23 35  1  0  0  0  0
 42 47  1  0  0  0  0
  8 13  1  0  0  0  0
 18 29  1  0  0  0  0
 26 37  1  0  0  0  0
 26 38  1  0  0  0  0
 27 39  1  0  0  0  0
 27 40  1  0  0  0  0
 51 53  1  0  0  0  0
  7 12  1  0  0  0  0
 41 46  1  0  0  0  0
 17 28  1  0  0  0  0
 24 36  1  0  0  0  0
M  CHG  1  24   1
M  END
$$$$

  -OEChem-05262214473D

 56 55  0     1  0  0  0  0  0999 V2000
    0.7735   -5.8042   -2.0022 C   0  0  0  0  0  0  0  0  0  0  0  0
   -0.2086   -6.3825   -1.5519 O   0  0  0  0  0  0  0  0  0  0  0  0
    1.4751   -6.3646   -3.1946 C   0  0  0  0  0  0  0  0  0  0  0  0
    2.2765   -7.0687   -2.9186 H   0  0  0  0  0  0  0  0  0  0  0  0
    0.7988   -6.9360   -3.8504 H   0  0  0  0  0  0  0  0  0  0  0  0
    1.9556   -5.6216   -3.8511 H   0  0  0  0  0  0  0  0  0  0  0  0
    1.3322   -4.6359   -1.5106 N   0  0  0  0  0  0  0  0  0  0  0  0
    0.8124   -3.9290   -0.3698 C   0  0  2  0  0  0  0  0  0  0  0  0
    1.0666   -2.4424   -0.5818 C   0  0  0  0  0  0  0  0  0  0  0  0
    2.0598   -2.0076   -1.1610 O   0  0  0  0  0  0  0  0  0  0  0  0
    1.4560   -4.4118    0.9207 C   0  0  0  0  0  0  0  0  0  0  0  0
    2.1528   -4.2578   -1.9805 H   0  0  0  0  0  0  0  0  0  0  0  0
   -0.2667   -4.1160   -0.3467 H   0  0  0  0  0  0  0  0  0  0  0  0
    2.5374   -4.2329    0.9160 H   0  0  0  0  0  0  0  0  0  0  0  0
    1.0390   -3.8932    1.7903 H   0  0  0  0  0  0  0  0  0  0  0  0
    1.2976   -5.4871    1.0566 H   0  0  0  0  0  0  0  0  0  0  0  0
    0.0755   -1.6529   -0.0105 N   0  0  0  0  0  0  0  0  0  0  0  0
    0.1113   -0.2132   -0.0391 C   0  0  2  0  0  0  0  0  0  0  0  0
    1.1481    0.1987   -1.0788 C   0  0  0  0  0  0  0  0  0  0  0  0
    2.2438    0.6697   -0.7807 O   0  0  0  0  0  0  0  0  0  0  0  0
    0.4597    0.3815    1.3292 C   0  0  0  0  0  0  0  0  0  0  0  0
   -0.6392    0.1356    2.3699 C   0  0  0  0  0  0  0  0  0  0  0  0
   -0.2871    0.7297    3.7298 C   0  0  0  0  0  0  0  0  0  0  0  0
   -1.3261    0.4731    4.7247 N   0  3  0  0  0  0  0  0  0  0  0  0
   -1.1980    0.8674    6.0578 C   0  0  0  0  0  0  0  0  0  0  0  0
   -2.2280    0.5894    6.9502 N   0  0  0  0  0  0  0  0  0  0  0  0
   -0.0651    1.5322    6.5156 N   0  0  0  0  0  0  0  0  0  0  0  0
   -0.7323   -2.1024    0.4149 H   0  0  0  0  0  0  0  0  0  0  0  0
   -0.8785    0.1226   -0.3688 H   0  0  0  0  0  0  0  0  0  0  0  0
    0.6270    1.4604    1.2264 H   0  0  0  0  0  0  0  0  0  0  0  0
    1.4050   -0.0452    1.6900 H   0  0  0  0  0  0  0  0  0  0  0  0
   -1.5837    0.5658    2.0157 H   0  0  0  0  0  0  0  0  0  0  0  0
   -0.7954   -0.9423    2.4924 H   0  0  0  0  0  0  0  0  0  0  0  0
    0.6372    0.2767    4.1012 H   0  0  0  0  0  0  0  0  0  0  0  0
   -0.1447    1.8123    3.6585 H   0  0  0  0  0  0  0  0  0  0  0  0
   -2.1790   -0.0101    4.4483 H   0  0  0  0  0  0  0  0  0  0  0  0
   -2.1662    0.8633    7.9279 H   0  0  0  0  0  0  0  0  0  0  0  0
   -3.0699    0.1048    6.6489 H   0  0  0  0  0  0  0  0  0  0  0  0
    0.0331    1.8215    7.4853 H   0  0  0  0  0  0  0  0  0  0  0  0
    0.7041    1.7485    5.8859 H   0  0  0  0  0  0  0  0  0  0  0  0
    0.6855    0.0239   -2.3757 N   0  0  0  0  0  0  0  0  0  0  0  0
    1.4587    0.3846   -3.5416 C   0  0  2  0  0  0  0  0  0  0  0  0
    0.4899    0.8298   -4.6291 C   0  0  0  0  0  0  0  0  0  0  0  0
   -0.6280    0.3395   -4.7734 O   0  0  0  0  0  0  0  0  0  0  0  0
    2.3148   -0.7781   -4.0191 C   0  0  0  0  0  0  0  0  0  0  0  0
   -0.2233   -0.4037   -2.5271 H   0  0  0  0  0  0  0  0  0  0  0  0
    2.0949    1.2276   -3.2509 H   0  0  0  0  0  0  0  0  0  0  0  0
    1.6948   -1.6323   -4.3148 H   0  0  0  0  0  0  0  0  0  0  0  0
    2.9215   -0.4945   -4.8854 H   0  0  0  0  0  0  0  0  0  0  0  0
    2.9901   -1.1164   -3.2258 H   0  0  0  0  0  0  0  0  0  0  0  0
    1.0371    1.8090   -5.4465 N   0  0  0  0  0  0  0  0  0  0  0  0
    0.3309    2.3648   -6.5772 C   0  0  0  0  0  0  0  0  0  0  0  0
    1.9550    2.1857   -5.2292 H   0  0  0  0  0  0  0  0  0  0  0  0
    0.5883    1.7992   -7.4849 H   0  0  0  0  0  0  0  0  0  0  0  0
   -0.7528    2.3005   -6.4002 H   0  0  0  0  0  0  0  0  0  0  0  0
    0.6193    3.4183   -6.7076 H   0  0  0  0  0  0  0  0  0  0  0  0
  1  3  1  0  0  0  0
  1  7  1  0  0  0  0
  1  2  2  0  0  0  0
 42 43  1  0  0  0  0
 43 51  1  0  0  0  0
 43 44  2  0  0  0  0
  8  9  1  0  0  0  0
  9 17  1  0  0  0  0
  9 10  2  0  0  0  0
 18 19  1  0  0  0  0
 19 41  1  0  0  0  0
 19 20  2  0  0  0  0
 25 26  1  0  0  0  0
 25 27  1  0  0  0  0
 24 25  2  0  0  0  0
 42 45  1  0  0  0  0
  8 11  1  0  0  0  0
 51 52  1  0  0  0  0
 21 22  1  0  0  0  0
 22 23  1  0  0  0  0
 18 21  1  0  0  0  0
 23 24  1  0  0  0  0
 41 42  1  0  0  0  0
  7  8  1  0  0  0  0
 17 18  1  0  0  0  0
  3  4  1  0  0  0  0
  3  5  1  0  0  0  0
  3  6  1  0  0  0  0
 45 48  1  0  0  0  0
 45 49  1  0  0  0  0
 45 50  1  0  0  0  0
 11 14  1  0  0  0  0
 11 15  1  0  0  0  0
 11 16  1  0  0  0  0
 52 54  1  0  0  0  0
 52 55  1  0  0  0  0
 52 56  1  0  0  0  0
 22 32  1  0  0  0  0
 22 33  1  0  0  0  0
 21 30  1  0  0  0  0
 21 31  1  0  0  0  0
 23 34  1  0  0  0  0
 23 35  1  0  0  0  0
 42 47  1  0  0  0  0
  8 13  1  0  0  0  0
 18 29  1  0  0  0  0
 26 37  1  0  0  0  0
 26 38  1  0  0  0  0
 27 39  1  0  0  0  0
 27 40  1  0  0  0  0
 51 53  1  0  0  0  0
  7 12  1  0  0  0  0
 41 46  1  0  0  0  0
 17 28  1  0  0  0  0
 24 36  1  0  0  0  0
M  CHG  1  24   1
M  END
$$$$

  -OEChem-05262214473D

 56 55  0     1  0  0  0  0  0999 V2000
    0.7735   -5.8042   -2.0022 C   0  0  0  0  0  0  0  0  0  0  0  0
   -0.2086   -6.3825   -1.5519 O   0  0  0  0  0  0  0  0  0  0  0  0
    1.4751   -6.3646   -3.1946 C   0  0  0  0  0  0  0  0  0  0  0  0
    2.2765   -7.0687   -2.9186 H   0  0  0  0  0  0  0  0  0  0  0  0
    0.7988   -6.9360   -3.8504 H   0  0  0  0  0  0  0  0  0  0  0  0
    1.9556   -5.6216   -3.8511 H   0  0  0  0  0  0  0  0  0  0  0  0
    1.3322   -4.6359   -1.5106 N   0  0  0  0  0  0  0  0  0  0  0  0
    0.8124   -3.9290   -0.3698 C   0  0  2  0  0  0  0  0  0  0  0  0
    1.0666   -2.4424   -0.5818 C   0  0  0  0  0  0  0  0  0  0  0  0
    2.0598   -2.0076   -1.1610 O   0  0  0  0  0  0  0  0  0  0  0  0
    1.4560   -4.4118    0.9207 C   0  0  0  0  0  0  0  0  0  0  0  0
    2.1528   -4.2578   -1.9805 H   0  0  0  0  0  0  0  0  0  0  0  0
   -0.2667   -4.1160   -0.3467 H   0  0  0  0  0  0  0  0  0  0  0  0
    2.5374   -4.2329    0.9160 H   0  0  0  0  0  0  0  0  0  0  0  0
    1.0390   -3.8932    1.7903 H   0  0  0  0  0  0  0  0  0  0  0  0
    1.2976   -5.4871    1.0566 H   0  0  0  0  0  0  0  0  0  0  0  0
    0.0755   -1.6529   -0.0105 N   0  0  0  0  0  0  0  0  0  0  0  0
    0.1113   -0.2132   -0.0391 C   0  0  2  0  0  0  0  0  0  0  0  0
    1.1481    0.1987   -1.0788 C   0  0  0  0  0  0  0  0  0  0  0  0
    2.3259    0.4140   -0.8002 O   0  0  0  0  0  0  0  0  0  0  0  0
    0.4597    0.3815    1.3292 C   0  0  0  0  0  0  0  0  0  0  0  0
   -0.6392    0.1356    2.3699 C   0  0  0  0  0  0  0  0  0  0  0  0
   -0.2871    0.7297    3.7298 C   0  0  0  0  0  0  0  0  0  0  0  0
   -1.3261    0.4731    4.7247 N   0  3  0  0  0  0  0  0  0  0  0  0
   -1.1980    0.8674    6.0578 C   0  0  0  0  0  0  0  0  0  0  0  0
   -2.2280    0.5894    6.9502 N   0  0  0  0  0  0  0  0  0  0  0  0
   -0.0651    1.5322    6.5156 N   0  0  0  0  0  0  0  0  0  0  0  0
   -0.7323   -2.1024    0.4149 H   0  0  0  0  0  0  0  0  0  0  0  0
   -0.8785    0.1226   -0.3688 H   0  0  0  0  0  0  0  0  0  0  0  0
    0.6270    1.4604    1.2264 H   0  0  0  0  0  0  0  0  0  0  0  0
    1.4050   -0.0452    1.6900 H   0  0  0  0  0  0  0  0  0  0  0  0
   -1.5837    0.5658    2.0157 H   0  0  0  0  0  0  0  0  0  0  0  0
   -0.7954   -0.9423    2.4924 H   0  0  0  0  0  0  0  0  0  0  0  0
    0.6372    0.2767    4.1012 H   0  0  0  0  0  0  0  0  0  0  0  0
   -0.1447    1.8123    3.6585 H   0  0  0  0  0  0  0  0  0  0  0  0
   -2.1790   -0.0101    4.4483 H   0  0  0  0  0  0  0  0  0  0  0  0
   -2.1662    0.8633    7.9279 H   0  0  0  0  0  0  0  0  0  0  0  0
   -3.0699    0.1048    6.6489 H   0  0  0  0  0  0  0  0  0  0  0  0
    0.0331    1.8215    7.4853 H   0  0  0  0  0  0  0  0  0  0  0  0
    0.7041    1.7485    5.8859 H   0  0  0  0  0  0  0  0  0  0  0  0
    0.5918    0.3445   -2.3420 N   0  0  0  0  0  0  0  0  0  0  0  0
    1.3537    0.7746   -3.4918 C   0  0  2  0  0  0  0  0  0  0  0  0
    0.4252    1.5689   -4.4009 C   0  0  0  0  0  0  0  0  0  0  0  0
   -0.7697    1.3106   -4.5299 O   0  0  0  0  0  0  0  0  0  0  0  0
    1.9558   -0.4100   -4.2313 C   0  0  0  0  0  0  0  0  0  0  0  0
   -0.3867    0.1127   -2.4854 H   0  0  0  0  0  0  0  0  0  0  0  0
    2.1480    1.4298   -3.1178 H   0  0  0  0  0  0  0  0  0  0  0  0
    1.1751   -1.0778   -4.6133 H   0  0  0  0  0  0  0  0  0  0  0  0
    2.5564   -0.0808   -5.0857 H   0  0  0  0  0  0  0  0  0  0  0  0
    2.5999   -0.9971   -3.5677 H   0  0  0  0  0  0  0  0  0  0  0  0
    1.0969    2.5730   -5.0841 N   0  0  0  0  0  0  0  0  0  0  0  0
    0.4441    3.4374   -6.0393 C   0  0  0  0  0  0  0  0  0  0  0  0
    2.0787    2.7419   -4.8855 H   0  0  0  0  0  0  0  0  0  0  0  0
    0.5442    3.0113   -7.0485 H   0  0  0  0  0  0  0  0  0  0  0  0
   -0.6220    3.5274   -5.7836 H   0  0  0  0  0  0  0  0  0  0  0  0
    0.9126    4.4323   -6.0134 H   0  0  0  0  0  0  0  0  0  0  0  0
  1  3  1  0  0  0  0
  1  7  1  0  0  0  0
  1  2  2  0  0  0  0
 42 43  1  0  0  0  0
 43 51  1  0  0  0  0
 43 44  2  0  0  0  0
  8  9  1  0  0  0  0
  9 17  1  0  0  0  0
  9 10  2  0  0  0  0
 18 19  1  0  0  0  0
 19 41  1  0  0  0  0
 19 20  2  0  0  0  0
 25 26  1  0  0  0  0
 25 27  1  0  0  0  0
 24 25  2  0  0  0  0
 42 45  1  0  0  0  0
  8 11  1  0  0  0  0
 51 52  1  0  0  0  0
 21 22  1  0  0  0  0
 22 23  1  0  0  0  0
 18 21  1  0  0  0  0
 23 24  1  0  0  0  0
 41 42  1  0  0  0  0
  7  8  1  0  0  0  0
 17 18  1  0  0  0  0
  3  4  1  0  0  0  0
  3  5  1  0  0  0  0
  3  6  1  0  0  0  0
 45 48  1  0  0  0  0
 45 49  1  0  0  0  0
 45 50  1  0  0  0  0
 11 14  1  0  0  0  0
 11 15  1  0  0  0  0
 11 16  1  0  0  0  0
 52 54  1  0  0  0  0
 52 55  1  0  0  0  0
 52 56  1  0  0  0  0
 22 32  1  0  0  0  0
 22 33  1  0  0  0  0
 21 30  1  0  0  0  0
 21 31  1  0  0  0  0
 23 34  1  0  0  0  0
 23 35  1  0  0  0  0
 42 47  1  0  0  0  0
  8 13  1  0  0  0  0
 18 29  1  0  0  0  0
 26 37  1  0  0  0  0
 26 38  1  0  0  0  0
 27 39  1  0  0  0  0
 27 40  1  0  0  0  0
 51 53  1  0  0  0  0
  7 12  1  0  0  0  0
 41 46  1  0  0  0  0
 17 28  1  0  0  0  0
 24 36  1  0  0  0  0
M  CHG  1  24   1
M  END
$$$$

  -OEChem-05262214473D

 56 55  0     1  0  0  0  0  0999 V2000
    0.7735   -5.8042   -2.0022 C   0  0  0  0  0  0  0  0  0  0  0  0
   -0.2086   -6.3825   -1.5519 O   0  0  0  0  0  0  0  0  0  0  0  0
    1.4751   -6.3646   -3.1946 C   0  0  0  0  0  0  0  0  0  0  0  0
    2.2765   -7.0687   -2.9186 H   0  0  0  0  0  0  0  0  0  0  0  0
    0.7988   -6.9360   -3.8504 H   0  0  0  0  0  0  0  0  0  0  0  0
    1.9556   -5.6216   -3.8511 H   0  0  0  0  0  0  0  0  0  0  0  0
    1.3322   -4.6359   -1.5106 N   0  0  0  0  0  0  0  0  0  0  0  0
    0.8124   -3.9290   -0.3698 C   0  0  2  0  0  0  0  0  0  0  0  0
    1.0666   -2.4424   -0.5818 C   0  0  0  0  0  0  0  0  0  0  0  0
    2.0598   -2.0076   -1.1610 O   0  0  0  0  0  0  0  0  0  0  0  0
    1.4560   -4.4118    0.9207 C   0  0  0  0  0  0  0  0  0  0  0  0
    2.1528   -4.2578   -1.9805 H   0  0  0  0  0  0  0  0  0  0  0  0
   -0.2667   -4.1160   -0.3467 H   0  0  0  0  0  0  0  0  0  0  0  0
    2.5374   -4.2329    0.9160 H   0  0  0  0  0  0  0  0  0  0  0  0
    1.0390   -3.8932    1.7903 H   0  0  0  0  0  0  0  0  0  0  0  0
    1.2976   -5.4871    1.0566 H   0  0  0  0  0  0  0  0  0  0  0  0
    0.0755   -1.6529   -0.0105 N   0  0  0  0  0  0  0  0  0  0  0  0
    0.1113   -0.2132   -0.0391 C   0  0  2  0  0  0  0  0  0  0  0  0
    1.1481    0.1987   -1.0788 C   0  0  0  0  0  0  0  0  0  0  0  0
    2.3587    0.1559   -0.8697 O   0  0  0  0  0  0  0  0  0  0  0  0
    0.4597    0.3815    1.3292 C   0  0  0  0  0  0  0  0  0  0  0  0
   -0.6392    0.1356    2.3699 C   0  0  0  0  0  0  0  0  0  0  0  0
   -0.2871    0.7297    3.7298 C   0  0  0  0  0  0  0  0  0  0  0  0
   -1.3261    0.4731    4.7247 N   0  3  0  0  0  0  0  0  0  0  0  0
   -1.1980    0.8674    6.0578 C   0  0  0  0  0  0  0  0  0  0  0  0
   -2.2280    0.5894    6.9502 N   0  0  0  0  0  0  0  0  0  0  0  0
   -0.0651    1.5322    6.5156 N   0  0  0  0  0  0  0  0  0  0  0  0
   -0.7323   -2.1024    0.4149 H   0  0  0  0  0  0  0  0  0  0  0  0
   -0.8785    0.1226   -0.3688 H   0  0  0  0  0  0  0  0  0  0  0  0
    0.6270    1.4604    1.2264 H   0  0  0  0  0  0  0  0  0  0  0  0
    1.4050   -0.0452    1.6900 H   0  0  0  0  0  0  0  0  0  0  0  0
   -1.5837    0.5658    2.0157 H   0  0  0  0  0  0  0  0  0  0  0  0
   -0.7954   -0.9423    2.4924 H   0  0  0  0  0  0  0  0  0  0  0  0
    0.6372    0.2767    4.1012 H   0  0  0  0  0  0  0  0  0  0  0  0
   -0.1447    1.8123    3.6585 H   0  0  0  0  0  0  0  0  0  0  0  0
   -2.1790   -0.0101    4.4483 H   0  0  0  0  0  0  0  0  0  0  0  0
   -2.1662    0.8633    7.9279 H   0  0  0  0  0  0  0  0  0  0  0  0
   -3.0699    0.1048    6.6489 H   0  0  0  0  0  0  0  0  0  0  0  0
    0.0331    1.8215    7.4853 H   0  0  0  0  0  0  0  0  0  0  0  0
    0.7041    1.7485    5.8859 H   0  0  0  0  0  0  0  0  0  0  0  0
    0.5603    0.6648   -2.2466 N   0  0  0  0  0  0  0  0  0  0  0  0
    1.3245    1.1612   -3.3677 C   0  0  2  0  0  0  0  0  0  0  0  0
    0.5090    2.2541   -4.0459 C   0  0  0  0  0  0  0  0  0  0  0  0
   -0.7182    2.2308   -4.1139 O   0  0  0  0  0  0  0  0  0  0  0  0
    1.6592    0.0462   -4.3463 C   0  0  0  0  0  0  0  0  0  0  0  0
   -0.4504    0.6330   -2.3428 H   0  0  0  0  0  0  0  0  0  0  0  0
    2.2442    1.5923   -2.9574 H   0  0  0  0  0  0  0  0  0  0  0  0
    0.7501   -0.3980   -4.7678 H   0  0  0  0  0  0  0  0  0  0  0  0
    2.2626    0.4185   -5.1807 H   0  0  0  0  0  0  0  0  0  0  0  0
    2.2201   -0.7529   -3.8497 H   0  0  0  0  0  0  0  0  0  0  0  0
    1.3149    3.2366   -4.6038 N   0  0  0  0  0  0  0  0  0  0  0  0
    0.7803    4.3589   -5.3390 C   0  0  0  0  0  0  0  0  0  0  0  0
    2.3203    3.1969   -4.4643 H   0  0  0  0  0  0  0  0  0  0  0  0
    0.7461    4.1131   -6.4107 H   0  0  0  0  0  0  0  0  0  0  0  0
   -0.2360    4.5808   -4.9813 H   0  0  0  0  0  0  0  0  0  0  0  0
    1.4234    5.2379   -5.1848 H   0  0  0  0  0  0  0  0  0  0  0  0
  1  3  1  0  0  0  0
  1  7  1  0  0  0  0
  1  2  2  0  0  0  0
 42 43  1  0  0  0  0
 43 51  1  0  0  0  0
 43 44  2  0  0  0  0
  8  9  1  0  0  0  0
  9 17  1  0  0  0  0
  9 10  2  0  0  0  0
 18 19  1  0  0  0  0
 19 41  1  0  0  0  0
 19 20  2  0  0  0  0
 25 26  1  0  0  0  0
 25 27  1  0  0  0  0
 24 25  2  0  0  0  0
 42 45  1  0  0  0  0
  8 11  1  0  0  0  0
 51 52  1  0  0  0  0
 21 22  1  0  0  0  0
 22 23  1  0  0  0  0
 18 21  1  0  0  0  0
 23 24  1  0  0  0  0
 41 42  1  0  0  0  0
  7  8  1  0  0  0  0
 17 18  1  0  0  0  0
  3  4  1  0  0  0  0
  3  5  1  0  0  0  0
  3  6  1  0  0  0  0
 45 48  1  0  0  0  0
 45 49  1  0  0  0  0
 45 50  1  0  0  0  0
 11 14  1  0  0  0  0
 11 15  1  0  0  0  0
 11 16  1  0  0  0  0
 52 54  1  0  0  0  0
 52 55  1  0  0  0  0
 52 56  1  0  0  0  0
 22 32  1  0  0  0  0
 22 33  1  0  0  0  0
 21 30  1  0  0  0  0
 21 31  1  0  0  0  0
 23 34  1  0  0  0  0
 23 35  1  0  0  0  0
 42 47  1  0  0  0  0
  8 13  1  0  0  0  0
 18 29  1  0  0  0  0
 26 37  1  0  0  0  0
 26 38  1  0  0  0  0
 27 39  1  0  0  0  0
 27 40  1  0  0  0  0
 51 53  1  0  0  0  0
  7 12  1  0  0  0  0
 41 46  1  0  0  0  0
 17 28  1  0  0  0  0
 24 36  1  0  0  0  0
M  CHG  1  24   1
M  END
$$$$

  -OEChem-05262214473D

 56 55  0     1  0  0  0  0  0999 V2000
    0.7735   -5.8042   -2.0022 C   0  0  0  0  0  0  0  0  0  0  0  0
   -0.2086   -6.3825   -1.5519 O   0  0  0  0  0  0  0  0  0  0  0  0
    1.4751   -6.3646   -3.1946 C   0  0  0  0  0  0  0  0  0  0  0  0
    2.2765   -7.0687   -2.9186 H   0  0  0  0  0  0  0  0  0  0  0  0
    0.7988   -6.9360   -3.8504 H   0  0  0  0  0  0  0  0  0  0  0  0
    1.9556   -5.6216   -3.8511 H   0  0  0  0  0  0  0  0  0  0  0  0
    1.3322   -4.6359   -1.5106 N   0  0  0  0  0  0  0  0  0  0  0  0
    0.8124   -3.9290   -0.3698 C   0  0  2  0  0  0  0  0  0  0  0  0
    1.0666   -2.4424   -0.5818 C   0  0  0  0  0  0  0  0  0  0  0  0
    2.0598   -2.0076   -1.1610 O   0  0  0  0  0  0  0  0  0  0  0  0
    1.4560   -4.4118    0.9207 C   0  0  0  0  0  0  0  0  0  0  0  0
    2.1528   -4.2578   -1.9805 H   0  0  0  0  0  0  0  0  0  0  0  0
   -0.2667   -4.1160   -0.3467 H   0  0  0  0  0  0  0  0  0  0  0  0
    2.5374   -4.2329    0.9160 H   0  0  0  0  0  0  0  0  0  0  0  0
    1.0390   -3.8932    1.7903 H   0  0  0  0  0  0  0  0  0  0  0  0
    1.2976   -5.4871    1.0566 H   0  0  0  0  0  0  0  0  0  0  0  0
    0.0755   -1.6529   -0.0105 N   0  0  0  0  0  0  0  0  0  0  0  0
    0.1113   -0.2132   -0.0391 C   0  0  2  0  0  0  0  0  0  0  0  0
    1.1481    0.1987   -1.0788 C   0  0  0  0  0  0  0  0  0  0  0  0
    2.3400   -0.0869   -0.9845 O   0  0  0  0  0  0  0  0  0  0  0  0
    0.4597    0.3815    1.3292 C   0  0  0  0  0  0  0  0  0  0  0  0
   -0.6392    0.1356    2.3699 C   0  0  0  0  0  0  0  0  0  0  0  0
   -0.2871    0.7297    3.7298 C   0  0  0  0  0  0  0  0  0  0  0  0
   -1.3261    0.4731    4.7247 N   0  3  0  0  0  0  0  0  0  0  0  0
   -1.1980    0.8674    6.0578 C   0  0  0  0  0  0  0  0  0  0  0  0
   -2.2280    0.5894    6.9502 N   0  0  0  0  0  0  0  0  0  0  0  0
   -0.0651    1.5322    6.5156 N   0  0  0  0  0  0  0  0  0  0  0  0
   -0.7323   -2.1024    0.4149 H   0  0  0  0  0  0  0  0  0  0  0  0
   -0.8785    0.1226   -0.3688 H   0  0  0  0  0  0  0  0  0  0  0  0
    0.6270    1.4604    1.2264 H   0  0  0  0  0  0  0  0  0  0  0  0
    1.4050   -0.0452    1.6900 H   0  0  0  0  0  0  0  0  0  0  0  0
   -1.5837    0.5658    2.0157 H   0  0  0  0  0  0  0  0  0  0  0  0
   -0.7954   -0.9423    2.4924 H   0  0  0  0  0  0  0  0  0  0  0  0
    0.6372    0.2767    4.1012 H   0  0  0  0  0  0  0  0  0  0  0  0
   -0.1447    1.8123    3.6585 H   0  0  0  0  0  0  0  0  0  0  0  0
   -2.1790   -0.0101    4.4483 H   0  0  0  0  0  0  0  0  0  0  0  0
   -2.1662    0.8633    7.9279 H   0  0  0  0  0  0  0  0  0  0  0  0
   -3.0699    0.1048    6.6489 H   0  0  0  0  0  0  0  0  0  0  0  0
    0.0331    1.8215    7.4853 H   0  0  0  0  0  0  0  0  0  0  0  0
    0.7041    1.7485    5.8859 H   0  0  0  0  0  0  0  0  0  0  0  0
    0.5930    0.9629   -2.0958 N   0  0  0  0  0  0  0  0  0  0  0  0
    1.3733    1.5178   -3.1778 C   0  0  2  0  0  0  0  0  0  0  0  0
    0.7356    2.8386   -3.5882 C   0  0  0  0  0  0  0  0  0  0  0  0
   -0.4770    3.0374   -3.5538 O   0  0  0  0  0  0  0  0  0  0  0  0
    1.4451    0.5595   -4.3564 C   0  0  0  0  0  0  0  0  0  0  0  0
   -0.4102    1.1216   -2.1090 H   0  0  0  0  0  0  0  0  0  0  0  0
    2.3771    1.7041   -2.7807 H   0  0  0  0  0  0  0  0  0  0  0  0
    0.4487    0.3609   -4.7677 H   0  0  0  0  0  0  0  0  0  0  0  0
    2.0603    0.9694   -5.1642 H   0  0  0  0  0  0  0  0  0  0  0  0
    1.8766   -0.4003   -4.0525 H   0  0  0  0  0  0  0  0  0  0  0  0
    1.6761    3.7546   -4.0383 N   0  0  0  0  0  0  0  0  0  0  0  0
    1.3166    5.0664   -4.5239 C   0  0  0  0  0  0  0  0  0  0  0  0
    2.6634    3.5196   -3.9943 H   0  0  0  0  0  0  0  0  0  0  0  0
    1.1801    5.0295   -5.6148 H   0  0  0  0  0  0  0  0  0  0  0  0
    0.3789    5.3891   -4.0479 H   0  0  0  0  0  0  0  0  0  0  0  0
    2.1169    5.7801   -4.2785 H   0  0  0  0  0  0  0  0  0  0  0  0
  1  3  1  0  0  0  0
  1  7  1  0  0  0  0
  1  2  2  0  0  0  0
 42 43  1  0  0  0  0
 43 51  1  0  0  0  0
 43 44  2  0  0  0  0
  8  9  1  0  0  0  0
  9 17  1  0  0  0  0
  9 10  2  0  0  0  0
 18 19  1  0  0  0  0
 19 41  1  0  0  0  0
 19 20  2  0  0  0  0
 25 26  1  0  0  0  0
 25 27  1  0  0  0  0
 24 25  2  0  0  0  0
 42 45  1  0  0  0  0
  8 11  1  0  0  0  0
 51 52  1  0  0  0  0
 21 22  1  0  0  0  0
 22 23  1  0  0  0  0
 18 21  1  0  0  0  0
 23 24  1  0  0  0  0
 41 42  1  0  0  0  0
  7  8  1  0  0  0  0
 17 18  1  0  0  0  0
  3  4  1  0  0  0  0
  3  5  1  0  0  0  0
  3  6  1  0  0  0  0
 45 48  1  0  0  0  0
 45 49  1  0  0  0  0
 45 50  1  0  0  0  0
 11 14  1  0  0  0  0
 11 15  1  0  0  0  0
 11 16  1  0  0  0  0
 52 54  1  0  0  0  0
 52 55  1  0  0  0  0
 52 56  1  0  0  0  0
 22 32  1  0  0  0  0
 22 33  1  0  0  0  0
 21 30  1  0  0  0  0
 21 31  1  0  0  0  0
 23 34  1  0  0  0  0
 23 35  1  0  0  0  0
 42 47  1  0  0  0  0
  8 13  1  0  0  0  0
 18 29  1  0  0  0  0
 26 37  1  0  0  0  0
 26 38  1  0  0  0  0
 27 39  1  0  0  0  0
 27 40  1  0  0  0  0
 51 53  1  0  0  0  0
  7 12  1  0  0  0  0
 41 46  1  0  0  0  0
 17 28  1  0  0  0  0
 24 36  1  0  0  0  0
M  CHG  1  24   1
M  END
$$$$

  -OEChem-05262214473D

 56 55  0     1  0  0  0  0  0999 V2000
    0.7735   -5.8042   -2.0022 C   0  0  0  0  0  0  0  0  0  0  0  0
   -0.2086   -6.3825   -1.5519 O   0  0  0  0  0  0  0  0  0  0  0  0
    1.4751   -6.3646   -3.1946 C   0  0  0  0  0  0  0  0  0  0  0  0
    2.2765   -7.0687   -2.9186 H   0  0  0  0  0  0  0  0  0  0  0  0
    0.7988   -6.9360   -3.8504 H   0  0  0  0  0  0  0  0  0  0  0  0
    1.9556   -5.6216   -3.8511 H   0  0  0  0  0  0  0  0  0  0  0  0
    1.3322   -4.6359   -1.5106 N   0  0  0  0  0  0  0  0  0  0  0  0
    0.8124   -3.9290   -0.3698 C   0  0  2  0  0  0  0  0  0  0  0  0
    1.0666   -2.4424   -0.5818 C   0  0  0  0  0  0  0  0  0  0  0  0
    2.0598   -2.0076   -1.1610 O   0  0  0  0  0  0  0  0  0  0  0  0
    1.4560   -4.4118    0.9207 C   0  0  0  0  0  0  0  0  0  0  0  0
    2.1528   -4.2578   -1.9805 H   0  0  0  0  0  0  0  0  0  0  0  0
   -0.2667   -4.1160   -0.3467 H   0  0  0  0  0  0  0  0  0  0  0  0
    2.5374   -4.2329    0.9160 H   0  0  0  0  0  0  0  0  0  0  0  0
    1.0390   -3.8932    1.7903 H   0  0  0  0  0  0  0  0  0  0  0  0
    1.2976   -5.4871    1.0566 H   0  0  0  0  0  0  0  0  0  0  0  0
    0.0755   -1.6529   -0.0105 N   0  0  0  0  0  0  0  0  0  0  0  0
    0.1113   -0.2132   -0.0391 C   0  0  2  0  0  0  0  0  0  0  0  0
    1.1481    0.1987   -1.0788 C   0  0  0  0  0  0  0  0  0  0  0  0
    2.2711   -0.2979   -1.1369 O   0  0  0  0  0  0  0  0  0  0  0  0
    0.4597    0.3815    1.3292 C   0  0  0  0  0  0  0  0  0  0  0  0
   -0.6392    0.1356    2.3699 C   0  0  0  0  0  0  0  0  0  0  0  0
   -0.2871    0.7297    3.7298 C   0  0  0  0  0  0  0  0  0  0  0  0
   -1.3261    0.4731    4.7247 N   0  3  0  0  0  0  0  0  0  0  0  0
   -1.1980    0.8674    6.0578 C   0  0  0  0  0  0  0  0  0  0  0  0
   -2.2280    0.5894    6.9502 N   0  0  0  0  0  0  0  0  0  0  0  0
   -0.0651    1.5322    6.5156 N   0  0  0  0  0  0  0  0  0  0  0  0
   -0.7323   -2.1024    0.4149 H   0  0  0  0  0  0  0  0  0  0  0  0
   -0.8785    0.1226   -0.3688 H   0  0  0  0  0  0  0  0  0  0  0  0
    0.6270    1.4604    1.2264 H   0  0  0  0  0  0  0  0  0  0  0  0
    1.4050   -0.0452    1.6900 H   0  0  0  0  0  0  0  0  0  0  0  0
   -1.5837    0.5658    2.0157 H   0  0  0  0  0  0  0  0  0  0  0  0
   -0.7954   -0.9423    2.4924 H   0  0  0  0  0  0  0  0  0  0  0  0
    0.6372    0.2767    4.1012 H   0  0  0  0  0  0  0  0  0  0  0  0
   -0.1447    1.8123    3.6585 H   0  0  0  0  0  0  0  0  0  0  0  0
   -2.1790   -0.0101    4.4483 H   0  0  0  0  0  0  0  0  0  0  0  0
   -2.1662    0.8633    7.9279 H   0  0  0  0  0  0  0  0  0  0  0  0
   -3.0699    0.1048    6.6489 H   0  0  0  0  0  0  0  0  0  0  0  0
    0.0331    1.8215    7.4853 H   0  0  0  0  0  0  0  0  0  0  0  0
    0.7041    1.7485    5.8859 H   0  0  0  0  0  0  0  0  0  0  0  0
    0.6878    1.2186   -1.9000 N   0  0  0  0  0  0  0  0  0  0  0  0
    1.4966    1.8203   -2.9350 C   0  0  2  0  0  0  0  0  0  0  0  0
    1.0897    3.2827   -3.0592 C   0  0  0  0  0  0  0  0  0  0  0  0
   -0.0625    3.6753   -2.8877 O   0  0  0  0  0  0  0  0  0  0  0  0
    1.3282    1.0948   -4.2609 C   0  0  0  0  0  0  0  0  0  0  0  0
   -0.2687    1.5454   -1.8001 H   0  0  0  0  0  0  0  0  0  0  0  0
    2.5375    1.7575   -2.5995 H   0  0  0  0  0  0  0  0  0  0  0  0
    0.2915    1.1470   -4.6129 H   0  0  0  0  0  0  0  0  0  0  0  0
    1.9633    1.5343   -5.0371 H   0  0  0  0  0  0  0  0  0  0  0  0
    1.5928    0.0365   -4.1624 H   0  0  0  0  0  0  0  0  0  0  0  0
    2.1560    4.0917   -3.4263 N   0  0  0  0  0  0  0  0  0  0  0  0
    2.0165    5.5118   -3.6495 C   0  0  0  0  0  0  0  0  0  0  0  0
    3.0846    3.6881   -3.5076 H   0  0  0  0  0  0  0  0  0  0  0  0
    1.8167    5.6981   -4.7151 H   0  0  0  0  0  0  0  0  0  0  0  0
    1.1806    5.8972   -3.0471 H   0  0  0  0  0  0  0  0  0  0  0  0
    2.9457    6.0220   -3.3561 H   0  0  0  0  0  0  0  0  0  0  0  0
  1  3  1  0  0  0  0
  1  7  1  0  0  0  0
  1  2  2  0  0  0  0
 42 43  1  0  0  0  0
 43 51  1  0  0  0  0
 43 44  2  0  0  0  0
  8  9  1  0  0  0  0
  9 17  1  0  0  0  0
  9 10  2  0  0  0  0
 18 19  1  0  0  0  0
 19 41  1  0  0  0  0
 19 20  2  0  0  0  0
 25 26  1  0  0  0  0
 25 27  1  0  0  0  0
 24 25  2  0  0  0  0
 42 45  1  0  0  0  0
  8 11  1  0  0  0  0
 51 52  1  0  0  0  0
 21 22  1  0  0  0  0
 22 23  1  0  0  0  0
 18 21  1  0  0  0  0
 23 24  1  0  0  0  0
 41 42  1  0  0  0  0
  7  8  1  0  0  0  0
 17 18  1  0  0  0  0
  3  4  1  0  0  0  0
  3  5  1  0  0  0  0
  3  6  1  0  0  0  0
 45 48  1  0  0  0  0
 45 49  1  0  0  0  0
 45 50  1  0  0  0  0
 11 14  1  0  0  0  0
 11 15  1  0  0  0  0
 11 16  1  0  0  0  0
 52 54  1  0  0  0  0
 52 55  1  0  0  0  0
 52 56  1  0  0  0  0
 22 32  1  0  0  0  0
 22 33  1  0  0  0  0
 21 30  1  0  0  0  0
 21 31  1  0  0  0  0
 23 34  1  0  0  0  0
 23 35  1  0  0  0  0
 42 47  1  0  0  0  0
  8 13  1  0  0  0  0
 18 29  1  0  0  0  0
 26 37  1  0  0  0  0
 26 38  1  0  0  0  0
 27 39  1  0  0  0  0
 27 40  1  0  0  0  0
 51 53  1  0  0  0  0
  7 12  1  0  0  0  0
 41 46  1  0  0  0  0
 17 28  1  0  0  0  0
 24 36  1  0  0  0  0
M  CHG  1  24   1
M  END
$$$$

  -OEChem-05262214473D

 56 55  0     1  0  0  0  0  0999 V2000
    0.7735   -5.8042   -2.0022 C   0  0  0  0  0  0  0  0  0  0  0  0
   -0.2086   -6.3825   -1.5519 O   0  0  0  0  0  0  0  0  0  0  0  0
    1.4751   -6.3646   -3.1946 C   0  0  0  0  0  0  0  0  0  0  0  0
    2.2765   -7.0687   -2.9186 H   0  0  0  0  0  0  0  0  0  0  0  0
    0.7988   -6.9360   -3.8504 H   0  0  0  0  0  0  0  0  0  0  0  0
    1.9556   -5.6216   -3.8511 H   0  0  0  0  0  0  0  0  0  0  0  0
    1.3322   -4.6359   -1.5106 N   0  0  0  0  0  0  0  0  0  0  0  0
    0.8124   -3.9290   -0.3698 C   0  0  2  0  0  0  0  0  0  0  0  0
    1.0666   -2.4424   -0.5818 C   0  0  0  0  0  0  0  0  0  0  0  0
    2.0598   -2.0076   -1.1610 O   0  0  0  0  0  0  0  0  0  0  0  0
    1.4560   -4.4118    0.9207 C   0  0  0  0  0  0  0  0  0  0  0  0
    2.1528   -4.2578   -1.9805 H   0  0  0  0  0  0  0  0  0  0  0  0
   -0.2667   -4.1160   -0.3467 H   0  0  0  0  0  0  0  0  0  0  0  0
    2.5374   -4.2329    0.9160 H   0  0  0  0  0  0  0  0  0  0  0  0
    1.0390   -3.8932    1.7903 H   0  0  0  0  0  0  0  0  0  0  0  0
    1.2976   -5.4871    1.0566 H   0  0  0  0  0  0  0  0  0  0  0  0
    0.0755   -1.6529   -0.0105 N   0  0  0  0  0  0  0  0  0  0  0  0
    0.1113   -0.2132   -0.0391 C   0  0  2  0  0  0  0  0  0  0  0  0
    1.1481    0.1987   -1.0788 C   0  0  0  0  0  0  0  0  0  0  0  0
    2.1567   -0.4628   -1.3163 O   0  0  0  0  0  0  0  0  0  0  0  0
    0.4597    0.3815    1.3292 C   0  0  0  0  0  0  0  0  0  0  0  0
   -0.6392    0.1356    2.3699 C   0  0  0  0  0  0  0  0  0  0  0  0
   -0.2871    0.7297    3.7298 C   0  0  0  0  0  0  0  0  0  0  0  0
   -1.3261    0.4731    4.7247 N   0  3  0  0  0  0  0  0  0  0  0  0
   -1.1980    0.8674    6.0578 C   0  0  0  0  0  0  0  0  0  0  0  0
   -2.2280    0.5894    6.9502 N   0  0  0  0  0  0  0  0  0  0  0  0
   -0.0651    1.5322    6.5156 N   0  0  0  0  0  0  0  0  0  0  0  0
   -0.7323   -2.1024    0.4149 H   0  0  0  0  0  0  0  0  0  0  0  0
   -0.8785    0.1226   -0.3688 H   0  0  0  0  0  0  0  0  0  0  0  0
    0.6270    1.4604    1.2264 H   0  0  0  0  0  0  0  0  0  0  0  0
    1.4050   -0.0452    1.6900 H   0  0  0  0  0  0  0  0  0  0  0  0
   -1.5837    0.5658    2.0157 H   0  0  0  0  0  0  0  0  0  0  0  0
   -0.7954   -0.9423    2.4924 H   0  0  0  0  0  0  0  0  0  0  0  0
    0.6372    0.2767    4.1012 H   0  0  0  0  0  0  0  0  0  0  0  0
   -0.1447    1.8123    3.6585 H   0  0  0  0  0  0  0  0  0  0  0  0
   -2.1790   -0.0101    4.4483 H   0  0  0  0  0  0  0  0  0  0  0  0
   -2.1662    0.8633    7.9279 H   0  0  0  0  0  0  0  0  0  0  0  0
   -3.0699    0.1048    6.6489 H   0  0  0  0  0  0  0  0  0  0  0  0
    0.0331    1.8215    7.4853 H   0  0  0  0  0  0  0  0  0  0  0  0
    0.7041    1.7485    5.8859 H   0  0  0  0  0  0  0  0  0  0  0  0
    0.8381    1.4143   -1.6725 N   0  0  0  0  0  0  0  0  0  0  0  0
    1.6860    2.0481   -2.6558 C   0  0  2  0  0  0  0  0  0  0  0  0
    1.5471    3.5561   -2.4947 C   0  0  0  0  0  0  0  0  0  0  0  0
    0.4970    4.1012   -2.1610 O   0  0  0  0  0  0  0  0  0  0  0  0
    1.3164    1.6157   -4.0662 C   0  0  0  0  0  0  0  0  0  0  0  0
   -0.0357    1.8755   -1.4370 H   0  0  0  0  0  0  0  0  0  0  0  0
    2.7146    1.7489   -2.4264 H   0  0  0  0  0  0  0  0  0  0  0  0
    0.2891    1.9069   -4.3142 H   0  0  0  0  0  0  0  0  0  0  0  0
    1.9782    2.0747   -4.8081 H   0  0  0  0  0  0  0  0  0  0  0  0
    1.3882    0.5279   -4.1718 H   0  0  0  0  0  0  0  0  0  0  0  0
    2.7218    4.2250   -2.8093 N   0  0  0  0  0  0  0  0  0  0  0  0
    2.8322    5.6646   -2.7755 C   0  0  0  0  0  0  0  0  0  0  0  0
    3.5552    3.6909   -3.0372 H   0  0  0  0  0  0  0  0  0  0  0  0
    2.6125    6.0732   -3.7729 H   0  0  0  0  0  0  0  0  0  0  0  0
    2.1147    6.0703   -2.0471 H   0  0  0  0  0  0  0  0  0  0  0  0
    3.8536    5.9471   -2.4806 H   0  0  0  0  0  0  0  0  0  0  0  0
  1  3  1  0  0  0  0
  1  7  1  0  0  0  0
  1  2  2  0  0  0  0
 42 43  1  0  0  0  0
 43 51  1  0  0  0  0
 43 44  2  0  0  0  0
  8  9  1  0  0  0  0
  9 17  1  0  0  0  0
  9 10  2  0  0  0  0
 18 19  1  0  0  0  0
 19 41  1  0  0  0  0
 19 20  2  0  0  0  0
 25 26  1  0  0  0  0
 25 27  1  0  0  0  0
 24 25  2  0  0  0  0
 42 45  1  0  0  0  0
  8 11  1  0  0  0  0
 51 52  1  0  0  0  0
 21 22  1  0  0  0  0
 22 23  1  0  0  0  0
 18 21  1  0  0  0  0
 23 24  1  0  0  0  0
 41 42  1  0  0  0  0
  7  8  1  0  0  0  0
 17 18  1  0  0  0  0
  3  4  1  0  0  0  0
  3  5  1  0  0  0  0
  3  6  1  0  0  0  0
 45 48  1  0  0  0  0
 45 49  1  0  0  0  0
 45 50  1  0  0  0  0
 11 14  1  0  0  0  0
 11 15  1  0  0  0  0
 11 16  1  0  0  0  0
 52 54  1  0  0  0  0
 52 55  1  0  0  0  0
 52 56  1  0  0  0  0
 22 32  1  0  0  0  0
 22 33  1  0  0  0  0
 21 30  1  0  0  0  0
 21 31  1  0  0  0  0
 23 34  1  0  0  0  0
 23 35  1  0  0  0  0
 42 47  1  0  0  0  0
  8 13  1  0  0  0  0
 18 29  1  0  0  0  0
 26 37  1  0  0  0  0
 26 38  1  0  0  0  0
 27 39  1  0  0  0  0
 27 40  1  0  0  0  0
 51 53  1  0  0  0  0
  7 12  1  0  0  0  0
 41 46  1  0  0  0  0
 17 28  1  0  0  0  0
 24 36  1  0  0  0  0
M  CHG  1  24   1
M  END
$$$$

  -OEChem-05262214473D

 56 55  0     1  0  0  0  0  0999 V2000
    0.7735   -5.8042   -2.0022 C   0  0  0  0  0  0  0  0  0  0  0  0
   -0.2086   -6.3825   -1.5519 O   0  0  0  0  0  0  0  0  0  0  0  0
    1.4751   -6.3646   -3.1946 C   0  0  0  0  0  0  0  0  0  0  0  0
    2.2765   -7.0687   -2.9186 H   0  0  0  0  0  0  0  0  0  0  0  0
    0.7988   -6.9360   -3.8504 H   0  0  0  0  0  0  0  0  0  0  0  0
    1.9556   -5.6216   -3.8511 H   0  0  0  0  0  0  0  0  0  0  0  0
    1.3322   -4.6359   -1.5106 N   0  0  0  0  0  0  0  0  0  0  0  0
    0.8124   -3.9290   -0.3698 C   0  0  2  0  0  0  0  0  0  0  0  0
    1.0666   -2.4424   -0.5818 C   0  0  0  0  0  0  0  0  0  0  0  0
    2.0598   -2.0076   -1.1610 O   0  0  0  0  0  0  0  0  0  0  0  0
    1.4560   -4.4118    0.9207 C   0  0  0  0  0  0  0  0  0  0  0  0
    2.1528   -4.2578   -1.9805 H   0  0  0  0  0  0  0  0  0  0  0  0
   -0.2667   -4.1160   -0.3467 H   0  0  0  0  0  0  0  0  0  0  0  0
    2.5374   -4.2329    0.9160 H   0  0  0  0  0  0  0  0  0  0  0  0
    1.0390   -3.8932    1.7903 H   0  0  0  0  0  0  0  0  0  0  0  0
    1.2976   -5.4871    1.0566 H   0  0  0  0  0  0  0  0  0  0  0  0
    0.0755   -1.6529   -0.0105 N   0  0  0  0  0  0  0  0  0  0  0  0
    0.1113   -0.2132   -0.0391 C   0  0  2  0  0  0  0  0  0  0  0  0
    1.1481    0.1987   -1.0788 C   0  0  0  0  0  0  0  0  0  0  0  0
    2.0044   -0.5703   -1.5107 O   0  0  0  0  0  0  0  0  0  0  0  0
    0.4597    0.3815    1.3292 C   0  0  0  0  0  0  0  0  0  0  0  0
   -0.6392    0.1356    2.3699 C   0  0  0  0  0  0  0  0  0  0  0  0
   -0.2871    0.7297    3.7298 C   0  0  0  0  0  0  0  0  0  0  0  0
   -1.3261    0.4731    4.7247 N   0  3  0  0  0  0  0  0  0  0  0  0
   -1.1980    0.8674    6.0578 C   0  0  0  0  0  0  0  0  0  0  0  0
   -2.2280    0.5894    6.9502 N   0  0  0  0  0  0  0  0  0  0  0  0
   -0.0651    1.5322    6.5156 N   0  0  0  0  0  0  0  0  0  0  0  0
   -0.7323   -2.1024    0.4149 H   0  0  0  0  0  0  0  0  0  0  0  0
   -0.8785    0.1226   -0.3688 H   0  0  0  0  0  0  0  0  0  0  0  0
    0.6270    1.4604    1.2264 H   0  0  0  0  0  0  0  0  0  0  0  0
    1.4050   -0.0452    1.6900 H   0  0  0  0  0  0  0  0  0  0  0  0
   -1.5837    0.5658    2.0157 H   0  0  0  0  0  0  0  0  0  0  0  0
   -0.7954   -0.9423    2.4924 H   0  0  0  0  0  0  0  0  0  0  0  0
    0.6372    0.2767    4.1012 H   0  0  0  0  0  0  0  0  0  0  0  0
   -0.1447    1.8123    3.6585 H   0  0  0  0  0  0  0  0  0  0  0  0
   -2.1790   -0.0101    4.4483 H   0  0  0  0  0  0  0  0  0  0  0  0
   -2.1662    0.8633    7.9279 H   0  0  0  0  0  0  0  0  0  0  0  0
   -3.0699    0.1048    6.6489 H   0  0  0  0  0  0  0  0  0  0  0  0
    0.0331    1.8215    7.4853 H   0  0  0  0  0  0  0  0  0  0  0  0
    0.7041    1.7485    5.8859 H   0  0  0  0  0  0  0  0  0  0  0  0
    1.0338    1.5369   -1.4289 N   0  0  0  0  0  0  0  0  0  0  0  0
    1.9287    2.1855   -2.3594 C   0  0  2  0  0  0  0  0  0  0  0  0
    2.0766    3.6402   -1.9334 C   0  0  0  0  0  0  0  0  0  0  0  0
    1.1634    4.2859   -1.4233 O   0  0  0  0  0  0  0  0  0  0  0  0
    1.4105    2.0867   -3.7857 C   0  0  0  0  0  0  0  0  0  0  0  0
    0.2729    2.0893   -1.0445 H   0  0  0  0  0  0  0  0  0  0  0  0
    2.8962    1.6789   -2.2731 H   0  0  0  0  0  0  0  0  0  0  0  0
    0.4419    2.5887   -3.8917 H   0  0  0  0  0  0  0  0  0  0  0  0
    2.1039    2.5537   -4.4930 H   0  0  0  0  0  0  0  0  0  0  0  0
    1.2765    1.0402   -4.0801 H   0  0  0  0  0  0  0  0  0  0  0  0
    3.3349    4.1453   -2.2294 N   0  0  0  0  0  0  0  0  0  0  0  0
    3.7082    5.5146   -1.9615 C   0  0  0  0  0  0  0  0  0  0  0  0
    4.0432    3.5278   -2.6152 H   0  0  0  0  0  0  0  0  0  0  0  0
    3.5132    6.1294   -2.8525 H   0  0  0  0  0  0  0  0  0  0  0  0
    3.1174    5.8968   -1.1160 H   0  0  0  0  0  0  0  0  0  0  0  0
    4.7784    5.5605   -1.7115 H   0  0  0  0  0  0  0  0  0  0  0  0
  1  3  1  0  0  0  0
  1  7  1  0  0  0  0
  1  2  2  0  0  0  0
 42 43  1  0  0  0  0
 43 51  1  0  0  0  0
 43 44  2  0  0  0  0
  8  9  1  0  0  0  0
  9 17  1  0  0  0  0
  9 10  2  0  0  0  0
 18 19  1  0  0  0  0
 19 41  1  0  0  0  0
 19 20  2  0  0  0  0
 25 26  1  0  0  0  0
 25 27  1  0  0  0  0
 24 25  2  0  0  0  0
 42 45  1  0  0  0  0
  8 11  1  0  0  0  0
 51 52  1  0  0  0  0
 21 22  1  0  0  0  0
 22 23  1  0  0  0  0
 18 21  1  0  0  0  0
 23 24  1  0  0  0  0
 41 42  1  0  0  0  0
  7  8  1  0  0  0  0
 17 18  1  0  0  0  0
  3  4  1  0  0  0  0
  3  5  1  0  0  0  0
  3  6  1  0  0  0  0
 45 48  1  0  0  0  0
 45 49  1  0  0  0  0
 45 50  1  0  0  0  0
 11 14  1  0  0  0  0
 11 15  1  0  0  0  0
 11 16  1  0  0  0  0
 52 54  1  0  0  0  0
 52 55  1  0  0  0  0
 52 56  1  0  0  0  0
 22 32  1  0  0  0  0
 22 33  1  0  0  0  0
 21 30  1  0  0  0  0
 21 31  1  0  0  0  0
 23 34  1  0  0  0  0
 23 35  1  0  0  0  0
 42 47  1  0  0  0  0
  8 13  1  0  0  0  0
 18 29  1  0  0  0  0
 26 37  1  0  0  0  0
 26 38  1  0  0  0  0
 27 39  1  0  0  0  0
 27 40  1  0  0  0  0
 51 53  1  0  0  0  0
  7 12  1  0  0  0  0
 41 46  1  0  0  0  0
 17 28  1  0  0  0  0
 24 36  1  0  0  0  0
M  CHG  1  24   1
M  END
$$$$

  -OEChem-05262214473D

 56 55  0     1  0  0  0  0  0999 V2000
    0.7735   -5.8042   -2.0022 C   0  0  0  0  0  0  0  0  0  0  0  0
   -0.2086   -6.3825   -1.5519 O   0  0  0  0  0  0  0  0  0  0  0  0
    1.4751   -6.3646   -3.1946 C   0  0  0  0  0  0  0  0  0  0  0  0
    2.2765   -7.0687   -2.9186 H   0  0  0  0  0  0  0  0  0  0  0  0
    0.7988   -6.9360   -3.8504 H   0  0  0  0  0  0  0  0  0  0  0  0
    1.9556   -5.6216   -3.8511 H   0  0  0  0  0  0  0  0  0  0  0  0
    1.3322   -4.6359   -1.5106 N   0  0  0  0  0  0  0  0  0  0  0  0
    0.8124   -3.9290   -0.3698 C   0  0  2  0  0  0  0  0  0  0  0  0
    1.0666   -2.4424   -0.5818 C   0  0  0  0  0  0  0  0  0  0  0  0
    2.0598   -2.0076   -1.1610 O   0  0  0  0  0  0  0  0  0  0  0  0
    1.4560   -4.4118    0.9207 C   0  0  0  0  0  0  0  0  0  0  0  0
    2.1528   -4.2578   -1.9805 H   0  0  0  0  0  0  0  0  0  0  0  0
   -0.2667   -4.1160   -0.3467 H   0  0  0  0  0  0  0  0  0  0  0  0
    2.5374   -4.2329    0.9160 H   0  0  0  0  0  0  0  0  0  0  0  0
    1.0390   -3.8932    1.7903 H   0  0  0  0  0  0  0  0  0  0  0  0
    1.2976   -5.4871    1.0566 H   0  0  0  0  0  0  0  0  0  0  0  0
    0.0755   -1.6529   -0.0105 N   0  0  0  0  0  0  0  0  0  0  0  0
    0.1113   -0.2132   -0.0391 C   0  0  2  0  0  0  0  0  0  0  0  0
    0.8463    0.2017   -1.3093 C   0  0  0  0  0  0  0  0  0  0  0  0
    1.3328   -0.6085   -2.0955 O   0  0  0  0  0  0  0  0  0  0  0  0
    0.8054    0.3702    1.1959 C   0  0  0  0  0  0  0  0  0  0  0  0
    0.0116    0.1217    2.4840 C   0  0  0  0  0  0  0  0  0  0  0  0
    0.7070    0.7045    3.7099 C   0  0  0  0  0  0  0  0  0  0  0  0
   -0.0407    0.4453    4.9382 N   0  3  0  0  0  0  0  0  0  0  0  0
    0.4302    0.8295    6.1951 C   0  0  0  0  0  0  0  0  0  0  0  0
   -0.3356    0.5497    7.3219 N   0  0  0  0  0  0  0  0  0  0  0  0
    1.6469    1.4862    6.3480 N   0  0  0  0  0  0  0  0  0  0  0  0
   -0.7323   -2.1024    0.4149 H   0  0  0  0  0  0  0  0  0  0  0  0
   -0.9280    0.1292   -0.0995 H   0  0  0  0  0  0  0  0  0  0  0  0
    0.9468    1.4491    1.0596 H   0  0  0  0  0  0  0  0  0  0  0  0
    1.8092   -0.0631    1.2974 H   0  0  0  0  0  0  0  0  0  0  0  0
   -0.9898    0.5584    2.3888 H   0  0  0  0  0  0  0  0  0  0  0  0
   -0.1141   -0.9564    2.6366 H   0  0  0  0  0  0  0  0  0  0  0  0
    1.6932    0.2449    3.8270 H   0  0  0  0  0  0  0  0  0  0  0  0
    0.8327    1.7870    3.6105 H   0  0  0  0  0  0  0  0  0  0  0  0
   -0.9390   -0.0323    4.8892 H   0  0  0  0  0  0  0  0  0  0  0  0
   -0.0213    0.8163    8.2520 H   0  0  0  0  0  0  0  0  0  0  0  0
   -1.2297    0.0708    7.2459 H   0  0  0  0  0  0  0  0  0  0  0  0
    1.9943    1.7682    7.2610 H   0  0  0  0  0  0  0  0  0  0  0  0
    2.2283    1.7037    5.5420 H   0  0  0  0  0  0  0  0  0  0  0  0
    0.9364    1.5810   -1.4338 N   0  0  0  0  0  0  0  0  0  0  0  0
    1.6271    2.2285   -2.5252 C   0  0  2  0  0  0  0  0  0  0  0  0
    2.2229    3.5280   -1.9998 C   0  0  0  0  0  0  0  0  0  0  0  0
    1.6799    4.2141   -1.1364 O   0  0  0  0  0  0  0  0  0  0  0  0
    0.6902    2.4934   -3.6934 C   0  0  0  0  0  0  0  0  0  0  0  0
    0.4749    2.1742   -0.7505 H   0  0  0  0  0  0  0  0  0  0  0  0
    2.4338    1.5545   -2.8333 H   0  0  0  0  0  0  0  0  0  0  0  0
   -0.1247    3.1670   -3.4038 H   0  0  0  0  0  0  0  0  0  0  0  0
    1.2214    2.9582   -4.5306 H   0  0  0  0  0  0  0  0  0  0  0  0
    0.2396    1.5612   -4.0508 H   0  0  0  0  0  0  0  0  0  0  0  0
    3.4109    3.8535   -2.6393 N   0  0  0  0  0  0  0  0  0  0  0  0
    4.1476    5.0611   -2.3480 C   0  0  0  0  0  0  0  0  0  0  0  0
    3.8086    3.2067   -3.3140 H   0  0  0  0  0  0  0  0  0  0  0  0
    3.8344    5.8579   -3.0385 H   0  0  0  0  0  0  0  0  0  0  0  0
    3.9456    5.3729   -1.3126 H   0  0  0  0  0  0  0  0  0  0  0  0
    5.2243    4.8721   -2.4705 H   0  0  0  0  0  0  0  0  0  0  0  0
  1  3  1  0  0  0  0
  1  7  1  0  0  0  0
  1  2  2  0  0  0  0
 42 43  1  0  0  0  0
 43 51  1  0  0  0  0
 43 44  2  0  0  0  0
  8  9  1  0  0  0  0
  9 17  1  0  0  0  0
  9 10  2  0  0  0  0
 18 19  1  0  0  0  0
 19 41  1  0  0  0  0
 19 20  2  0  0  0  0
 25 26  1  0  0  0  0
 25 27  1  0  0  0  0
 24 25  2  0  0  0  0
 42 45  1  0  0  0  0
  8 11  1  0  0  0  0
 51 52  1  0  0  0  0
 21 22  1  0  0  0  0
 22 23  1  0  0  0  0
 18 21  1  0  0  0  0
 23 24  1  0  0  0  0
 41 42  1  0  0  0  0
  7  8  1  0  0  0  0
 17 18  1  0  0  0  0
  3  4  1  0  0  0  0
  3  5  1  0  0  0  0
  3  6  1  0  0  0  0
 45 48  1  0  0  0  0
 45 49  1  0  0  0  0
 45 50  1  0  0  0  0
 11 14  1  0  0  0  0
 11 15  1  0  0  0  0
 11 16  1  0  0  0  0
 52 54  1  0  0  0  0
 52 55  1  0  0  0  0
 52 56  1  0  0  0  0
 22 32  1  0  0  0  0
 22 33  1  0  0  0  0
 21 30  1  0  0  0  0
 21 31  1  0  0  0  0
 23 34  1  0  0  0  0
 23 35  1  0  0  0  0
 42 47  1  0  0  0  0
  8 13  1  0  0  0  0
 18 29  1  0  0  0  0
 26 37  1  0  0  0  0
 26 38  1  0  0  0  0
 27 39  1  0  0  0  0
 27 40  1  0  0  0  0
 51 53  1  0  0  0  0
  7 12  1  0  0  0  0
 41 46  1  0  0  0  0
 17 28  1  0  0  0  0
 24 36  1  0  0  0  0
M  CHG  1  24   1
M  END
$$$$

  -OEChem-05262214473D

 56 55  0     1  0  0  0  0  0999 V2000
    0.7735   -5.8042   -2.0022 C   0  0  0  0  0  0  0  0  0  0  0  0
   -0.2086   -6.3825   -1.5519 O   0  0  0  0  0  0  0  0  0  0  0  0
    1.4751   -6.3646   -3.1946 C   0  0  0  0  0  0  0  0  0  0  0  0
    2.2765   -7.0687   -2.9186 H   0  0  0  0  0  0  0  0  0  0  0  0
    0.7988   -6.9360   -3.8504 H   0  0  0  0  0  0  0  0  0  0  0  0
    1.9556   -5.6216   -3.8511 H   0  0  0  0  0  0  0  0  0  0  0  0
    1.3322   -4.6359   -1.5106 N   0  0  0  0  0  0  0  0  0  0  0  0
    0.8124   -3.9290   -0.3698 C   0  0  2  0  0  0  0  0  0  0  0  0
    1.0666   -2.4424   -0.5818 C   0  0  0  0  0  0  0  0  0  0  0  0
    2.0598   -2.0076   -1.1610 O   0  0  0  0  0  0  0  0  0  0  0  0
    1.4560   -4.4118    0.9207 C   0  0  0  0  0  0  0  0  0  0  0  0
    2.1528   -4.2578   -1.9805 H   0  0  0  0  0  0  0  0  0  0  0  0
   -0.2667   -4.1160   -0.3467 H   0  0  0  0  0  0  0  0  0  0  0  0
    2.5374   -4.2329    0.9160 H   0  0  0  0  0  0  0  0  0  0  0  0
    1.0390   -3.8932    1.7903 H   0  0  0  0  0  0  0  0  0  0  0  0
    1.2976   -5.4871    1.0566 H   0  0  0  0  0  0  0  0  0  0  0  0
    0.0755   -1.6529   -0.0105 N   0  0  0  0  0  0  0  0  0  0  0  0
    0.1113   -0.2132   -0.0391 C   0  0  2  0  0  0  0  0  0  0  0  0
    0.8463    0.2017   -1.3093 C   0  0  0  0  0  0  0  0  0  0  0  0
    1.0972   -0.5815   -2.2230 O   0  0  0  0  0  0  0  0  0  0  0  0
    0.8054    0.3702    1.1959 C   0  0  0  0  0  0  0  0  0  0  0  0
    0.0116    0.1217    2.4840 C   0  0  0  0  0  0  0  0  0  0  0  0
    0.7070    0.7045    3.7099 C   0  0  0  0  0  0  0  0  0  0  0  0
   -0.0407    0.4453    4.9382 N   0  3  0  0  0  0  0  0  0  0  0  0
    0.4302    0.8295    6.1951 C   0  0  0  0  0  0  0  0  0  0  0  0
   -0.3356    0.5497    7.3219 N   0  0  0  0  0  0  0  0  0  0  0  0
    1.6469    1.4862    6.3480 N   0  0  0  0  0  0  0  0  0  0  0  0
   -0.7323   -2.1024    0.4149 H   0  0  0  0  0  0  0  0  0  0  0  0
   -0.9280    0.1292   -0.0995 H   0  0  0  0  0  0  0  0  0  0  0  0
    0.9468    1.4491    1.0596 H   0  0  0  0  0  0  0  0  0  0  0  0
    1.8092   -0.0631    1.2974 H   0  0  0  0  0  0  0  0  0  0  0  0
   -0.9898    0.5584    2.3888 H   0  0  0  0  0  0  0  0  0  0  0  0
   -0.1141   -0.9564    2.6366 H   0  0  0  0  0  0  0  0  0  0  0  0
    1.6932    0.2449    3.8270 H   0  0  0  0  0  0  0  0  0  0  0  0
    0.8327    1.7870    3.6105 H   0  0  0  0  0  0  0  0  0  0  0  0
   -0.9390   -0.0323    4.8892 H   0  0  0  0  0  0  0  0  0  0  0  0
   -0.0213    0.8163    8.2520 H   0  0  0  0  0  0  0  0  0  0  0  0
   -1.2297    0.0708    7.2459 H   0  0  0  0  0  0  0  0  0  0  0  0
    1.9943    1.7682    7.2610 H   0  0  0  0  0  0  0  0  0  0  0  0
    2.2283    1.7037    5.5420 H   0  0  0  0  0  0  0  0  0  0  0  0
    1.2305    1.5350   -1.2786 N   0  0  0  0  0  0  0  0  0  0  0  0
    1.9836    2.1608   -2.3410 C   0  0  2  0  0  0  0  0  0  0  0  0
    2.8796    3.2239   -1.7191 C   0  0  0  0  0  0  0  0  0  0  0  0
    2.5508    3.8886   -0.7388 O   0  0  0  0  0  0  0  0  0  0  0  0
    1.0632    2.7699   -3.3872 C   0  0  0  0  0  0  0  0  0  0  0  0
    0.9503    2.1164   -0.4943 H   0  0  0  0  0  0  0  0  0  0  0  0
    2.6034    1.3786   -2.7926 H   0  0  0  0  0  0  0  0  0  0  0  0
    0.4343    3.5558   -2.9533 H   0  0  0  0  0  0  0  0  0  0  0  0
    1.6353    3.2187   -4.2059 H   0  0  0  0  0  0  0  0  0  0  0  0
    0.3991    2.0095   -3.8121 H   0  0  0  0  0  0  0  0  0  0  0  0
    4.0718    3.3730   -2.4137 N   0  0  0  0  0  0  0  0  0  0  0  0
    5.0716    4.3484   -2.0461 C   0  0  0  0  0  0  0  0  0  0  0  0
    4.2786    2.7521   -3.1905 H   0  0  0  0  0  0  0  0  0  0  0  0
    4.9027    5.2777   -2.6099 H   0  0  0  0  0  0  0  0  0  0  0  0
    5.0022    4.5560   -0.9681 H   0  0  0  0  0  0  0  0  0  0  0  0
    6.0716    3.9544   -2.2800 H   0  0  0  0  0  0  0  0  0  0  0  0
  1  3  1  0  0  0  0
  1  7  1  0  0  0  0
  1  2  2  0  0  0  0
 42 43  1  0  0  0  0
 43 51  1  0  0  0  0
 43 44  2  0  0  0  0
  8  9  1  0  0  0  0
  9 17  1  0  0  0  0
  9 10  2  0  0  0  0
 18 19  1  0  0  0  0
 19 41  1  0  0  0  0
 19 20  2  0  0  0  0
 25 26  1  0  0  0  0
 25 27  1  0  0  0  0
 24 25  2  0  0  0  0
 42 45  1  0  0  0  0
  8 11  1  0  0  0  0
 51 52  1  0  0  0  0
 21 22  1  0  0  0  0
 22 23  1  0  0  0  0
 18 21  1  0  0  0  0
 23 24  1  0  0  0  0
 41 42  1  0  0  0  0
  7  8  1  0  0  0  0
 17 18  1  0  0  0  0
  3  4  1  0  0  0  0
  3  5  1  0  0  0  0
  3  6  1  0  0  0  0
 45 48  1  0  0  0  0
 45 49  1  0  0  0  0
 45 50  1  0  0  0  0
 11 14  1  0  0  0  0
 11 15  1  0  0  0  0
 11 16  1  0  0  0  0
 52 54  1  0  0  0  0
 52 55  1  0  0  0  0
 52 56  1  0  0  0  0
 22 32  1  0  0  0  0
 22 33  1  0  0  0  0
 21 30  1  0  0  0  0
 21 31  1  0  0  0  0
 23 34  1  0  0  0  0
 23 35  1  0  0  0  0
 42 47  1  0  0  0  0
  8 13  1  0  0  0  0
 18 29  1  0  0  0  0
 26 37  1  0  0  0  0
 26 38  1  0  0  0  0
 27 39  1  0  0  0  0
 27 40  1  0  0  0  0
 51 53  1  0  0  0  0
  7 12  1  0  0  0  0
 41 46  1  0  0  0  0
 17 28  1  0  0  0  0
 24 36  1  0  0  0  0
M  CHG  1  24   1
M  END
$$$$

  -OEChem-05262214473D

 56 55  0     1  0  0  0  0  0999 V2000
    0.7735   -5.8042   -2.0022 C   0  0  0  0  0  0  0  0  0  0  0  0
   -0.2086   -6.3825   -1.5519 O   0  0  0  0  0  0  0  0  0  0  0  0
    1.4751   -6.3646   -3.1946 C   0  0  0  0  0  0  0  0  0  0  0  0
    2.2765   -7.0687   -2.9186 H   0  0  0  0  0  0  0  0  0  0  0  0
    0.7988   -6.9360   -3.8504 H   0  0  0  0  0  0  0  0  0  0  0  0
    1.9556   -5.6216   -3.8511 H   0  0  0  0  0  0  0  0  0  0  0  0
    1.3322   -4.6359   -1.5106 N   0  0  0  0  0  0  0  0  0  0  0  0
    0.8124   -3.9290   -0.3698 C   0  0  2  0  0  0  0  0  0  0  0  0
    1.0666   -2.4424   -0.5818 C   0  0  0  0  0  0  0  0  0  0  0  0
    2.0598   -2.0076   -1.1610 O   0  0  0  0  0  0  0  0  0  0  0  0
    1.4560   -4.4118    0.9207 C   0  0  0  0  0  0  0  0  0  0  0  0
    2.1528   -4.2578   -1.9805 H   0  0  0  0  0  0  0  0  0  0  0  0
   -0.2667   -4.1160   -0.3467 H   0  0  0  0  0  0  0  0  0  0  0  0
    2.5374   -4.2329    0.9160 H   0  0  0  0  0  0  0  0  0  0  0  0
    1.0390   -3.8932    1.7903 H   0  0  0  0  0  0  0  0  0  0  0  0
    1.2976   -5.4871    1.0566 H   0  0  0  0  0  0  0  0  0  0  0  0
    0.0755   -1.6529   -0.0105 N   0  0  0  0  0  0  0  0  0  0  0  0
    0.1113   -0.2132   -0.0391 C   0  0  2  0  0  0  0  0  0  0  0  0
    0.8463    0.2017   -1.3093 C   0  0  0  0  0  0  0  0  0  0  0  0
    0.8664   -0.4887   -2.3262 O   0  0  0  0  0  0  0  0  0  0  0  0
    0.8054    0.3702    1.1959 C   0  0  0  0  0  0  0  0  0  0  0  0
    0.0116    0.1217    2.4840 C   0  0  0  0  0  0  0  0  0  0  0  0
    0.7070    0.7045    3.7099 C   0  0  0  0  0  0  0  0  0  0  0  0
   -0.0407    0.4453    4.9382 N   0  3  0  0  0  0  0  0  0  0  0  0
    0.4302    0.8295    6.1951 C   0  0  0  0  0  0  0  0  0  0  0  0
   -0.3356    0.5497    7.3219 N   0  0  0  0  0  0  0  0  0  0  0  0
    1.6469    1.4862    6.3480 N   0  0  0  0  0  0  0  0  0  0  0  0
   -0.7323   -2.1024    0.4149 H   0  0  0  0  0  0  0  0  0  0  0  0
   -0.9280    0.1292   -0.0995 H   0  0  0  0  0  0  0  0  0  0  0  0
    0.9468    1.4491    1.0596 H   0  0  0  0  0  0  0  0  0  0  0  0
    1.8092   -0.0631    1.2974 H   0  0  0  0  0  0  0  0  0  0  0  0
   -0.9898    0.5584    2.3888 H   0  0  0  0  0  0  0  0  0  0  0  0
   -0.1141   -0.9564    2.6366 H   0  0  0  0  0  0  0  0  0  0  0  0
    1.6932    0.2449    3.8270 H   0  0  0  0  0  0  0  0  0  0  0  0
    0.8327    1.7870    3.6105 H   0  0  0  0  0  0  0  0  0  0  0  0
   -0.9390   -0.0323    4.8892 H   0  0  0  0  0  0  0  0  0  0  0  0
   -0.0213    0.8163    8.2520 H   0  0  0  0  0  0  0  0  0  0  0  0
   -1.2297    0.0708    7.2459 H   0  0  0  0  0  0  0  0  0  0  0  0
    1.9943    1.7682    7.2610 H   0  0  0  0  0  0  0  0  0  0  0  0
    2.2283    1.7037    5.5420 H   0  0  0  0  0  0  0  0  0  0  0  0
    1.5156    1.4078   -1.1552 N   0  0  0  0  0  0  0  0  0  0  0  0
    2.3264    1.9956   -2.1966 C   0  0  2  0  0  0  0  0  0  0  0  0
    3.4682    2.7536   -1.5322 C   0  0  0  0  0  0  0  0  0  0  0  0
    3.3498    3.3369   -0.4566 O   0  0  0  0  0  0  0  0  0  0  0  0
    1.5048    2.9183   -3.0832 C   0  0  0  0  0  0  0  0  0  0  0  0
    1.4152    1.9261   -0.2875 H   0  0  0  0  0  0  0  0  0  0  0  0
    2.7323    1.1670   -2.7871 H   0  0  0  0  0  0  0  0  0  0  0  0
    1.0899    3.7547   -2.5090 H   0  0  0  0  0  0  0  0  0  0  0  0
    2.1142    3.3407   -3.8890 H   0  0  0  0  0  0  0  0  0  0  0  0
    0.6666    2.3784   -3.5368 H   0  0  0  0  0  0  0  0  0  0  0  0
    4.6226    2.7384   -2.3024 N   0  0  0  0  0  0  0  0  0  0  0  0
    5.8317    3.4232   -1.9085 C   0  0  0  0  0  0  0  0  0  0  0  0
    4.6433    2.1963   -3.1611 H   0  0  0  0  0  0  0  0  0  0  0  0
    5.8397    4.4336   -2.3434 H   0  0  0  0  0  0  0  0  0  0  0  0
    5.8709    3.4961   -0.8116 H   0  0  0  0  0  0  0  0  0  0  0  0
    6.7055    2.8615   -2.2702 H   0  0  0  0  0  0  0  0  0  0  0  0
  1  3  1  0  0  0  0
  1  7  1  0  0  0  0
  1  2  2  0  0  0  0
 42 43  1  0  0  0  0
 43 51  1  0  0  0  0
 43 44  2  0  0  0  0
  8  9  1  0  0  0  0
  9 17  1  0  0  0  0
  9 10  2  0  0  0  0
 18 19  1  0  0  0  0
 19 41  1  0  0  0  0
 19 20  2  0  0  0  0
 25 26  1  0  0  0  0
 25 27  1  0  0  0  0
 24 25  2  0  0  0  0
 42 45  1  0  0  0  0
  8 11  1  0  0  0  0
 51 52  1  0  0  0  0
 21 22  1  0  0  0  0
 22 23  1  0  0  0  0
 18 21  1  0  0  0  0
 23 24  1  0  0  0  0
 41 42  1  0  0  0  0
  7  8  1  0  0  0  0
 17 18  1  0  0  0  0
  3  4  1  0  0  0  0
  3  5  1  0  0  0  0
  3  6  1  0  0  0  0
 45 48  1  0  0  0  0
 45 49  1  0  0  0  0
 45 50  1  0  0  0  0
 11 14  1  0  0  0  0
 11 15  1  0  0  0  0
 11 16  1  0  0  0  0
 52 54  1  0  0  0  0
 52 55  1  0  0  0  0
 52 56  1  0  0  0  0
 22 32  1  0  0  0  0
 22 33  1  0  0  0  0
 21 30  1  0  0  0  0
 21 31  1  0  0  0  0
 23 34  1  0  0  0  0
 23 35  1  0  0  0  0
 42 47  1  0  0  0  0
  8 13  1  0  0  0  0
 18 29  1  0  0  0  0
 26 37  1  0  0  0  0
 26 38  1  0  0  0  0
 27 39  1  0  0  0  0
 27 40  1  0  0  0  0
 51 53  1  0  0  0  0
  7 12  1  0  0  0  0
 41 46  1  0  0  0  0
 17 28  1  0  0  0  0
 24 36  1  0  0  0  0
M  CHG  1  24   1
M  END
$$$$

  -OEChem-05262214473D

 56 55  0     1  0  0  0  0  0999 V2000
    0.7735   -5.8042   -2.0022 C   0  0  0  0  0  0  0  0  0  0  0  0
   -0.2086   -6.3825   -1.5519 O   0  0  0  0  0  0  0  0  0  0  0  0
    1.4751   -6.3646   -3.1946 C   0  0  0  0  0  0  0  0  0  0  0  0
    2.2765   -7.0687   -2.9186 H   0  0  0  0  0  0  0  0  0  0  0  0
    0.7988   -6.9360   -3.8504 H   0  0  0  0  0  0  0  0  0  0  0  0
    1.9556   -5.6216   -3.8511 H   0  0  0  0  0  0  0  0  0  0  0  0
    1.3322   -4.6359   -1.5106 N   0  0  0  0  0  0  0  0  0  0  0  0
    0.8124   -3.9290   -0.3698 C   0  0  2  0  0  0  0  0  0  0  0  0
    1.0666   -2.4424   -0.5818 C   0  0  0  0  0  0  0  0  0  0  0  0
    2.0598   -2.0076   -1.1610 O   0  0  0  0  0  0  0  0  0  0  0  0
    1.4560   -4.4118    0.9207 C   0  0  0  0  0  0  0  0  0  0  0  0
    2.1528   -4.2578   -1.9805 H   0  0  0  0  0  0  0  0  0  0  0  0
   -0.2667   -4.1160   -0.3467 H   0  0  0  0  0  0  0  0  0  0  0  0
    2.5374   -4.2329    0.9160 H   0  0  0  0  0  0  0  0  0  0  0  0
    1.0390   -3.8932    1.7903 H   0  0  0  0  0  0  0  0  0  0  0  0
    1.2976   -5.4871    1.0566 H   0  0  0  0  0  0  0  0  0  0  0  0
    0.0755   -1.6529   -0.0105 N   0  0  0  0  0  0  0  0  0  0  0  0
    0.1113   -0.2132   -0.0391 C   0  0  2  0  0  0  0  0  0  0  0  0
    0.8463    0.2017   -1.3093 C   0  0  0  0  0  0  0  0  0  0  0  0
    0.6563   -0.3365   -2.3981 O   0  0  0  0  0  0  0  0  0  0  0  0
    0.8054    0.3702    1.1959 C   0  0  0  0  0  0  0  0  0  0  0  0
    0.0116    0.1217    2.4840 C   0  0  0  0  0  0  0  0  0  0  0  0
    0.7070    0.7045    3.7099 C   0  0  0  0  0  0  0  0  0  0  0  0
   -0.0407    0.4453    4.9382 N   0  3  0  0  0  0  0  0  0  0  0  0
    0.4302    0.8295    6.1951 C   0  0  0  0  0  0  0  0  0  0  0  0
   -0.3356    0.5497    7.3219 N   0  0  0  0  0  0  0  0  0  0  0  0
    1.6469    1.4862    6.3480 N   0  0  0  0  0  0  0  0  0  0  0  0
   -0.7323   -2.1024    0.4149 H   0  0  0  0  0  0  0  0  0  0  0  0
   -0.9280    0.1292   -0.0995 H   0  0  0  0  0  0  0  0  0  0  0  0
    0.9468    1.4491    1.0596 H   0  0  0  0  0  0  0  0  0  0  0  0
    1.8092   -0.0631    1.2974 H   0  0  0  0  0  0  0  0  0  0  0  0
   -0.9898    0.5584    2.3888 H   0  0  0  0  0  0  0  0  0  0  0  0
   -0.1141   -0.9564    2.6366 H   0  0  0  0  0  0  0  0  0  0  0  0
    1.6932    0.2449    3.8270 H   0  0  0  0  0  0  0  0  0  0  0  0
    0.8327    1.7870    3.6105 H   0  0  0  0  0  0  0  0  0  0  0  0
   -0.9390   -0.0323    4.8892 H   0  0  0  0  0  0  0  0  0  0  0  0
   -0.0213    0.8163    8.2520 H   0  0  0  0  0  0  0  0  0  0  0  0
   -1.2297    0.0708    7.2459 H   0  0  0  0  0  0  0  0  0  0  0  0
    1.9943    1.7682    7.2610 H   0  0  0  0  0  0  0  0  0  0  0  0
    2.2283    1.7037    5.5420 H   0  0  0  0  0  0  0  0  0  0  0  0
    1.7722    1.2080   -1.0720 N   0  0  0  0  0  0  0  0  0  0  0  0
    2.6321    1.7441   -2.1019 C   0  0  2  0  0  0  0  0  0  0  0  0
    3.9484    2.1491   -1.4517 C   0  0  0  0  0  0  0  0  0  0  0  0
    4.0225    2.5965   -0.3092 O   0  0  0  0  0  0  0  0  0  0  0  0
    1.9846    2.9286   -2.8022 C   0  0  0  0  0  0  0  0  0  0  0  0
    1.8377    1.6163   -0.1442 H   0  0  0  0  0  0  0  0  0  0  0  0
    2.8115    0.9342   -2.8173 H   0  0  0  0  0  0  0  0  0  0  0  0
    1.7972    3.7501   -2.1012 H   0  0  0  0  0  0  0  0  0  0  0  0
    2.6253    3.3157   -3.6013 H   0  0  0  0  0  0  0  0  0  0  0  0
    1.0238    2.6427   -3.2437 H   0  0  0  0  0  0  0  0  0  0  0  0
    5.0256    1.9927   -2.3127 N   0  0  0  0  0  0  0  0  0  0  0  0
    6.3761    2.3486   -1.9445 C   0  0  0  0  0  0  0  0  0  0  0  0
    4.8778    1.5771   -3.2277 H   0  0  0  0  0  0  0  0  0  0  0  0
    6.5816    3.3829   -2.2573 H   0  0  0  0  0  0  0  0  0  0  0  0
    6.4926    2.2655   -0.8538 H   0  0  0  0  0  0  0  0  0  0  0  0
    7.0830    1.6680   -2.4416 H   0  0  0  0  0  0  0  0  0  0  0  0
  1  3  1  0  0  0  0
  1  7  1  0  0  0  0
  1  2  2  0  0  0  0
 42 43  1  0  0  0  0
 43 51  1  0  0  0  0
 43 44  2  0  0  0  0
  8  9  1  0  0  0  0
  9 17  1  0  0  0  0
  9 10  2  0  0  0  0
 18 19  1  0  0  0  0
 19 41  1  0  0  0  0
 19 20  2  0  0  0  0
 25 26  1  0  0  0  0
 25 27  1  0  0  0  0
 24 25  2  0  0  0  0
 42 45  1  0  0  0  0
  8 11  1  0  0  0  0
 51 52  1  0  0  0  0
 21 22  1  0  0  0  0
 22 23  1  0  0  0  0
 18 21  1  0  0  0  0
 23 24  1  0  0  0  0
 41 42  1  0  0  0  0
  7  8  1  0  0  0  0
 17 18  1  0  0  0  0
  3  4  1  0  0  0  0
  3  5  1  0  0  0  0
  3  6  1  0  0  0  0
 45 48  1  0  0  0  0
 45 49  1  0  0  0  0
 45 50  1  0  0  0  0
 11 14  1  0  0  0  0
 11 15  1  0  0  0  0
 11 16  1  0  0  0  0
 52 54  1  0  0  0  0
 52 55  1  0  0  0  0
 52 56  1  0  0  0  0
 22 32  1  0  0  0  0
 22 33  1  0  0  0  0
 21 30  1  0  0  0  0
 21 31  1  0  0  0  0
 23 34  1  0  0  0  0
 23 35  1  0  0  0  0
 42 47  1  0  0  0  0
  8 13  1  0  0  0  0
 18 29  1  0  0  0  0
 26 37  1  0  0  0  0
 26 38  1  0  0  0  0
 27 39  1  0  0  0  0
 27 40  1  0  0  0  0
 51 53  1  0  0  0  0
  7 12  1  0  0  0  0
 41 46  1  0  0  0  0
 17 28  1  0  0  0  0
 24 36  1  0  0  0  0
M  CHG  1  24   1
M  END
$$$$

  -OEChem-05262214473D

 56 55  0     1  0  0  0  0  0999 V2000
    0.7735   -5.8042   -2.0022 C   0  0  0  0  0  0  0  0  0  0  0  0
   -0.2086   -6.3825   -1.5519 O   0  0  0  0  0  0  0  0  0  0  0  0
    1.4751   -6.3646   -3.1946 C   0  0  0  0  0  0  0  0  0  0  0  0
    2.2765   -7.0687   -2.9186 H   0  0  0  0  0  0  0  0  0  0  0  0
    0.7988   -6.9360   -3.8504 H   0  0  0  0  0  0  0  0  0  0  0  0
    1.9556   -5.6216   -3.8511 H   0  0  0  0  0  0  0  0  0  0  0  0
    1.3322   -4.6359   -1.5106 N   0  0  0  0  0  0  0  0  0  0  0  0
    0.8124   -3.9290   -0.3698 C   0  0  2  0  0  0  0  0  0  0  0  0
    1.0666   -2.4424   -0.5818 C   0  0  0  0  0  0  0  0  0  0  0  0
    2.0598   -2.0076   -1.1610 O   0  0  0  0  0  0  0  0  0  0  0  0
    1.4560   -4.4118    0.9207 C   0  0  0  0  0  0  0  0  0  0  0  0
    2.1528   -4.2578   -1.9805 H   0  0  0  0  0  0  0  0  0  0  0  0
   -0.2667   -4.1160   -0.3467 H   0  0  0  0  0  0  0  0  0  0  0  0
    2.5374   -4.2329    0.9160 H   0  0  0  0  0  0  0  0  0  0  0  0
    1.0390   -3.8932    1.7903 H   0  0  0  0  0  0  0  0  0  0  0  0
    1.2976   -5.4871    1.0566 H   0  0  0  0  0  0  0  0  0  0  0  0
    0.0755   -1.6529   -0.0105 N   0  0  0  0  0  0  0  0  0  0  0  0
    0.1113   -0.2132   -0.0391 C   0  0  2  0  0  0  0  0  0  0  0  0
    0.8463    0.2017   -1.3093 C   0  0  0  0  0  0  0  0  0  0  0  0
    0.4811   -0.1352   -2.4337 O   0  0  0  0  0  0  0  0  0  0  0  0
    0.8054    0.3702    1.1959 C   0  0  0  0  0  0  0  0  0  0  0  0
    0.0116    0.1217    2.4840 C   0  0  0  0  0  0  0  0  0  0  0  0
    0.7070    0.7045    3.7099 C   0  0  0  0  0  0  0  0  0  0  0  0
   -0.0407    0.4453    4.9382 N   0  3  0  0  0  0  0  0  0  0  0  0
    0.4302    0.8295    6.1951 C   0  0  0  0  0  0  0  0  0  0  0  0
   -0.3356    0.5497    7.3219 N   0  0  0  0  0  0  0  0  0  0  0  0
    1.6469    1.4862    6.3480 N   0  0  0  0  0  0  0  0  0  0  0  0
   -0.7323   -2.1024    0.4149 H   0  0  0  0  0  0  0  0  0  0  0  0
   -0.9280    0.1292   -0.0995 H   0  0  0  0  0  0  0  0  0  0  0  0
    0.9468    1.4491    1.0596 H   0  0  0  0  0  0  0  0  0  0  0  0
    1.8092   -0.0631    1.2974 H   0  0  0  0  0  0  0  0  0  0  0  0
   -0.9898    0.5584    2.3888 H   0  0  0  0  0  0  0  0  0  0  0  0
   -0.1141   -0.9564    2.6366 H   0  0  0  0  0  0  0  0  0  0  0  0
    1.6932    0.2449    3.8270 H   0  0  0  0  0  0  0  0  0  0  0  0
    0.8327    1.7870    3.6105 H   0  0  0  0  0  0  0  0  0  0  0  0
   -0.9390   -0.0323    4.8892 H   0  0  0  0  0  0  0  0  0  0  0  0
   -0.0213    0.8163    8.2520 H   0  0  0  0  0  0  0  0  0  0  0  0
   -1.2297    0.0708    7.2459 H   0  0  0  0  0  0  0  0  0  0  0  0
    1.9943    1.7682    7.2610 H   0  0  0  0  0  0  0  0  0  0  0  0
    2.2283    1.7037    5.5420 H   0  0  0  0  0  0  0  0  0  0  0  0
    1.9829    0.9494   -1.0346 N   0  0  0  0  0  0  0  0  0  0  0  0
    2.8798    1.4234   -2.0633 C   0  0  2  0  0  0  0  0  0  0  0  0
    4.2877    1.4517   -1.4832 C   0  0  0  0  0  0  0  0  0  0  0  0
    4.5232    1.7180   -0.3065 O   0  0  0  0  0  0  0  0  0  0  0  0
    2.4702    2.8000   -2.5632 C   0  0  0  0  0  0  0  0  0  0  0  0
    2.1891    1.2080   -0.0742 H   0  0  0  0  0  0  0  0  0  0  0  0
    2.8357    0.6960   -2.8811 H   0  0  0  0  0  0  0  0  0  0  0  0
    2.5082    3.5423   -1.7576 H   0  0  0  0  0  0  0  0  0  0  0  0
    3.1340    3.1455   -3.3626 H   0  0  0  0  0  0  0  0  0  0  0  0
    1.4466    2.7845   -2.9528 H   0  0  0  0  0  0  0  0  0  0  0  0
    5.2535    1.1869   -2.4441 N   0  0  0  0  0  0  0  0  0  0  0  0
    6.6678    1.1976   -2.1516 C   0  0  0  0  0  0  0  0  0  0  0  0
    4.9661    0.9368   -3.3857 H   0  0  0  0  0  0  0  0  0  0  0  0
    7.0777    2.1974   -2.3575 H   0  0  0  0  0  0  0  0  0  0  0  0
    6.8249    0.9482   -1.0919 H   0  0  0  0  0  0  0  0  0  0  0  0
    7.1782    0.4552   -2.7827 H   0  0  0  0  0  0  0  0  0  0  0  0
  1  3  1  0  0  0  0
  1  7  1  0  0  0  0
  1  2  2  0  0  0  0
 42 43  1  0  0  0  0
 43 51  1  0  0  0  0
 43 44  2  0  0  0  0
  8  9  1  0  0  0  0
  9 17  1  0  0  0  0
  9 10  2  0  0  0  0
 18 19  1  0  0  0  0
 19 41  1  0  0  0  0
 19 20  2  0  0  0  0
 25 26  1  0  0  0  0
 25 27  1  0  0  0  0
 24 25  2  0  0  0  0
 42 45  1  0  0  0  0
  8 11  1  0  0  0  0
 51 52  1  0  0  0  0
 21 22  1  0  0  0  0
 22 23  1  0  0  0  0
 18 21  1  0  0  0  0
 23 24  1  0  0  0  0
 41 42  1  0  0  0  0
  7  8  1  0  0  0  0
 17 18  1  0  0  0  0
  3  4  1  0  0  0  0
  3  5  1  0  0  0  0
  3  6  1  0  0  0  0
 45 48  1  0  0  0  0
 45 49  1  0  0  0  0
 45 50  1  0  0  0  0
 11 14  1  0  0  0  0
 11 15  1  0  0  0  0
 11 16  1  0  0  0  0
 52 54  1  0  0  0  0
 52 55  1  0  0  0  0
 52 56  1  0  0  0  0
 22 32  1  0  0  0  0
 22 33  1  0  0  0  0
 21 30  1  0  0  0  0
 21 31  1  0  0  0  0
 23 34  1  0  0  0  0
 23 35  1  0  0  0  0
 42 47  1  0  0  0  0
  8 13  1  0  0  0  0
 18 29  1  0  0  0  0
 26 37  1  0  0  0  0
 26 38  1  0  0  0  0
 27 39  1  0  0  0  0
 27 40  1  0  0  0  0
 51 53  1  0  0  0  0
  7 12  1  0  0  0  0
 41 46  1  0  0  0  0
 17 28  1  0  0  0  0
 24 36  1  0  0  0  0
M  CHG  1  24   1
M  END
$$$$

  -OEChem-05262214473D

 56 55  0     1  0  0  0  0  0999 V2000
    0.7735   -5.8042   -2.0022 C   0  0  0  0  0  0  0  0  0  0  0  0
   -0.2086   -6.3825   -1.5519 O   0  0  0  0  0  0  0  0  0  0  0  0
    1.4751   -6.3646   -3.1946 C   0  0  0  0  0  0  0  0  0  0  0  0
    2.2765   -7.0687   -2.9186 H   0  0  0  0  0  0  0  0  0  0  0  0
    0.7988   -6.9360   -3.8504 H   0  0  0  0  0  0  0  0  0  0  0  0
    1.9556   -5.6216   -3.8511 H   0  0  0  0  0  0  0  0  0  0  0  0
    1.3322   -4.6359   -1.5106 N   0  0  0  0  0  0  0  0  0  0  0  0
    0.8124   -3.9290   -0.3698 C   0  0  2  0  0  0  0  0  0  0  0  0
    1.0666   -2.4424   -0.5818 C   0  0  0  0  0  0  0  0  0  0  0  0
    2.0598   -2.0076   -1.1610 O   0  0  0  0  0  0  0  0  0  0  0  0
    1.4560   -4.4118    0.9207 C   0  0  0  0  0  0  0  0  0  0  0  0
    2.1528   -4.2578   -1.9805 H   0  0  0  0  0  0  0  0  0  0  0  0
   -0.2667   -4.1160   -0.3467 H   0  0  0  0  0  0  0  0  0  0  0  0
    2.5374   -4.2329    0.9160 H   0  0  0  0  0  0  0  0  0  0  0  0
    1.0390   -3.8932    1.7903 H   0  0  0  0  0  0  0  0  0  0  0  0
    1.2976   -5.4871    1.0566 H   0  0  0  0  0  0  0  0  0  0  0  0
    0.0755   -1.6529   -0.0105 N   0  0  0  0  0  0  0  0  0  0  0  0
    0.1113   -0.2132   -0.0391 C   0  0  2  0  0  0  0  0  0  0  0  0
    0.8463    0.2017   -1.3093 C   0  0  0  0  0  0  0  0  0  0  0  0
    0.3527    0.1015   -2.4307 O   0  0  0  0  0  0  0  0  0  0  0  0
    0.8054    0.3702    1.1959 C   0  0  0  0  0  0  0  0  0  0  0  0
    0.0116    0.1217    2.4840 C   0  0  0  0  0  0  0  0  0  0  0  0
    0.7070    0.7045    3.7099 C   0  0  0  0  0  0  0  0  0  0  0  0
   -0.0407    0.4453    4.9382 N   0  3  0  0  0  0  0  0  0  0  0  0
    0.4302    0.8295    6.1951 C   0  0  0  0  0  0  0  0  0  0  0  0
   -0.3356    0.5497    7.3219 N   0  0  0  0  0  0  0  0  0  0  0  0
    1.6469    1.4862    6.3480 N   0  0  0  0  0  0  0  0  0  0  0  0
   -0.7323   -2.1024    0.4149 H   0  0  0  0  0  0  0  0  0  0  0  0
   -0.9280    0.1292   -0.0995 H   0  0  0  0  0  0  0  0  0  0  0  0
    0.9468    1.4491    1.0596 H   0  0  0  0  0  0  0  0  0  0  0  0
    1.8092   -0.0631    1.2974 H   0  0  0  0  0  0  0  0  0  0  0  0
   -0.9898    0.5584    2.3888 H   0  0  0  0  0  0  0  0  0  0  0  0
   -0.1141   -0.9564    2.6366 H   0  0  0  0  0  0  0  0  0  0  0  0
    1.6932    0.2449    3.8270 H   0  0  0  0  0  0  0  0  0  0  0  0
    0.8327    1.7870    3.6105 H   0  0  0  0  0  0  0  0  0  0  0  0
   -0.9390   -0.0323    4.8892 H   0  0  0  0  0  0  0  0  0  0  0  0
   -0.0213    0.8163    8.2520 H   0  0  0  0  0  0  0  0  0  0  0  0
   -1.2297    0.0708    7.2459 H   0  0  0  0  0  0  0  0  0  0  0  0
    1.9943    1.7682    7.2610 H   0  0  0  0  0  0  0  0  0  0  0  0
    2.2283    1.7037    5.5420 H   0  0  0  0  0  0  0  0  0  0  0  0
    2.1333    0.6495   -1.0455 N   0  0  0  0  0  0  0  0  0  0  0  0
    3.0527    1.0555   -2.0834 C   0  0  2  0  0  0  0  0  0  0  0  0
    4.4629    0.7088   -1.6245 C   0  0  0  0  0  0  0  0  0  0  0  0
    4.8175    0.7612   -0.4487 O   0  0  0  0  0  0  0  0  0  0  0  0
    2.9283    2.5413   -2.3826 C   0  0  0  0  0  0  0  0  0  0  0  0
    2.4455    0.7292   -0.0823 H   0  0  0  0  0  0  0  0  0  0  0  0
    2.8032    0.4686   -2.9742 H   0  0  0  0  0  0  0  0  0  0  0  0
    3.1744    3.1455   -1.5018 H   0  0  0  0  0  0  0  0  0  0  0  0
    3.6054    2.8417   -3.1891 H   0  0  0  0  0  0  0  0  0  0  0  0
    1.9059    2.7940   -2.6839 H   0  0  0  0  0  0  0  0  0  0  0  0
    5.2906    0.3758   -2.6876 N   0  0  0  0  0  0  0  0  0  0  0  0
    6.6869    0.0489   -2.5159 C   0  0  0  0  0  0  0  0  0  0  0  0
    4.9023    0.3190   -3.6245 H   0  0  0  0  0  0  0  0  0  0  0  0
    7.2944    0.9579   -2.6370 H   0  0  0  0  0  0  0  0  0  0  0  0
    6.8451   -0.3663   -1.5096 H   0  0  0  0  0  0  0  0  0  0  0  0
    6.9848   -0.6943   -3.2701 H   0  0  0  0  0  0  0  0  0  0  0  0
  1  3  1  0  0  0  0
  1  7  1  0  0  0  0
  1  2  2  0  0  0  0
 42 43  1  0  0  0  0
 43 51  1  0  0  0  0
 43 44  2  0  0  0  0
  8  9  1  0  0  0  0
  9 17  1  0  0  0  0
  9 10  2  0  0  0  0
 18 19  1  0  0  0  0
 19 41  1  0  0  0  0
 19 20  2  0  0  0  0
 25 26  1  0  0  0  0
 25 27  1  0  0  0  0
 24 25  2  0  0  0  0
 42 45  1  0  0  0  0
  8 11  1  0  0  0  0
 51 52  1  0  0  0  0
 21 22  1  0  0  0  0
 22 23  1  0  0  0  0
 18 21  1  0  0  0  0
 23 24  1  0  0  0  0
 41 42  1  0  0  0  0
  7  8  1  0  0  0  0
 17 18  1  0  0  0  0
  3  4  1  0  0  0  0
  3  5  1  0  0  0  0
  3  6  1  0  0  0  0
 45 48  1  0  0  0  0
 45 49  1  0  0  0  0
 45 50  1  0  0  0  0
 11 14  1  0  0  0  0
 11 15  1  0  0  0  0
 11 16  1  0  0  0  0
 52 54  1  0  0  0  0
 52 55  1  0  0  0  0
 52 56  1  0  0  0  0
 22 32  1  0  0  0  0
 22 33  1  0  0  0  0
 21 30  1  0  0  0  0
 21 31  1  0  0  0  0
 23 34  1  0  0  0  0
 23 35  1  0  0  0  0
 42 47  1  0  0  0  0
  8 13  1  0  0  0  0
 18 29  1  0  0  0  0
 26 37  1  0  0  0  0
 26 38  1  0  0  0  0
 27 39  1  0  0  0  0
 27 40  1  0  0  0  0
 51 53  1  0  0  0  0
  7 12  1  0  0  0  0
 41 46  1  0  0  0  0
 17 28  1  0  0  0  0
 24 36  1  0  0  0  0
M  CHG  1  24   1
M  END
$$$$

  -OEChem-05262214473D

 56 55  0     1  0  0  0  0  0999 V2000
    0.7735   -5.8042   -2.0022 C   0  0  0  0  0  0  0  0  0  0  0  0
   -0.2086   -6.3825   -1.5519 O   0  0  0  0  0  0  0  0  0  0  0  0
    1.4751   -6.3646   -3.1946 C   0  0  0  0  0  0  0  0  0  0  0  0
    2.2765   -7.0687   -2.9186 H   0  0  0  0  0  0  0  0  0  0  0  0
    0.7988   -6.9360   -3.8504 H   0  0  0  0  0  0  0  0  0  0  0  0
    1.9556   -5.6216   -3.8511 H   0  0  0  0  0  0  0  0  0  0  0  0
    1.3322   -4.6359   -1.5106 N   0  0  0  0  0  0  0  0  0  0  0  0
    0.8124   -3.9290   -0.3698 C   0  0  2  0  0  0  0  0  0  0  0  0
    1.0666   -2.4424   -0.5818 C   0  0  0  0  0  0  0  0  0  0  0  0
    2.0598   -2.0076   -1.1610 O   0  0  0  0  0  0  0  0  0  0  0  0
    1.4560   -4.4118    0.9207 C   0  0  0  0  0  0  0  0  0  0  0  0
    2.1528   -4.2578   -1.9805 H   0  0  0  0  0  0  0  0  0  0  0  0
   -0.2667   -4.1160   -0.3467 H   0  0  0  0  0  0  0  0  0  0  0  0
    2.5374   -4.2329    0.9160 H   0  0  0  0  0  0  0  0  0  0  0  0
    1.0390   -3.8932    1.7903 H   0  0  0  0  0  0  0  0  0  0  0  0
    1.2976   -5.4871    1.0566 H   0  0  0  0  0  0  0  0  0  0  0  0
    0.0755   -1.6529   -0.0105 N   0  0  0  0  0  0  0  0  0  0  0  0
    0.1113   -0.2132   -0.0391 C   0  0  2  0  0  0  0  0  0  0  0  0
    0.8463    0.2017   -1.3093 C   0  0  0  0  0  0  0  0  0  0  0  0
    0.2800    0.3574   -2.3892 O   0  0  0  0  0  0  0  0  0  0  0  0
    0.8054    0.3702    1.1959 C   0  0  0  0  0  0  0  0  0  0  0  0
    0.0116    0.1217    2.4840 C   0  0  0  0  0  0  0  0  0  0  0  0
    0.7070    0.7045    3.7099 C   0  0  0  0  0  0  0  0  0  0  0  0
   -0.0407    0.4453    4.9382 N   0  3  0  0  0  0  0  0  0  0  0  0
    0.4302    0.8295    6.1951 C   0  0  0  0  0  0  0  0  0  0  0  0
   -0.3356    0.5497    7.3219 N   0  0  0  0  0  0  0  0  0  0  0  0
    1.6469    1.4862    6.3480 N   0  0  0  0  0  0  0  0  0  0  0  0
   -0.7323   -2.1024    0.4149 H   0  0  0  0  0  0  0  0  0  0  0  0
   -0.9280    0.1292   -0.0995 H   0  0  0  0  0  0  0  0  0  0  0  0
    0.9468    1.4491    1.0596 H   0  0  0  0  0  0  0  0  0  0  0  0
    1.8092   -0.0631    1.2974 H   0  0  0  0  0  0  0  0  0  0  0  0
   -0.9898    0.5584    2.3888 H   0  0  0  0  0  0  0  0  0  0  0  0
   -0.1141   -0.9564    2.6366 H   0  0  0  0  0  0  0  0  0  0  0  0
    1.6932    0.2449    3.8270 H   0  0  0  0  0  0  0  0  0  0  0  0
    0.8327    1.7870    3.6105 H   0  0  0  0  0  0  0  0  0  0  0  0
   -0.9390   -0.0323    4.8892 H   0  0  0  0  0  0  0  0  0  0  0  0
   -0.0213    0.8163    8.2520 H   0  0  0  0  0  0  0  0  0  0  0  0
   -1.2297    0.0708    7.2459 H   0  0  0  0  0  0  0  0  0  0  0  0
    1.9943    1.7682    7.2610 H   0  0  0  0  0  0  0  0  0  0  0  0
    2.2283    1.7037    5.5420 H   0  0  0  0  0  0  0  0  0  0  0  0
    2.2131    0.3287   -1.1041 N   0  0  0  0  0  0  0  0  0  0  0  0
    3.1389    0.6653   -2.1610 C   0  0  2  0  0  0  0  0  0  0  0  0
    4.4620   -0.0289   -1.8660 C   0  0  0  0  0  0  0  0  0  0  0  0
    4.8856   -0.2088   -0.7261 O   0  0  0  0  0  0  0  0  0  0  0  0
    3.3277    2.1702   -2.2727 C   0  0  0  0  0  0  0  0  0  0  0  0
    2.5894    0.2124   -0.1678 H   0  0  0  0  0  0  0  0  0  0  0  0
    2.7163    0.2676   -3.0901 H   0  0  0  0  0  0  0  0  0  0  0  0
    3.7503    2.5867   -1.3511 H   0  0  0  0  0  0  0  0  0  0  0  0
    4.0074    2.4250   -3.0925 H   0  0  0  0  0  0  0  0  0  0  0  0
    2.3706    2.6706   -2.4553 H   0  0  0  0  0  0  0  0  0  0  0  0
    5.1344   -0.3853   -3.0266 N   0  0  0  0  0  0  0  0  0  0  0  0
    6.4320   -1.0194   -3.0123 C   0  0  0  0  0  0  0  0  0  0  0  0
    4.6906   -0.2343   -3.9277 H   0  0  0  0  0  0  0  0  0  0  0  0
    7.2168   -0.2513   -3.0769 H   0  0  0  0  0  0  0  0  0  0  0  0
    6.5518   -1.5881   -2.0784 H   0  0  0  0  0  0  0  0  0  0  0  0
    6.5158   -1.7021   -3.8707 H   0  0  0  0  0  0  0  0  0  0  0  0
  1  3  1  0  0  0  0
  1  7  1  0  0  0  0
  1  2  2  0  0  0  0
 42 43  1  0  0  0  0
 43 51  1  0  0  0  0
 43 44  2  0  0  0  0
  8  9  1  0  0  0  0
  9 17  1  0  0  0  0
  9 10  2  0  0  0  0
 18 19  1  0  0  0  0
 19 41  1  0  0  0  0
 19 20  2  0  0  0  0
 25 26  1  0  0  0  0
 25 27  1  0  0  0  0
 24 25  2  0  0  0  0
 42 45  1  0  0  0  0
  8 11  1  0  0  0  0
 51 52  1  0  0  0  0
 21 22  1  0  0  0  0
 22 23  1  0  0  0  0
 18 21  1  0  0  0  0
 23 24  1  0  0  0  0
 41 42  1  0  0  0  0
  7  8  1  0  0  0  0
 17 18  1  0  0  0  0
  3  4  1  0  0  0  0
  3  5  1  0  0  0  0
  3  6  1  0  0  0  0
 45 48  1  0  0  0  0
 45 49  1  0  0  0  0
 45 50  1  0  0  0  0
 11 14  1  0  0  0  0
 11 15  1  0  0  0  0
 11 16  1  0  0  0  0
 52 54  1  0  0  0  0
 52 55  1  0  0  0  0
 52 56  1  0  0  0  0
 22 32  1  0  0  0  0
 22 33  1  0  0  0  0
 21 30  1  0  0  0  0
 21 31  1  0  0  0  0
 23 34  1  0  0  0  0
 23 35  1  0  0  0  0
 42 47  1  0  0  0  0
  8 13  1  0  0  0  0
 18 29  1  0  0  0  0
 26 37  1  0  0  0  0
 26 38  1  0  0  0  0
 27 39  1  0  0  0  0
 27 40  1  0  0  0  0
 51 53  1  0  0  0  0
  7 12  1  0  0  0  0
 41 46  1  0  0  0  0
 17 28  1  0  0  0  0
 24 36  1  0  0  0  0
M  CHG  1  24   1
M  END
$$$$

  -OEChem-05262214473D

 56 55  0     1  0  0  0  0  0999 V2000
    0.7735   -5.8042   -2.0022 C   0  0  0  0  0  0  0  0  0  0  0  0
   -0.2086   -6.3825   -1.5519 O   0  0  0  0  0  0  0  0  0  0  0  0
    1.4751   -6.3646   -3.1946 C   0  0  0  0  0  0  0  0  0  0  0  0
    2.2765   -7.0687   -2.9186 H   0  0  0  0  0  0  0  0  0  0  0  0
    0.7988   -6.9360   -3.8504 H   0  0  0  0  0  0  0  0  0  0  0  0
    1.9556   -5.6216   -3.8511 H   0  0  0  0  0  0  0  0  0  0  0  0
    1.3322   -4.6359   -1.5106 N   0  0  0  0  0  0  0  0  0  0  0  0
    0.8124   -3.9290   -0.3698 C   0  0  2  0  0  0  0  0  0  0  0  0
    1.0666   -2.4424   -0.5818 C   0  0  0  0  0  0  0  0  0  0  0  0
    2.0598   -2.0076   -1.1610 O   0  0  0  0  0  0  0  0  0  0  0  0
    1.4560   -4.4118    0.9207 C   0  0  0  0  0  0  0  0  0  0  0  0
    2.1528   -4.2578   -1.9805 H   0  0  0  0  0  0  0  0  0  0  0  0
   -0.2667   -4.1160   -0.3467 H   0  0  0  0  0  0  0  0  0  0  0  0
    2.5374   -4.2329    0.9160 H   0  0  0  0  0  0  0  0  0  0  0  0
    1.0390   -3.8932    1.7903 H   0  0  0  0  0  0  0  0  0  0  0  0
    1.2976   -5.4871    1.0566 H   0  0  0  0  0  0  0  0  0  0  0  0
    0.0755   -1.6529   -0.0105 N   0  0  0  0  0  0  0  0  0  0  0  0
    0.1113   -0.2132   -0.0391 C   0  0  2  0  0  0  0  0  0  0  0  0
    0.8463    0.2017   -1.3093 C   0  0  0  0  0  0  0  0  0  0  0  0
    0.2678    0.6151   -2.3121 O   0  0  0  0  0  0  0  0  0  0  0  0
    0.8054    0.3702    1.1959 C   0  0  0  0  0  0  0  0  0  0  0  0
    0.0116    0.1217    2.4840 C   0  0  0  0  0  0  0  0  0  0  0  0
    0.7070    0.7045    3.7099 C   0  0  0  0  0  0  0  0  0  0  0  0
   -0.0407    0.4453    4.9382 N   0  3  0  0  0  0  0  0  0  0  0  0
    0.4302    0.8295    6.1951 C   0  0  0  0  0  0  0  0  0  0  0  0
   -0.3356    0.5497    7.3219 N   0  0  0  0  0  0  0  0  0  0  0  0
    1.6469    1.4862    6.3480 N   0  0  0  0  0  0  0  0  0  0  0  0
   -0.7323   -2.1024    0.4149 H   0  0  0  0  0  0  0  0  0  0  0  0
   -0.9280    0.1292   -0.0995 H   0  0  0  0  0  0  0  0  0  0  0  0
    0.9468    1.4491    1.0596 H   0  0  0  0  0  0  0  0  0  0  0  0
    1.8092   -0.0631    1.2974 H   0  0  0  0  0  0  0  0  0  0  0  0
   -0.9898    0.5584    2.3888 H   0  0  0  0  0  0  0  0  0  0  0  0
   -0.1141   -0.9564    2.6366 H   0  0  0  0  0  0  0  0  0  0  0  0
    1.6932    0.2449    3.8270 H   0  0  0  0  0  0  0  0  0  0  0  0
    0.8327    1.7870    3.6105 H   0  0  0  0  0  0  0  0  0  0  0  0
   -0.9390   -0.0323    4.8892 H   0  0  0  0  0  0  0  0  0  0  0  0
   -0.0213    0.8163    8.2520 H   0  0  0  0  0  0  0  0  0  0  0  0
   -1.2297    0.0708    7.2459 H   0  0  0  0  0  0  0  0  0  0  0  0
    1.9943    1.7682    7.2610 H   0  0  0  0  0  0  0  0  0  0  0  0
    2.2283    1.7037    5.5420 H   0  0  0  0  0  0  0  0  0  0  0  0
    2.2169    0.0090   -1.2063 N   0  0  0  0  0  0  0  0  0  0  0  0
    3.1326    0.2796   -2.2906 C   0  0  2  0  0  0  0  0  0  0  0  0
    4.2851   -0.7111   -2.1912 C   0  0  0  0  0  0  0  0  0  0  0  0
    4.7227   -1.1258   -1.1199 O   0  0  0  0  0  0  0  0  0  0  0  0
    3.6413    1.7119   -2.2410 C   0  0  0  0  0  0  0  0  0  0  0  0
    2.6109   -0.3070   -0.3250 H   0  0  0  0  0  0  0  0  0  0  0  0
    2.5809    0.1067   -3.2211 H   0  0  0  0  0  0  0  0  0  0  0  0
    4.1967    1.9039   -1.3157 H   0  0  0  0  0  0  0  0  0  0  0  0
    4.3128    1.9237   -3.0796 H   0  0  0  0  0  0  0  0  0  0  0  0
    2.8089    2.4227   -2.2826 H   0  0  0  0  0  0  0  0  0  0  0  0
    4.7957   -1.0445   -3.4379 N   0  0  0  0  0  0  0  0  0  0  0  0
    5.9206   -1.9344   -3.6071 C   0  0  0  0  0  0  0  0  0  0  0  0
    4.3456   -0.6852   -4.2746 H   0  0  0  0  0  0  0  0  0  0  0  0
    6.8502   -1.3476   -3.6472 H   0  0  0  0  0  0  0  0  0  0  0  0
    5.9651   -2.6342   -2.7596 H   0  0  0  0  0  0  0  0  0  0  0  0
    5.8033   -2.4996   -4.5435 H   0  0  0  0  0  0  0  0  0  0  0  0
  1  3  1  0  0  0  0
  1  7  1  0  0  0  0
  1  2  2  0  0  0  0
 42 43  1  0  0  0  0
 43 51  1  0  0  0  0
 43 44  2  0  0  0  0
  8  9  1  0  0  0  0
  9 17  1  0  0  0  0
  9 10  2  0  0  0  0
 18 19  1  0  0  0  0
 19 41  1  0  0  0  0
 19 20  2  0  0  0  0
 25 26  1  0  0  0  0
 25 27  1  0  0  0  0
 24 25  2  0  0  0  0
 42 45  1  0  0  0  0
  8 11  1  0  0  0  0
 51 52  1  0  0  0  0
 21 22  1  0  0  0  0
 22 23  1  0  0  0  0
 18 21  1  0  0  0  0
 23 24  1  0  0  0  0
 41 42  1  0  0  0  0
  7  8  1  0  0  0  0
 17 18  1  0  0  0  0
  3  4  1  0  0  0  0
  3  5  1  0  0  0  0
  3  6  1  0  0  0  0
 45 48  1  0  0  0  0
 45 49  1  0  0  0  0
 45 50  1  0  0  0  0
 11 14  1  0  0  0  0
 11 15  1  0  0  0  0
 11 16  1  0  0  0  0
 52 54  1  0  0  0  0
 52 55  1  0  0  0  0
 52 56  1  0  0  0  0
 22 32  1  0  0  0  0
 22 33  1  0  0  0  0
 21 30  1  0  0  0  0
 21 31  1  0  0  0  0
 23 34  1  0  0  0  0
 23 35  1  0  0  0  0
 42 47  1  0  0  0  0
  8 13  1  0  0  0  0
 18 29  1  0  0  0  0
 26 37  1  0  0  0  0
 26 38  1  0  0  0  0
 27 39  1  0  0  0  0
 27 40  1  0  0  0  0
 51 53  1  0  0  0  0
  7 12  1  0  0  0  0
 41 46  1  0  0  0  0
 17 28  1  0  0  0  0
 24 36  1  0  0  0  0
M  CHG  1  24   1
M  END
$$$$

  -OEChem-05262214473D

 56 55  0     1  0  0  0  0  0999 V2000
    0.7735   -5.8042   -2.0022 C   0  0  0  0  0  0  0  0  0  0  0  0
   -0.2086   -6.3825   -1.5519 O   0  0  0  0  0  0  0  0  0  0  0  0
    1.4751   -6.3646   -3.1946 C   0  0  0  0  0  0  0  0  0  0  0  0
    2.2765   -7.0687   -2.9186 H   0  0  0  0  0  0  0  0  0  0  0  0
    0.7988   -6.9360   -3.8504 H   0  0  0  0  0  0  0  0  0  0  0  0
    1.9556   -5.6216   -3.8511 H   0  0  0  0  0  0  0  0  0  0  0  0
    1.3322   -4.6359   -1.5106 N   0  0  0  0  0  0  0  0  0  0  0  0
    0.8124   -3.9290   -0.3698 C   0  0  2  0  0  0  0  0  0  0  0  0
    1.0666   -2.4424   -0.5818 C   0  0  0  0  0  0  0  0  0  0  0  0
    2.0598   -2.0076   -1.1610 O   0  0  0  0  0  0  0  0  0  0  0  0
    1.4560   -4.4118    0.9207 C   0  0  0  0  0  0  0  0  0  0  0  0
    2.1528   -4.2578   -1.9805 H   0  0  0  0  0  0  0  0  0  0  0  0
   -0.2667   -4.1160   -0.3467 H   0  0  0  0  0  0  0  0  0  0  0  0
    2.5374   -4.2329    0.9160 H   0  0  0  0  0  0  0  0  0  0  0  0
    1.0390   -3.8932    1.7903 H   0  0  0  0  0  0  0  0  0  0  0  0
    1.2976   -5.4871    1.0566 H   0  0  0  0  0  0  0  0  0  0  0  0
    0.0755   -1.6529   -0.0105 N   0  0  0  0  0  0  0  0  0  0  0  0
    0.1113   -0.2132   -0.0391 C   0  0  2  0  0  0  0  0  0  0  0  0
    0.8463    0.2017   -1.3093 C   0  0  0  0  0  0  0  0  0  0  0  0
    0.3170    0.8570   -2.2046 O   0  0  0  0  0  0  0  0  0  0  0  0
    0.8054    0.3702    1.1959 C   0  0  0  0  0  0  0  0  0  0  0  0
    0.0116    0.1217    2.4840 C   0  0  0  0  0  0  0  0  0  0  0  0
    0.7070    0.7045    3.7099 C   0  0  0  0  0  0  0  0  0  0  0  0
   -0.0407    0.4453    4.9382 N   0  3  0  0  0  0  0  0  0  0  0  0
    0.4302    0.8295    6.1951 C   0  0  0  0  0  0  0  0  0  0  0  0
   -0.3356    0.5497    7.3219 N   0  0  0  0  0  0  0  0  0  0  0  0
    1.6469    1.4862    6.3480 N   0  0  0  0  0  0  0  0  0  0  0  0
   -0.7323   -2.1024    0.4149 H   0  0  0  0  0  0  0  0  0  0  0  0
   -0.9280    0.1292   -0.0995 H   0  0  0  0  0  0  0  0  0  0  0  0
    0.9468    1.4491    1.0596 H   0  0  0  0  0  0  0  0  0  0  0  0
    1.8092   -0.0631    1.2974 H   0  0  0  0  0  0  0  0  0  0  0  0
   -0.9898    0.5584    2.3888 H   0  0  0  0  0  0  0  0  0  0  0  0
   -0.1141   -0.9564    2.6366 H   0  0  0  0  0  0  0  0  0  0  0  0
    1.6932    0.2449    3.8270 H   0  0  0  0  0  0  0  0  0  0  0  0
    0.8327    1.7870    3.6105 H   0  0  0  0  0  0  0  0  0  0  0  0
   -0.9390   -0.0323    4.8892 H   0  0  0  0  0  0  0  0  0  0  0  0
   -0.0213    0.8163    8.2520 H   0  0  0  0  0  0  0  0  0  0  0  0
   -1.2297    0.0708    7.2459 H   0  0  0  0  0  0  0  0  0  0  0  0
    1.9943    1.7682    7.2610 H   0  0  0  0  0  0  0  0  0  0  0  0
    2.2283    1.7037    5.5420 H   0  0  0  0  0  0  0  0  0  0  0  0
    2.1445   -0.2879   -1.3452 N   0  0  0  0  0  0  0  0  0  0  0  0
    3.0343   -0.0755   -2.4635 C   0  0  2  0  0  0  0  0  0  0  0  0
    3.9442   -1.2914   -2.5780 C   0  0  0  0  0  0  0  0  0  0  0  0
    4.3400   -1.9273   -1.6032 O   0  0  0  0  0  0  0  0  0  0  0  0
    3.8476    1.1976   -2.2896 C   0  0  0  0  0  0  0  0  0  0  0  0
    2.5087   -0.7939   -0.5432 H   0  0  0  0  0  0  0  0  0  0  0  0
    2.4061   -0.0032   -3.3581 H   0  0  0  0  0  0  0  0  0  0  0  0
    4.4833    1.1438   -1.3982 H   0  0  0  0  0  0  0  0  0  0  0  0
    4.5006    1.3721   -3.1511 H   0  0  0  0  0  0  0  0  0  0  0  0
    3.1911    2.0672   -2.1776 H   0  0  0  0  0  0  0  0  0  0  0  0
    4.2974   -1.5570   -3.8937 N   0  0  0  0  0  0  0  0  0  0  0  0
    5.1875   -2.6338   -4.2598 C   0  0  0  0  0  0  0  0  0  0  0  0
    3.8907   -1.0031   -4.6417 H   0  0  0  0  0  0  0  0  0  0  0  0
    6.2196   -2.2565   -4.3090 H   0  0  0  0  0  0  0  0  0  0  0  0
    5.1249   -3.4332   -3.5068 H   0  0  0  0  0  0  0  0  0  0  0  0
    4.8957   -3.0324   -5.2427 H   0  0  0  0  0  0  0  0  0  0  0  0
  1  3  1  0  0  0  0
  1  7  1  0  0  0  0
  1  2  2  0  0  0  0
 42 43  1  0  0  0  0
 43 51  1  0  0  0  0
 43 44  2  0  0  0  0
  8  9  1  0  0  0  0
  9 17  1  0  0  0  0
  9 10  2  0  0  0  0
 18 19  1  0  0  0  0
 19 41  1  0  0  0  0
 19 20  2  0  0  0  0
 25 26  1  0  0  0  0
 25 27  1  0  0  0  0
 24 25  2  0  0  0  0
 42 45  1  0  0  0  0
  8 11  1  0  0  0  0
 51 52  1  0  0  0  0
 21 22  1  0  0  0  0
 22 23  1  0  0  0  0
 18 21  1  0  0  0  0
 23 24  1  0  0  0  0
 41 42  1  0  0  0  0
  7  8  1  0  0  0  0
 17 18  1  0  0  0  0
  3  4  1  0  0  0  0
  3  5  1  0  0  0  0
  3  6  1  0  0  0  0
 45 48  1  0  0  0  0
 45 49  1  0  0  0  0
 45 50  1  0  0  0  0
 11 14  1  0  0  0  0
 11 15  1  0  0  0  0
 11 16  1  0  0  0  0
 52 54  1  0  0  0  0
 52 55  1  0  0  0  0
 52 56  1  0  0  0  0
 22 32  1  0  0  0  0
 22 33  1  0  0  0  0
 21 30  1  0  0  0  0
 21 31  1  0  0  0  0
 23 34  1  0  0  0  0
 23 35  1  0  0  0  0
 42 47  1  0  0  0  0
  8 13  1  0  0  0  0
 18 29  1  0  0  0  0
 26 37  1  0  0  0  0
 26 38  1  0  0  0  0
 27 39  1  0  0  0  0
 27 40  1  0  0  0  0
 51 53  1  0  0  0  0
  7 12  1  0  0  0  0
 41 46  1  0  0  0  0
 17 28  1  0  0  0  0
 24 36  1  0  0  0  0
M  CHG  1  24   1
M  END
$$$$

  -OEChem-05262214473D

 56 55  0     1  0  0  0  0  0999 V2000
    0.7735   -5.8042   -2.0022 C   0  0  0  0  0  0  0  0  0  0  0  0
   -0.2086   -6.3825   -1.5519 O   0  0  0  0  0  0  0  0  0  0  0  0
    1.4751   -6.3646   -3.1946 C   0  0  0  0  0  0  0  0  0  0  0  0
    2.2765   -7.0687   -2.9186 H   0  0  0  0  0  0  0  0  0  0  0  0
    0.7988   -6.9360   -3.8504 H   0  0  0  0  0  0  0  0  0  0  0  0
    1.9556   -5.6216   -3.8511 H   0  0  0  0  0  0  0  0  0  0  0  0
    1.3322   -4.6359   -1.5106 N   0  0  0  0  0  0  0  0  0  0  0  0
    0.8124   -3.9290   -0.3698 C   0  0  2  0  0  0  0  0  0  0  0  0
    1.0666   -2.4424   -0.5818 C   0  0  0  0  0  0  0  0  0  0  0  0
    2.0598   -2.0076   -1.1610 O   0  0  0  0  0  0  0  0  0  0  0  0
    1.4560   -4.4118    0.9207 C   0  0  0  0  0  0  0  0  0  0  0  0
    2.1528   -4.2578   -1.9805 H   0  0  0  0  0  0  0  0  0  0  0  0
   -0.2667   -4.1160   -0.3467 H   0  0  0  0  0  0  0  0  0  0  0  0
    2.5374   -4.2329    0.9160 H   0  0  0  0  0  0  0  0  0  0  0  0
    1.0390   -3.8932    1.7903 H   0  0  0  0  0  0  0  0  0  0  0  0
    1.2976   -5.4871    1.0566 H   0  0  0  0  0  0  0  0  0  0  0  0
    0.0755   -1.6529   -0.0105 N   0  0  0  0  0  0  0  0  0  0  0  0
    0.1113   -0.2132   -0.0391 C   0  0  2  0  0  0  0  0  0  0  0  0
    0.8463    0.2017   -1.3093 C   0  0  0  0  0  0  0  0  0  0  0  0
    0.4243    1.0667   -2.0740 O   0  0  0  0  0  0  0  0  0  0  0  0
    0.8054    0.3702    1.1959 C   0  0  0  0  0  0  0  0  0  0  0  0
    0.0116    0.1217    2.4840 C   0  0  0  0  0  0  0  0  0  0  0  0
    0.7070    0.7045    3.7099 C   0  0  0  0  0  0  0  0  0  0  0  0
   -0.0407    0.4453    4.9382 N   0  3  0  0  0  0  0  0  0  0  0  0
    0.4302    0.8295    6.1951 C   0  0  0  0  0  0  0  0  0  0  0  0
   -0.3356    0.5497    7.3219 N   0  0  0  0  0  0  0  0  0  0  0  0
    1.6469    1.4862    6.3480 N   0  0  0  0  0  0  0  0  0  0  0  0
   -0.7323   -2.1024    0.4149 H   0  0  0  0  0  0  0  0  0  0  0  0
   -0.9280    0.1292   -0.0995 H   0  0  0  0  0  0  0  0  0  0  0  0
    0.9468    1.4491    1.0596 H   0  0  0  0  0  0  0  0  0  0  0  0
    1.8092   -0.0631    1.2974 H   0  0  0  0  0  0  0  0  0  0  0  0
   -0.9898    0.5584    2.3888 H   0  0  0  0  0  0  0  0  0  0  0  0
   -0.1141   -0.9564    2.6366 H   0  0  0  0  0  0  0  0  0  0  0  0
    1.6932    0.2449    3.8270 H   0  0  0  0  0  0  0  0  0  0  0  0
    0.8327    1.7870    3.6105 H   0  0  0  0  0  0  0  0  0  0  0  0
   -0.9390   -0.0323    4.8892 H   0  0  0  0  0  0  0  0  0  0  0  0
   -0.0213    0.8163    8.2520 H   0  0  0  0  0  0  0  0  0  0  0  0
   -1.2297    0.0708    7.2459 H   0  0  0  0  0  0  0  0  0  0  0  0
    1.9943    1.7682    7.2610 H   0  0  0  0  0  0  0  0  0  0  0  0
    2.2283    1.7037    5.5420 H   0  0  0  0  0  0  0  0  0  0  0  0
    2.0008   -0.5417   -1.5112 N   0  0  0  0  0  0  0  0  0  0  0  0
    2.8506   -0.3758   -2.6679 C   0  0  2  0  0  0  0  0  0  0  0  0
    3.4627   -1.7302   -3.0000 C   0  0  0  0  0  0  0  0  0  0  0  0
    3.7634   -2.5586   -2.1431 O   0  0  0  0  0  0  0  0  0  0  0  0
    3.9326    0.6625   -2.4152 C   0  0  0  0  0  0  0  0  0  0  0  0
    2.2896   -1.2148   -0.8075 H   0  0  0  0  0  0  0  0  0  0  0  0
    2.2040   -0.0546   -3.4919 H   0  0  0  0  0  0  0  0  0  0  0  0
    4.5904    0.3581   -1.5929 H   0  0  0  0  0  0  0  0  0  0  0  0
    4.5580    0.8078   -3.3022 H   0  0  0  0  0  0  0  0  0  0  0  0
    3.4910    1.6284   -2.1474 H   0  0  0  0  0  0  0  0  0  0  0  0
    3.6735   -1.8877   -4.3627 N   0  0  0  0  0  0  0  0  0  0  0  0
    4.2826   -3.0699   -4.9259 C   0  0  0  0  0  0  0  0  0  0  0  0
    3.3568   -1.1663   -5.0039 H   0  0  0  0  0  0  0  0  0  0  0  0
    5.3679   -2.9159   -5.0172 H   0  0  0  0  0  0  0  0  0  0  0  0
    4.0885   -3.9306   -4.2690 H   0  0  0  0  0  0  0  0  0  0  0  0
    3.8550   -3.2641   -5.9206 H   0  0  0  0  0  0  0  0  0  0  0  0
  1  3  1  0  0  0  0
  1  7  1  0  0  0  0
  1  2  2  0  0  0  0
 42 43  1  0  0  0  0
 43 51  1  0  0  0  0
 43 44  2  0  0  0  0
  8  9  1  0  0  0  0
  9 17  1  0  0  0  0
  9 10  2  0  0  0  0
 18 19  1  0  0  0  0
 19 41  1  0  0  0  0
 19 20  2  0  0  0  0
 25 26  1  0  0  0  0
 25 27  1  0  0  0  0
 24 25  2  0  0  0  0
 42 45  1  0  0  0  0
  8 11  1  0  0  0  0
 51 52  1  0  0  0  0
 21 22  1  0  0  0  0
 22 23  1  0  0  0  0
 18 21  1  0  0  0  0
 23 24  1  0  0  0  0
 41 42  1  0  0  0  0
  7  8  1  0  0  0  0
 17 18  1  0  0  0  0
  3  4  1  0  0  0  0
  3  5  1  0  0  0  0
  3  6  1  0  0  0  0
 45 48  1  0  0  0  0
 45 49  1  0  0  0  0
 45 50  1  0  0  0  0
 11 14  1  0  0  0  0
 11 15  1  0  0  0  0
 11 16  1  0  0  0  0
 52 54  1  0  0  0  0
 52 55  1  0  0  0  0
 52 56  1  0  0  0  0
 22 32  1  0  0  0  0
 22 33  1  0  0  0  0
 21 30  1  0  0  0  0
 21 31  1  0  0  0  0
 23 34  1  0  0  0  0
 23 35  1  0  0  0  0
 42 47  1  0  0  0  0
  8 13  1  0  0  0  0
 18 29  1  0  0  0  0
 26 37  1  0  0  0  0
 26 38  1  0  0  0  0
 27 39  1  0  0  0  0
 27 40  1  0  0  0  0
 51 53  1  0  0  0  0
  7 12  1  0  0  0  0
 41 46  1  0  0  0  0
 17 28  1  0  0  0  0
 24 36  1  0  0  0  0
M  CHG  1  24   1
M  END
$$$$

  -OEChem-05262214473D

 56 55  0     1  0  0  0  0  0999 V2000
    0.7735   -5.8042   -2.0022 C   0  0  0  0  0  0  0  0  0  0  0  0
   -0.2086   -6.3825   -1.5519 O   0  0  0  0  0  0  0  0  0  0  0  0
    1.4751   -6.3646   -3.1946 C   0  0  0  0  0  0  0  0  0  0  0  0
    2.2765   -7.0687   -2.9186 H   0  0  0  0  0  0  0  0  0  0  0  0
    0.7988   -6.9360   -3.8504 H   0  0  0  0  0  0  0  0  0  0  0  0
    1.9556   -5.6216   -3.8511 H   0  0  0  0  0  0  0  0  0  0  0  0
    1.3322   -4.6359   -1.5106 N   0  0  0  0  0  0  0  0  0  0  0  0
    0.8124   -3.9290   -0.3698 C   0  0  2  0  0  0  0  0  0  0  0  0
    1.0666   -2.4424   -0.5818 C   0  0  0  0  0  0  0  0  0  0  0  0
    2.0598   -2.0076   -1.1610 O   0  0  0  0  0  0  0  0  0  0  0  0
    1.4560   -4.4118    0.9207 C   0  0  0  0  0  0  0  0  0  0  0  0
    2.1528   -4.2578   -1.9805 H   0  0  0  0  0  0  0  0  0  0  0  0
   -0.2667   -4.1160   -0.3467 H   0  0  0  0  0  0  0  0  0  0  0  0
    2.5374   -4.2329    0.9160 H   0  0  0  0  0  0  0  0  0  0  0  0
    1.0390   -3.8932    1.7903 H   0  0  0  0  0  0  0  0  0  0  0  0
    1.2976   -5.4871    1.0566 H   0  0  0  0  0  0  0  0  0  0  0  0
    0.0755   -1.6529   -0.0105 N   0  0  0  0  0  0  0  0  0  0  0  0
    0.1113   -0.2132   -0.0391 C   0  0  2  0  0  0  0  0  0  0  0  0
    0.8463    0.2017   -1.3093 C   0  0  0  0  0  0  0  0  0  0  0  0
    0.5822    1.2298   -1.9293 O   0  0  0  0  0  0  0  0  0  0  0  0
    0.8054    0.3702    1.1959 C   0  0  0  0  0  0  0  0  0  0  0  0
    0.0116    0.1217    2.4840 C   0  0  0  0  0  0  0  0  0  0  0  0
    0.7070    0.7045    3.7099 C   0  0  0  0  0  0  0  0  0  0  0  0
   -0.0407    0.4453    4.9382 N   0  3  0  0  0  0  0  0  0  0  0  0
    0.4302    0.8295    6.1951 C   0  0  0  0  0  0  0  0  0  0  0  0
   -0.3356    0.5497    7.3219 N   0  0  0  0  0  0  0  0  0  0  0  0
    1.6469    1.4862    6.3480 N   0  0  0  0  0  0  0  0  0  0  0  0
   -0.7323   -2.1024    0.4149 H   0  0  0  0  0  0  0  0  0  0  0  0
   -0.9280    0.1292   -0.0995 H   0  0  0  0  0  0  0  0  0  0  0  0
    0.9468    1.4491    1.0596 H   0  0  0  0  0  0  0  0  0  0  0  0
    1.8092   -0.0631    1.2974 H   0  0  0  0  0  0  0  0  0  0  0  0
   -0.9898    0.5584    2.3888 H   0  0  0  0  0  0  0  0  0  0  0  0
   -0.1141   -0.9564    2.6366 H   0  0  0  0  0  0  0  0  0  0  0  0
    1.6932    0.2449    3.8270 H   0  0  0  0  0  0  0  0  0  0  0  0
    0.8327    1.7870    3.6105 H   0  0  0  0  0  0  0  0  0  0  0  0
   -0.9390   -0.0323    4.8892 H   0  0  0  0  0  0  0  0  0  0  0  0
   -0.0213    0.8163    8.2520 H   0  0  0  0  0  0  0  0  0  0  0  0
   -1.2297    0.0708    7.2459 H   0  0  0  0  0  0  0  0  0  0  0  0
    1.9943    1.7682    7.2610 H   0  0  0  0  0  0  0  0  0  0  0  0
    2.2283    1.7037    5.5420 H   0  0  0  0  0  0  0  0  0  0  0  0
    1.7956   -0.7352   -1.6932 N   0  0  0  0  0  0  0  0  0  0  0  0
    2.5940   -0.6007   -2.8898 C   0  0  2  0  0  0  0  0  0  0  0  0
    2.8733   -1.9976   -3.4284 C   0  0  0  0  0  0  0  0  0  0  0  0
    3.0325   -2.9769   -2.7027 O   0  0  0  0  0  0  0  0  0  0  0  0
    3.8905    0.1429   -2.6093 C   0  0  0  0  0  0  0  0  0  0  0  0
    1.9686   -1.5413   -1.0999 H   0  0  0  0  0  0  0  0  0  0  0  0
    1.9883   -0.0441   -3.6132 H   0  0  0  0  0  0  0  0  0  0  0  0
    4.5108   -0.3996   -1.8865 H   0  0  0  0  0  0  0  0  0  0  0  0
    4.4812    0.2691   -3.5226 H   0  0  0  0  0  0  0  0  0  0  0  0
    3.6882    1.1361   -2.1941 H   0  0  0  0  0  0  0  0  0  0  0  0
    2.9666   -2.0141   -4.8131 N   0  0  0  0  0  0  0  0  0  0  0  0
    3.2677   -3.2130   -5.5600 C   0  0  0  0  0  0  0  0  0  0  0  0
    2.7805   -1.1637   -5.3366 H   0  0  0  0  0  0  0  0  0  0  0  0
    4.3533   -3.2808   -5.7235 H   0  0  0  0  0  0  0  0  0  0  0  0
    2.9266   -4.0926   -4.9943 H   0  0  0  0  0  0  0  0  0  0  0  0
    2.7521   -3.1791   -6.5311 H   0  0  0  0  0  0  0  0  0  0  0  0
  1  3  1  0  0  0  0
  1  7  1  0  0  0  0
  1  2  2  0  0  0  0
 42 43  1  0  0  0  0
 43 51  1  0  0  0  0
 43 44  2  0  0  0  0
  8  9  1  0  0  0  0
  9 17  1  0  0  0  0
  9 10  2  0  0  0  0
 18 19  1  0  0  0  0
 19 41  1  0  0  0  0
 19 20  2  0  0  0  0
 25 26  1  0  0  0  0
 25 27  1  0  0  0  0
 24 25  2  0  0  0  0
 42 45  1  0  0  0  0
  8 11  1  0  0  0  0
 51 52  1  0  0  0  0
 21 22  1  0  0  0  0
 22 23  1  0  0  0  0
 18 21  1  0  0  0  0
 23 24  1  0  0  0  0
 41 42  1  0  0  0  0
  7  8  1  0  0  0  0
 17 18  1  0  0  0  0
  3  4  1  0  0  0  0
  3  5  1  0  0  0  0
  3  6  1  0  0  0  0
 45 48  1  0  0  0  0
 45 49  1  0  0  0  0
 45 50  1  0  0  0  0
 11 14  1  0  0  0  0
 11 15  1  0  0  0  0
 11 16  1  0  0  0  0
 52 54  1  0  0  0  0
 52 55  1  0  0  0  0
 52 56  1  0  0  0  0
 22 32  1  0  0  0  0
 22 33  1  0  0  0  0
 21 30  1  0  0  0  0
 21 31  1  0  0  0  0
 23 34  1  0  0  0  0
 23 35  1  0  0  0  0
 42 47  1  0  0  0  0
  8 13  1  0  0  0  0
 18 29  1  0  0  0  0
 26 37  1  0  0  0  0
 26 38  1  0  0  0  0
 27 39  1  0  0  0  0
 27 40  1  0  0  0  0
 51 53  1  0  0  0  0
  7 12  1  0  0  0  0
 41 46  1  0  0  0  0
 17 28  1  0  0  0  0
 24 36  1  0  0  0  0
M  CHG  1  24   1
M  END
$$$$

  -OEChem-05262214473D

 56 55  0     1  0  0  0  0  0999 V2000
    0.7735   -5.8042   -2.0022 C   0  0  0  0  0  0  0  0  0  0  0  0
   -0.2086   -6.3825   -1.5519 O   0  0  0  0  0  0  0  0  0  0  0  0
    1.4751   -6.3646   -3.1946 C   0  0  0  0  0  0  0  0  0  0  0  0
    2.2765   -7.0687   -2.9186 H   0  0  0  0  0  0  0  0  0  0  0  0
    0.7988   -6.9360   -3.8504 H   0  0  0  0  0  0  0  0  0  0  0  0
    1.9556   -5.6216   -3.8511 H   0  0  0  0  0  0  0  0  0  0  0  0
    1.3322   -4.6359   -1.5106 N   0  0  0  0  0  0  0  0  0  0  0  0
    0.8124   -3.9290   -0.3698 C   0  0  2  0  0  0  0  0  0  0  0  0
    1.0666   -2.4424   -0.5818 C   0  0  0  0  0  0  0  0  0  0  0  0
    2.0598   -2.0076   -1.1610 O   0  0  0  0  0  0  0  0  0  0  0  0
    1.4560   -4.4118    0.9207 C   0  0  0  0  0  0  0  0  0  0  0  0
    2.1528   -4.2578   -1.9805 H   0  0  0  0  0  0  0  0  0  0  0  0
   -0.2667   -4.1160   -0.3467 H   0  0  0  0  0  0  0  0  0  0  0  0
    2.5374   -4.2329    0.9160 H   0  0  0  0  0  0  0  0  0  0  0  0
    1.0390   -3.8932    1.7903 H   0  0  0  0  0  0  0  0  0  0  0  0
    1.2976   -5.4871    1.0566 H   0  0  0  0  0  0  0  0  0  0  0  0
    0.0755   -1.6529   -0.0105 N   0  0  0  0  0  0  0  0  0  0  0  0
    0.1113   -0.2132   -0.0391 C   0  0  2  0  0  0  0  0  0  0  0  0
    0.8463    0.2017   -1.3093 C   0  0  0  0  0  0  0  0  0  0  0  0
    0.7802    1.3352   -1.7803 O   0  0  0  0  0  0  0  0  0  0  0  0
    0.8054    0.3702    1.1959 C   0  0  0  0  0  0  0  0  0  0  0  0
    0.0116    0.1217    2.4840 C   0  0  0  0  0  0  0  0  0  0  0  0
    0.7070    0.7045    3.7099 C   0  0  0  0  0  0  0  0  0  0  0  0
   -0.0407    0.4453    4.9382 N   0  3  0  0  0  0  0  0  0  0  0  0
    0.4302    0.8295    6.1951 C   0  0  0  0  0  0  0  0  0  0  0  0
   -0.3356    0.5497    7.3219 N   0  0  0  0  0  0  0  0  0  0  0  0
    1.6469    1.4862    6.3480 N   0  0  0  0  0  0  0  0  0  0  0  0
   -0.7323   -2.1024    0.4149 H   0  0  0  0  0  0  0  0  0  0  0  0
   -0.9280    0.1292   -0.0995 H   0  0  0  0  0  0  0  0  0  0  0  0
    0.9468    1.4491    1.0596 H   0  0  0  0  0  0  0  0  0  0  0  0
    1.8092   -0.0631    1.2974 H   0  0  0  0  0  0  0  0  0  0  0  0
   -0.9898    0.5584    2.3888 H   0  0  0  0  0  0  0  0  0  0  0  0
   -0.1141   -0.9564    2.6366 H   0  0  0  0  0  0  0  0  0  0  0  0
    1.6932    0.2449    3.8270 H   0  0  0  0  0  0  0  0  0  0  0  0
    0.8327    1.7870    3.6105 H   0  0  0  0  0  0  0  0  0  0  0  0
   -0.9390   -0.0323    4.8892 H   0  0  0  0  0  0  0  0  0  0  0  0
   -0.0213    0.8163    8.2520 H   0  0  0  0  0  0  0  0  0  0  0  0
   -1.2297    0.0708    7.2459 H   0  0  0  0  0  0  0  0  0  0  0  0
    1.9943    1.7682    7.2610 H   0  0  0  0  0  0  0  0  0  0  0  0
    2.2283    1.7037    5.5420 H   0  0  0  0  0  0  0  0  0  0  0  0
    1.5428   -0.8552   -1.8787 N   0  0  0  0  0  0  0  0  0  0  0  0
    2.2821   -0.7349   -3.1142 C   0  0  2  0  0  0  0  0  0  0  0  0
    2.2161   -2.0754   -3.8341 C   0  0  0  0  0  0  0  0  0  0  0  0
    2.1968   -3.1535   -3.2439 O   0  0  0  0  0  0  0  0  0  0  0  0
    3.7242   -0.3256   -2.8586 C   0  0  0  0  0  0  0  0  0  0  0  0
    1.5676   -1.7509   -1.4004 H   0  0  0  0  0  0  0  0  0  0  0  0
    1.7736    0.0278   -3.7140 H   0  0  0  0  0  0  0  0  0  0  0  0
    4.2499   -1.0777   -2.2590 H   0  0  0  0  0  0  0  0  0  0  0  0
    4.2754   -0.2072   -3.7973 H   0  0  0  0  0  0  0  0  0  0  0  0
    3.7693    0.6239   -2.3145 H   0  0  0  0  0  0  0  0  0  0  0  0
    2.2248   -1.9276   -5.2141 N   0  0  0  0  0  0  0  0  0  0  0  0
    2.2118   -3.0534   -6.1188 C   0  0  0  0  0  0  0  0  0  0  0  0
    2.2010   -0.9955   -5.6170 H   0  0  0  0  0  0  0  0  0  0  0  0
    3.2448   -3.3266   -6.3799 H   0  0  0  0  0  0  0  0  0  0  0  0
    1.7182   -3.9081   -5.6333 H   0  0  0  0  0  0  0  0  0  0  0  0
    1.6621   -2.7830   -7.0324 H   0  0  0  0  0  0  0  0  0  0  0  0
  1  3  1  0  0  0  0
  1  7  1  0  0  0  0
  1  2  2  0  0  0  0
 42 43  1  0  0  0  0
 43 51  1  0  0  0  0
 43 44  2  0  0  0  0
  8  9  1  0  0  0  0
  9 17  1  0  0  0  0
  9 10  2  0  0  0  0
 18 19  1  0  0  0  0
 19 41  1  0  0  0  0
 19 20  2  0  0  0  0
 25 26  1  0  0  0  0
 25 27  1  0  0  0  0
 24 25  2  0  0  0  0
 42 45  1  0  0  0  0
  8 11  1  0  0  0  0
 51 52  1  0  0  0  0
 21 22  1  0  0  0  0
 22 23  1  0  0  0  0
 18 21  1  0  0  0  0
 23 24  1  0  0  0  0
 41 42  1  0  0  0  0
  7  8  1  0  0  0  0
 17 18  1  0  0  0  0
  3  4  1  0  0  0  0
  3  5  1  0  0  0  0
  3  6  1  0  0  0  0
 45 48  1  0  0  0  0
 45 49  1  0  0  0  0
 45 50  1  0  0  0  0
 11 14  1  0  0  0  0
 11 15  1  0  0  0  0
 11 16  1  0  0  0  0
 52 54  1  0  0  0  0
 52 55  1  0  0  0  0
 52 56  1  0  0  0  0
 22 32  1  0  0  0  0
 22 33  1  0  0  0  0
 21 30  1  0  0  0  0
 21 31  1  0  0  0  0
 23 34  1  0  0  0  0
 23 35  1  0  0  0  0
 42 47  1  0  0  0  0
  8 13  1  0  0  0  0
 18 29  1  0  0  0  0
 26 37  1  0  0  0  0
 26 38  1  0  0  0  0
 27 39  1  0  0  0  0
 27 40  1  0  0  0  0
 51 53  1  0  0  0  0
  7 12  1  0  0  0  0
 41 46  1  0  0  0  0
 17 28  1  0  0  0  0
 24 36  1  0  0  0  0
M  CHG  1  24   1
M  END
$$$$

  -OEChem-05262214473D

 56 55  0     1  0  0  0  0  0999 V2000
    0.7735   -5.8042   -2.0022 C   0  0  0  0  0  0  0  0  0  0  0  0
   -0.2086   -6.3825   -1.5519 O   0  0  0  0  0  0  0  0  0  0  0  0
    1.4751   -6.3646   -3.1946 C   0  0  0  0  0  0  0  0  0  0  0  0
    2.2765   -7.0687   -2.9186 H   0  0  0  0  0  0  0  0  0  0  0  0
    0.7988   -6.9360   -3.8504 H   0  0  0  0  0  0  0  0  0  0  0  0
    1.9556   -5.6216   -3.8511 H   0  0  0  0  0  0  0  0  0  0  0  0
    1.3322   -4.6359   -1.5106 N   0  0  0  0  0  0  0  0  0  0  0  0
    0.8124   -3.9290   -0.3698 C   0  0  2  0  0  0  0  0  0  0  0  0
    1.0666   -2.4424   -0.5818 C   0  0  0  0  0  0  0  0  0  0  0  0
    2.0598   -2.0076   -1.1610 O   0  0  0  0  0  0  0  0  0  0  0  0
    1.4560   -4.4118    0.9207 C   0  0  0  0  0  0  0  0  0  0  0  0
    2.1528   -4.2578   -1.9805 H   0  0  0  0  0  0  0  0  0  0  0  0
   -0.2667   -4.1160   -0.3467 H   0  0  0  0  0  0  0  0  0  0  0  0
    2.5374   -4.2329    0.9160 H   0  0  0  0  0  0  0  0  0  0  0  0
    1.0390   -3.8932    1.7903 H   0  0  0  0  0  0  0  0  0  0  0  0
    1.2976   -5.4871    1.0566 H   0  0  0  0  0  0  0  0  0  0  0  0
    0.0755   -1.6529   -0.0105 N   0  0  0  0  0  0  0  0  0  0  0  0
    0.1113   -0.2132   -0.0391 C   0  0  2  0  0  0  0  0  0  0  0  0
    0.8463    0.2017   -1.3093 C   0  0  0  0  0  0  0  0  0  0  0  0
    1.0046    1.3758   -1.6372 O   0  0  0  0  0  0  0  0  0  0  0  0
    0.8054    0.3702    1.1959 C   0  0  0  0  0  0  0  0  0  0  0  0
    0.0116    0.1217    2.4840 C   0  0  0  0  0  0  0  0  0  0  0  0
    0.7070    0.7045    3.7099 C   0  0  0  0  0  0  0  0  0  0  0  0
   -0.0407    0.4453    4.9382 N   0  3  0  0  0  0  0  0  0  0  0  0
    0.4302    0.8295    6.1951 C   0  0  0  0  0  0  0  0  0  0  0  0
   -0.3356    0.5497    7.3219 N   0  0  0  0  0  0  0  0  0  0  0  0
    1.6469    1.4862    6.3480 N   0  0  0  0  0  0  0  0  0  0  0  0
   -0.7323   -2.1024    0.4149 H   0  0  0  0  0  0  0  0  0  0  0  0
   -0.9280    0.1292   -0.0995 H   0  0  0  0  0  0  0  0  0  0  0  0
    0.9468    1.4491    1.0596 H   0  0  0  0  0  0  0  0  0  0  0  0
    1.8092   -0.0631    1.2974 H   0  0  0  0  0  0  0  0  0  0  0  0
   -0.9898    0.5584    2.3888 H   0  0  0  0  0  0  0  0  0  0  0  0
   -0.1141   -0.9564    2.6366 H   0  0  0  0  0  0  0  0  0  0  0  0
    1.6932    0.2449    3.8270 H   0  0  0  0  0  0  0  0  0  0  0  0
    0.8327    1.7870    3.6105 H   0  0  0  0  0  0  0  0  0  0  0  0
   -0.9390   -0.0323    4.8892 H   0  0  0  0  0  0  0  0  0  0  0  0
   -0.0213    0.8163    8.2520 H   0  0  0  0  0  0  0  0  0  0  0  0
   -1.2297    0.0708    7.2459 H   0  0  0  0  0  0  0  0  0  0  0  0
    1.9943    1.7682    7.2610 H   0  0  0  0  0  0  0  0  0  0  0  0
    2.2283    1.7037    5.5420 H   0  0  0  0  0  0  0  0  0  0  0  0
    1.2598   -0.8935   -2.0550 N   0  0  0  0  0  0  0  0  0  0  0  0
    1.9360   -0.7694   -3.3257 C   0  0  2  0  0  0  0  0  0  0  0  0
    1.5360   -1.9583   -4.1894 C   0  0  0  0  0  0  0  0  0  0  0  0
    1.3135   -3.0765   -3.7299 O   0  0  0  0  0  0  0  0  0  0  0  0
    3.4450   -0.7113   -3.1461 C   0  0  0  0  0  0  0  0  0  0  0  0
    1.1140   -1.8295   -1.6886 H   0  0  0  0  0  0  0  0  0  0  0  0
    1.5747    0.1561   -3.7872 H   0  0  0  0  0  0  0  0  0  0  0  0
    3.8254   -1.6301   -2.6850 H   0  0  0  0  0  0  0  0  0  0  0  0
    3.9546   -0.5886   -4.1075 H   0  0  0  0  0  0  0  0  0  0  0  0
    3.7287    0.1267   -2.5004 H   0  0  0  0  0  0  0  0  0  0  0  0
    1.4987   -1.6342   -5.5384 N   0  0  0  0  0  0  0  0  0  0  0  0
    1.1870   -2.6018   -6.5643 C   0  0  0  0  0  0  0  0  0  0  0  0
    1.6577   -0.6731   -5.8260 H   0  0  0  0  0  0  0  0  0  0  0  0
    2.1181   -3.0499   -6.9415 H   0  0  0  0  0  0  0  0  0  0  0  0
    0.5457   -3.3897   -6.1424 H   0  0  0  0  0  0  0  0  0  0  0  0
    0.6593   -2.1030   -7.3906 H   0  0  0  0  0  0  0  0  0  0  0  0
  1  3  1  0  0  0  0
  1  7  1  0  0  0  0
  1  2  2  0  0  0  0
 42 43  1  0  0  0  0
 43 51  1  0  0  0  0
 43 44  2  0  0  0  0
  8  9  1  0  0  0  0
  9 17  1  0  0  0  0
  9 10  2  0  0  0  0
 18 19  1  0  0  0  0
 19 41  1  0  0  0  0
 19 20  2  0  0  0  0
 25 26  1  0  0  0  0
 25 27  1  0  0  0  0
 24 25  2  0  0  0  0
 42 45  1  0  0  0  0
  8 11  1  0  0  0  0
 51 52  1  0  0  0  0
 21 22  1  0  0  0  0
 22 23  1  0  0  0  0
 18 21  1  0  0  0  0
 23 24  1  0  0  0  0
 41 42  1  0  0  0  0
  7  8  1  0  0  0  0
 17 18  1  0  0  0  0
  3  4  1  0  0  0  0
  3  5  1  0  0  0  0
  3  6  1  0  0  0  0
 45 48  1  0  0  0  0
 45 49  1  0  0  0  0
 45 50  1  0  0  0  0
 11 14  1  0  0  0  0
 11 15  1  0  0  0  0
 11 16  1  0  0  0  0
 52 54  1  0  0  0  0
 52 55  1  0  0  0  0
 52 56  1  0  0  0  0
 22 32  1  0  0  0  0
 22 33  1  0  0  0  0
 21 30  1  0  0  0  0
 21 31  1  0  0  0  0
 23 34  1  0  0  0  0
 23 35  1  0  0  0  0
 42 47  1  0  0  0  0
  8 13  1  0  0  0  0
 18 29  1  0  0  0  0
 26 37  1  0  0  0  0
 26 38  1  0  0  0  0
 27 39  1  0  0  0  0
 27 40  1  0  0  0  0
 51 53  1  0  0  0  0
  7 12  1  0  0  0  0
 41 46  1  0  0  0  0
 17 28  1  0  0  0  0
 24 36  1  0  0  0  0
M  CHG  1  24   1
M  END
$$$$

  -OEChem-05262214473D

 56 55  0     1  0  0  0  0  0999 V2000
    0.7735   -5.8042   -2.0022 C   0  0  0  0  0  0  0  0  0  0  0  0
   -0.2086   -6.3825   -1.5519 O   0  0  0  0  0  0  0  0  0  0  0  0
    1.4751   -6.3646   -3.1946 C   0  0  0  0  0  0  0  0  0  0  0  0
    2.2765   -7.0687   -2.9186 H   0  0  0  0  0  0  0  0  0  0  0  0
    0.7988   -6.9360   -3.8504 H   0  0  0  0  0  0  0  0  0  0  0  0
    1.9556   -5.6216   -3.8511 H   0  0  0  0  0  0  0  0  0  0  0  0
    1.3322   -4.6359   -1.5106 N   0  0  0  0  0  0  0  0  0  0  0  0
    0.8124   -3.9290   -0.3698 C   0  0  2  0  0  0  0  0  0  0  0  0
    1.0666   -2.4424   -0.5818 C   0  0  0  0  0  0  0  0  0  0  0  0
    2.0598   -2.0076   -1.1610 O   0  0  0  0  0  0  0  0  0  0  0  0
    1.4560   -4.4118    0.9207 C   0  0  0  0  0  0  0  0  0  0  0  0
    2.1528   -4.2578   -1.9805 H   0  0  0  0  0  0  0  0  0  0  0  0
   -0.2667   -4.1160   -0.3467 H   0  0  0  0  0  0  0  0  0  0  0  0
    2.5374   -4.2329    0.9160 H   0  0  0  0  0  0  0  0  0  0  0  0
    1.0390   -3.8932    1.7903 H   0  0  0  0  0  0  0  0  0  0  0  0
    1.2976   -5.4871    1.0566 H   0  0  0  0  0  0  0  0  0  0  0  0
    0.0755   -1.6529   -0.0105 N   0  0  0  0  0  0  0  0  0  0  0  0
    0.1113   -0.2132   -0.0391 C   0  0  2  0  0  0  0  0  0  0  0  0
    0.8463    0.2017   -1.3093 C   0  0  0  0  0  0  0  0  0  0  0  0
    1.2402    1.3488   -1.5097 O   0  0  0  0  0  0  0  0  0  0  0  0
    0.8054    0.3702    1.1959 C   0  0  0  0  0  0  0  0  0  0  0  0
    0.0116    0.1217    2.4840 C   0  0  0  0  0  0  0  0  0  0  0  0
    0.7070    0.7045    3.7099 C   0  0  0  0  0  0  0  0  0  0  0  0
   -0.0407    0.4453    4.9382 N   0  3  0  0  0  0  0  0  0  0  0  0
    0.4302    0.8295    6.1951 C   0  0  0  0  0  0  0  0  0  0  0  0
   -0.3356    0.5497    7.3219 N   0  0  0  0  0  0  0  0  0  0  0  0
    1.6469    1.4862    6.3480 N   0  0  0  0  0  0  0  0  0  0  0  0
   -0.7323   -2.1024    0.4149 H   0  0  0  0  0  0  0  0  0  0  0  0
   -0.9280    0.1292   -0.0995 H   0  0  0  0  0  0  0  0  0  0  0  0
    0.9468    1.4491    1.0596 H   0  0  0  0  0  0  0  0  0  0  0  0
    1.8092   -0.0631    1.2974 H   0  0  0  0  0  0  0  0  0  0  0  0
   -0.9898    0.5584    2.3888 H   0  0  0  0  0  0  0  0  0  0  0  0
   -0.1141   -0.9564    2.6366 H   0  0  0  0  0  0  0  0  0  0  0  0
    1.6932    0.2449    3.8270 H   0  0  0  0  0  0  0  0  0  0  0  0
    0.8327    1.7870    3.6105 H   0  0  0  0  0  0  0  0  0  0  0  0
   -0.9390   -0.0323    4.8892 H   0  0  0  0  0  0  0  0  0  0  0  0
   -0.0213    0.8163    8.2520 H   0  0  0  0  0  0  0  0  0  0  0  0
   -1.2297    0.0708    7.2459 H   0  0  0  0  0  0  0  0  0  0  0  0
    1.9943    1.7682    7.2610 H   0  0  0  0  0  0  0  0  0  0  0  0
    2.2283    1.7037    5.5420 H   0  0  0  0  0  0  0  0  0  0  0  0
    0.9657   -0.8474   -2.2101 N   0  0  0  0  0  0  0  0  0  0  0  0
    1.5794   -0.7017   -3.5099 C   0  0  2  0  0  0  0  0  0  0  0  0
    0.8793   -1.6542   -4.4701 C   0  0  0  0  0  0  0  0  0  0  0  0
    0.4426   -2.7510   -4.1276 O   0  0  0  0  0  0  0  0  0  0  0  0
    3.0719   -0.9878   -3.4523 C   0  0  0  0  0  0  0  0  0  0  0  0
    0.6385   -1.7717   -1.9448 H   0  0  0  0  0  0  0  0  0  0  0  0
    1.4050    0.3320   -3.8279 H   0  0  0  0  0  0  0  0  0  0  0  0
    3.2664   -2.0189   -3.1355 H   0  0  0  0  0  0  0  0  0  0  0  0
    3.5406   -0.8491   -4.4322 H   0  0  0  0  0  0  0  0  0  0  0  0
    3.5692   -0.3216   -2.7391 H   0  0  0  0  0  0  0  0  0  0  0  0
    0.8377   -1.1538   -5.7640 N   0  0  0  0  0  0  0  0  0  0  0  0
    0.2630   -1.8892   -6.8662 C   0  0  0  0  0  0  0  0  0  0  0  0
    1.1878   -0.2185   -5.9495 H   0  0  0  0  0  0  0  0  0  0  0  0
    1.0498   -2.4697   -7.3702 H   0  0  0  0  0  0  0  0  0  0  0  0
   -0.5109   -2.5728   -6.4869 H   0  0  0  0  0  0  0  0  0  0  0  0
   -0.1880   -1.1852   -7.5811 H   0  0  0  0  0  0  0  0  0  0  0  0
  1  3  1  0  0  0  0
  1  7  1  0  0  0  0
  1  2  2  0  0  0  0
 42 43  1  0  0  0  0
 43 51  1  0  0  0  0
 43 44  2  0  0  0  0
  8  9  1  0  0  0  0
  9 17  1  0  0  0  0
  9 10  2  0  0  0  0
 18 19  1  0  0  0  0
 19 41  1  0  0  0  0
 19 20  2  0  0  0  0
 25 26  1  0  0  0  0
 25 27  1  0  0  0  0
 24 25  2  0  0  0  0
 42 45  1  0  0  0  0
  8 11  1  0  0  0  0
 51 52  1  0  0  0  0
 21 22  1  0  0  0  0
 22 23  1  0  0  0  0
 18 21  1  0  0  0  0
 23 24  1  0  0  0  0
 41 42  1  0  0  0  0
  7  8  1  0  0  0  0
 17 18  1  0  0  0  0
  3  4  1  0  0  0  0
  3  5  1  0  0  0  0
  3  6  1  0  0  0  0
 45 48  1  0  0  0  0
 45 49  1  0  0  0  0
 45 50  1  0  0  0  0
 11 14  1  0  0  0  0
 11 15  1  0  0  0  0
 11 16  1  0  0  0  0
 52 54  1  0  0  0  0
 52 55  1  0  0  0  0
 52 56  1  0  0  0  0
 22 32  1  0  0  0  0
 22 33  1  0  0  0  0
 21 30  1  0  0  0  0
 21 31  1  0  0  0  0
 23 34  1  0  0  0  0
 23 35  1  0  0  0  0
 42 47  1  0  0  0  0
  8 13  1  0  0  0  0
 18 29  1  0  0  0  0
 26 37  1  0  0  0  0
 26 38  1  0  0  0  0
 27 39  1  0  0  0  0
 27 40  1  0  0  0  0
 51 53  1  0  0  0  0
  7 12  1  0  0  0  0
 41 46  1  0  0  0  0
 17 28  1  0  0  0  0
 24 36  1  0  0  0  0
M  CHG  1  24   1
M  END
$$$$

  -OEChem-05262214473D

 56 55  0     1  0  0  0  0  0999 V2000
    0.7735   -5.8042   -2.0022 C   0  0  0  0  0  0  0  0  0  0  0  0
   -0.2086   -6.3825   -1.5519 O   0  0  0  0  0  0  0  0  0  0  0  0
    1.4751   -6.3646   -3.1946 C   0  0  0  0  0  0  0  0  0  0  0  0
    2.2765   -7.0687   -2.9186 H   0  0  0  0  0  0  0  0  0  0  0  0
    0.7988   -6.9360   -3.8504 H   0  0  0  0  0  0  0  0  0  0  0  0
    1.9556   -5.6216   -3.8511 H   0  0  0  0  0  0  0  0  0  0  0  0
    1.3322   -4.6359   -1.5106 N   0  0  0  0  0  0  0  0  0  0  0  0
    0.8124   -3.9290   -0.3698 C   0  0  2  0  0  0  0  0  0  0  0  0
    1.0666   -2.4424   -0.5818 C   0  0  0  0  0  0  0  0  0  0  0  0
    2.0598   -2.0076   -1.1610 O   0  0  0  0  0  0  0  0  0  0  0  0
    1.4560   -4.4118    0.9207 C   0  0  0  0  0  0  0  0  0  0  0  0
    2.1528   -4.2578   -1.9805 H   0  0  0  0  0  0  0  0  0  0  0  0
   -0.2667   -4.1160   -0.3467 H   0  0  0  0  0  0  0  0  0  0  0  0
    2.5374   -4.2329    0.9160 H   0  0  0  0  0  0  0  0  0  0  0  0
    1.0390   -3.8932    1.7903 H   0  0  0  0  0  0  0  0  0  0  0  0
    1.2976   -5.4871    1.0566 H   0  0  0  0  0  0  0  0  0  0  0  0
    0.0755   -1.6529   -0.0105 N   0  0  0  0  0  0  0  0  0  0  0  0
    0.1113   -0.2132   -0.0391 C   0  0  2  0  0  0  0  0  0  0  0  0
    0.8463    0.2017   -1.3093 C   0  0  0  0  0  0  0  0  0  0  0  0
    1.4709    1.2560   -1.4065 O   0  0  0  0  0  0  0  0  0  0  0  0
    0.8054    0.3702    1.1959 C   0  0  0  0  0  0  0  0  0  0  0  0
    0.0116    0.1217    2.4840 C   0  0  0  0  0  0  0  0  0  0  0  0
    0.7070    0.7045    3.7099 C   0  0  0  0  0  0  0  0  0  0  0  0
   -0.0407    0.4453    4.9382 N   0  3  0  0  0  0  0  0  0  0  0  0
    0.4302    0.8295    6.1951 C   0  0  0  0  0  0  0  0  0  0  0  0
   -0.3356    0.5497    7.3219 N   0  0  0  0  0  0  0  0  0  0  0  0
    1.6469    1.4862    6.3480 N   0  0  0  0  0  0  0  0  0  0  0  0
   -0.7323   -2.1024    0.4149 H   0  0  0  0  0  0  0  0  0  0  0  0
   -0.9280    0.1292   -0.0995 H   0  0  0  0  0  0  0  0  0  0  0  0
    0.9468    1.4491    1.0596 H   0  0  0  0  0  0  0  0  0  0  0  0
    1.8092   -0.0631    1.2974 H   0  0  0  0  0  0  0  0  0  0  0  0
   -0.9898    0.5584    2.3888 H   0  0  0  0  0  0  0  0  0  0  0  0
   -0.1141   -0.9564    2.6366 H   0  0  0  0  0  0  0  0  0  0  0  0
    1.6932    0.2449    3.8270 H   0  0  0  0  0  0  0  0  0  0  0  0
    0.8327    1.7870    3.6105 H   0  0  0  0  0  0  0  0  0  0  0  0
   -0.9390   -0.0323    4.8892 H   0  0  0  0  0  0  0  0  0  0  0  0
   -0.0213    0.8163    8.2520 H   0  0  0  0  0  0  0  0  0  0  0  0
   -1.2297    0.0708    7.2459 H   0  0  0  0  0  0  0  0  0  0  0  0
    1.9943    1.7682    7.2610 H   0  0  0  0  0  0  0  0  0  0  0  0
    2.2283    1.7037    5.5420 H   0  0  0  0  0  0  0  0  0  0  0  0
    0.6806   -0.7202   -2.3335 N   0  0  0  0  0  0  0  0  0  0  0  0
    1.2366   -0.5364   -3.6543 C   0  0  2  0  0  0  0  0  0  0  0  0
    0.2907   -1.1839   -4.6571 C   0  0  0  0  0  0  0  0  0  0  0  0
   -0.3564   -2.1993   -4.4097 O   0  0  0  0  0  0  0  0  0  0  0  0
    2.6304   -1.1362   -3.7563 C   0  0  0  0  0  0  0  0  0  0  0  0
    0.1737   -1.5814   -2.1516 H   0  0  0  0  0  0  0  0  0  0  0  0
    1.2762    0.5436   -3.8334 H   0  0  0  0  0  0  0  0  0  0  0  0
    2.6109   -2.2178   -3.5798 H   0  0  0  0  0  0  0  0  0  0  0  0
    3.0617   -0.9710   -4.7491 H   0  0  0  0  0  0  0  0  0  0  0  0
    3.3017   -0.6905   -3.0144 H   0  0  0  0  0  0  0  0  0  0  0  0
    0.2869   -0.5191   -5.8753 N   0  0  0  0  0  0  0  0  0  0  0  0
   -0.4971   -0.9640   -7.0038 C   0  0  0  0  0  0  0  0  0  0  0  0
    0.8231    0.3373   -5.9789 H   0  0  0  0  0  0  0  0  0  0  0  0
    0.1128   -1.6255   -7.6366 H   0  0  0  0  0  0  0  0  0  0  0  0
   -1.3796   -1.5129   -6.6434 H   0  0  0  0  0  0  0  0  0  0  0  0
   -0.8219   -0.0924   -7.5909 H   0  0  0  0  0  0  0  0  0  0  0  0
  1  3  1  0  0  0  0
  1  7  1  0  0  0  0
  1  2  2  0  0  0  0
 42 43  1  0  0  0  0
 43 51  1  0  0  0  0
 43 44  2  0  0  0  0
  8  9  1  0  0  0  0
  9 17  1  0  0  0  0
  9 10  2  0  0  0  0
 18 19  1  0  0  0  0
 19 41  1  0  0  0  0
 19 20  2  0  0  0  0
 25 26  1  0  0  0  0
 25 27  1  0  0  0  0
 24 25  2  0  0  0  0
 42 45  1  0  0  0  0
  8 11  1  0  0  0  0
 51 52  1  0  0  0  0
 21 22  1  0  0  0  0
 22 23  1  0  0  0  0
 18 21  1  0  0  0  0
 23 24  1  0  0  0  0
 41 42  1  0  0  0  0
  7  8  1  0  0  0  0
 17 18  1  0  0  0  0
  3  4  1  0  0  0  0
  3  5  1  0  0  0  0
  3  6  1  0  0  0  0
 45 48  1  0  0  0  0
 45 49  1  0  0  0  0
 45 50  1  0  0  0  0
 11 14  1  0  0  0  0
 11 15  1  0  0  0  0
 11 16  1  0  0  0  0
 52 54  1  0  0  0  0
 52 55  1  0  0  0  0
 52 56  1  0  0  0  0
 22 32  1  0  0  0  0
 22 33  1  0  0  0  0
 21 30  1  0  0  0  0
 21 31  1  0  0  0  0
 23 34  1  0  0  0  0
 23 35  1  0  0  0  0
 42 47  1  0  0  0  0
  8 13  1  0  0  0  0
 18 29  1  0  0  0  0
 26 37  1  0  0  0  0
 26 38  1  0  0  0  0
 27 39  1  0  0  0  0
 27 40  1  0  0  0  0
 51 53  1  0  0  0  0
  7 12  1  0  0  0  0
 41 46  1  0  0  0  0
 17 28  1  0  0  0  0
 24 36  1  0  0  0  0
M  CHG  1  24   1
M  END
$$$$

  -OEChem-05262214473D

 56 55  0     1  0  0  0  0  0999 V2000
    0.7735   -5.8042   -2.0022 C   0  0  0  0  0  0  0  0  0  0  0  0
   -0.2086   -6.3825   -1.5519 O   0  0  0  0  0  0  0  0  0  0  0  0
    1.4751   -6.3646   -3.1946 C   0  0  0  0  0  0  0  0  0  0  0  0
    2.2765   -7.0687   -2.9186 H   0  0  0  0  0  0  0  0  0  0  0  0
    0.7988   -6.9360   -3.8504 H   0  0  0  0  0  0  0  0  0  0  0  0
    1.9556   -5.6216   -3.8511 H   0  0  0  0  0  0  0  0  0  0  0  0
    1.3322   -4.6359   -1.5106 N   0  0  0  0  0  0  0  0  0  0  0  0
    0.8124   -3.9290   -0.3698 C   0  0  2  0  0  0  0  0  0  0  0  0
    1.0666   -2.4424   -0.5818 C   0  0  0  0  0  0  0  0  0  0  0  0
    2.0598   -2.0076   -1.1610 O   0  0  0  0  0  0  0  0  0  0  0  0
    1.4560   -4.4118    0.9207 C   0  0  0  0  0  0  0  0  0  0  0  0
    2.1528   -4.2578   -1.9805 H   0  0  0  0  0  0  0  0  0  0  0  0
   -0.2667   -4.1160   -0.3467 H   0  0  0  0  0  0  0  0  0  0  0  0
    2.5374   -4.2329    0.9160 H   0  0  0  0  0  0  0  0  0  0  0  0
    1.0390   -3.8932    1.7903 H   0  0  0  0  0  0  0  0  0  0  0  0
    1.2976   -5.4871    1.0566 H   0  0  0  0  0  0  0  0  0  0  0  0
    0.0755   -1.6529   -0.0105 N   0  0  0  0  0  0  0  0  0  0  0  0
    0.1113   -0.2132   -0.0391 C   0  0  2  0  0  0  0  0  0  0  0  0
    0.8463    0.2017   -1.3093 C   0  0  0  0  0  0  0  0  0  0  0  0
    1.6811    1.1037   -1.3346 O   0  0  0  0  0  0  0  0  0  0  0  0
    0.8054    0.3702    1.1959 C   0  0  0  0  0  0  0  0  0  0  0  0
    0.0116    0.1217    2.4840 C   0  0  0  0  0  0  0  0  0  0  0  0
    0.7070    0.7045    3.7099 C   0  0  0  0  0  0  0  0  0  0  0  0
   -0.0407    0.4453    4.9382 N   0  3  0  0  0  0  0  0  0  0  0  0
    0.4302    0.8295    6.1951 C   0  0  0  0  0  0  0  0  0  0  0  0
   -0.3356    0.5497    7.3219 N   0  0  0  0  0  0  0  0  0  0  0  0
    1.6469    1.4862    6.3480 N   0  0  0  0  0  0  0  0  0  0  0  0
   -0.7323   -2.1024    0.4149 H   0  0  0  0  0  0  0  0  0  0  0  0
   -0.9280    0.1292   -0.0995 H   0  0  0  0  0  0  0  0  0  0  0  0
    0.9468    1.4491    1.0596 H   0  0  0  0  0  0  0  0  0  0  0  0
    1.8092   -0.0631    1.2974 H   0  0  0  0  0  0  0  0  0  0  0  0
   -0.9898    0.5584    2.3888 H   0  0  0  0  0  0  0  0  0  0  0  0
   -0.1141   -0.9564    2.6366 H   0  0  0  0  0  0  0  0  0  0  0  0
    1.6932    0.2449    3.8270 H   0  0  0  0  0  0  0  0  0  0  0  0
    0.8327    1.7870    3.6105 H   0  0  0  0  0  0  0  0  0  0  0  0
   -0.9390   -0.0323    4.8892 H   0  0  0  0  0  0  0  0  0  0  0  0
   -0.0213    0.8163    8.2520 H   0  0  0  0  0  0  0  0  0  0  0  0
   -1.2297    0.0708    7.2459 H   0  0  0  0  0  0  0  0  0  0  0  0
    1.9943    1.7682    7.2610 H   0  0  0  0  0  0  0  0  0  0  0  0
    2.2283    1.7037    5.5420 H   0  0  0  0  0  0  0  0  0  0  0  0
    0.4240   -0.5204   -2.4168 N   0  0  0  0  0  0  0  0  0  0  0  0
    0.9310   -0.2849   -3.7490 C   0  0  2  0  0  0  0  0  0  0  0  0
   -0.1896   -0.5794   -4.7375 C   0  0  0  0  0  0  0  0  0  0  0  0
   -1.0292   -1.4590   -4.5572 O   0  0  0  0  0  0  0  0  0  0  0  0
    2.1505   -1.1465   -4.0373 C   0  0  0  0  0  0  0  0  0  0  0  0
   -0.2489   -1.2715   -2.2949 H   0  0  0  0  0  0  0  0  0  0  0  0
    1.1969    0.7764   -3.8032 H   0  0  0  0  0  0  0  0  0  0  0  0
    1.9035   -2.2132   -3.9876 H   0  0  0  0  0  0  0  0  0  0  0  0
    2.5506   -0.9461   -5.0367 H   0  0  0  0  0  0  0  0  0  0  0  0
    2.9445   -0.9548   -3.3075 H   0  0  0  0  0  0  0  0  0  0  0  0
   -0.1161    0.2265   -5.8650 N   0  0  0  0  0  0  0  0  0  0  0  0
   -1.0415    0.1106   -6.9678 C   0  0  0  0  0  0  0  0  0  0  0  0
    0.5886    0.9565   -5.9124 H   0  0  0  0  0  0  0  0  0  0  0  0
   -0.6291   -0.5749   -7.7227 H   0  0  0  0  0  0  0  0  0  0  0  0
   -2.0013   -0.2823   -6.6012 H   0  0  0  0  0  0  0  0  0  0  0  0
   -1.1994    1.1011   -7.4195 H   0  0  0  0  0  0  0  0  0  0  0  0
  1  3  1  0  0  0  0
  1  7  1  0  0  0  0
  1  2  2  0  0  0  0
 42 43  1  0  0  0  0
 43 51  1  0  0  0  0
 43 44  2  0  0  0  0
  8  9  1  0  0  0  0
  9 17  1  0  0  0  0
  9 10  2  0  0  0  0
 18 19  1  0  0  0  0
 19 41  1  0  0  0  0
 19 20  2  0  0  0  0
 25 26  1  0  0  0  0
 25 27  1  0  0  0  0
 24 25  2  0  0  0  0
 42 45  1  0  0  0  0
  8 11  1  0  0  0  0
 51 52  1  0  0  0  0
 21 22  1  0  0  0  0
 22 23  1  0  0  0  0
 18 21  1  0  0  0  0
 23 24  1  0  0  0  0
 41 42  1  0  0  0  0
  7  8  1  0  0  0  0
 17 18  1  0  0  0  0
  3  4  1  0  0  0  0
  3  5  1  0  0  0  0
  3  6  1  0  0  0  0
 45 48  1  0  0  0  0
 45 49  1  0  0  0  0
 45 50  1  0  0  0  0
 11 14  1  0  0  0  0
 11 15  1  0  0  0  0
 11 16  1  0  0  0  0
 52 54  1  0  0  0  0
 52 55  1  0  0  0  0
 52 56  1  0  0  0  0
 22 32  1  0  0  0  0
 22 33  1  0  0  0  0
 21 30  1  0  0  0  0
 21 31  1  0  0  0  0
 23 34  1  0  0  0  0
 23 35  1  0  0  0  0
 42 47  1  0  0  0  0
  8 13  1  0  0  0  0
 18 29  1  0  0  0  0
 26 37  1  0  0  0  0
 26 38  1  0  0  0  0
 27 39  1  0  0  0  0
 27 40  1  0  0  0  0
 51 53  1  0  0  0  0
  7 12  1  0  0  0  0
 41 46  1  0  0  0  0
 17 28  1  0  0  0  0
 24 36  1  0  0  0  0
M  CHG  1  24   1
M  END
$$$$

  -OEChem-05262214473D

 56 55  0     1  0  0  0  0  0999 V2000
    0.7735   -5.8042   -2.0022 C   0  0  0  0  0  0  0  0  0  0  0  0
   -0.2086   -6.3825   -1.5519 O   0  0  0  0  0  0  0  0  0  0  0  0
    1.4751   -6.3646   -3.1946 C   0  0  0  0  0  0  0  0  0  0  0  0
    2.2765   -7.0687   -2.9186 H   0  0  0  0  0  0  0  0  0  0  0  0
    0.7988   -6.9360   -3.8504 H   0  0  0  0  0  0  0  0  0  0  0  0
    1.9556   -5.6216   -3.8511 H   0  0  0  0  0  0  0  0  0  0  0  0
    1.3322   -4.6359   -1.5106 N   0  0  0  0  0  0  0  0  0  0  0  0
    0.8124   -3.9290   -0.3698 C   0  0  2  0  0  0  0  0  0  0  0  0
    1.0666   -2.4424   -0.5818 C   0  0  0  0  0  0  0  0  0  0  0  0
    2.0598   -2.0076   -1.1610 O   0  0  0  0  0  0  0  0  0  0  0  0
    1.4560   -4.4118    0.9207 C   0  0  0  0  0  0  0  0  0  0  0  0
    2.1528   -4.2578   -1.9805 H   0  0  0  0  0  0  0  0  0  0  0  0
   -0.2667   -4.1160   -0.3467 H   0  0  0  0  0  0  0  0  0  0  0  0
    2.5374   -4.2329    0.9160 H   0  0  0  0  0  0  0  0  0  0  0  0
    1.0390   -3.8932    1.7903 H   0  0  0  0  0  0  0  0  0  0  0  0
    1.2976   -5.4871    1.0566 H   0  0  0  0  0  0  0  0  0  0  0  0
    0.0755   -1.6529   -0.0105 N   0  0  0  0  0  0  0  0  0  0  0  0
    0.1113   -0.2132   -0.0391 C   0  0  2  0  0  0  0  0  0  0  0  0
    0.8463    0.2017   -1.3093 C   0  0  0  0  0  0  0  0  0  0  0  0
    1.8563    0.9024   -1.2990 O   0  0  0  0  0  0  0  0  0  0  0  0
    0.8054    0.3702    1.1959 C   0  0  0  0  0  0  0  0  0  0  0  0
    0.0116    0.1217    2.4840 C   0  0  0  0  0  0  0  0  0  0  0  0
    0.7070    0.7045    3.7099 C   0  0  0  0  0  0  0  0  0  0  0  0
   -0.0407    0.4453    4.9382 N   0  3  0  0  0  0  0  0  0  0  0  0
    0.4302    0.8295    6.1951 C   0  0  0  0  0  0  0  0  0  0  0  0
   -0.3356    0.5497    7.3219 N   0  0  0  0  0  0  0  0  0  0  0  0
    1.6469    1.4862    6.3480 N   0  0  0  0  0  0  0  0  0  0  0  0
   -0.7323   -2.1024    0.4149 H   0  0  0  0  0  0  0  0  0  0  0  0
   -0.9280    0.1292   -0.0995 H   0  0  0  0  0  0  0  0  0  0  0  0
    0.9468    1.4491    1.0596 H   0  0  0  0  0  0  0  0  0  0  0  0
    1.8092   -0.0631    1.2974 H   0  0  0  0  0  0  0  0  0  0  0  0
   -0.9898    0.5584    2.3888 H   0  0  0  0  0  0  0  0  0  0  0  0
   -0.1141   -0.9564    2.6366 H   0  0  0  0  0  0  0  0  0  0  0  0
    1.6932    0.2449    3.8270 H   0  0  0  0  0  0  0  0  0  0  0  0
    0.8327    1.7870    3.6105 H   0  0  0  0  0  0  0  0  0  0  0  0
   -0.9390   -0.0323    4.8892 H   0  0  0  0  0  0  0  0  0  0  0  0
   -0.0213    0.8163    8.2520 H   0  0  0  0  0  0  0  0  0  0  0  0
   -1.2297    0.0708    7.2459 H   0  0  0  0  0  0  0  0  0  0  0  0
    1.9943    1.7682    7.2610 H   0  0  0  0  0  0  0  0  0  0  0  0
    2.2283    1.7037    5.5420 H   0  0  0  0  0  0  0  0  0  0  0  0
    0.2133   -0.2618   -2.4542 N   0  0  0  0  0  0  0  0  0  0  0  0
    0.6833    0.0358   -3.7876 C   0  0  2  0  0  0  0  0  0  0  0  0
   -0.5289    0.1180   -4.7060 C   0  0  0  0  0  0  0  0  0  0  0  0
   -1.5298   -0.5804   -4.5599 O   0  0  0  0  0  0  0  0  0  0  0  0
    1.6650   -1.0179   -4.2763 C   0  0  0  0  0  0  0  0  0  0  0  0
   -0.6003   -0.8633   -2.3649 H   0  0  0  0  0  0  0  0  0  0  0  0
    1.1727    1.0146   -3.7394 H   0  0  0  0  0  0  0  0  0  0  0  0
    1.1925   -2.0054   -4.3312 H   0  0  0  0  0  0  0  0  0  0  0  0
    2.0420   -0.7759   -5.2755 H   0  0  0  0  0  0  0  0  0  0  0  0
    2.5217   -1.0965   -3.5984 H   0  0  0  0  0  0  0  0  0  0  0  0
   -0.3440    1.0324   -5.7336 N   0  0  0  0  0  0  0  0  0  0  0  0
   -1.3332    1.2616   -6.7606 C   0  0  0  0  0  0  0  0  0  0  0  0
    0.5003    1.5968   -5.7543 H   0  0  0  0  0  0  0  0  0  0  0  0
   -1.1252    0.6106   -7.6226 H   0  0  0  0  0  0  0  0  0  0  0  0
   -2.3335    1.0350   -6.3631 H   0  0  0  0  0  0  0  0  0  0  0  0
   -1.2946    2.3140   -7.0784 H   0  0  0  0  0  0  0  0  0  0  0  0
  1  3  1  0  0  0  0
  1  7  1  0  0  0  0
  1  2  2  0  0  0  0
 42 43  1  0  0  0  0
 43 51  1  0  0  0  0
 43 44  2  0  0  0  0
  8  9  1  0  0  0  0
  9 17  1  0  0  0  0
  9 10  2  0  0  0  0
 18 19  1  0  0  0  0
 19 41  1  0  0  0  0
 19 20  2  0  0  0  0
 25 26  1  0  0  0  0
 25 27  1  0  0  0  0
 24 25  2  0  0  0  0
 42 45  1  0  0  0  0
  8 11  1  0  0  0  0
 51 52  1  0  0  0  0
 21 22  1  0  0  0  0
 22 23  1  0  0  0  0
 18 21  1  0  0  0  0
 23 24  1  0  0  0  0
 41 42  1  0  0  0  0
  7  8  1  0  0  0  0
 17 18  1  0  0  0  0
  3  4  1  0  0  0  0
  3  5  1  0  0  0  0
  3  6  1  0  0  0  0
 45 48  1  0  0  0  0
 45 49  1  0  0  0  0
 45 50  1  0  0  0  0
 11 14  1  0  0  0  0
 11 15  1  0  0  0  0
 11 16  1  0  0  0  0
 52 54  1  0  0  0  0
 52 55  1  0  0  0  0
 52 56  1  0  0  0  0
 22 32  1  0  0  0  0
 22 33  1  0  0  0  0
 21 30  1  0  0  0  0
 21 31  1  0  0  0  0
 23 34  1  0  0  0  0
 23 35  1  0  0  0  0
 42 47  1  0  0  0  0
  8 13  1  0  0  0  0
 18 29  1  0  0  0  0
 26 37  1  0  0  0  0
 26 38  1  0  0  0  0
 27 39  1  0  0  0  0
 27 40  1  0  0  0  0
 51 53  1  0  0  0  0
  7 12  1  0  0  0  0
 41 46  1  0  0  0  0
 17 28  1  0  0  0  0
 24 36  1  0  0  0  0
M  CHG  1  24   1
M  END
$$$$

  -OEChem-05262214473D

 56 55  0     1  0  0  0  0  0999 V2000
    0.7735   -5.8042   -2.0022 C   0  0  0  0  0  0  0  0  0  0  0  0
   -0.2086   -6.3825   -1.5519 O   0  0  0  0  0  0  0  0  0  0  0  0
    1.4751   -6.3646   -3.1946 C   0  0  0  0  0  0  0  0  0  0  0  0
    2.2765   -7.0687   -2.9186 H   0  0  0  0  0  0  0  0  0  0  0  0
    0.7988   -6.9360   -3.8504 H   0  0  0  0  0  0  0  0  0  0  0  0
    1.9556   -5.6216   -3.8511 H   0  0  0  0  0  0  0  0  0  0  0  0
    1.3322   -4.6359   -1.5106 N   0  0  0  0  0  0  0  0  0  0  0  0
    0.8124   -3.9290   -0.3698 C   0  0  2  0  0  0  0  0  0  0  0  0
    1.0666   -2.4424   -0.5818 C   0  0  0  0  0  0  0  0  0  0  0  0
    2.0598   -2.0076   -1.1610 O   0  0  0  0  0  0  0  0  0  0  0  0
    1.4560   -4.4118    0.9207 C   0  0  0  0  0  0  0  0  0  0  0  0
    2.1528   -4.2578   -1.9805 H   0  0  0  0  0  0  0  0  0  0  0  0
   -0.2667   -4.1160   -0.3467 H   0  0  0  0  0  0  0  0  0  0  0  0
    2.5374   -4.2329    0.9160 H   0  0  0  0  0  0  0  0  0  0  0  0
    1.0390   -3.8932    1.7903 H   0  0  0  0  0  0  0  0  0  0  0  0
    1.2976   -5.4871    1.0566 H   0  0  0  0  0  0  0  0  0  0  0  0
    0.0755   -1.6529   -0.0105 N   0  0  0  0  0  0  0  0  0  0  0  0
    0.1113   -0.2132   -0.0391 C   0  0  2  0  0  0  0  0  0  0  0  0
    0.8463    0.2017   -1.3093 C   0  0  0  0  0  0  0  0  0  0  0  0
    1.9846    0.6658   -1.3020 O   0  0  0  0  0  0  0  0  0  0  0  0
    0.8054    0.3702    1.1959 C   0  0  0  0  0  0  0  0  0  0  0  0
    0.0116    0.1217    2.4840 C   0  0  0  0  0  0  0  0  0  0  0  0
    0.7070    0.7045    3.7099 C   0  0  0  0  0  0  0  0  0  0  0  0
   -0.0407    0.4453    4.9382 N   0  3  0  0  0  0  0  0  0  0  0  0
    0.4302    0.8295    6.1951 C   0  0  0  0  0  0  0  0  0  0  0  0
   -0.3356    0.5497    7.3219 N   0  0  0  0  0  0  0  0  0  0  0  0
    1.6469    1.4862    6.3480 N   0  0  0  0  0  0  0  0  0  0  0  0
   -0.7323   -2.1024    0.4149 H   0  0  0  0  0  0  0  0  0  0  0  0
   -0.9280    0.1292   -0.0995 H   0  0  0  0  0  0  0  0  0  0  0  0
    0.9468    1.4491    1.0596 H   0  0  0  0  0  0  0  0  0  0  0  0
    1.8092   -0.0631    1.2974 H   0  0  0  0  0  0  0  0  0  0  0  0
   -0.9898    0.5584    2.3888 H   0  0  0  0  0  0  0  0  0  0  0  0
   -0.1141   -0.9564    2.6366 H   0  0  0  0  0  0  0  0  0  0  0  0
    1.6932    0.2449    3.8270 H   0  0  0  0  0  0  0  0  0  0  0  0
    0.8327    1.7870    3.6105 H   0  0  0  0  0  0  0  0  0  0  0  0
   -0.9390   -0.0323    4.8892 H   0  0  0  0  0  0  0  0  0  0  0  0
   -0.0213    0.8163    8.2520 H   0  0  0  0  0  0  0  0  0  0  0  0
   -1.2297    0.0708    7.2459 H   0  0  0  0  0  0  0  0  0  0  0  0
    1.9943    1.7682    7.2610 H   0  0  0  0  0  0  0  0  0  0  0  0
    2.2283    1.7037    5.5420 H   0  0  0  0  0  0  0  0  0  0  0  0
    0.0629    0.0381   -2.4432 N   0  0  0  0  0  0  0  0  0  0  0  0
    0.5104    0.4037   -3.7674 C   0  0  2  0  0  0  0  0  0  0  0  0
   -0.7040    0.8609   -4.5647 C   0  0  0  0  0  0  0  0  0  0  0  0
   -1.8242    0.3764   -4.4177 O   0  0  0  0  0  0  0  0  0  0  0  0
    1.2069   -0.7592   -4.4569 C   0  0  0  0  0  0  0  0  0  0  0  0
   -0.8567   -0.3845   -2.3569 H   0  0  0  0  0  0  0  0  0  0  0  0
    1.2052    1.2419   -3.6463 H   0  0  0  0  0  0  0  0  0  0  0  0
    0.5264   -1.6086   -4.5870 H   0  0  0  0  0  0  0  0  0  0  0  0
    1.5706   -0.4721   -5.4490 H   0  0  0  0  0  0  0  0  0  0  0  0
    2.0624   -1.1060   -3.8673 H   0  0  0  0  0  0  0  0  0  0  0  0
   -0.3811    1.8435   -5.4901 N   0  0  0  0  0  0  0  0  0  0  0  0
   -1.3523    2.4103   -6.3964 C   0  0  0  0  0  0  0  0  0  0  0  0
    0.5641    2.2146   -5.5156 H   0  0  0  0  0  0  0  0  0  0  0  0
   -1.3419    1.8501   -7.3431 H   0  0  0  0  0  0  0  0  0  0  0  0
   -2.3537    2.3494   -5.9455 H   0  0  0  0  0  0  0  0  0  0  0  0
   -1.1012    3.4635   -6.5910 H   0  0  0  0  0  0  0  0  0  0  0  0
  1  3  1  0  0  0  0
  1  7  1  0  0  0  0
  1  2  2  0  0  0  0
 42 43  1  0  0  0  0
 43 51  1  0  0  0  0
 43 44  2  0  0  0  0
  8  9  1  0  0  0  0
  9 17  1  0  0  0  0
  9 10  2  0  0  0  0
 18 19  1  0  0  0  0
 19 41  1  0  0  0  0
 19 20  2  0  0  0  0
 25 26  1  0  0  0  0
 25 27  1  0  0  0  0
 24 25  2  0  0  0  0
 42 45  1  0  0  0  0
  8 11  1  0  0  0  0
 51 52  1  0  0  0  0
 21 22  1  0  0  0  0
 22 23  1  0  0  0  0
 18 21  1  0  0  0  0
 23 24  1  0  0  0  0
 41 42  1  0  0  0  0
  7  8  1  0  0  0  0
 17 18  1  0  0  0  0
  3  4  1  0  0  0  0
  3  5  1  0  0  0  0
  3  6  1  0  0  0  0
 45 48  1  0  0  0  0
 45 49  1  0  0  0  0
 45 50  1  0  0  0  0
 11 14  1  0  0  0  0
 11 15  1  0  0  0  0
 11 16  1  0  0  0  0
 52 54  1  0  0  0  0
 52 55  1  0  0  0  0
 52 56  1  0  0  0  0
 22 32  1  0  0  0  0
 22 33  1  0  0  0  0
 21 30  1  0  0  0  0
 21 31  1  0  0  0  0
 23 34  1  0  0  0  0
 23 35  1  0  0  0  0
 42 47  1  0  0  0  0
  8 13  1  0  0  0  0
 18 29  1  0  0  0  0
 26 37  1  0  0  0  0
 26 38  1  0  0  0  0
 27 39  1  0  0  0  0
 27 40  1  0  0  0  0
 51 53  1  0  0  0  0
  7 12  1  0  0  0  0
 41 46  1  0  0  0  0
 17 28  1  0  0  0  0
 24 36  1  0  0  0  0
M  CHG  1  24   1
M  END
$$$$

  -OEChem-05262214473D

 56 55  0     1  0  0  0  0  0999 V2000
    0.7735   -5.8042   -2.0022 C   0  0  0  0  0  0  0  0  0  0  0  0
   -0.2086   -6.3825   -1.5519 O   0  0  0  0  0  0  0  0  0  0  0  0
    1.4751   -6.3646   -3.1946 C   0  0  0  0  0  0  0  0  0  0  0  0
    2.2765   -7.0687   -2.9186 H   0  0  0  0  0  0  0  0  0  0  0  0
    0.7988   -6.9360   -3.8504 H   0  0  0  0  0  0  0  0  0  0  0  0
    1.9556   -5.6216   -3.8511 H   0  0  0  0  0  0  0  0  0  0  0  0
    1.3322   -4.6359   -1.5106 N   0  0  0  0  0  0  0  0  0  0  0  0
    0.8124   -3.9290   -0.3698 C   0  0  2  0  0  0  0  0  0  0  0  0
    1.0666   -2.4424   -0.5818 C   0  0  0  0  0  0  0  0  0  0  0  0
    2.0598   -2.0076   -1.1610 O   0  0  0  0  0  0  0  0  0  0  0  0
    1.4560   -4.4118    0.9207 C   0  0  0  0  0  0  0  0  0  0  0  0
    2.1528   -4.2578   -1.9805 H   0  0  0  0  0  0  0  0  0  0  0  0
   -0.2667   -4.1160   -0.3467 H   0  0  0  0  0  0  0  0  0  0  0  0
    2.5374   -4.2329    0.9160 H   0  0  0  0  0  0  0  0  0  0  0  0
    1.0390   -3.8932    1.7903 H   0  0  0  0  0  0  0  0  0  0  0  0
    1.2976   -5.4871    1.0566 H   0  0  0  0  0  0  0  0  0  0  0  0
    0.0755   -1.6529   -0.0105 N   0  0  0  0  0  0  0  0  0  0  0  0
    0.1113   -0.2132   -0.0391 C   0  0  2  0  0  0  0  0  0  0  0  0
    0.8463    0.2017   -1.3093 C   0  0  0  0  0  0  0  0  0  0  0  0
    2.0574    0.4099   -1.3435 O   0  0  0  0  0  0  0  0  0  0  0  0
    0.8054    0.3702    1.1959 C   0  0  0  0  0  0  0  0  0  0  0  0
    0.0116    0.1217    2.4840 C   0  0  0  0  0  0  0  0  0  0  0  0
    0.7070    0.7045    3.7099 C   0  0  0  0  0  0  0  0  0  0  0  0
   -0.0407    0.4453    4.9382 N   0  3  0  0  0  0  0  0  0  0  0  0
    0.4302    0.8295    6.1951 C   0  0  0  0  0  0  0  0  0  0  0  0
   -0.3356    0.5497    7.3219 N   0  0  0  0  0  0  0  0  0  0  0  0
    1.6469    1.4862    6.3480 N   0  0  0  0  0  0  0  0  0  0  0  0
   -0.7323   -2.1024    0.4149 H   0  0  0  0  0  0  0  0  0  0  0  0
   -0.9280    0.1292   -0.0995 H   0  0  0  0  0  0  0  0  0  0  0  0
    0.9468    1.4491    1.0596 H   0  0  0  0  0  0  0  0  0  0  0  0
    1.8092   -0.0631    1.2974 H   0  0  0  0  0  0  0  0  0  0  0  0
   -0.9898    0.5584    2.3888 H   0  0  0  0  0  0  0  0  0  0  0  0
   -0.1141   -0.9564    2.6366 H   0  0  0  0  0  0  0  0  0  0  0  0
    1.6932    0.2449    3.8270 H   0  0  0  0  0  0  0  0  0  0  0  0
    0.8327    1.7870    3.6105 H   0  0  0  0  0  0  0  0  0  0  0  0
   -0.9390   -0.0323    4.8892 H   0  0  0  0  0  0  0  0  0  0  0  0
   -0.0213    0.8163    8.2520 H   0  0  0  0  0  0  0  0  0  0  0  0
   -1.2297    0.0708    7.2459 H   0  0  0  0  0  0  0  0  0  0  0  0
    1.9943    1.7682    7.2610 H   0  0  0  0  0  0  0  0  0  0  0  0
    2.2283    1.7037    5.5420 H   0  0  0  0  0  0  0  0  0  0  0  0
   -0.0169    0.3588   -2.3847 N   0  0  0  0  0  0  0  0  0  0  0  0
    0.4242    0.7938   -3.6899 C   0  0  2  0  0  0  0  0  0  0  0  0
   -0.7031    1.5986   -4.3232 C   0  0  0  0  0  0  0  0  0  0  0  0
   -1.8922    1.3464   -4.1402 O   0  0  0  0  0  0  0  0  0  0  0  0
    0.8075   -0.3881   -4.5668 C   0  0  0  0  0  0  0  0  0  0  0  0
   -1.0005    0.1323   -2.2713 H   0  0  0  0  0  0  0  0  0  0  0  0
    1.2921    1.4429   -3.5304 H   0  0  0  0  0  0  0  0  0  0  0  0
   -0.0495   -1.0498   -4.7377 H   0  0  0  0  0  0  0  0  0  0  0  0
    1.1685   -0.0553   -5.5455 H   0  0  0  0  0  0  0  0  0  0  0  0
    1.5977   -0.9827   -4.0959 H   0  0  0  0  0  0  0  0  0  0  0  0
   -0.2249    2.6046   -5.1511 N   0  0  0  0  0  0  0  0  0  0  0  0
   -1.0974    3.4786   -5.9000 C   0  0  0  0  0  0  0  0  0  0  0  0
    0.7758    2.7679   -5.2124 H   0  0  0  0  0  0  0  0  0  0  0  0
   -1.2643    3.0593   -6.9032 H   0  0  0  0  0  0  0  0  0  0  0  0
   -2.0605    3.5713   -5.3766 H   0  0  0  0  0  0  0  0  0  0  0  0
   -0.6322    4.4713   -5.9904 H   0  0  0  0  0  0  0  0  0  0  0  0
  1  3  1  0  0  0  0
  1  7  1  0  0  0  0
  1  2  2  0  0  0  0
 42 43  1  0  0  0  0
 43 51  1  0  0  0  0
 43 44  2  0  0  0  0
  8  9  1  0  0  0  0
  9 17  1  0  0  0  0
  9 10  2  0  0  0  0
 18 19  1  0  0  0  0
 19 41  1  0  0  0  0
 19 20  2  0  0  0  0
 25 26  1  0  0  0  0
 25 27  1  0  0  0  0
 24 25  2  0  0  0  0
 42 45  1  0  0  0  0
  8 11  1  0  0  0  0
 51 52  1  0  0  0  0
 21 22  1  0  0  0  0
 22 23  1  0  0  0  0
 18 21  1  0  0  0  0
 23 24  1  0  0  0  0
 41 42  1  0  0  0  0
  7  8  1  0  0  0  0
 17 18  1  0  0  0  0
  3  4  1  0  0  0  0
  3  5  1  0  0  0  0
  3  6  1  0  0  0  0
 45 48  1  0  0  0  0
 45 49  1  0  0  0  0
 45 50  1  0  0  0  0
 11 14  1  0  0  0  0
 11 15  1  0  0  0  0
 11 16  1  0  0  0  0
 52 54  1  0  0  0  0
 52 55  1  0  0  0  0
 52 56  1  0  0  0  0
 22 32  1  0  0  0  0
 22 33  1  0  0  0  0
 21 30  1  0  0  0  0
 21 31  1  0  0  0  0
 23 34  1  0  0  0  0
 23 35  1  0  0  0  0
 42 47  1  0  0  0  0
  8 13  1  0  0  0  0
 18 29  1  0  0  0  0
 26 37  1  0  0  0  0
 26 38  1  0  0  0  0
 27 39  1  0  0  0  0
 27 40  1  0  0  0  0
 51 53  1  0  0  0  0
  7 12  1  0  0  0  0
 41 46  1  0  0  0  0
 17 28  1  0  0  0  0
 24 36  1  0  0  0  0
M  CHG  1  24   1
M  END
$$$$

  -OEChem-05262214473D

 56 55  0     1  0  0  0  0  0999 V2000
    0.7735   -5.8042   -2.0022 C   0  0  0  0  0  0  0  0  0  0  0  0
   -0.2086   -6.3825   -1.5519 O   0  0  0  0  0  0  0  0  0  0  0  0
    1.4751   -6.3646   -3.1946 C   0  0  0  0  0  0  0  0  0  0  0  0
    2.2765   -7.0687   -2.9186 H   0  0  0  0  0  0  0  0  0  0  0  0
    0.7988   -6.9360   -3.8504 H   0  0  0  0  0  0  0  0  0  0  0  0
    1.9556   -5.6216   -3.8511 H   0  0  0  0  0  0  0  0  0  0  0  0
    1.3322   -4.6359   -1.5106 N   0  0  0  0  0  0  0  0  0  0  0  0
    0.8124   -3.9290   -0.3698 C   0  0  2  0  0  0  0  0  0  0  0  0
    1.0666   -2.4424   -0.5818 C   0  0  0  0  0  0  0  0  0  0  0  0
    2.0598   -2.0076   -1.1610 O   0  0  0  0  0  0  0  0  0  0  0  0
    1.4560   -4.4118    0.9207 C   0  0  0  0  0  0  0  0  0  0  0  0
    2.1528   -4.2578   -1.9805 H   0  0  0  0  0  0  0  0  0  0  0  0
   -0.2667   -4.1160   -0.3467 H   0  0  0  0  0  0  0  0  0  0  0  0
    2.5374   -4.2329    0.9160 H   0  0  0  0  0  0  0  0  0  0  0  0
    1.0390   -3.8932    1.7903 H   0  0  0  0  0  0  0  0  0  0  0  0
    1.2976   -5.4871    1.0566 H   0  0  0  0  0  0  0  0  0  0  0  0
    0.0755   -1.6529   -0.0105 N   0  0  0  0  0  0  0  0  0  0  0  0
    0.1113   -0.2132   -0.0391 C   0  0  2  0  0  0  0  0  0  0  0  0
    0.8463    0.2017   -1.3093 C   0  0  0  0  0  0  0  0  0  0  0  0
    2.0696    0.1522   -1.4207 O   0  0  0  0  0  0  0  0  0  0  0  0
    0.8054    0.3702    1.1959 C   0  0  0  0  0  0  0  0  0  0  0  0
    0.0116    0.1217    2.4840 C   0  0  0  0  0  0  0  0  0  0  0  0
    0.7070    0.7045    3.7099 C   0  0  0  0  0  0  0  0  0  0  0  0
   -0.0407    0.4453    4.9382 N   0  3  0  0  0  0  0  0  0  0  0  0
    0.4302    0.8295    6.1951 C   0  0  0  0  0  0  0  0  0  0  0  0
   -0.3356    0.5497    7.3219 N   0  0  0  0  0  0  0  0  0  0  0  0
    1.6469    1.4862    6.3480 N   0  0  0  0  0  0  0  0  0  0  0  0
   -0.7323   -2.1024    0.4149 H   0  0  0  0  0  0  0  0  0  0  0  0
   -0.9280    0.1292   -0.0995 H   0  0  0  0  0  0  0  0  0  0  0  0
    0.9468    1.4491    1.0596 H   0  0  0  0  0  0  0  0  0  0  0  0
    1.8092   -0.0631    1.2974 H   0  0  0  0  0  0  0  0  0  0  0  0
   -0.9898    0.5584    2.3888 H   0  0  0  0  0  0  0  0  0  0  0  0
   -0.1141   -0.9564    2.6366 H   0  0  0  0  0  0  0  0  0  0  0  0
    1.6932    0.2449    3.8270 H   0  0  0  0  0  0  0  0  0  0  0  0
    0.8327    1.7870    3.6105 H   0  0  0  0  0  0  0  0  0  0  0  0
   -0.9390   -0.0323    4.8892 H   0  0  0  0  0  0  0  0  0  0  0  0
   -0.0213    0.8163    8.2520 H   0  0  0  0  0  0  0  0  0  0  0  0
   -1.2297    0.0708    7.2459 H   0  0  0  0  0  0  0  0  0  0  0  0
    1.9943    1.7682    7.2610 H   0  0  0  0  0  0  0  0  0  0  0  0
    2.2283    1.7037    5.5420 H   0  0  0  0  0  0  0  0  0  0  0  0
   -0.0207    0.6785   -2.2825 N   0  0  0  0  0  0  0  0  0  0  0  0
    0.4305    1.1796   -3.5603 C   0  0  2  0  0  0  0  0  0  0  0  0
   -0.5262    2.2808   -3.9980 C   0  0  0  0  0  0  0  0  0  0  0  0
   -1.7293    2.2633   -3.7464 O   0  0  0  0  0  0  0  0  0  0  0  0
    0.4939    0.0702   -4.5985 C   0  0  0  0  0  0  0  0  0  0  0  0
   -1.0221    0.6518   -2.1141 H   0  0  0  0  0  0  0  0  0  0  0  0
    1.4275    1.6039   -3.3994 H   0  0  0  0  0  0  0  0  0  0  0  0
   -0.4960   -0.3670   -4.7730 H   0  0  0  0  0  0  0  0  0  0  0  0
    0.8632    0.4459   -5.5585 H   0  0  0  0  0  0  0  0  0  0  0  0
    1.1594   -0.7348   -4.2686 H   0  0  0  0  0  0  0  0  0  0  0  0
    0.1139    3.2638   -4.7398 N   0  0  0  0  0  0  0  0  0  0  0  0
   -0.5860    4.3936   -5.3052 C   0  0  0  0  0  0  0  0  0  0  0  0
    1.1208    3.2188   -4.8654 H   0  0  0  0  0  0  0  0  0  0  0  0
   -0.8977    4.1557   -6.3329 H   0  0  0  0  0  0  0  0  0  0  0  0
   -1.4738    4.6174   -4.6954 H   0  0  0  0  0  0  0  0  0  0  0  0
    0.0804    5.2687   -5.3176 H   0  0  0  0  0  0  0  0  0  0  0  0
  1  3  1  0  0  0  0
  1  7  1  0  0  0  0
  1  2  2  0  0  0  0
 42 43  1  0  0  0  0
 43 51  1  0  0  0  0
 43 44  2  0  0  0  0
  8  9  1  0  0  0  0
  9 17  1  0  0  0  0
  9 10  2  0  0  0  0
 18 19  1  0  0  0  0
 19 41  1  0  0  0  0
 19 20  2  0  0  0  0
 25 26  1  0  0  0  0
 25 27  1  0  0  0  0
 24 25  2  0  0  0  0
 42 45  1  0  0  0  0
  8 11  1  0  0  0  0
 51 52  1  0  0  0  0
 21 22  1  0  0  0  0
 22 23  1  0  0  0  0
 18 21  1  0  0  0  0
 23 24  1  0  0  0  0
 41 42  1  0  0  0  0
  7  8  1  0  0  0  0
 17 18  1  0  0  0  0
  3  4  1  0  0  0  0
  3  5  1  0  0  0  0
  3  6  1  0  0  0  0
 45 48  1  0  0  0  0
 45 49  1  0  0  0  0
 45 50  1  0  0  0  0
 11 14  1  0  0  0  0
 11 15  1  0  0  0  0
 11 16  1  0  0  0  0
 52 54  1  0  0  0  0
 52 55  1  0  0  0  0
 52 56  1  0  0  0  0
 22 32  1  0  0  0  0
 22 33  1  0  0  0  0
 21 30  1  0  0  0  0
 21 31  1  0  0  0  0
 23 34  1  0  0  0  0
 23 35  1  0  0  0  0
 42 47  1  0  0  0  0
  8 13  1  0  0  0  0
 18 29  1  0  0  0  0
 26 37  1  0  0  0  0
 26 38  1  0  0  0  0
 27 39  1  0  0  0  0
 27 40  1  0  0  0  0
 51 53  1  0  0  0  0
  7 12  1  0  0  0  0
 41 46  1  0  0  0  0
 17 28  1  0  0  0  0
 24 36  1  0  0  0  0
M  CHG  1  24   1
M  END
$$$$

  -OEChem-05262214473D

 56 55  0     1  0  0  0  0  0999 V2000
    0.7735   -5.8042   -2.0022 C   0  0  0  0  0  0  0  0  0  0  0  0
   -0.2086   -6.3825   -1.5519 O   0  0  0  0  0  0  0  0  0  0  0  0
    1.4751   -6.3646   -3.1946 C   0  0  0  0  0  0  0  0  0  0  0  0
    2.2765   -7.0687   -2.9186 H   0  0  0  0  0  0  0  0  0  0  0  0
    0.7988   -6.9360   -3.8504 H   0  0  0  0  0  0  0  0  0  0  0  0
    1.9556   -5.6216   -3.8511 H   0  0  0  0  0  0  0  0  0  0  0  0
    1.3322   -4.6359   -1.5106 N   0  0  0  0  0  0  0  0  0  0  0  0
    0.8124   -3.9290   -0.3698 C   0  0  2  0  0  0  0  0  0  0  0  0
    1.0666   -2.4424   -0.5818 C   0  0  0  0  0  0  0  0  0  0  0  0
    2.0598   -2.0076   -1.1610 O   0  0  0  0  0  0  0  0  0  0  0  0
    1.4560   -4.4118    0.9207 C   0  0  0  0  0  0  0  0  0  0  0  0
    2.1528   -4.2578   -1.9805 H   0  0  0  0  0  0  0  0  0  0  0  0
   -0.2667   -4.1160   -0.3467 H   0  0  0  0  0  0  0  0  0  0  0  0
    2.5374   -4.2329    0.9160 H   0  0  0  0  0  0  0  0  0  0  0  0
    1.0390   -3.8932    1.7903 H   0  0  0  0  0  0  0  0  0  0  0  0
    1.2976   -5.4871    1.0566 H   0  0  0  0  0  0  0  0  0  0  0  0
    0.0755   -1.6529   -0.0105 N   0  0  0  0  0  0  0  0  0  0  0  0
    0.1113   -0.2132   -0.0391 C   0  0  2  0  0  0  0  0  0  0  0  0
    0.8463    0.2017   -1.3093 C   0  0  0  0  0  0  0  0  0  0  0  0
    2.0204   -0.0897   -1.5282 O   0  0  0  0  0  0  0  0  0  0  0  0
    0.8054    0.3702    1.1959 C   0  0  0  0  0  0  0  0  0  0  0  0
    0.0116    0.1217    2.4840 C   0  0  0  0  0  0  0  0  0  0  0  0
    0.7070    0.7045    3.7099 C   0  0  0  0  0  0  0  0  0  0  0  0
   -0.0407    0.4453    4.9382 N   0  3  0  0  0  0  0  0  0  0  0  0
    0.4302    0.8295    6.1951 C   0  0  0  0  0  0  0  0  0  0  0  0
   -0.3356    0.5497    7.3219 N   0  0  0  0  0  0  0  0  0  0  0  0
    1.6469    1.4862    6.3480 N   0  0  0  0  0  0  0  0  0  0  0  0
   -0.7323   -2.1024    0.4149 H   0  0  0  0  0  0  0  0  0  0  0  0
   -0.9280    0.1292   -0.0995 H   0  0  0  0  0  0  0  0  0  0  0  0
    0.9468    1.4491    1.0596 H   0  0  0  0  0  0  0  0  0  0  0  0
    1.8092   -0.0631    1.2974 H   0  0  0  0  0  0  0  0  0  0  0  0
   -0.9898    0.5584    2.3888 H   0  0  0  0  0  0  0  0  0  0  0  0
   -0.1141   -0.9564    2.6366 H   0  0  0  0  0  0  0  0  0  0  0  0
    1.6932    0.2449    3.8270 H   0  0  0  0  0  0  0  0  0  0  0  0
    0.8327    1.7870    3.6105 H   0  0  0  0  0  0  0  0  0  0  0  0
   -0.9390   -0.0323    4.8892 H   0  0  0  0  0  0  0  0  0  0  0  0
   -0.0213    0.8163    8.2520 H   0  0  0  0  0  0  0  0  0  0  0  0
   -1.2297    0.0708    7.2459 H   0  0  0  0  0  0  0  0  0  0  0  0
    1.9943    1.7682    7.2610 H   0  0  0  0  0  0  0  0  0  0  0  0
    2.2283    1.7037    5.5420 H   0  0  0  0  0  0  0  0  0  0  0  0
    0.0516    0.9754   -2.1436 N   0  0  0  0  0  0  0  0  0  0  0  0
    0.5288    1.5347   -3.3874 C   0  0  2  0  0  0  0  0  0  0  0  0
   -0.1854    2.8611   -3.6112 C   0  0  0  0  0  0  0  0  0  0  0  0
   -1.3466    3.0648   -3.2631 O   0  0  0  0  0  0  0  0  0  0  0  0
    0.2876    0.5845   -4.5499 C   0  0  0  0  0  0  0  0  0  0  0  0
   -0.9198    1.1386   -1.8959 H   0  0  0  0  0  0  0  0  0  0  0  0
    1.6023    1.7138   -3.2624 H   0  0  0  0  0  0  0  0  0  0  0  0
   -0.7825    0.3931   -4.6906 H   0  0  0  0  0  0  0  0  0  0  0  0
    0.6754    0.9975   -5.4870 H   0  0  0  0  0  0  0  0  0  0  0  0
    0.7772   -0.3793   -4.3736 H   0  0  0  0  0  0  0  0  0  0  0  0
    0.6122    3.7762   -4.2840 N   0  0  0  0  0  0  0  0  0  0  0  0
    0.1471    5.0930   -4.6525 C   0  0  0  0  0  0  0  0  0  0  0  0
    1.5757    3.5367   -4.4983 H   0  0  0  0  0  0  0  0  0  0  0  0
   -0.2671    5.0645   -5.6711 H   0  0  0  0  0  0  0  0  0  0  0  0
   -0.6336    5.4164   -3.9483 H   0  0  0  0  0  0  0  0  0  0  0  0
    0.9879    5.8015   -4.6184 H   0  0  0  0  0  0  0  0  0  0  0  0
  1  3  1  0  0  0  0
  1  7  1  0  0  0  0
  1  2  2  0  0  0  0
 42 43  1  0  0  0  0
 43 51  1  0  0  0  0
 43 44  2  0  0  0  0
  8  9  1  0  0  0  0
  9 17  1  0  0  0  0
  9 10  2  0  0  0  0
 18 19  1  0  0  0  0
 19 41  1  0  0  0  0
 19 20  2  0  0  0  0
 25 26  1  0  0  0  0
 25 27  1  0  0  0  0
 24 25  2  0  0  0  0
 42 45  1  0  0  0  0
  8 11  1  0  0  0  0
 51 52  1  0  0  0  0
 21 22  1  0  0  0  0
 22 23  1  0  0  0  0
 18 21  1  0  0  0  0
 23 24  1  0  0  0  0
 41 42  1  0  0  0  0
  7  8  1  0  0  0  0
 17 18  1  0  0  0  0
  3  4  1  0  0  0  0
  3  5  1  0  0  0  0
  3  6  1  0  0  0  0
 45 48  1  0  0  0  0
 45 49  1  0  0  0  0
 45 50  1  0  0  0  0
 11 14  1  0  0  0  0
 11 15  1  0  0  0  0
 11 16  1  0  0  0  0
 52 54  1  0  0  0  0
 52 55  1  0  0  0  0
 52 56  1  0  0  0  0
 22 32  1  0  0  0  0
 22 33  1  0  0  0  0
 21 30  1  0  0  0  0
 21 31  1  0  0  0  0
 23 34  1  0  0  0  0
 23 35  1  0  0  0  0
 42 47  1  0  0  0  0
  8 13  1  0  0  0  0
 18 29  1  0  0  0  0
 26 37  1  0  0  0  0
 26 38  1  0  0  0  0
 27 39  1  0  0  0  0
 27 40  1  0  0  0  0
 51 53  1  0  0  0  0
  7 12  1  0  0  0  0
 41 46  1  0  0  0  0
 17 28  1  0  0  0  0
 24 36  1  0  0  0  0
M  CHG  1  24   1
M  END
$$$$

  -OEChem-05262214473D

 56 55  0     1  0  0  0  0  0999 V2000
    0.7735   -5.8042   -2.0022 C   0  0  0  0  0  0  0  0  0  0  0  0
   -0.2086   -6.3825   -1.5519 O   0  0  0  0  0  0  0  0  0  0  0  0
    1.4751   -6.3646   -3.1946 C   0  0  0  0  0  0  0  0  0  0  0  0
    2.2765   -7.0687   -2.9186 H   0  0  0  0  0  0  0  0  0  0  0  0
    0.7988   -6.9360   -3.8504 H   0  0  0  0  0  0  0  0  0  0  0  0
    1.9556   -5.6216   -3.8511 H   0  0  0  0  0  0  0  0  0  0  0  0
    1.3322   -4.6359   -1.5106 N   0  0  0  0  0  0  0  0  0  0  0  0
    0.8124   -3.9290   -0.3698 C   0  0  2  0  0  0  0  0  0  0  0  0
    1.0666   -2.4424   -0.5818 C   0  0  0  0  0  0  0  0  0  0  0  0
    2.0598   -2.0076   -1.1610 O   0  0  0  0  0  0  0  0  0  0  0  0
    1.4560   -4.4118    0.9207 C   0  0  0  0  0  0  0  0  0  0  0  0
    2.1528   -4.2578   -1.9805 H   0  0  0  0  0  0  0  0  0  0  0  0
   -0.2667   -4.1160   -0.3467 H   0  0  0  0  0  0  0  0  0  0  0  0
    2.5374   -4.2329    0.9160 H   0  0  0  0  0  0  0  0  0  0  0  0
    1.0390   -3.8932    1.7903 H   0  0  0  0  0  0  0  0  0  0  0  0
    1.2976   -5.4871    1.0566 H   0  0  0  0  0  0  0  0  0  0  0  0
    0.0755   -1.6529   -0.0105 N   0  0  0  0  0  0  0  0  0  0  0  0
    0.1113   -0.2132   -0.0391 C   0  0  2  0  0  0  0  0  0  0  0  0
    0.8463    0.2017   -1.3093 C   0  0  0  0  0  0  0  0  0  0  0  0
    1.9131   -0.2994   -1.6587 O   0  0  0  0  0  0  0  0  0  0  0  0
    0.8054    0.3702    1.1959 C   0  0  0  0  0  0  0  0  0  0  0  0
    0.0116    0.1217    2.4840 C   0  0  0  0  0  0  0  0  0  0  0  0
    0.7070    0.7045    3.7099 C   0  0  0  0  0  0  0  0  0  0  0  0
   -0.0407    0.4453    4.9382 N   0  3  0  0  0  0  0  0  0  0  0  0
    0.4302    0.8295    6.1951 C   0  0  0  0  0  0  0  0  0  0  0  0
   -0.3356    0.5497    7.3219 N   0  0  0  0  0  0  0  0  0  0  0  0
    1.6469    1.4862    6.3480 N   0  0  0  0  0  0  0  0  0  0  0  0
   -0.7323   -2.1024    0.4149 H   0  0  0  0  0  0  0  0  0  0  0  0
   -0.9280    0.1292   -0.0995 H   0  0  0  0  0  0  0  0  0  0  0  0
    0.9468    1.4491    1.0596 H   0  0  0  0  0  0  0  0  0  0  0  0
    1.8092   -0.0631    1.2974 H   0  0  0  0  0  0  0  0  0  0  0  0
   -0.9898    0.5584    2.3888 H   0  0  0  0  0  0  0  0  0  0  0  0
   -0.1141   -0.9564    2.6366 H   0  0  0  0  0  0  0  0  0  0  0  0
    1.6932    0.2449    3.8270 H   0  0  0  0  0  0  0  0  0  0  0  0
    0.8327    1.7870    3.6105 H   0  0  0  0  0  0  0  0  0  0  0  0
   -0.9390   -0.0323    4.8892 H   0  0  0  0  0  0  0  0  0  0  0  0
   -0.0213    0.8163    8.2520 H   0  0  0  0  0  0  0  0  0  0  0  0
   -1.2297    0.0708    7.2459 H   0  0  0  0  0  0  0  0  0  0  0  0
    1.9943    1.7682    7.2610 H   0  0  0  0  0  0  0  0  0  0  0  0
    2.2283    1.7037    5.5420 H   0  0  0  0  0  0  0  0  0  0  0  0
    0.1954    1.2293   -1.9775 N   0  0  0  0  0  0  0  0  0  0  0  0
    0.7125    1.8349   -3.1830 C   0  0  2  0  0  0  0  0  0  0  0  0
    0.2962    3.2999   -3.1892 C   0  0  0  0  0  0  0  0  0  0  0  0
   -0.7701    3.6962   -2.7233 O   0  0  0  0  0  0  0  0  0  0  0  0
    0.2025    1.1196   -4.4243 C   0  0  0  0  0  0  0  0  0  0  0  0
   -0.7007    1.5596   -1.6316 H   0  0  0  0  0  0  0  0  0  0  0  0
    1.8044    1.7652   -3.1286 H   0  0  0  0  0  0  0  0  0  0  0  0
   -0.8896    1.1788   -4.4959 H   0  0  0  0  0  0  0  0  0  0  0  0
    0.6179    1.5619   -5.3359 H   0  0  0  0  0  0  0  0  0  0  0  0
    0.4773    0.0595   -4.4038 H   0  0  0  0  0  0  0  0  0  0  0  0
    1.2360    4.1069   -3.8150 N   0  0  0  0  0  0  0  0  0  0  0  0
    1.0520    5.5291   -3.9864 C   0  0  0  0  0  0  0  0  0  0  0  0
    2.1095    3.6999   -4.1361 H   0  0  0  0  0  0  0  0  0  0  0  0
    0.5846    5.7239   -4.9629 H   0  0  0  0  0  0  0  0  0  0  0  0
    0.4028    5.9138   -3.1860 H   0  0  0  0  0  0  0  0  0  0  0  0
    2.0286    6.0333   -3.9405 H   0  0  0  0  0  0  0  0  0  0  0  0
  1  3  1  0  0  0  0
  1  7  1  0  0  0  0
  1  2  2  0  0  0  0
 42 43  1  0  0  0  0
 43 51  1  0  0  0  0
 43 44  2  0  0  0  0
  8  9  1  0  0  0  0
  9 17  1  0  0  0  0
  9 10  2  0  0  0  0
 18 19  1  0  0  0  0
 19 41  1  0  0  0  0
 19 20  2  0  0  0  0
 25 26  1  0  0  0  0
 25 27  1  0  0  0  0
 24 25  2  0  0  0  0
 42 45  1  0  0  0  0
  8 11  1  0  0  0  0
 51 52  1  0  0  0  0
 21 22  1  0  0  0  0
 22 23  1  0  0  0  0
 18 21  1  0  0  0  0
 23 24  1  0  0  0  0
 41 42  1  0  0  0  0
  7  8  1  0  0  0  0
 17 18  1  0  0  0  0
  3  4  1  0  0  0  0
  3  5  1  0  0  0  0
  3  6  1  0  0  0  0
 45 48  1  0  0  0  0
 45 49  1  0  0  0  0
 45 50  1  0  0  0  0
 11 14  1  0  0  0  0
 11 15  1  0  0  0  0
 11 16  1  0  0  0  0
 52 54  1  0  0  0  0
 52 55  1  0  0  0  0
 52 56  1  0  0  0  0
 22 32  1  0  0  0  0
 22 33  1  0  0  0  0
 21 30  1  0  0  0  0
 21 31  1  0  0  0  0
 23 34  1  0  0  0  0
 23 35  1  0  0  0  0
 42 47  1  0  0  0  0
  8 13  1  0  0  0  0
 18 29  1  0  0  0  0
 26 37  1  0  0  0  0
 26 38  1  0  0  0  0
 27 39  1  0  0  0  0
 27 40  1  0  0  0  0
 51 53  1  0  0  0  0
  7 12  1  0  0  0  0
 41 46  1  0  0  0  0
 17 28  1  0  0  0  0
 24 36  1  0  0  0  0
M  CHG  1  24   1
M  END
$$$$

  -OEChem-05262214473D

 56 55  0     1  0  0  0  0  0999 V2000
    0.7735   -5.8042   -2.0022 C   0  0  0  0  0  0  0  0  0  0  0  0
   -0.2086   -6.3825   -1.5519 O   0  0  0  0  0  0  0  0  0  0  0  0
    1.4751   -6.3646   -3.1946 C   0  0  0  0  0  0  0  0  0  0  0  0
    2.2765   -7.0687   -2.9186 H   0  0  0  0  0  0  0  0  0  0  0  0
    0.7988   -6.9360   -3.8504 H   0  0  0  0  0  0  0  0  0  0  0  0
    1.9556   -5.6216   -3.8511 H   0  0  0  0  0  0  0  0  0  0  0  0
    1.3322   -4.6359   -1.5106 N   0  0  0  0  0  0  0  0  0  0  0  0
    0.8124   -3.9290   -0.3698 C   0  0  2  0  0  0  0  0  0  0  0  0
    1.0666   -2.4424   -0.5818 C   0  0  0  0  0  0  0  0  0  0  0  0
    2.0598   -2.0076   -1.1610 O   0  0  0  0  0  0  0  0  0  0  0  0
    1.4560   -4.4118    0.9207 C   0  0  0  0  0  0  0  0  0  0  0  0
    2.1528   -4.2578   -1.9805 H   0  0  0  0  0  0  0  0  0  0  0  0
   -0.2667   -4.1160   -0.3467 H   0  0  0  0  0  0  0  0  0  0  0  0
    2.5374   -4.2329    0.9160 H   0  0  0  0  0  0  0  0  0  0  0  0
    1.0390   -3.8932    1.7903 H   0  0  0  0  0  0  0  0  0  0  0  0
    1.2976   -5.4871    1.0566 H   0  0  0  0  0  0  0  0  0  0  0  0
    0.0755   -1.6529   -0.0105 N   0  0  0  0  0  0  0  0  0  0  0  0
    0.1113   -0.2132   -0.0391 C   0  0  2  0  0  0  0  0  0  0  0  0
    0.8463    0.2017   -1.3093 C   0  0  0  0  0  0  0  0  0  0  0  0
    1.7551   -0.4625   -1.8034 O   0  0  0  0  0  0  0  0  0  0  0  0
    0.8054    0.3702    1.1959 C   0  0  0  0  0  0  0  0  0  0  0  0
    0.0116    0.1217    2.4840 C   0  0  0  0  0  0  0  0  0  0  0  0
    0.7070    0.7045    3.7099 C   0  0  0  0  0  0  0  0  0  0  0  0
   -0.0407    0.4453    4.9382 N   0  3  0  0  0  0  0  0  0  0  0  0
    0.4302    0.8295    6.1951 C   0  0  0  0  0  0  0  0  0  0  0  0
   -0.3356    0.5497    7.3219 N   0  0  0  0  0  0  0  0  0  0  0  0
    1.6469    1.4862    6.3480 N   0  0  0  0  0  0  0  0  0  0  0  0
   -0.7323   -2.1024    0.4149 H   0  0  0  0  0  0  0  0  0  0  0  0
   -0.9280    0.1292   -0.0995 H   0  0  0  0  0  0  0  0  0  0  0  0
    0.9468    1.4491    1.0596 H   0  0  0  0  0  0  0  0  0  0  0  0
    1.8092   -0.0631    1.2974 H   0  0  0  0  0  0  0  0  0  0  0  0
   -0.9898    0.5584    2.3888 H   0  0  0  0  0  0  0  0  0  0  0  0
   -0.1141   -0.9564    2.6366 H   0  0  0  0  0  0  0  0  0  0  0  0
    1.6932    0.2449    3.8270 H   0  0  0  0  0  0  0  0  0  0  0  0
    0.8327    1.7870    3.6105 H   0  0  0  0  0  0  0  0  0  0  0  0
   -0.9390   -0.0323    4.8892 H   0  0  0  0  0  0  0  0  0  0  0  0
   -0.0213    0.8163    8.2520 H   0  0  0  0  0  0  0  0  0  0  0  0
   -1.2297    0.0708    7.2459 H   0  0  0  0  0  0  0  0  0  0  0  0
    1.9943    1.7682    7.2610 H   0  0  0  0  0  0  0  0  0  0  0  0
    2.2283    1.7037    5.5420 H   0  0  0  0  0  0  0  0  0  0  0  0
    0.4006    1.4228   -1.7955 N   0  0  0  0  0  0  0  0  0  0  0  0
    0.9691    2.0599   -2.9610 C   0  0  2  0  0  0  0  0  0  0  0  0
    0.8856    3.5673   -2.7608 C   0  0  0  0  0  0  0  0  0  0  0  0
   -0.0391    4.1145   -2.1637 O   0  0  0  0  0  0  0  0  0  0  0  0
    0.2446    1.6392   -4.2303 C   0  0  0  0  0  0  0  0  0  0  0  0
   -0.3798    1.8860   -1.3393 H   0  0  0  0  0  0  0  0  0  0  0  0
    2.0202    1.7546   -3.0072 H   0  0  0  0  0  0  0  0  0  0  0  0
   -0.8100    1.9365   -4.2023 H   0  0  0  0  0  0  0  0  0  0  0  0
    0.6947    2.1005   -5.1155 H   0  0  0  0  0  0  0  0  0  0  0  0
    0.2801    0.5518   -4.3571 H   0  0  0  0  0  0  0  0  0  0  0  0
    1.9429    4.2333   -3.3646 N   0  0  0  0  0  0  0  0  0  0  0  0
    2.0670    5.6722   -3.3523 C   0  0  0  0  0  0  0  0  0  0  0  0
    2.6858    3.6973   -3.8035 H   0  0  0  0  0  0  0  0  0  0  0  0
    1.5992    6.0889   -4.2566 H   0  0  0  0  0  0  0  0  0  0  0  0
    1.5648    6.0758   -2.4607 H   0  0  0  0  0  0  0  0  0  0  0  0
    3.1315    5.9482   -3.3300 H   0  0  0  0  0  0  0  0  0  0  0  0
  1  3  1  0  0  0  0
  1  7  1  0  0  0  0
  1  2  2  0  0  0  0
 42 43  1  0  0  0  0
 43 51  1  0  0  0  0
 43 44  2  0  0  0  0
  8  9  1  0  0  0  0
  9 17  1  0  0  0  0
  9 10  2  0  0  0  0
 18 19  1  0  0  0  0
 19 41  1  0  0  0  0
 19 20  2  0  0  0  0
 25 26  1  0  0  0  0
 25 27  1  0  0  0  0
 24 25  2  0  0  0  0
 42 45  1  0  0  0  0
  8 11  1  0  0  0  0
 51 52  1  0  0  0  0
 21 22  1  0  0  0  0
 22 23  1  0  0  0  0
 18 21  1  0  0  0  0
 23 24  1  0  0  0  0
 41 42  1  0  0  0  0
  7  8  1  0  0  0  0
 17 18  1  0  0  0  0
  3  4  1  0  0  0  0
  3  5  1  0  0  0  0
  3  6  1  0  0  0  0
 45 48  1  0  0  0  0
 45 49  1  0  0  0  0
 45 50  1  0  0  0  0
 11 14  1  0  0  0  0
 11 15  1  0  0  0  0
 11 16  1  0  0  0  0
 52 54  1  0  0  0  0
 52 55  1  0  0  0  0
 52 56  1  0  0  0  0
 22 32  1  0  0  0  0
 22 33  1  0  0  0  0
 21 30  1  0  0  0  0
 21 31  1  0  0  0  0
 23 34  1  0  0  0  0
 23 35  1  0  0  0  0
 42 47  1  0  0  0  0
  8 13  1  0  0  0  0
 18 29  1  0  0  0  0
 26 37  1  0  0  0  0
 26 38  1  0  0  0  0
 27 39  1  0  0  0  0
 27 40  1  0  0  0  0
 51 53  1  0  0  0  0
  7 12  1  0  0  0  0
 41 46  1  0  0  0  0
 17 28  1  0  0  0  0
 24 36  1  0  0  0  0
M  CHG  1  24   1
M  END
$$$$

  -OEChem-05262214473D

 56 55  0     1  0  0  0  0  0999 V2000
    0.7735   -5.8042   -2.0022 C   0  0  0  0  0  0  0  0  0  0  0  0
   -0.2086   -6.3825   -1.5519 O   0  0  0  0  0  0  0  0  0  0  0  0
    1.4751   -6.3646   -3.1946 C   0  0  0  0  0  0  0  0  0  0  0  0
    2.2765   -7.0687   -2.9186 H   0  0  0  0  0  0  0  0  0  0  0  0
    0.7988   -6.9360   -3.8504 H   0  0  0  0  0  0  0  0  0  0  0  0
    1.9556   -5.6216   -3.8511 H   0  0  0  0  0  0  0  0  0  0  0  0
    1.3322   -4.6359   -1.5106 N   0  0  0  0  0  0  0  0  0  0  0  0
    0.8124   -3.9290   -0.3698 C   0  0  2  0  0  0  0  0  0  0  0  0
    1.0666   -2.4424   -0.5818 C   0  0  0  0  0  0  0  0  0  0  0  0
    2.0598   -2.0076   -1.1610 O   0  0  0  0  0  0  0  0  0  0  0  0
    1.4560   -4.4118    0.9207 C   0  0  0  0  0  0  0  0  0  0  0  0
    2.1528   -4.2578   -1.9805 H   0  0  0  0  0  0  0  0  0  0  0  0
   -0.2667   -4.1160   -0.3467 H   0  0  0  0  0  0  0  0  0  0  0  0
    2.5374   -4.2329    0.9160 H   0  0  0  0  0  0  0  0  0  0  0  0
    1.0390   -3.8932    1.7903 H   0  0  0  0  0  0  0  0  0  0  0  0
    1.2976   -5.4871    1.0566 H   0  0  0  0  0  0  0  0  0  0  0  0
    0.0755   -1.6529   -0.0105 N   0  0  0  0  0  0  0  0  0  0  0  0
    0.1113   -0.2132   -0.0391 C   0  0  2  0  0  0  0  0  0  0  0  0
    0.8463    0.2017   -1.3093 C   0  0  0  0  0  0  0  0  0  0  0  0
    1.5572   -0.5679   -1.9524 O   0  0  0  0  0  0  0  0  0  0  0  0
    0.8054    0.3702    1.1959 C   0  0  0  0  0  0  0  0  0  0  0  0
    0.0116    0.1217    2.4840 C   0  0  0  0  0  0  0  0  0  0  0  0
    0.7070    0.7045    3.7099 C   0  0  0  0  0  0  0  0  0  0  0  0
   -0.0407    0.4453    4.9382 N   0  3  0  0  0  0  0  0  0  0  0  0
    0.4302    0.8295    6.1951 C   0  0  0  0  0  0  0  0  0  0  0  0
   -0.3356    0.5497    7.3219 N   0  0  0  0  0  0  0  0  0  0  0  0
    1.6469    1.4862    6.3480 N   0  0  0  0  0  0  0  0  0  0  0  0
   -0.7323   -2.1024    0.4149 H   0  0  0  0  0  0  0  0  0  0  0  0
   -0.9280    0.1292   -0.0995 H   0  0  0  0  0  0  0  0  0  0  0  0
    0.9468    1.4491    1.0596 H   0  0  0  0  0  0  0  0  0  0  0  0
    1.8092   -0.0631    1.2974 H   0  0  0  0  0  0  0  0  0  0  0  0
   -0.9898    0.5584    2.3888 H   0  0  0  0  0  0  0  0  0  0  0  0
   -0.1141   -0.9564    2.6366 H   0  0  0  0  0  0  0  0  0  0  0  0
    1.6932    0.2449    3.8270 H   0  0  0  0  0  0  0  0  0  0  0  0
    0.8327    1.7870    3.6105 H   0  0  0  0  0  0  0  0  0  0  0  0
   -0.9390   -0.0323    4.8892 H   0  0  0  0  0  0  0  0  0  0  0  0
   -0.0213    0.8163    8.2520 H   0  0  0  0  0  0  0  0  0  0  0  0
   -1.2297    0.0708    7.2459 H   0  0  0  0  0  0  0  0  0  0  0  0
    1.9943    1.7682    7.2610 H   0  0  0  0  0  0  0  0  0  0  0  0
    2.2283    1.7037    5.5420 H   0  0  0  0  0  0  0  0  0  0  0  0
    0.6534    1.5428   -1.6101 N   0  0  0  0  0  0  0  0  0  0  0  0
    1.2810    2.1941   -2.7367 C   0  0  2  0  0  0  0  0  0  0  0  0
    1.5428    3.6451   -2.3551 C   0  0  0  0  0  0  0  0  0  0  0  0
    0.7965    4.2911   -1.6224 O   0  0  0  0  0  0  0  0  0  0  0  0
    0.4109    2.1078   -3.9809 C   0  0  0  0  0  0  0  0  0  0  0  0
    0.0212    2.0957   -1.0387 H   0  0  0  0  0  0  0  0  0  0  0  0
    2.2348    1.6828   -2.9065 H   0  0  0  0  0  0  0  0  0  0  0  0
   -0.5491    2.6146   -3.8298 H   0  0  0  0  0  0  0  0  0  0  0  0
    0.9005    2.5768   -4.8408 H   0  0  0  0  0  0  0  0  0  0  0  0
    0.1990    1.0640   -4.2367 H   0  0  0  0  0  0  0  0  0  0  0  0
    2.6847    4.1469   -2.9636 N   0  0  0  0  0  0  0  0  0  0  0  0
    3.1228    5.5126   -2.7935 C   0  0  0  0  0  0  0  0  0  0  0  0
    3.2654    3.5291   -3.5231 H   0  0  0  0  0  0  0  0  0  0  0  0
    2.7077    6.1346   -3.6002 H   0  0  0  0  0  0  0  0  0  0  0  0
    2.7732    5.8913   -1.8217 H   0  0  0  0  0  0  0  0  0  0  0  0
    4.2215    5.5522   -2.8286 H   0  0  0  0  0  0  0  0  0  0  0  0
  1  3  1  0  0  0  0
  1  7  1  0  0  0  0
  1  2  2  0  0  0  0
 42 43  1  0  0  0  0
 43 51  1  0  0  0  0
 43 44  2  0  0  0  0
  8  9  1  0  0  0  0
  9 17  1  0  0  0  0
  9 10  2  0  0  0  0
 18 19  1  0  0  0  0
 19 41  1  0  0  0  0
 19 20  2  0  0  0  0
 25 26  1  0  0  0  0
 25 27  1  0  0  0  0
 24 25  2  0  0  0  0
 42 45  1  0  0  0  0
  8 11  1  0  0  0  0
 51 52  1  0  0  0  0
 21 22  1  0  0  0  0
 22 23  1  0  0  0  0
 18 21  1  0  0  0  0
 23 24  1  0  0  0  0
 41 42  1  0  0  0  0
  7  8  1  0  0  0  0
 17 18  1  0  0  0  0
  3  4  1  0  0  0  0
  3  5  1  0  0  0  0
  3  6  1  0  0  0  0
 45 48  1  0  0  0  0
 45 49  1  0  0  0  0
 45 50  1  0  0  0  0
 11 14  1  0  0  0  0
 11 15  1  0  0  0  0
 11 16  1  0  0  0  0
 52 54  1  0  0  0  0
 52 55  1  0  0  0  0
 52 56  1  0  0  0  0
 22 32  1  0  0  0  0
 22 33  1  0  0  0  0
 21 30  1  0  0  0  0
 21 31  1  0  0  0  0
 23 34  1  0  0  0  0
 23 35  1  0  0  0  0
 42 47  1  0  0  0  0
  8 13  1  0  0  0  0
 18 29  1  0  0  0  0
 26 37  1  0  0  0  0
 26 38  1  0  0  0  0
 27 39  1  0  0  0  0
 27 40  1  0  0  0  0
 51 53  1  0  0  0  0
  7 12  1  0  0  0  0
 41 46  1  0  0  0  0
 17 28  1  0  0  0  0
 24 36  1  0  0  0  0
M  CHG  1  24   1
M  END
$$$$

  -OEChem-05262214473D

 56 55  0     1  0  0  0  0  0999 V2000
    0.7735   -5.8042   -2.0022 C   0  0  0  0  0  0  0  0  0  0  0  0
   -0.2086   -6.3825   -1.5519 O   0  0  0  0  0  0  0  0  0  0  0  0
    1.4751   -6.3646   -3.1946 C   0  0  0  0  0  0  0  0  0  0  0  0
    2.2765   -7.0687   -2.9186 H   0  0  0  0  0  0  0  0  0  0  0  0
    0.7988   -6.9360   -3.8504 H   0  0  0  0  0  0  0  0  0  0  0  0
    1.9556   -5.6216   -3.8511 H   0  0  0  0  0  0  0  0  0  0  0  0
    1.3322   -4.6359   -1.5106 N   0  0  0  0  0  0  0  0  0  0  0  0
    0.8124   -3.9290   -0.3698 C   0  0  2  0  0  0  0  0  0  0  0  0
    1.0666   -2.4424   -0.5818 C   0  0  0  0  0  0  0  0  0  0  0  0
    2.0598   -2.0076   -1.1610 O   0  0  0  0  0  0  0  0  0  0  0  0
    1.4560   -4.4118    0.9207 C   0  0  0  0  0  0  0  0  0  0  0  0
    2.1528   -4.2578   -1.9805 H   0  0  0  0  0  0  0  0  0  0  0  0
   -0.2667   -4.1160   -0.3467 H   0  0  0  0  0  0  0  0  0  0  0  0
    2.5374   -4.2329    0.9160 H   0  0  0  0  0  0  0  0  0  0  0  0
    1.0390   -3.8932    1.7903 H   0  0  0  0  0  0  0  0  0  0  0  0
    1.2976   -5.4871    1.0566 H   0  0  0  0  0  0  0  0  0  0  0  0
    0.0755   -1.6529   -0.0105 N   0  0  0  0  0  0  0  0  0  0  0  0
    0.1113   -0.2132   -0.0391 C   0  0  2  0  0  0  0  0  0  0  0  0
    0.4952    0.2075   -1.4538 C   0  0  0  0  0  0  0  0  0  0  0  0
    0.7569   -0.5991   -2.3437 O   0  0  0  0  0  0  0  0  0  0  0  0
    1.1047    0.3584    0.9776 C   0  0  0  0  0  0  0  0  0  0  0  0
    0.6697    0.1041    2.4258 C   0  0  0  0  0  0  0  0  0  0  0  0
    1.6620    0.6752    3.4334 C   0  0  0  0  0  0  0  0  0  0  0  0
    1.2559    0.4105    4.8119 N   0  3  0  0  0  0  0  0  0  0  0  0
    2.0382    0.7837    5.9063 C   0  0  0  0  0  0  0  0  0  0  0  0
    1.5883    0.4991    7.1912 N   0  0  0  0  0  0  0  0  0  0  0  0
    3.2569    1.4341    5.7430 N   0  0  0  0  0  0  0  0  0  0  0  0
   -0.7323   -2.1024    0.4149 H   0  0  0  0  0  0  0  0  0  0  0  0
   -0.9062    0.1341    0.1734 H   0  0  0  0  0  0  0  0  0  0  0  0
    1.2125    1.4376    0.8156 H   0  0  0  0  0  0  0  0  0  0  0  0
    2.0980   -0.0799    0.8135 H   0  0  0  0  0  0  0  0  0  0  0  0
   -0.3196    0.5458    2.5954 H   0  0  0  0  0  0  0  0  0  0  0  0
    0.5813   -0.9745    2.5995 H   0  0  0  0  0  0  0  0  0  0  0  0
    2.6422    0.2105    3.2887 H   0  0  0  0  0  0  0  0  0  0  0  0
    1.7642    1.7578    3.3111 H   0  0  0  0  0  0  0  0  0  0  0  0
    0.3727   -0.0629    4.9941 H   0  0  0  0  0  0  0  0  0  0  0  0
    2.1340    0.7577    8.0098 H   0  0  0  0  0  0  0  0  0  0  0  0
    0.7021    0.0247    7.3464 H   0  0  0  0  0  0  0  0  0  0  0  0
    3.8304    1.7080    6.5366 H   0  0  0  0  0  0  0  0  0  0  0  0
    3.6114    1.6547    4.8153 H   0  0  0  0  0  0  0  0  0  0  0  0
    0.5583    1.5874   -1.5894 N   0  0  0  0  0  0  0  0  0  0  0  0
    0.9470    2.2397   -2.8185 C   0  0  2  0  0  0  0  0  0  0  0  0
    1.6663    3.5327   -2.4577 C   0  0  0  0  0  0  0  0  0  0  0  0
    1.3692    4.2150   -1.4793 O   0  0  0  0  0  0  0  0  0  0  0  0
   -0.2586    2.5169   -3.7031 C   0  0  0  0  0  0  0  0  0  0  0  0
    0.2928    2.1777   -0.8066 H   0  0  0  0  0  0  0  0  0  0  0  0
    1.6425    1.5643   -3.3287 H   0  0  0  0  0  0  0  0  0  0  0  0
   -0.9667    3.1918   -3.2086 H   0  0  0  0  0  0  0  0  0  0  0  0
    0.0408    2.9853   -4.6464 H   0  0  0  0  0  0  0  0  0  0  0  0
   -0.7918    1.5891   -3.9371 H   0  0  0  0  0  0  0  0  0  0  0  0
    2.6503    3.8577   -3.3809 N   0  0  0  0  0  0  0  0  0  0  0  0
    3.4446    5.0600   -3.2831 C   0  0  0  0  0  0  0  0  0  0  0  0
    2.8561    3.2140   -4.1392 H   0  0  0  0  0  0  0  0  0  0  0  0
    2.9682    5.8631   -3.8645 H   0  0  0  0  0  0  0  0  0  0  0  0
    3.5191    5.3653   -2.2290 H   0  0  0  0  0  0  0  0  0  0  0  0
    4.4518    4.8673   -3.6811 H   0  0  0  0  0  0  0  0  0  0  0  0
  1  3  1  0  0  0  0
  1  7  1  0  0  0  0
  1  2  2  0  0  0  0
 42 43  1  0  0  0  0
 43 51  1  0  0  0  0
 43 44  2  0  0  0  0
  8  9  1  0  0  0  0
  9 17  1  0  0  0  0
  9 10  2  0  0  0  0
 18 19  1  0  0  0  0
 19 41  1  0  0  0  0
 19 20  2  0  0  0  0
 25 26  1  0  0  0  0
 25 27  1  0  0  0  0
 24 25  2  0  0  0  0
 42 45  1  0  0  0  0
  8 11  1  0  0  0  0
 51 52  1  0  0  0  0
 21 22  1  0  0  0  0
 22 23  1  0  0  0  0
 18 21  1  0  0  0  0
 23 24  1  0  0  0  0
 41 42  1  0  0  0  0
  7  8  1  0  0  0  0
 17 18  1  0  0  0  0
  3  4  1  0  0  0  0
  3  5  1  0  0  0  0
  3  6  1  0  0  0  0
 45 48  1  0  0  0  0
 45 49  1  0  0  0  0
 45 50  1  0  0  0  0
 11 14  1  0  0  0  0
 11 15  1  0  0  0  0
 11 16  1  0  0  0  0
 52 54  1  0  0  0  0
 52 55  1  0  0  0  0
 52 56  1  0  0  0  0
 22 32  1  0  0  0  0
 22 33  1  0  0  0  0
 21 30  1  0  0  0  0
 21 31  1  0  0  0  0
 23 34  1  0  0  0  0
 23 35  1  0  0  0  0
 42 47  1  0  0  0  0
  8 13  1  0  0  0  0
 18 29  1  0  0  0  0
 26 37  1  0  0  0  0
 26 38  1  0  0  0  0
 27 39  1  0  0  0  0
 27 40  1  0  0  0  0
 51 53  1  0  0  0  0
  7 12  1  0  0  0  0
 41 46  1  0  0  0  0
 17 28  1  0  0  0  0
 24 36  1  0  0  0  0
M  CHG  1  24   1
M  END
$$$$

  -OEChem-05262214473D

 56 55  0     1  0  0  0  0  0999 V2000
    0.7735   -5.8042   -2.0022 C   0  0  0  0  0  0  0  0  0  0  0  0
   -0.2086   -6.3825   -1.5519 O   0  0  0  0  0  0  0  0  0  0  0  0
    1.4751   -6.3646   -3.1946 C   0  0  0  0  0  0  0  0  0  0  0  0
    2.2765   -7.0687   -2.9186 H   0  0  0  0  0  0  0  0  0  0  0  0
    0.7988   -6.9360   -3.8504 H   0  0  0  0  0  0  0  0  0  0  0  0
    1.9556   -5.6216   -3.8511 H   0  0  0  0  0  0  0  0  0  0  0  0
    1.3322   -4.6359   -1.5106 N   0  0  0  0  0  0  0  0  0  0  0  0
    0.8124   -3.9290   -0.3698 C   0  0  2  0  0  0  0  0  0  0  0  0
    1.0666   -2.4424   -0.5818 C   0  0  0  0  0  0  0  0  0  0  0  0
    2.0598   -2.0076   -1.1610 O   0  0  0  0  0  0  0  0  0  0  0  0
    1.4560   -4.4118    0.9207 C   0  0  0  0  0  0  0  0  0  0  0  0
    2.1528   -4.2578   -1.9805 H   0  0  0  0  0  0  0  0  0  0  0  0
   -0.2667   -4.1160   -0.3467 H   0  0  0  0  0  0  0  0  0  0  0  0
    2.5374   -4.2329    0.9160 H   0  0  0  0  0  0  0  0  0  0  0  0
    1.0390   -3.8932    1.7903 H   0  0  0  0  0  0  0  0  0  0  0  0
    1.2976   -5.4871    1.0566 H   0  0  0  0  0  0  0  0  0  0  0  0
    0.0755   -1.6529   -0.0105 N   0  0  0  0  0  0  0  0  0  0  0  0
    0.1113   -0.2132   -0.0391 C   0  0  2  0  0  0  0  0  0  0  0  0
    0.4952    0.2075   -1.4538 C   0  0  0  0  0  0  0  0  0  0  0  0
    0.4965   -0.5702   -2.4058 O   0  0  0  0  0  0  0  0  0  0  0  0
    1.1047    0.3584    0.9776 C   0  0  0  0  0  0  0  0  0  0  0  0
    0.6697    0.1041    2.4258 C   0  0  0  0  0  0  0  0  0  0  0  0
    1.6620    0.6752    3.4334 C   0  0  0  0  0  0  0  0  0  0  0  0
    1.2559    0.4105    4.8119 N   0  3  0  0  0  0  0  0  0  0  0  0
    2.0382    0.7837    5.9063 C   0  0  0  0  0  0  0  0  0  0  0  0
    1.5883    0.4991    7.1912 N   0  0  0  0  0  0  0  0  0  0  0  0
    3.2569    1.4341    5.7430 N   0  0  0  0  0  0  0  0  0  0  0  0
   -0.7323   -2.1024    0.4149 H   0  0  0  0  0  0  0  0  0  0  0  0
   -0.9062    0.1341    0.1734 H   0  0  0  0  0  0  0  0  0  0  0  0
    1.2125    1.4376    0.8156 H   0  0  0  0  0  0  0  0  0  0  0  0
    2.0980   -0.0799    0.8135 H   0  0  0  0  0  0  0  0  0  0  0  0
   -0.3196    0.5458    2.5954 H   0  0  0  0  0  0  0  0  0  0  0  0
    0.5813   -0.9745    2.5995 H   0  0  0  0  0  0  0  0  0  0  0  0
    2.6422    0.2105    3.2887 H   0  0  0  0  0  0  0  0  0  0  0  0
    1.7642    1.7578    3.3111 H   0  0  0  0  0  0  0  0  0  0  0  0
    0.3727   -0.0629    4.9941 H   0  0  0  0  0  0  0  0  0  0  0  0
    2.1340    0.7577    8.0098 H   0  0  0  0  0  0  0  0  0  0  0  0
    0.7021    0.0247    7.3464 H   0  0  0  0  0  0  0  0  0  0  0  0
    3.8304    1.7080    6.5366 H   0  0  0  0  0  0  0  0  0  0  0  0
    3.6114    1.6547    4.8153 H   0  0  0  0  0  0  0  0  0  0  0  0
    0.8823    1.5389   -1.5159 N   0  0  0  0  0  0  0  0  0  0  0  0
    1.3387    2.1691   -2.7332 C   0  0  2  0  0  0  0  0  0  0  0  0
    2.3714    3.2238   -2.3582 C   0  0  0  0  0  0  0  0  0  0  0  0
    2.3113    3.8830   -1.3224 O   0  0  0  0  0  0  0  0  0  0  0  0
    0.1827    2.7895   -3.5022 C   0  0  0  0  0  0  0  0  0  0  0  0
    0.8180    2.1160   -0.6824 H   0  0  0  0  0  0  0  0  0  0  0  0
    1.8159    1.3874   -3.3343 H   0  0  0  0  0  0  0  0  0  0  0  0
   -0.3079    3.5751   -2.9158 H   0  0  0  0  0  0  0  0  0  0  0  0
    0.5262    3.2418   -4.4384 H   0  0  0  0  0  0  0  0  0  0  0  0
   -0.5733    2.0351   -3.7452 H   0  0  0  0  0  0  0  0  0  0  0  0
    3.3442    3.3728   -3.3368 N   0  0  0  0  0  0  0  0  0  0  0  0
    4.4109    4.3412   -3.2347 C   0  0  0  0  0  0  0  0  0  0  0  0
    3.3393    2.7565   -4.1442 H   0  0  0  0  0  0  0  0  0  0  0  0
    4.1075    5.2753   -3.7302 H   0  0  0  0  0  0  0  0  0  0  0  0
    4.6239    4.5414   -2.1742 H   0  0  0  0  0  0  0  0  0  0  0  0
    5.3140    3.9446   -3.7216 H   0  0  0  0  0  0  0  0  0  0  0  0
  1  3  1  0  0  0  0
  1  7  1  0  0  0  0
  1  2  2  0  0  0  0
 42 43  1  0  0  0  0
 43 51  1  0  0  0  0
 43 44  2  0  0  0  0
  8  9  1  0  0  0  0
  9 17  1  0  0  0  0
  9 10  2  0  0  0  0
 18 19  1  0  0  0  0
 19 41  1  0  0  0  0
 19 20  2  0  0  0  0
 25 26  1  0  0  0  0
 25 27  1  0  0  0  0
 24 25  2  0  0  0  0
 42 45  1  0  0  0  0
  8 11  1  0  0  0  0
 51 52  1  0  0  0  0
 21 22  1  0  0  0  0
 22 23  1  0  0  0  0
 18 21  1  0  0  0  0
 23 24  1  0  0  0  0
 41 42  1  0  0  0  0
  7  8  1  0  0  0  0
 17 18  1  0  0  0  0
  3  4  1  0  0  0  0
  3  5  1  0  0  0  0
  3  6  1  0  0  0  0
 45 48  1  0  0  0  0
 45 49  1  0  0  0  0
 45 50  1  0  0  0  0
 11 14  1  0  0  0  0
 11 15  1  0  0  0  0
 11 16  1  0  0  0  0
 52 54  1  0  0  0  0
 52 55  1  0  0  0  0
 52 56  1  0  0  0  0
 22 32  1  0  0  0  0
 22 33  1  0  0  0  0
 21 30  1  0  0  0  0
 21 31  1  0  0  0  0
 23 34  1  0  0  0  0
 23 35  1  0  0  0  0
 42 47  1  0  0  0  0
  8 13  1  0  0  0  0
 18 29  1  0  0  0  0
 26 37  1  0  0  0  0
 26 38  1  0  0  0  0
 27 39  1  0  0  0  0
 27 40  1  0  0  0  0
 51 53  1  0  0  0  0
  7 12  1  0  0  0  0
 41 46  1  0  0  0  0
 17 28  1  0  0  0  0
 24 36  1  0  0  0  0
M  CHG  1  24   1
M  END
$$$$

  -OEChem-05262214473D

 56 55  0     1  0  0  0  0  0999 V2000
    0.7735   -5.8042   -2.0022 C   0  0  0  0  0  0  0  0  0  0  0  0
   -0.2086   -6.3825   -1.5519 O   0  0  0  0  0  0  0  0  0  0  0  0
    1.4751   -6.3646   -3.1946 C   0  0  0  0  0  0  0  0  0  0  0  0
    2.2765   -7.0687   -2.9186 H   0  0  0  0  0  0  0  0  0  0  0  0
    0.7988   -6.9360   -3.8504 H   0  0  0  0  0  0  0  0  0  0  0  0
    1.9556   -5.6216   -3.8511 H   0  0  0  0  0  0  0  0  0  0  0  0
    1.3322   -4.6359   -1.5106 N   0  0  0  0  0  0  0  0  0  0  0  0
    0.8124   -3.9290   -0.3698 C   0  0  2  0  0  0  0  0  0  0  0  0
    1.0666   -2.4424   -0.5818 C   0  0  0  0  0  0  0  0  0  0  0  0
    2.0598   -2.0076   -1.1610 O   0  0  0  0  0  0  0  0  0  0  0  0
    1.4560   -4.4118    0.9207 C   0  0  0  0  0  0  0  0  0  0  0  0
    2.1528   -4.2578   -1.9805 H   0  0  0  0  0  0  0  0  0  0  0  0
   -0.2667   -4.1160   -0.3467 H   0  0  0  0  0  0  0  0  0  0  0  0
    2.5374   -4.2329    0.9160 H   0  0  0  0  0  0  0  0  0  0  0  0
    1.0390   -3.8932    1.7903 H   0  0  0  0  0  0  0  0  0  0  0  0
    1.2976   -5.4871    1.0566 H   0  0  0  0  0  0  0  0  0  0  0  0
    0.0755   -1.6529   -0.0105 N   0  0  0  0  0  0  0  0  0  0  0  0
    0.1113   -0.2132   -0.0391 C   0  0  2  0  0  0  0  0  0  0  0  0
    0.4952    0.2075   -1.4538 C   0  0  0  0  0  0  0  0  0  0  0  0
    0.2475   -0.4757   -2.4453 O   0  0  0  0  0  0  0  0  0  0  0  0
    1.1047    0.3584    0.9776 C   0  0  0  0  0  0  0  0  0  0  0  0
    0.6697    0.1041    2.4258 C   0  0  0  0  0  0  0  0  0  0  0  0
    1.6620    0.6752    3.4334 C   0  0  0  0  0  0  0  0  0  0  0  0
    1.2559    0.4105    4.8119 N   0  3  0  0  0  0  0  0  0  0  0  0
    2.0382    0.7837    5.9063 C   0  0  0  0  0  0  0  0  0  0  0  0
    1.5883    0.4991    7.1912 N   0  0  0  0  0  0  0  0  0  0  0  0
    3.2569    1.4341    5.7430 N   0  0  0  0  0  0  0  0  0  0  0  0
   -0.7323   -2.1024    0.4149 H   0  0  0  0  0  0  0  0  0  0  0  0
   -0.9062    0.1341    0.1734 H   0  0  0  0  0  0  0  0  0  0  0  0
    1.2125    1.4376    0.8156 H   0  0  0  0  0  0  0  0  0  0  0  0
    2.0980   -0.0799    0.8135 H   0  0  0  0  0  0  0  0  0  0  0  0
   -0.3196    0.5458    2.5954 H   0  0  0  0  0  0  0  0  0  0  0  0
    0.5813   -0.9745    2.5995 H   0  0  0  0  0  0  0  0  0  0  0  0
    2.6422    0.2105    3.2887 H   0  0  0  0  0  0  0  0  0  0  0  0
    1.7642    1.7578    3.3111 H   0  0  0  0  0  0  0  0  0  0  0  0
    0.3727   -0.0629    4.9941 H   0  0  0  0  0  0  0  0  0  0  0  0
    2.1340    0.7577    8.0098 H   0  0  0  0  0  0  0  0  0  0  0  0
    0.7021    0.0247    7.3464 H   0  0  0  0  0  0  0  0  0  0  0  0
    3.8304    1.7080    6.5366 H   0  0  0  0  0  0  0  0  0  0  0  0
    3.6114    1.6547    4.8153 H   0  0  0  0  0  0  0  0  0  0  0  0
    1.1888    1.4096   -1.4711 N   0  0  0  0  0  0  0  0  0  0  0  0
    1.7062    2.0014   -2.6834 C   0  0  2  0  0  0  0  0  0  0  0  0
    2.9854    2.7497   -2.3326 C   0  0  0  0  0  0  0  0  0  0  0  0
    3.1528    3.3258   -1.2597 O   0  0  0  0  0  0  0  0  0  0  0  0
    0.6887    2.9339   -3.3220 C   0  0  0  0  0  0  0  0  0  0  0  0
    1.3193    1.9222   -0.6040 H   0  0  0  0  0  0  0  0  0  0  0  0
    1.9405    1.1753   -3.3636 H   0  0  0  0  0  0  0  0  0  0  0  0
    0.4415    3.7680   -2.6551 H   0  0  0  0  0  0  0  0  0  0  0  0
    1.0715    3.3594   -4.2555 H   0  0  0  0  0  0  0  0  0  0  0  0
   -0.2415    2.4008   -3.5463 H   0  0  0  0  0  0  0  0  0  0  0  0
    3.9013    2.7350   -3.3753 N   0  0  0  0  0  0  0  0  0  0  0  0
    5.1751    3.4118   -3.3037 C   0  0  0  0  0  0  0  0  0  0  0  0
    3.6958    2.1989   -4.2133 H   0  0  0  0  0  0  0  0  0  0  0  0
    5.0765    4.4252   -3.7201 H   0  0  0  0  0  0  0  0  0  0  0  0
    5.4972    3.4767   -2.2539 H   0  0  0  0  0  0  0  0  0  0  0  0
    5.9223    2.8489   -3.8824 H   0  0  0  0  0  0  0  0  0  0  0  0
  1  3  1  0  0  0  0
  1  7  1  0  0  0  0
  1  2  2  0  0  0  0
 42 43  1  0  0  0  0
 43 51  1  0  0  0  0
 43 44  2  0  0  0  0
  8  9  1  0  0  0  0
  9 17  1  0  0  0  0
  9 10  2  0  0  0  0
 18 19  1  0  0  0  0
 19 41  1  0  0  0  0
 19 20  2  0  0  0  0
 25 26  1  0  0  0  0
 25 27  1  0  0  0  0
 24 25  2  0  0  0  0
 42 45  1  0  0  0  0
  8 11  1  0  0  0  0
 51 52  1  0  0  0  0
 21 22  1  0  0  0  0
 22 23  1  0  0  0  0
 18 21  1  0  0  0  0
 23 24  1  0  0  0  0
 41 42  1  0  0  0  0
  7  8  1  0  0  0  0
 17 18  1  0  0  0  0
  3  4  1  0  0  0  0
  3  5  1  0  0  0  0
  3  6  1  0  0  0  0
 45 48  1  0  0  0  0
 45 49  1  0  0  0  0
 45 50  1  0  0  0  0
 11 14  1  0  0  0  0
 11 15  1  0  0  0  0
 11 16  1  0  0  0  0
 52 54  1  0  0  0  0
 52 55  1  0  0  0  0
 52 56  1  0  0  0  0
 22 32  1  0  0  0  0
 22 33  1  0  0  0  0
 21 30  1  0  0  0  0
 21 31  1  0  0  0  0
 23 34  1  0  0  0  0
 23 35  1  0  0  0  0
 42 47  1  0  0  0  0
  8 13  1  0  0  0  0
 18 29  1  0  0  0  0
 26 37  1  0  0  0  0
 26 38  1  0  0  0  0
 27 39  1  0  0  0  0
 27 40  1  0  0  0  0
 51 53  1  0  0  0  0
  7 12  1  0  0  0  0
 41 46  1  0  0  0  0
 17 28  1  0  0  0  0
 24 36  1  0  0  0  0
M  CHG  1  24   1
M  END
$$$$

  -OEChem-05262214473D

 56 55  0     1  0  0  0  0  0999 V2000
    0.7735   -5.8042   -2.0022 C   0  0  0  0  0  0  0  0  0  0  0  0
   -0.2086   -6.3825   -1.5519 O   0  0  0  0  0  0  0  0  0  0  0  0
    1.4751   -6.3646   -3.1946 C   0  0  0  0  0  0  0  0  0  0  0  0
    2.2765   -7.0687   -2.9186 H   0  0  0  0  0  0  0  0  0  0  0  0
    0.7988   -6.9360   -3.8504 H   0  0  0  0  0  0  0  0  0  0  0  0
    1.9556   -5.6216   -3.8511 H   0  0  0  0  0  0  0  0  0  0  0  0
    1.3322   -4.6359   -1.5106 N   0  0  0  0  0  0  0  0  0  0  0  0
    0.8124   -3.9290   -0.3698 C   0  0  2  0  0  0  0  0  0  0  0  0
    1.0666   -2.4424   -0.5818 C   0  0  0  0  0  0  0  0  0  0  0  0
    2.0598   -2.0076   -1.1610 O   0  0  0  0  0  0  0  0  0  0  0  0
    1.4560   -4.4118    0.9207 C   0  0  0  0  0  0  0  0  0  0  0  0
    2.1528   -4.2578   -1.9805 H   0  0  0  0  0  0  0  0  0  0  0  0
   -0.2667   -4.1160   -0.3467 H   0  0  0  0  0  0  0  0  0  0  0  0
    2.5374   -4.2329    0.9160 H   0  0  0  0  0  0  0  0  0  0  0  0
    1.0390   -3.8932    1.7903 H   0  0  0  0  0  0  0  0  0  0  0  0
    1.2976   -5.4871    1.0566 H   0  0  0  0  0  0  0  0  0  0  0  0
    0.0755   -1.6529   -0.0105 N   0  0  0  0  0  0  0  0  0  0  0  0
    0.1113   -0.2132   -0.0391 C   0  0  2  0  0  0  0  0  0  0  0  0
    0.4952    0.2075   -1.4538 C   0  0  0  0  0  0  0  0  0  0  0  0
    0.0268   -0.3220   -2.4594 O   0  0  0  0  0  0  0  0  0  0  0  0
    1.1047    0.3584    0.9776 C   0  0  0  0  0  0  0  0  0  0  0  0
    0.6697    0.1041    2.4258 C   0  0  0  0  0  0  0  0  0  0  0  0
    1.6620    0.6752    3.4334 C   0  0  0  0  0  0  0  0  0  0  0  0
    1.2559    0.4105    4.8119 N   0  3  0  0  0  0  0  0  0  0  0  0
    2.0382    0.7837    5.9063 C   0  0  0  0  0  0  0  0  0  0  0  0
    1.5883    0.4991    7.1912 N   0  0  0  0  0  0  0  0  0  0  0  0
    3.2569    1.4341    5.7430 N   0  0  0  0  0  0  0  0  0  0  0  0
   -0.7323   -2.1024    0.4149 H   0  0  0  0  0  0  0  0  0  0  0  0
   -0.9062    0.1341    0.1734 H   0  0  0  0  0  0  0  0  0  0  0  0
    1.2125    1.4376    0.8156 H   0  0  0  0  0  0  0  0  0  0  0  0
    2.0980   -0.0799    0.8135 H   0  0  0  0  0  0  0  0  0  0  0  0
   -0.3196    0.5458    2.5954 H   0  0  0  0  0  0  0  0  0  0  0  0
    0.5813   -0.9745    2.5995 H   0  0  0  0  0  0  0  0  0  0  0  0
    2.6422    0.2105    3.2887 H   0  0  0  0  0  0  0  0  0  0  0  0
    1.7642    1.7578    3.3111 H   0  0  0  0  0  0  0  0  0  0  0  0
    0.3727   -0.0629    4.9941 H   0  0  0  0  0  0  0  0  0  0  0  0
    2.1340    0.7577    8.0098 H   0  0  0  0  0  0  0  0  0  0  0  0
    0.7021    0.0247    7.3464 H   0  0  0  0  0  0  0  0  0  0  0  0
    3.8304    1.7080    6.5366 H   0  0  0  0  0  0  0  0  0  0  0  0
    3.6114    1.6547    4.8153 H   0  0  0  0  0  0  0  0  0  0  0  0
    1.4570    1.2082   -1.4583 N   0  0  0  0  0  0  0  0  0  0  0  0
    2.0244    1.7479   -2.6724 C   0  0  2  0  0  0  0  0  0  0  0  0
    3.4666    2.1426   -2.3826 C   0  0  0  0  0  0  0  0  0  0  0  0
    3.8364    2.5816   -1.2956 O   0  0  0  0  0  0  0  0  0  0  0  0
    1.2250    2.9401   -3.1746 C   0  0  0  0  0  0  0  0  0  0  0  0
    1.7627    1.6095   -0.5767 H   0  0  0  0  0  0  0  0  0  0  0  0
    2.0078    0.9423   -3.4146 H   0  0  0  0  0  0  0  0  0  0  0  0
    1.2302    3.7574   -2.4442 H   0  0  0  0  0  0  0  0  0  0  0  0
    1.6395    3.3302   -4.1100 H   0  0  0  0  0  0  0  0  0  0  0  0
    0.1810    2.6615   -3.3541 H   0  0  0  0  0  0  0  0  0  0  0  0
    4.2834    1.9877   -3.4939 N   0  0  0  0  0  0  0  0  0  0  0  0
    5.6853    2.3351   -3.4855 C   0  0  0  0  0  0  0  0  0  0  0  0
    3.9014    1.5793   -4.3418 H   0  0  0  0  0  0  0  0  0  0  0  0
    5.8090    3.3708   -3.8349 H   0  0  0  0  0  0  0  0  0  0  0  0
    6.0794    2.2438   -2.4626 H   0  0  0  0  0  0  0  0  0  0  0  0
    6.2354    1.6551   -4.1525 H   0  0  0  0  0  0  0  0  0  0  0  0
  1  3  1  0  0  0  0
  1  7  1  0  0  0  0
  1  2  2  0  0  0  0
 42 43  1  0  0  0  0
 43 51  1  0  0  0  0
 43 44  2  0  0  0  0
  8  9  1  0  0  0  0
  9 17  1  0  0  0  0
  9 10  2  0  0  0  0
 18 19  1  0  0  0  0
 19 41  1  0  0  0  0
 19 20  2  0  0  0  0
 25 26  1  0  0  0  0
 25 27  1  0  0  0  0
 24 25  2  0  0  0  0
 42 45  1  0  0  0  0
  8 11  1  0  0  0  0
 51 52  1  0  0  0  0
 21 22  1  0  0  0  0
 22 23  1  0  0  0  0
 18 21  1  0  0  0  0
 23 24  1  0  0  0  0
 41 42  1  0  0  0  0
  7  8  1  0  0  0  0
 17 18  1  0  0  0  0
  3  4  1  0  0  0  0
  3  5  1  0  0  0  0
  3  6  1  0  0  0  0
 45 48  1  0  0  0  0
 45 49  1  0  0  0  0
 45 50  1  0  0  0  0
 11 14  1  0  0  0  0
 11 15  1  0  0  0  0
 11 16  1  0  0  0  0
 52 54  1  0  0  0  0
 52 55  1  0  0  0  0
 52 56  1  0  0  0  0
 22 32  1  0  0  0  0
 22 33  1  0  0  0  0
 21 30  1  0  0  0  0
 21 31  1  0  0  0  0
 23 34  1  0  0  0  0
 23 35  1  0  0  0  0
 42 47  1  0  0  0  0
  8 13  1  0  0  0  0
 18 29  1  0  0  0  0
 26 37  1  0  0  0  0
 26 38  1  0  0  0  0
 27 39  1  0  0  0  0
 27 40  1  0  0  0  0
 51 53  1  0  0  0  0
  7 12  1  0  0  0  0
 41 46  1  0  0  0  0
 17 28  1  0  0  0  0
 24 36  1  0  0  0  0
M  CHG  1  24   1
M  END
$$$$

  -OEChem-05262214473D

 56 55  0     1  0  0  0  0  0999 V2000
    0.7735   -5.8042   -2.0022 C   0  0  0  0  0  0  0  0  0  0  0  0
   -0.2086   -6.3825   -1.5519 O   0  0  0  0  0  0  0  0  0  0  0  0
    1.4751   -6.3646   -3.1946 C   0  0  0  0  0  0  0  0  0  0  0  0
    2.2765   -7.0687   -2.9186 H   0  0  0  0  0  0  0  0  0  0  0  0
    0.7988   -6.9360   -3.8504 H   0  0  0  0  0  0  0  0  0  0  0  0
    1.9556   -5.6216   -3.8511 H   0  0  0  0  0  0  0  0  0  0  0  0
    1.3322   -4.6359   -1.5106 N   0  0  0  0  0  0  0  0  0  0  0  0
    0.8124   -3.9290   -0.3698 C   0  0  2  0  0  0  0  0  0  0  0  0
    1.0666   -2.4424   -0.5818 C   0  0  0  0  0  0  0  0  0  0  0  0
    2.0598   -2.0076   -1.1610 O   0  0  0  0  0  0  0  0  0  0  0  0
    1.4560   -4.4118    0.9207 C   0  0  0  0  0  0  0  0  0  0  0  0
    2.1528   -4.2578   -1.9805 H   0  0  0  0  0  0  0  0  0  0  0  0
   -0.2667   -4.1160   -0.3467 H   0  0  0  0  0  0  0  0  0  0  0  0
    2.5374   -4.2329    0.9160 H   0  0  0  0  0  0  0  0  0  0  0  0
    1.0390   -3.8932    1.7903 H   0  0  0  0  0  0  0  0  0  0  0  0
    1.2976   -5.4871    1.0566 H   0  0  0  0  0  0  0  0  0  0  0  0
    0.0755   -1.6529   -0.0105 N   0  0  0  0  0  0  0  0  0  0  0  0
    0.1113   -0.2132   -0.0391 C   0  0  2  0  0  0  0  0  0  0  0  0
    0.4952    0.2075   -1.4538 C   0  0  0  0  0  0  0  0  0  0  0  0
   -0.1504   -0.1197   -2.4474 O   0  0  0  0  0  0  0  0  0  0  0  0
    1.1047    0.3584    0.9776 C   0  0  0  0  0  0  0  0  0  0  0  0
    0.6697    0.1041    2.4258 C   0  0  0  0  0  0  0  0  0  0  0  0
    1.6620    0.6752    3.4334 C   0  0  0  0  0  0  0  0  0  0  0  0
    1.2559    0.4105    4.8119 N   0  3  0  0  0  0  0  0  0  0  0  0
    2.0382    0.7837    5.9063 C   0  0  0  0  0  0  0  0  0  0  0  0
    1.5883    0.4991    7.1912 N   0  0  0  0  0  0  0  0  0  0  0  0
    3.2569    1.4341    5.7430 N   0  0  0  0  0  0  0  0  0  0  0  0
   -0.7323   -2.1024    0.4149 H   0  0  0  0  0  0  0  0  0  0  0  0
   -0.9062    0.1341    0.1734 H   0  0  0  0  0  0  0  0  0  0  0  0
    1.2125    1.4376    0.8156 H   0  0  0  0  0  0  0  0  0  0  0  0
    2.0980   -0.0799    0.8135 H   0  0  0  0  0  0  0  0  0  0  0  0
   -0.3196    0.5458    2.5954 H   0  0  0  0  0  0  0  0  0  0  0  0
    0.5813   -0.9745    2.5995 H   0  0  0  0  0  0  0  0  0  0  0  0
    2.6422    0.2105    3.2887 H   0  0  0  0  0  0  0  0  0  0  0  0
    1.7642    1.7578    3.3111 H   0  0  0  0  0  0  0  0  0  0  0  0
    0.3727   -0.0629    4.9941 H   0  0  0  0  0  0  0  0  0  0  0  0
    2.1340    0.7577    8.0098 H   0  0  0  0  0  0  0  0  0  0  0  0
    0.7021    0.0247    7.3464 H   0  0  0  0  0  0  0  0  0  0  0  0
    3.8304    1.7080    6.5366 H   0  0  0  0  0  0  0  0  0  0  0  0
    3.6114    1.6547    4.8153 H   0  0  0  0  0  0  0  0  0  0  0  0
    1.6686    0.9484   -1.4781 N   0  0  0  0  0  0  0  0  0  0  0  0
    2.2718    1.4259   -2.7011 C   0  0  2  0  0  0  0  0  0  0  0  0
    3.7820    1.4440   -2.5049 C   0  0  0  0  0  0  0  0  0  0  0  0
    4.3154    1.7009   -1.4276 O   0  0  0  0  0  0  0  0  0  0  0  0
    1.7550    2.8077   -3.0701 C   0  0  0  0  0  0  0  0  0  0  0  0
    2.1178    1.1993   -0.6023 H   0  0  0  0  0  0  0  0  0  0  0  0
    2.0132    0.7045   -3.4839 H   0  0  0  0  0  0  0  0  0  0  0  0
    2.0046    3.5441   -2.2975 H   0  0  0  0  0  0  0  0  0  0  0  0
    2.1915    3.1561   -4.0120 H   0  0  0  0  0  0  0  0  0  0  0  0
    0.6654    2.7994   -3.1817 H   0  0  0  0  0  0  0  0  0  0  0  0
    4.4647    1.1819   -3.6844 N   0  0  0  0  0  0  0  0  0  0  0  0
    5.9066    1.1844   -3.7677 C   0  0  0  0  0  0  0  0  0  0  0  0
    3.9420    0.9397   -4.5210 H   0  0  0  0  0  0  0  0  0  0  0  0
    6.2553    2.1839   -4.0668 H   0  0  0  0  0  0  0  0  0  0  0  0
    6.3309    0.9268   -2.7861 H   0  0  0  0  0  0  0  0  0  0  0  0
    6.2319    0.4443   -4.5136 H   0  0  0  0  0  0  0  0  0  0  0  0
  1  3  1  0  0  0  0
  1  7  1  0  0  0  0
  1  2  2  0  0  0  0
 42 43  1  0  0  0  0
 43 51  1  0  0  0  0
 43 44  2  0  0  0  0
  8  9  1  0  0  0  0
  9 17  1  0  0  0  0
  9 10  2  0  0  0  0
 18 19  1  0  0  0  0
 19 41  1  0  0  0  0
 19 20  2  0  0  0  0
 25 26  1  0  0  0  0
 25 27  1  0  0  0  0
 24 25  2  0  0  0  0
 42 45  1  0  0  0  0
  8 11  1  0  0  0  0
 51 52  1  0  0  0  0
 21 22  1  0  0  0  0
 22 23  1  0  0  0  0
 18 21  1  0  0  0  0
 23 24  1  0  0  0  0
 41 42  1  0  0  0  0
  7  8  1  0  0  0  0
 17 18  1  0  0  0  0
  3  4  1  0  0  0  0
  3  5  1  0  0  0  0
  3  6  1  0  0  0  0
 45 48  1  0  0  0  0
 45 49  1  0  0  0  0
 45 50  1  0  0  0  0
 11 14  1  0  0  0  0
 11 15  1  0  0  0  0
 11 16  1  0  0  0  0
 52 54  1  0  0  0  0
 52 55  1  0  0  0  0
 52 56  1  0  0  0  0
 22 32  1  0  0  0  0
 22 33  1  0  0  0  0
 21 30  1  0  0  0  0
 21 31  1  0  0  0  0
 23 34  1  0  0  0  0
 23 35  1  0  0  0  0
 42 47  1  0  0  0  0
  8 13  1  0  0  0  0
 18 29  1  0  0  0  0
 26 37  1  0  0  0  0
 26 38  1  0  0  0  0
 27 39  1  0  0  0  0
 27 40  1  0  0  0  0
 51 53  1  0  0  0  0
  7 12  1  0  0  0  0
 41 46  1  0  0  0  0
 17 28  1  0  0  0  0
 24 36  1  0  0  0  0
M  CHG  1  24   1
M  END
$$$$

  -OEChem-05262214473D

 56 55  0     1  0  0  0  0  0999 V2000
    0.7735   -5.8042   -2.0022 C   0  0  0  0  0  0  0  0  0  0  0  0
   -0.2086   -6.3825   -1.5519 O   0  0  0  0  0  0  0  0  0  0  0  0
    1.4751   -6.3646   -3.1946 C   0  0  0  0  0  0  0  0  0  0  0  0
    2.2765   -7.0687   -2.9186 H   0  0  0  0  0  0  0  0  0  0  0  0
    0.7988   -6.9360   -3.8504 H   0  0  0  0  0  0  0  0  0  0  0  0
    1.9556   -5.6216   -3.8511 H   0  0  0  0  0  0  0  0  0  0  0  0
    1.3322   -4.6359   -1.5106 N   0  0  0  0  0  0  0  0  0  0  0  0
    0.8124   -3.9290   -0.3698 C   0  0  2  0  0  0  0  0  0  0  0  0
    1.0666   -2.4424   -0.5818 C   0  0  0  0  0  0  0  0  0  0  0  0
    2.0598   -2.0076   -1.1610 O   0  0  0  0  0  0  0  0  0  0  0  0
    1.4560   -4.4118    0.9207 C   0  0  0  0  0  0  0  0  0  0  0  0
    2.1528   -4.2578   -1.9805 H   0  0  0  0  0  0  0  0  0  0  0  0
   -0.2667   -4.1160   -0.3467 H   0  0  0  0  0  0  0  0  0  0  0  0
    2.5374   -4.2329    0.9160 H   0  0  0  0  0  0  0  0  0  0  0  0
    1.0390   -3.8932    1.7903 H   0  0  0  0  0  0  0  0  0  0  0  0
    1.2976   -5.4871    1.0566 H   0  0  0  0  0  0  0  0  0  0  0  0
    0.0755   -1.6529   -0.0105 N   0  0  0  0  0  0  0  0  0  0  0  0
    0.1113   -0.2132   -0.0391 C   0  0  2  0  0  0  0  0  0  0  0  0
    0.4952    0.2075   -1.4538 C   0  0  0  0  0  0  0  0  0  0  0  0
   -0.2722    0.1175   -2.4099 O   0  0  0  0  0  0  0  0  0  0  0  0
    1.1047    0.3584    0.9776 C   0  0  0  0  0  0  0  0  0  0  0  0
    0.6697    0.1041    2.4258 C   0  0  0  0  0  0  0  0  0  0  0  0
    1.6620    0.6752    3.4334 C   0  0  0  0  0  0  0  0  0  0  0  0
    1.2559    0.4105    4.8119 N   0  3  0  0  0  0  0  0  0  0  0  0
    2.0382    0.7837    5.9063 C   0  0  0  0  0  0  0  0  0  0  0  0
    1.5883    0.4991    7.1912 N   0  0  0  0  0  0  0  0  0  0  0  0
    3.2569    1.4341    5.7430 N   0  0  0  0  0  0  0  0  0  0  0  0
   -0.7323   -2.1024    0.4149 H   0  0  0  0  0  0  0  0  0  0  0  0
   -0.9062    0.1341    0.1734 H   0  0  0  0  0  0  0  0  0  0  0  0
    1.2125    1.4376    0.8156 H   0  0  0  0  0  0  0  0  0  0  0  0
    2.0980   -0.0799    0.8135 H   0  0  0  0  0  0  0  0  0  0  0  0
   -0.3196    0.5458    2.5954 H   0  0  0  0  0  0  0  0  0  0  0  0
    0.5813   -0.9745    2.5995 H   0  0  0  0  0  0  0  0  0  0  0  0
    2.6422    0.2105    3.2887 H   0  0  0  0  0  0  0  0  0  0  0  0
    1.7642    1.7578    3.3111 H   0  0  0  0  0  0  0  0  0  0  0  0
    0.3727   -0.0629    4.9941 H   0  0  0  0  0  0  0  0  0  0  0  0
    2.1340    0.7577    8.0098 H   0  0  0  0  0  0  0  0  0  0  0  0
    0.7021    0.0247    7.3464 H   0  0  0  0  0  0  0  0  0  0  0  0
    3.8304    1.7080    6.5366 H   0  0  0  0  0  0  0  0  0  0  0  0
    3.6114    1.6547    4.8153 H   0  0  0  0  0  0  0  0  0  0  0  0
    1.8093    0.6479   -1.5293 N   0  0  0  0  0  0  0  0  0  0  0  0
    2.4313    1.0574   -2.7674 C   0  0  2  0  0  0  0  0  0  0  0  0
    3.9101    0.7014   -2.6910 C   0  0  0  0  0  0  0  0  0  0  0  0
    4.5572    0.7438   -1.6466 O   0  0  0  0  0  0  0  0  0  0  0  0
    2.2427    2.5458   -3.0157 C   0  0  0  0  0  0  0  0  0  0  0  0
    2.3605    0.7194   -0.6792 H   0  0  0  0  0  0  0  0  0  0  0  0
    1.9565    0.4780   -3.5667 H   0  0  0  0  0  0  0  0  0  0  0  0
    2.7118    3.1426   -2.2250 H   0  0  0  0  0  0  0  0  0  0  0  0
    2.6899    2.8490   -3.9681 H   0  0  0  0  0  0  0  0  0  0  0  0
    1.1787    2.8050   -3.0407 H   0  0  0  0  0  0  0  0  0  0  0  0
    4.4327    0.3723   -3.9339 N   0  0  0  0  0  0  0  0  0  0  0  0
    5.8239    0.0382   -4.1311 C   0  0  0  0  0  0  0  0  0  0  0  0
    3.8149    0.3239   -4.7387 H   0  0  0  0  0  0  0  0  0  0  0  0
    6.3848    0.9455   -4.4001 H   0  0  0  0  0  0  0  0  0  0  0  0
    6.2345   -0.3847   -3.2024 H   0  0  0  0  0  0  0  0  0  0  0  0
    5.9121   -0.7008   -4.9410 H   0  0  0  0  0  0  0  0  0  0  0  0
  1  3  1  0  0  0  0
  1  7  1  0  0  0  0
  1  2  2  0  0  0  0
 42 43  1  0  0  0  0
 43 51  1  0  0  0  0
 43 44  2  0  0  0  0
  8  9  1  0  0  0  0
  9 17  1  0  0  0  0
  9 10  2  0  0  0  0
 18 19  1  0  0  0  0
 19 41  1  0  0  0  0
 19 20  2  0  0  0  0
 25 26  1  0  0  0  0
 25 27  1  0  0  0  0
 24 25  2  0  0  0  0
 42 45  1  0  0  0  0
  8 11  1  0  0  0  0
 51 52  1  0  0  0  0
 21 22  1  0  0  0  0
 22 23  1  0  0  0  0
 18 21  1  0  0  0  0
 23 24  1  0  0  0  0
 41 42  1  0  0  0  0
  7  8  1  0  0  0  0
 17 18  1  0  0  0  0
  3  4  1  0  0  0  0
  3  5  1  0  0  0  0
  3  6  1  0  0  0  0
 45 48  1  0  0  0  0
 45 49  1  0  0  0  0
 45 50  1  0  0  0  0
 11 14  1  0  0  0  0
 11 15  1  0  0  0  0
 11 16  1  0  0  0  0
 52 54  1  0  0  0  0
 52 55  1  0  0  0  0
 52 56  1  0  0  0  0
 22 32  1  0  0  0  0
 22 33  1  0  0  0  0
 21 30  1  0  0  0  0
 21 31  1  0  0  0  0
 23 34  1  0  0  0  0
 23 35  1  0  0  0  0
 42 47  1  0  0  0  0
  8 13  1  0  0  0  0
 18 29  1  0  0  0  0
 26 37  1  0  0  0  0
 26 38  1  0  0  0  0
 27 39  1  0  0  0  0
 27 40  1  0  0  0  0
 51 53  1  0  0  0  0
  7 12  1  0  0  0  0
 41 46  1  0  0  0  0
 17 28  1  0  0  0  0
 24 36  1  0  0  0  0
M  CHG  1  24   1
M  END
$$$$

  -OEChem-05262214473D

 56 55  0     1  0  0  0  0  0999 V2000
    0.7735   -5.8042   -2.0022 C   0  0  0  0  0  0  0  0  0  0  0  0
   -0.2086   -6.3825   -1.5519 O   0  0  0  0  0  0  0  0  0  0  0  0
    1.4751   -6.3646   -3.1946 C   0  0  0  0  0  0  0  0  0  0  0  0
    2.2765   -7.0687   -2.9186 H   0  0  0  0  0  0  0  0  0  0  0  0
    0.7988   -6.9360   -3.8504 H   0  0  0  0  0  0  0  0  0  0  0  0
    1.9556   -5.6216   -3.8511 H   0  0  0  0  0  0  0  0  0  0  0  0
    1.3322   -4.6359   -1.5106 N   0  0  0  0  0  0  0  0  0  0  0  0
    0.8124   -3.9290   -0.3698 C   0  0  2  0  0  0  0  0  0  0  0  0
    1.0666   -2.4424   -0.5818 C   0  0  0  0  0  0  0  0  0  0  0  0
    2.0598   -2.0076   -1.1610 O   0  0  0  0  0  0  0  0  0  0  0  0
    1.4560   -4.4118    0.9207 C   0  0  0  0  0  0  0  0  0  0  0  0
    2.1528   -4.2578   -1.9805 H   0  0  0  0  0  0  0  0  0  0  0  0
   -0.2667   -4.1160   -0.3467 H   0  0  0  0  0  0  0  0  0  0  0  0
    2.5374   -4.2329    0.9160 H   0  0  0  0  0  0  0  0  0  0  0  0
    1.0390   -3.8932    1.7903 H   0  0  0  0  0  0  0  0  0  0  0  0
    1.2976   -5.4871    1.0566 H   0  0  0  0  0  0  0  0  0  0  0  0
    0.0755   -1.6529   -0.0105 N   0  0  0  0  0  0  0  0  0  0  0  0
    0.1113   -0.2132   -0.0391 C   0  0  2  0  0  0  0  0  0  0  0  0
    0.4952    0.2075   -1.4538 C   0  0  0  0  0  0  0  0  0  0  0  0
   -0.3302    0.3734   -2.3495 O   0  0  0  0  0  0  0  0  0  0  0  0
    1.1047    0.3584    0.9776 C   0  0  0  0  0  0  0  0  0  0  0  0
    0.6697    0.1041    2.4258 C   0  0  0  0  0  0  0  0  0  0  0  0
    1.6620    0.6752    3.4334 C   0  0  0  0  0  0  0  0  0  0  0  0
    1.2559    0.4105    4.8119 N   0  3  0  0  0  0  0  0  0  0  0  0
    2.0382    0.7837    5.9063 C   0  0  0  0  0  0  0  0  0  0  0  0
    1.5883    0.4991    7.1912 N   0  0  0  0  0  0  0  0  0  0  0  0
    3.2569    1.4341    5.7430 N   0  0  0  0  0  0  0  0  0  0  0  0
   -0.7323   -2.1024    0.4149 H   0  0  0  0  0  0  0  0  0  0  0  0
   -0.9062    0.1341    0.1734 H   0  0  0  0  0  0  0  0  0  0  0  0
    1.2125    1.4376    0.8156 H   0  0  0  0  0  0  0  0  0  0  0  0
    2.0980   -0.0799    0.8135 H   0  0  0  0  0  0  0  0  0  0  0  0
   -0.3196    0.5458    2.5954 H   0  0  0  0  0  0  0  0  0  0  0  0
    0.5813   -0.9745    2.5995 H   0  0  0  0  0  0  0  0  0  0  0  0
    2.6422    0.2105    3.2887 H   0  0  0  0  0  0  0  0  0  0  0  0
    1.7642    1.7578    3.3111 H   0  0  0  0  0  0  0  0  0  0  0  0
    0.3727   -0.0629    4.9941 H   0  0  0  0  0  0  0  0  0  0  0  0
    2.1340    0.7577    8.0098 H   0  0  0  0  0  0  0  0  0  0  0  0
    0.7021    0.0247    7.3464 H   0  0  0  0  0  0  0  0  0  0  0  0
    3.8304    1.7080    6.5366 H   0  0  0  0  0  0  0  0  0  0  0  0
    3.6114    1.6547    4.8153 H   0  0  0  0  0  0  0  0  0  0  0  0
    1.8693    0.3273   -1.6084 N   0  0  0  0  0  0  0  0  0  0  0  0
    2.4922    0.6674   -2.8669 C   0  0  2  0  0  0  0  0  0  0  0  0
    3.8424   -0.0346   -2.9282 C   0  0  0  0  0  0  0  0  0  0  0  0
    4.5453   -0.2244   -1.9378 O   0  0  0  0  0  0  0  0  0  0  0  0
    2.6547    2.1722   -3.0150 C   0  0  0  0  0  0  0  0  0  0  0  0
    2.4742    0.2027   -0.8020 H   0  0  0  0  0  0  0  0  0  0  0  0
    1.8413    0.2782   -3.6573 H   0  0  0  0  0  0  0  0  0  0  0  0
    3.3038    2.5803   -2.2316 H   0  0  0  0  0  0  0  0  0  0  0  0
    3.1008    2.4299   -3.9813 H   0  0  0  0  0  0  0  0  0  0  0  0
    1.6860    2.6780   -2.9408 H   0  0  0  0  0  0  0  0  0  0  0  0
    4.1896   -0.3856   -4.2253 N   0  0  0  0  0  0  0  0  0  0  0  0
    5.4429   -1.0254   -4.5509 C   0  0  0  0  0  0  0  0  0  0  0  0
    3.5287   -0.2263   -4.9800 H   0  0  0  0  0  0  0  0  0  0  0  0
    6.1888   -0.2602   -4.8119 H   0  0  0  0  0  0  0  0  0  0  0  0
    5.7968   -1.6012   -3.6830 H   0  0  0  0  0  0  0  0  0  0  0  0
    5.2977   -1.7023   -5.4056 H   0  0  0  0  0  0  0  0  0  0  0  0
  1  3  1  0  0  0  0
  1  7  1  0  0  0  0
  1  2  2  0  0  0  0
 42 43  1  0  0  0  0
 43 51  1  0  0  0  0
 43 44  2  0  0  0  0
  8  9  1  0  0  0  0
  9 17  1  0  0  0  0
  9 10  2  0  0  0  0
 18 19  1  0  0  0  0
 19 41  1  0  0  0  0
 19 20  2  0  0  0  0
 25 26  1  0  0  0  0
 25 27  1  0  0  0  0
 24 25  2  0  0  0  0
 42 45  1  0  0  0  0
  8 11  1  0  0  0  0
 51 52  1  0  0  0  0
 21 22  1  0  0  0  0
 22 23  1  0  0  0  0
 18 21  1  0  0  0  0
 23 24  1  0  0  0  0
 41 42  1  0  0  0  0
  7  8  1  0  0  0  0
 17 18  1  0  0  0  0
  3  4  1  0  0  0  0
  3  5  1  0  0  0  0
  3  6  1  0  0  0  0
 45 48  1  0  0  0  0
 45 49  1  0  0  0  0
 45 50  1  0  0  0  0
 11 14  1  0  0  0  0
 11 15  1  0  0  0  0
 11 16  1  0  0  0  0
 52 54  1  0  0  0  0
 52 55  1  0  0  0  0
 52 56  1  0  0  0  0
 22 32  1  0  0  0  0
 22 33  1  0  0  0  0
 21 30  1  0  0  0  0
 21 31  1  0  0  0  0
 23 34  1  0  0  0  0
 23 35  1  0  0  0  0
 42 47  1  0  0  0  0
  8 13  1  0  0  0  0
 18 29  1  0  0  0  0
 26 37  1  0  0  0  0
 26 38  1  0  0  0  0
 27 39  1  0  0  0  0
 27 40  1  0  0  0  0
 51 53  1  0  0  0  0
  7 12  1  0  0  0  0
 41 46  1  0  0  0  0
 17 28  1  0  0  0  0
 24 36  1  0  0  0  0
M  CHG  1  24   1
M  END
$$$$

  -OEChem-05262214473D

 56 55  0     1  0  0  0  0  0999 V2000
    0.7735   -5.8042   -2.0022 C   0  0  0  0  0  0  0  0  0  0  0  0
   -0.2086   -6.3825   -1.5519 O   0  0  0  0  0  0  0  0  0  0  0  0
    1.4751   -6.3646   -3.1946 C   0  0  0  0  0  0  0  0  0  0  0  0
    2.2765   -7.0687   -2.9186 H   0  0  0  0  0  0  0  0  0  0  0  0
    0.7988   -6.9360   -3.8504 H   0  0  0  0  0  0  0  0  0  0  0  0
    1.9556   -5.6216   -3.8511 H   0  0  0  0  0  0  0  0  0  0  0  0
    1.3322   -4.6359   -1.5106 N   0  0  0  0  0  0  0  0  0  0  0  0
    0.8124   -3.9290   -0.3698 C   0  0  2  0  0  0  0  0  0  0  0  0
    1.0666   -2.4424   -0.5818 C   0  0  0  0  0  0  0  0  0  0  0  0
    2.0598   -2.0076   -1.1610 O   0  0  0  0  0  0  0  0  0  0  0  0
    1.4560   -4.4118    0.9207 C   0  0  0  0  0  0  0  0  0  0  0  0
    2.1528   -4.2578   -1.9805 H   0  0  0  0  0  0  0  0  0  0  0  0
   -0.2667   -4.1160   -0.3467 H   0  0  0  0  0  0  0  0  0  0  0  0
    2.5374   -4.2329    0.9160 H   0  0  0  0  0  0  0  0  0  0  0  0
    1.0390   -3.8932    1.7903 H   0  0  0  0  0  0  0  0  0  0  0  0
    1.2976   -5.4871    1.0566 H   0  0  0  0  0  0  0  0  0  0  0  0
    0.0755   -1.6529   -0.0105 N   0  0  0  0  0  0  0  0  0  0  0  0
    0.1113   -0.2132   -0.0391 C   0  0  2  0  0  0  0  0  0  0  0  0
    0.4952    0.2075   -1.4538 C   0  0  0  0  0  0  0  0  0  0  0  0
   -0.3205    0.6306   -2.2703 O   0  0  0  0  0  0  0  0  0  0  0  0
    1.1047    0.3584    0.9776 C   0  0  0  0  0  0  0  0  0  0  0  0
    0.6697    0.1041    2.4258 C   0  0  0  0  0  0  0  0  0  0  0  0
    1.6620    0.6752    3.4334 C   0  0  0  0  0  0  0  0  0  0  0  0
    1.2559    0.4105    4.8119 N   0  3  0  0  0  0  0  0  0  0  0  0
    2.0382    0.7837    5.9063 C   0  0  0  0  0  0  0  0  0  0  0  0
    1.5883    0.4991    7.1912 N   0  0  0  0  0  0  0  0  0  0  0  0
    3.2569    1.4341    5.7430 N   0  0  0  0  0  0  0  0  0  0  0  0
   -0.7323   -2.1024    0.4149 H   0  0  0  0  0  0  0  0  0  0  0  0
   -0.9062    0.1341    0.1734 H   0  0  0  0  0  0  0  0  0  0  0  0
    1.2125    1.4376    0.8156 H   0  0  0  0  0  0  0  0  0  0  0  0
    2.0980   -0.0799    0.8135 H   0  0  0  0  0  0  0  0  0  0  0  0
   -0.3196    0.5458    2.5954 H   0  0  0  0  0  0  0  0  0  0  0  0
    0.5813   -0.9745    2.5995 H   0  0  0  0  0  0  0  0  0  0  0  0
    2.6422    0.2105    3.2887 H   0  0  0  0  0  0  0  0  0  0  0  0
    1.7642    1.7578    3.3111 H   0  0  0  0  0  0  0  0  0  0  0  0
    0.3727   -0.0629    4.9941 H   0  0  0  0  0  0  0  0  0  0  0  0
    2.1340    0.7577    8.0098 H   0  0  0  0  0  0  0  0  0  0  0  0
    0.7021    0.0247    7.3464 H   0  0  0  0  0  0  0  0  0  0  0  0
    3.8304    1.7080    6.5366 H   0  0  0  0  0  0  0  0  0  0  0  0
    3.6114    1.6547    4.8153 H   0  0  0  0  0  0  0  0  0  0  0  0
    1.8447    0.0083   -1.7100 N   0  0  0  0  0  0  0  0  0  0  0  0
    2.4503    0.2826   -2.9927 C   0  0  2  0  0  0  0  0  0  0  0  0
    3.5833   -0.7137   -3.2006 C   0  0  0  0  0  0  0  0  0  0  0  0
    4.2806   -1.1379   -2.2814 O   0  0  0  0  0  0  0  0  0  0  0  0
    2.9631    1.7123   -3.0681 C   0  0  0  0  0  0  0  0  0  0  0  0
    2.4513   -0.3158   -0.9625 H   0  0  0  0  0  0  0  0  0  0  0  0
    1.6756    0.1187   -3.7497 H   0  0  0  0  0  0  0  0  0  0  0  0
    3.7401    1.8954   -2.3170 H   0  0  0  0  0  0  0  0  0  0  0  0
    3.3960    1.9273   -4.0506 H   0  0  0  0  0  0  0  0  0  0  0  0
    2.1526    2.4270   -2.8888 H   0  0  0  0  0  0  0  0  0  0  0  0
    3.7520   -1.0404   -4.5388 N   0  0  0  0  0  0  0  0  0  0  0  0
    4.7895   -1.9339   -4.9984 C   0  0  0  0  0  0  0  0  0  0  0  0
    3.1030   -0.6732   -5.2285 H   0  0  0  0  0  0  0  0  0  0  0  0
    5.6806   -1.3509   -5.2742 H   0  0  0  0  0  0  0  0  0  0  0  0
    5.0476   -2.6399   -4.1953 H   0  0  0  0  0  0  0  0  0  0  0  0
    4.4306   -2.4919   -5.8758 H   0  0  0  0  0  0  0  0  0  0  0  0
  1  3  1  0  0  0  0
  1  7  1  0  0  0  0
  1  2  2  0  0  0  0
 42 43  1  0  0  0  0
 43 51  1  0  0  0  0
 43 44  2  0  0  0  0
  8  9  1  0  0  0  0
  9 17  1  0  0  0  0
  9 10  2  0  0  0  0
 18 19  1  0  0  0  0
 19 41  1  0  0  0  0
 19 20  2  0  0  0  0
 25 26  1  0  0  0  0
 25 27  1  0  0  0  0
 24 25  2  0  0  0  0
 42 45  1  0  0  0  0
  8 11  1  0  0  0  0
 51 52  1  0  0  0  0
 21 22  1  0  0  0  0
 22 23  1  0  0  0  0
 18 21  1  0  0  0  0
 23 24  1  0  0  0  0
 41 42  1  0  0  0  0
  7  8  1  0  0  0  0
 17 18  1  0  0  0  0
  3  4  1  0  0  0  0
  3  5  1  0  0  0  0
  3  6  1  0  0  0  0
 45 48  1  0  0  0  0
 45 49  1  0  0  0  0
 45 50  1  0  0  0  0
 11 14  1  0  0  0  0
 11 15  1  0  0  0  0
 11 16  1  0  0  0  0
 52 54  1  0  0  0  0
 52 55  1  0  0  0  0
 52 56  1  0  0  0  0
 22 32  1  0  0  0  0
 22 33  1  0  0  0  0
 21 30  1  0  0  0  0
 21 31  1  0  0  0  0
 23 34  1  0  0  0  0
 23 35  1  0  0  0  0
 42 47  1  0  0  0  0
  8 13  1  0  0  0  0
 18 29  1  0  0  0  0
 26 37  1  0  0  0  0
 26 38  1  0  0  0  0
 27 39  1  0  0  0  0
 27 40  1  0  0  0  0
 51 53  1  0  0  0  0
  7 12  1  0  0  0  0
 41 46  1  0  0  0  0
 17 28  1  0  0  0  0
 24 36  1  0  0  0  0
M  CHG  1  24   1
M  END
$$$$

  -OEChem-05262214473D

 56 55  0     1  0  0  0  0  0999 V2000
    0.7735   -5.8042   -2.0022 C   0  0  0  0  0  0  0  0  0  0  0  0
   -0.2086   -6.3825   -1.5519 O   0  0  0  0  0  0  0  0  0  0  0  0
    1.4751   -6.3646   -3.1946 C   0  0  0  0  0  0  0  0  0  0  0  0
    2.2765   -7.0687   -2.9186 H   0  0  0  0  0  0  0  0  0  0  0  0
    0.7988   -6.9360   -3.8504 H   0  0  0  0  0  0  0  0  0  0  0  0
    1.9556   -5.6216   -3.8511 H   0  0  0  0  0  0  0  0  0  0  0  0
    1.3322   -4.6359   -1.5106 N   0  0  0  0  0  0  0  0  0  0  0  0
    0.8124   -3.9290   -0.3698 C   0  0  2  0  0  0  0  0  0  0  0  0
    1.0666   -2.4424   -0.5818 C   0  0  0  0  0  0  0  0  0  0  0  0
    2.0598   -2.0076   -1.1610 O   0  0  0  0  0  0  0  0  0  0  0  0
    1.4560   -4.4118    0.9207 C   0  0  0  0  0  0  0  0  0  0  0  0
    2.1528   -4.2578   -1.9805 H   0  0  0  0  0  0  0  0  0  0  0  0
   -0.2667   -4.1160   -0.3467 H   0  0  0  0  0  0  0  0  0  0  0  0
    2.5374   -4.2329    0.9160 H   0  0  0  0  0  0  0  0  0  0  0  0
    1.0390   -3.8932    1.7903 H   0  0  0  0  0  0  0  0  0  0  0  0
    1.2976   -5.4871    1.0566 H   0  0  0  0  0  0  0  0  0  0  0  0
    0.0755   -1.6529   -0.0105 N   0  0  0  0  0  0  0  0  0  0  0  0
    0.1113   -0.2132   -0.0391 C   0  0  2  0  0  0  0  0  0  0  0  0
    0.4952    0.2075   -1.4538 C   0  0  0  0  0  0  0  0  0  0  0  0
   -0.2437    0.8715   -2.1778 O   0  0  0  0  0  0  0  0  0  0  0  0
    1.1047    0.3584    0.9776 C   0  0  0  0  0  0  0  0  0  0  0  0
    0.6697    0.1041    2.4258 C   0  0  0  0  0  0  0  0  0  0  0  0
    1.6620    0.6752    3.4334 C   0  0  0  0  0  0  0  0  0  0  0  0
    1.2559    0.4105    4.8119 N   0  3  0  0  0  0  0  0  0  0  0  0
    2.0382    0.7837    5.9063 C   0  0  0  0  0  0  0  0  0  0  0  0
    1.5883    0.4991    7.1912 N   0  0  0  0  0  0  0  0  0  0  0  0
    3.2569    1.4341    5.7430 N   0  0  0  0  0  0  0  0  0  0  0  0
   -0.7323   -2.1024    0.4149 H   0  0  0  0  0  0  0  0  0  0  0  0
   -0.9062    0.1341    0.1734 H   0  0  0  0  0  0  0  0  0  0  0  0
    1.2125    1.4376    0.8156 H   0  0  0  0  0  0  0  0  0  0  0  0
    2.0980   -0.0799    0.8135 H   0  0  0  0  0  0  0  0  0  0  0  0
   -0.3196    0.5458    2.5954 H   0  0  0  0  0  0  0  0  0  0  0  0
    0.5813   -0.9745    2.5995 H   0  0  0  0  0  0  0  0  0  0  0  0
    2.6422    0.2105    3.2887 H   0  0  0  0  0  0  0  0  0  0  0  0
    1.7642    1.7578    3.3111 H   0  0  0  0  0  0  0  0  0  0  0  0
    0.3727   -0.0629    4.9941 H   0  0  0  0  0  0  0  0  0  0  0  0
    2.1340    0.7577    8.0098 H   0  0  0  0  0  0  0  0  0  0  0  0
    0.7021    0.0247    7.3464 H   0  0  0  0  0  0  0  0  0  0  0  0
    3.8304    1.7080    6.5366 H   0  0  0  0  0  0  0  0  0  0  0  0
    3.6114    1.6547    4.8153 H   0  0  0  0  0  0  0  0  0  0  0  0
    1.7370   -0.2873   -1.8271 N   0  0  0  0  0  0  0  0  0  0  0  0
    2.3085   -0.0708   -3.1363 C   0  0  2  0  0  0  0  0  0  0  0  0
    3.1505   -1.2898   -3.4893 C   0  0  0  0  0  0  0  0  0  0  0  0
    3.7811   -1.9342   -2.6538 O   0  0  0  0  0  0  0  0  0  0  0  0
    3.1467    1.1976   -3.1714 C   0  0  0  0  0  0  0  0  0  0  0  0
    2.2931   -0.8006   -1.1496 H   0  0  0  0  0  0  0  0  0  0  0  0
    1.4707    0.0105   -3.8375 H   0  0  0  0  0  0  0  0  0  0  0  0
    3.9910    1.1346   -2.4751 H   0  0  0  0  0  0  0  0  0  0  0  0
    3.5556    1.3754   -4.1715 H   0  0  0  0  0  0  0  0  0  0  0  0
    2.5467    2.0692   -2.8883 H   0  0  0  0  0  0  0  0  0  0  0  0
    3.1497   -1.5474   -4.8531 N   0  0  0  0  0  0  0  0  0  0  0  0
    3.9083   -2.6255   -5.4432 C   0  0  0  0  0  0  0  0  0  0  0  0
    2.5667   -0.9866   -5.4672 H   0  0  0  0  0  0  0  0  0  0  0  0
    4.8948   -2.2523   -5.7556 H   0  0  0  0  0  0  0  0  0  0  0  0
    4.0379   -3.4299   -4.7043 H   0  0  0  0  0  0  0  0  0  0  0  0
    3.3699   -3.0158   -6.3195 H   0  0  0  0  0  0  0  0  0  0  0  0
  1  3  1  0  0  0  0
  1  7  1  0  0  0  0
  1  2  2  0  0  0  0
 42 43  1  0  0  0  0
 43 51  1  0  0  0  0
 43 44  2  0  0  0  0
  8  9  1  0  0  0  0
  9 17  1  0  0  0  0
  9 10  2  0  0  0  0
 18 19  1  0  0  0  0
 19 41  1  0  0  0  0
 19 20  2  0  0  0  0
 25 26  1  0  0  0  0
 25 27  1  0  0  0  0
 24 25  2  0  0  0  0
 42 45  1  0  0  0  0
  8 11  1  0  0  0  0
 51 52  1  0  0  0  0
 21 22  1  0  0  0  0
 22 23  1  0  0  0  0
 18 21  1  0  0  0  0
 23 24  1  0  0  0  0
 41 42  1  0  0  0  0
  7  8  1  0  0  0  0
 17 18  1  0  0  0  0
  3  4  1  0  0  0  0
  3  5  1  0  0  0  0
  3  6  1  0  0  0  0
 45 48  1  0  0  0  0
 45 49  1  0  0  0  0
 45 50  1  0  0  0  0
 11 14  1  0  0  0  0
 11 15  1  0  0  0  0
 11 16  1  0  0  0  0
 52 54  1  0  0  0  0
 52 55  1  0  0  0  0
 52 56  1  0  0  0  0
 22 32  1  0  0  0  0
 22 33  1  0  0  0  0
 21 30  1  0  0  0  0
 21 31  1  0  0  0  0
 23 34  1  0  0  0  0
 23 35  1  0  0  0  0
 42 47  1  0  0  0  0
  8 13  1  0  0  0  0
 18 29  1  0  0  0  0
 26 37  1  0  0  0  0
 26 38  1  0  0  0  0
 27 39  1  0  0  0  0
 27 40  1  0  0  0  0
 51 53  1  0  0  0  0
  7 12  1  0  0  0  0
 41 46  1  0  0  0  0
 17 28  1  0  0  0  0
 24 36  1  0  0  0  0
M  CHG  1  24   1
M  END
$$$$

  -OEChem-05262214473D

 56 55  0     1  0  0  0  0  0999 V2000
    0.7735   -5.8042   -2.0022 C   0  0  0  0  0  0  0  0  0  0  0  0
   -0.2086   -6.3825   -1.5519 O   0  0  0  0  0  0  0  0  0  0  0  0
    1.4751   -6.3646   -3.1946 C   0  0  0  0  0  0  0  0  0  0  0  0
    2.2765   -7.0687   -2.9186 H   0  0  0  0  0  0  0  0  0  0  0  0
    0.7988   -6.9360   -3.8504 H   0  0  0  0  0  0  0  0  0  0  0  0
    1.9556   -5.6216   -3.8511 H   0  0  0  0  0  0  0  0  0  0  0  0
    1.3322   -4.6359   -1.5106 N   0  0  0  0  0  0  0  0  0  0  0  0
    0.8124   -3.9290   -0.3698 C   0  0  2  0  0  0  0  0  0  0  0  0
    1.0666   -2.4424   -0.5818 C   0  0  0  0  0  0  0  0  0  0  0  0
    2.0598   -2.0076   -1.1610 O   0  0  0  0  0  0  0  0  0  0  0  0
    1.4560   -4.4118    0.9207 C   0  0  0  0  0  0  0  0  0  0  0  0
    2.1528   -4.2578   -1.9805 H   0  0  0  0  0  0  0  0  0  0  0  0
   -0.2667   -4.1160   -0.3467 H   0  0  0  0  0  0  0  0  0  0  0  0
    2.5374   -4.2329    0.9160 H   0  0  0  0  0  0  0  0  0  0  0  0
    1.0390   -3.8932    1.7903 H   0  0  0  0  0  0  0  0  0  0  0  0
    1.2976   -5.4871    1.0566 H   0  0  0  0  0  0  0  0  0  0  0  0
    0.0755   -1.6529   -0.0105 N   0  0  0  0  0  0  0  0  0  0  0  0
    0.1113   -0.2132   -0.0391 C   0  0  2  0  0  0  0  0  0  0  0  0
    0.4952    0.2075   -1.4538 C   0  0  0  0  0  0  0  0  0  0  0  0
   -0.1051    1.0798   -2.0783 O   0  0  0  0  0  0  0  0  0  0  0  0
    1.1047    0.3584    0.9776 C   0  0  0  0  0  0  0  0  0  0  0  0
    0.6697    0.1041    2.4258 C   0  0  0  0  0  0  0  0  0  0  0  0
    1.6620    0.6752    3.4334 C   0  0  0  0  0  0  0  0  0  0  0  0
    1.2559    0.4105    4.8119 N   0  3  0  0  0  0  0  0  0  0  0  0
    2.0382    0.7837    5.9063 C   0  0  0  0  0  0  0  0  0  0  0  0
    1.5883    0.4991    7.1912 N   0  0  0  0  0  0  0  0  0  0  0  0
    3.2569    1.4341    5.7430 N   0  0  0  0  0  0  0  0  0  0  0  0
   -0.7323   -2.1024    0.4149 H   0  0  0  0  0  0  0  0  0  0  0  0
   -0.9062    0.1341    0.1734 H   0  0  0  0  0  0  0  0  0  0  0  0
    1.2125    1.4376    0.8156 H   0  0  0  0  0  0  0  0  0  0  0  0
    2.0980   -0.0799    0.8135 H   0  0  0  0  0  0  0  0  0  0  0  0
   -0.3196    0.5458    2.5954 H   0  0  0  0  0  0  0  0  0  0  0  0
    0.5813   -0.9745    2.5995 H   0  0  0  0  0  0  0  0  0  0  0  0
    2.6422    0.2105    3.2887 H   0  0  0  0  0  0  0  0  0  0  0  0
    1.7642    1.7578    3.3111 H   0  0  0  0  0  0  0  0  0  0  0  0
    0.3727   -0.0629    4.9941 H   0  0  0  0  0  0  0  0  0  0  0  0
    2.1340    0.7577    8.0098 H   0  0  0  0  0  0  0  0  0  0  0  0
    0.7021    0.0247    7.3464 H   0  0  0  0  0  0  0  0  0  0  0  0
    3.8304    1.7080    6.5366 H   0  0  0  0  0  0  0  0  0  0  0  0
    3.6114    1.6547    4.8153 H   0  0  0  0  0  0  0  0  0  0  0  0
    1.5537   -0.5394   -1.9518 N   0  0  0  0  0  0  0  0  0  0  0  0
    2.0763   -0.3688   -3.2880 C   0  0  2  0  0  0  0  0  0  0  0  0
    2.5736   -1.7235   -3.7749 C   0  0  0  0  0  0  0  0  0  0  0  0
    3.0808   -2.5593   -3.0298 O   0  0  0  0  0  0  0  0  0  0  0  0
    3.1931    0.6630   -3.3178 C   0  0  0  0  0  0  0  0  0  0  0  0
    2.0106   -1.2187   -1.3506 H   0  0  0  0  0  0  0  0  0  0  0  0
    1.2406   -0.0391   -3.9147 H   0  0  0  0  0  0  0  0  0  0  0  0
    4.0394    0.3499   -2.6954 H   0  0  0  0  0  0  0  0  0  0  0  0
    3.5687    0.8119   -4.3356 H   0  0  0  0  0  0  0  0  0  0  0  0
    2.8416    1.6289   -2.9393 H   0  0  0  0  0  0  0  0  0  0  0  0
    2.4238   -1.8721   -5.1466 N   0  0  0  0  0  0  0  0  0  0  0  0
    2.8594   -3.0529   -5.8551 C   0  0  0  0  0  0  0  0  0  0  0  0
    1.9564   -1.1449   -5.6799 H   0  0  0  0  0  0  0  0  0  0  0  0
    3.8851   -2.9029   -6.2231 H   0  0  0  0  0  0  0  0  0  0  0  0
    2.8367   -3.9175   -5.1753 H   0  0  0  0  0  0  0  0  0  0  0  0
    2.1879   -3.2382   -6.7064 H   0  0  0  0  0  0  0  0  0  0  0  0
  1  3  1  0  0  0  0
  1  7  1  0  0  0  0
  1  2  2  0  0  0  0
 42 43  1  0  0  0  0
 43 51  1  0  0  0  0
 43 44  2  0  0  0  0
  8  9  1  0  0  0  0
  9 17  1  0  0  0  0
  9 10  2  0  0  0  0
 18 19  1  0  0  0  0
 19 41  1  0  0  0  0
 19 20  2  0  0  0  0
 25 26  1  0  0  0  0
 25 27  1  0  0  0  0
 24 25  2  0  0  0  0
 42 45  1  0  0  0  0
  8 11  1  0  0  0  0
 51 52  1  0  0  0  0
 21 22  1  0  0  0  0
 22 23  1  0  0  0  0
 18 21  1  0  0  0  0
 23 24  1  0  0  0  0
 41 42  1  0  0  0  0
  7  8  1  0  0  0  0
 17 18  1  0  0  0  0
  3  4  1  0  0  0  0
  3  5  1  0  0  0  0
  3  6  1  0  0  0  0
 45 48  1  0  0  0  0
 45 49  1  0  0  0  0
 45 50  1  0  0  0  0
 11 14  1  0  0  0  0
 11 15  1  0  0  0  0
 11 16  1  0  0  0  0
 52 54  1  0  0  0  0
 52 55  1  0  0  0  0
 52 56  1  0  0  0  0
 22 32  1  0  0  0  0
 22 33  1  0  0  0  0
 21 30  1  0  0  0  0
 21 31  1  0  0  0  0
 23 34  1  0  0  0  0
 23 35  1  0  0  0  0
 42 47  1  0  0  0  0
  8 13  1  0  0  0  0
 18 29  1  0  0  0  0
 26 37  1  0  0  0  0
 26 38  1  0  0  0  0
 27 39  1  0  0  0  0
 27 40  1  0  0  0  0
 51 53  1  0  0  0  0
  7 12  1  0  0  0  0
 41 46  1  0  0  0  0
 17 28  1  0  0  0  0
 24 36  1  0  0  0  0
M  CHG  1  24   1
M  END
$$$$

  -OEChem-05262214473D

 56 55  0     1  0  0  0  0  0999 V2000
    0.7735   -5.8042   -2.0022 C   0  0  0  0  0  0  0  0  0  0  0  0
   -0.2086   -6.3825   -1.5519 O   0  0  0  0  0  0  0  0  0  0  0  0
    1.4751   -6.3646   -3.1946 C   0  0  0  0  0  0  0  0  0  0  0  0
    2.2765   -7.0687   -2.9186 H   0  0  0  0  0  0  0  0  0  0  0  0
    0.7988   -6.9360   -3.8504 H   0  0  0  0  0  0  0  0  0  0  0  0
    1.9556   -5.6216   -3.8511 H   0  0  0  0  0  0  0  0  0  0  0  0
    1.3322   -4.6359   -1.5106 N   0  0  0  0  0  0  0  0  0  0  0  0
    0.8124   -3.9290   -0.3698 C   0  0  2  0  0  0  0  0  0  0  0  0
    1.0666   -2.4424   -0.5818 C   0  0  0  0  0  0  0  0  0  0  0  0
    2.0598   -2.0076   -1.1610 O   0  0  0  0  0  0  0  0  0  0  0  0
    1.4560   -4.4118    0.9207 C   0  0  0  0  0  0  0  0  0  0  0  0
    2.1528   -4.2578   -1.9805 H   0  0  0  0  0  0  0  0  0  0  0  0
   -0.2667   -4.1160   -0.3467 H   0  0  0  0  0  0  0  0  0  0  0  0
    2.5374   -4.2329    0.9160 H   0  0  0  0  0  0  0  0  0  0  0  0
    1.0390   -3.8932    1.7903 H   0  0  0  0  0  0  0  0  0  0  0  0
    1.2976   -5.4871    1.0566 H   0  0  0  0  0  0  0  0  0  0  0  0
    0.0755   -1.6529   -0.0105 N   0  0  0  0  0  0  0  0  0  0  0  0
    0.1113   -0.2132   -0.0391 C   0  0  2  0  0  0  0  0  0  0  0  0
    0.4952    0.2075   -1.4538 C   0  0  0  0  0  0  0  0  0  0  0  0
    0.0859    1.2411   -1.9784 O   0  0  0  0  0  0  0  0  0  0  0  0
    1.1047    0.3584    0.9776 C   0  0  0  0  0  0  0  0  0  0  0  0
    0.6697    0.1041    2.4258 C   0  0  0  0  0  0  0  0  0  0  0  0
    1.6620    0.6752    3.4334 C   0  0  0  0  0  0  0  0  0  0  0  0
    1.2559    0.4105    4.8119 N   0  3  0  0  0  0  0  0  0  0  0  0
    2.0382    0.7837    5.9063 C   0  0  0  0  0  0  0  0  0  0  0  0
    1.5883    0.4991    7.1912 N   0  0  0  0  0  0  0  0  0  0  0  0
    3.2569    1.4341    5.7430 N   0  0  0  0  0  0  0  0  0  0  0  0
   -0.7323   -2.1024    0.4149 H   0  0  0  0  0  0  0  0  0  0  0  0
   -0.9062    0.1341    0.1734 H   0  0  0  0  0  0  0  0  0  0  0  0
    1.2125    1.4376    0.8156 H   0  0  0  0  0  0  0  0  0  0  0  0
    2.0980   -0.0799    0.8135 H   0  0  0  0  0  0  0  0  0  0  0  0
   -0.3196    0.5458    2.5954 H   0  0  0  0  0  0  0  0  0  0  0  0
    0.5813   -0.9745    2.5995 H   0  0  0  0  0  0  0  0  0  0  0  0
    2.6422    0.2105    3.2887 H   0  0  0  0  0  0  0  0  0  0  0  0
    1.7642    1.7578    3.3111 H   0  0  0  0  0  0  0  0  0  0  0  0
    0.3727   -0.0629    4.9941 H   0  0  0  0  0  0  0  0  0  0  0  0
    2.1340    0.7577    8.0098 H   0  0  0  0  0  0  0  0  0  0  0  0
    0.7021    0.0247    7.3464 H   0  0  0  0  0  0  0  0  0  0  0  0
    3.8304    1.7080    6.5366 H   0  0  0  0  0  0  0  0  0  0  0  0
    3.6114    1.6547    4.8153 H   0  0  0  0  0  0  0  0  0  0  0  0
    1.3073   -0.7307   -2.0756 N   0  0  0  0  0  0  0  0  0  0  0  0
    1.7697   -0.5910   -3.4373 C   0  0  2  0  0  0  0  0  0  0  0  0
    1.8918   -1.9853   -4.0378 C   0  0  0  0  0  0  0  0  0  0  0  0
    2.2274   -2.9704   -3.3836 O   0  0  0  0  0  0  0  0  0  0  0  0
    3.0992    0.1450   -3.4974 C   0  0  0  0  0  0  0  0  0  0  0  0
    1.6230   -1.5417   -1.5519 H   0  0  0  0  0  0  0  0  0  0  0  0
    1.0009   -0.0267   -3.9761 H   0  0  0  0  0  0  0  0  0  0  0  0
    3.8820   -0.4054   -2.9628 H   0  0  0  0  0  0  0  0  0  0  0  0
    3.4342    0.2751   -4.5317 H   0  0  0  0  0  0  0  0  0  0  0  0
    3.0171    1.1361   -3.0382 H   0  0  0  0  0  0  0  0  0  0  0  0
    1.6237   -1.9923   -5.3995 N   0  0  0  0  0  0  0  0  0  0  0  0
    1.7141   -3.1872   -6.2058 C   0  0  0  0  0  0  0  0  0  0  0  0
    1.3137   -1.1374   -5.8521 H   0  0  0  0  0  0  0  0  0  0  0  0
    2.7201   -3.2585   -6.6450 H   0  0  0  0  0  0  0  0  0  0  0  0
    1.5257   -4.0693   -5.5762 H   0  0  0  0  0  0  0  0  0  0  0  0
    0.9651   -3.1441   -7.0102 H   0  0  0  0  0  0  0  0  0  0  0  0
  1  3  1  0  0  0  0
  1  7  1  0  0  0  0
  1  2  2  0  0  0  0
 42 43  1  0  0  0  0
 43 51  1  0  0  0  0
 43 44  2  0  0  0  0
  8  9  1  0  0  0  0
  9 17  1  0  0  0  0
  9 10  2  0  0  0  0
 18 19  1  0  0  0  0
 19 41  1  0  0  0  0
 19 20  2  0  0  0  0
 25 26  1  0  0  0  0
 25 27  1  0  0  0  0
 24 25  2  0  0  0  0
 42 45  1  0  0  0  0
  8 11  1  0  0  0  0
 51 52  1  0  0  0  0
 21 22  1  0  0  0  0
 22 23  1  0  0  0  0
 18 21  1  0  0  0  0
 23 24  1  0  0  0  0
 41 42  1  0  0  0  0
  7  8  1  0  0  0  0
 17 18  1  0  0  0  0
  3  4  1  0  0  0  0
  3  5  1  0  0  0  0
  3  6  1  0  0  0  0
 45 48  1  0  0  0  0
 45 49  1  0  0  0  0
 45 50  1  0  0  0  0
 11 14  1  0  0  0  0
 11 15  1  0  0  0  0
 11 16  1  0  0  0  0
 52 54  1  0  0  0  0
 52 55  1  0  0  0  0
 52 56  1  0  0  0  0
 22 32  1  0  0  0  0
 22 33  1  0  0  0  0
 21 30  1  0  0  0  0
 21 31  1  0  0  0  0
 23 34  1  0  0  0  0
 23 35  1  0  0  0  0
 42 47  1  0  0  0  0
  8 13  1  0  0  0  0
 18 29  1  0  0  0  0
 26 37  1  0  0  0  0
 26 38  1  0  0  0  0
 27 39  1  0  0  0  0
 27 40  1  0  0  0  0
 51 53  1  0  0  0  0
  7 12  1  0  0  0  0
 41 46  1  0  0  0  0
 17 28  1  0  0  0  0
 24 36  1  0  0  0  0
M  CHG  1  24   1
M  END
$$$$

  -OEChem-05262214473D

 56 55  0     1  0  0  0  0  0999 V2000
    0.7735   -5.8042   -2.0022 C   0  0  0  0  0  0  0  0  0  0  0  0
   -0.2086   -6.3825   -1.5519 O   0  0  0  0  0  0  0  0  0  0  0  0
    1.4751   -6.3646   -3.1946 C   0  0  0  0  0  0  0  0  0  0  0  0
    2.2765   -7.0687   -2.9186 H   0  0  0  0  0  0  0  0  0  0  0  0
    0.7988   -6.9360   -3.8504 H   0  0  0  0  0  0  0  0  0  0  0  0
    1.9556   -5.6216   -3.8511 H   0  0  0  0  0  0  0  0  0  0  0  0
    1.3322   -4.6359   -1.5106 N   0  0  0  0  0  0  0  0  0  0  0  0
    0.8124   -3.9290   -0.3698 C   0  0  2  0  0  0  0  0  0  0  0  0
    1.0666   -2.4424   -0.5818 C   0  0  0  0  0  0  0  0  0  0  0  0
    2.0598   -2.0076   -1.1610 O   0  0  0  0  0  0  0  0  0  0  0  0
    1.4560   -4.4118    0.9207 C   0  0  0  0  0  0  0  0  0  0  0  0
    2.1528   -4.2578   -1.9805 H   0  0  0  0  0  0  0  0  0  0  0  0
   -0.2667   -4.1160   -0.3467 H   0  0  0  0  0  0  0  0  0  0  0  0
    2.5374   -4.2329    0.9160 H   0  0  0  0  0  0  0  0  0  0  0  0
    1.0390   -3.8932    1.7903 H   0  0  0  0  0  0  0  0  0  0  0  0
    1.2976   -5.4871    1.0566 H   0  0  0  0  0  0  0  0  0  0  0  0
    0.0755   -1.6529   -0.0105 N   0  0  0  0  0  0  0  0  0  0  0  0
    0.1113   -0.2132   -0.0391 C   0  0  2  0  0  0  0  0  0  0  0  0
    0.4952    0.2075   -1.4538 C   0  0  0  0  0  0  0  0  0  0  0  0
    0.3163    1.3447   -1.8851 O   0  0  0  0  0  0  0  0  0  0  0  0
    1.1047    0.3584    0.9776 C   0  0  0  0  0  0  0  0  0  0  0  0
    0.6697    0.1041    2.4258 C   0  0  0  0  0  0  0  0  0  0  0  0
    1.6620    0.6752    3.4334 C   0  0  0  0  0  0  0  0  0  0  0  0
    1.2559    0.4105    4.8119 N   0  3  0  0  0  0  0  0  0  0  0  0
    2.0382    0.7837    5.9063 C   0  0  0  0  0  0  0  0  0  0  0  0
    1.5883    0.4991    7.1912 N   0  0  0  0  0  0  0  0  0  0  0  0
    3.2569    1.4341    5.7430 N   0  0  0  0  0  0  0  0  0  0  0  0
   -0.7323   -2.1024    0.4149 H   0  0  0  0  0  0  0  0  0  0  0  0
   -0.9062    0.1341    0.1734 H   0  0  0  0  0  0  0  0  0  0  0  0
    1.2125    1.4376    0.8156 H   0  0  0  0  0  0  0  0  0  0  0  0
    2.0980   -0.0799    0.8135 H   0  0  0  0  0  0  0  0  0  0  0  0
   -0.3196    0.5458    2.5954 H   0  0  0  0  0  0  0  0  0  0  0  0
    0.5813   -0.9745    2.5995 H   0  0  0  0  0  0  0  0  0  0  0  0
    2.6422    0.2105    3.2887 H   0  0  0  0  0  0  0  0  0  0  0  0
    1.7642    1.7578    3.3111 H   0  0  0  0  0  0  0  0  0  0  0  0
    0.3727   -0.0629    4.9941 H   0  0  0  0  0  0  0  0  0  0  0  0
    2.1340    0.7577    8.0098 H   0  0  0  0  0  0  0  0  0  0  0  0
    0.7021    0.0247    7.3464 H   0  0  0  0  0  0  0  0  0  0  0  0
    3.8304    1.7080    6.5366 H   0  0  0  0  0  0  0  0  0  0  0  0
    3.6114    1.6547    4.8153 H   0  0  0  0  0  0  0  0  0  0  0  0
    1.0144   -0.8482   -2.1901 N   0  0  0  0  0  0  0  0  0  0  0  0
    1.4096   -0.7223   -3.5740 C   0  0  2  0  0  0  0  0  0  0  0  0
    1.1516   -2.0573   -4.2601 C   0  0  0  0  0  0  0  0  0  0  0  0
    1.2792   -3.1396   -3.6913 O   0  0  0  0  0  0  0  0  0  0  0  0
    2.8712   -0.3211   -3.6979 C   0  0  0  0  0  0  0  0  0  0  0  0
    1.1567   -1.7475   -1.7397 H   0  0  0  0  0  0  0  0  0  0  0  0
    0.7679    0.0468   -4.0175 H   0  0  0  0  0  0  0  0  0  0  0  0
    3.5295   -1.0797   -3.2590 H   0  0  0  0  0  0  0  0  0  0  0  0
    3.1615   -0.1983   -4.7465 H   0  0  0  0  0  0  0  0  0  0  0  0
    3.0612    0.6244   -3.1785 H   0  0  0  0  0  0  0  0  0  0  0  0
    0.8039   -1.8998   -5.5945 N   0  0  0  0  0  0  0  0  0  0  0  0
    0.5506   -3.0190   -6.4715 C   0  0  0  0  0  0  0  0  0  0  0  0
    0.6823   -0.9647   -5.9721 H   0  0  0  0  0  0  0  0  0  0  0  0
    1.4793   -3.2948   -6.9925 H   0  0  0  0  0  0  0  0  0  0  0  0
    0.1943   -3.8751   -5.8797 H   0  0  0  0  0  0  0  0  0  0  0  0
   -0.2151   -2.7398   -7.2102 H   0  0  0  0  0  0  0  0  0  0  0  0
  1  3  1  0  0  0  0
  1  7  1  0  0  0  0
  1  2  2  0  0  0  0
 42 43  1  0  0  0  0
 43 51  1  0  0  0  0
 43 44  2  0  0  0  0
  8  9  1  0  0  0  0
  9 17  1  0  0  0  0
  9 10  2  0  0  0  0
 18 19  1  0  0  0  0
 19 41  1  0  0  0  0
 19 20  2  0  0  0  0
 25 26  1  0  0  0  0
 25 27  1  0  0  0  0
 24 25  2  0  0  0  0
 42 45  1  0  0  0  0
  8 11  1  0  0  0  0
 51 52  1  0  0  0  0
 21 22  1  0  0  0  0
 22 23  1  0  0  0  0
 18 21  1  0  0  0  0
 23 24  1  0  0  0  0
 41 42  1  0  0  0  0
  7  8  1  0  0  0  0
 17 18  1  0  0  0  0
  3  4  1  0  0  0  0
  3  5  1  0  0  0  0
  3  6  1  0  0  0  0
 45 48  1  0  0  0  0
 45 49  1  0  0  0  0
 45 50  1  0  0  0  0
 11 14  1  0  0  0  0
 11 15  1  0  0  0  0
 11 16  1  0  0  0  0
 52 54  1  0  0  0  0
 52 55  1  0  0  0  0
 52 56  1  0  0  0  0
 22 32  1  0  0  0  0
 22 33  1  0  0  0  0
 21 30  1  0  0  0  0
 21 31  1  0  0  0  0
 23 34  1  0  0  0  0
 23 35  1  0  0  0  0
 42 47  1  0  0  0  0
  8 13  1  0  0  0  0
 18 29  1  0  0  0  0
 26 37  1  0  0  0  0
 26 38  1  0  0  0  0
 27 39  1  0  0  0  0
 27 40  1  0  0  0  0
 51 53  1  0  0  0  0
  7 12  1  0  0  0  0
 41 46  1  0  0  0  0
 17 28  1  0  0  0  0
 24 36  1  0  0  0  0
M  CHG  1  24   1
M  END
$$$$

  -OEChem-05262214473D

 56 55  0     1  0  0  0  0  0999 V2000
    0.7735   -5.8042   -2.0022 C   0  0  0  0  0  0  0  0  0  0  0  0
   -0.2086   -6.3825   -1.5519 O   0  0  0  0  0  0  0  0  0  0  0  0
    1.4751   -6.3646   -3.1946 C   0  0  0  0  0  0  0  0  0  0  0  0
    2.2765   -7.0687   -2.9186 H   0  0  0  0  0  0  0  0  0  0  0  0
    0.7988   -6.9360   -3.8504 H   0  0  0  0  0  0  0  0  0  0  0  0
    1.9556   -5.6216   -3.8511 H   0  0  0  0  0  0  0  0  0  0  0  0
    1.3322   -4.6359   -1.5106 N   0  0  0  0  0  0  0  0  0  0  0  0
    0.8124   -3.9290   -0.3698 C   0  0  2  0  0  0  0  0  0  0  0  0
    1.0666   -2.4424   -0.5818 C   0  0  0  0  0  0  0  0  0  0  0  0
    2.0598   -2.0076   -1.1610 O   0  0  0  0  0  0  0  0  0  0  0  0
    1.4560   -4.4118    0.9207 C   0  0  0  0  0  0  0  0  0  0  0  0
    2.1528   -4.2578   -1.9805 H   0  0  0  0  0  0  0  0  0  0  0  0
   -0.2667   -4.1160   -0.3467 H   0  0  0  0  0  0  0  0  0  0  0  0
    2.5374   -4.2329    0.9160 H   0  0  0  0  0  0  0  0  0  0  0  0
    1.0390   -3.8932    1.7903 H   0  0  0  0  0  0  0  0  0  0  0  0
    1.2976   -5.4871    1.0566 H   0  0  0  0  0  0  0  0  0  0  0  0
    0.0755   -1.6529   -0.0105 N   0  0  0  0  0  0  0  0  0  0  0  0
    0.1113   -0.2132   -0.0391 C   0  0  2  0  0  0  0  0  0  0  0  0
    0.4952    0.2075   -1.4538 C   0  0  0  0  0  0  0  0  0  0  0  0
    0.5703    1.3833   -1.8047 O   0  0  0  0  0  0  0  0  0  0  0  0
    1.1047    0.3584    0.9776 C   0  0  0  0  0  0  0  0  0  0  0  0
    0.6697    0.1041    2.4258 C   0  0  0  0  0  0  0  0  0  0  0  0
    1.6620    0.6752    3.4334 C   0  0  0  0  0  0  0  0  0  0  0  0
    1.2559    0.4105    4.8119 N   0  3  0  0  0  0  0  0  0  0  0  0
    2.0382    0.7837    5.9063 C   0  0  0  0  0  0  0  0  0  0  0  0
    1.5883    0.4991    7.1912 N   0  0  0  0  0  0  0  0  0  0  0  0
    3.2569    1.4341    5.7430 N   0  0  0  0  0  0  0  0  0  0  0  0
   -0.7323   -2.1024    0.4149 H   0  0  0  0  0  0  0  0  0  0  0  0
   -0.9062    0.1341    0.1734 H   0  0  0  0  0  0  0  0  0  0  0  0
    1.2125    1.4376    0.8156 H   0  0  0  0  0  0  0  0  0  0  0  0
    2.0980   -0.0799    0.8135 H   0  0  0  0  0  0  0  0  0  0  0  0
   -0.3196    0.5458    2.5954 H   0  0  0  0  0  0  0  0  0  0  0  0
    0.5813   -0.9745    2.5995 H   0  0  0  0  0  0  0  0  0  0  0  0
    2.6422    0.2105    3.2887 H   0  0  0  0  0  0  0  0  0  0  0  0
    1.7642    1.7578    3.3111 H   0  0  0  0  0  0  0  0  0  0  0  0
    0.3727   -0.0629    4.9941 H   0  0  0  0  0  0  0  0  0  0  0  0
    2.1340    0.7577    8.0098 H   0  0  0  0  0  0  0  0  0  0  0  0
    0.7021    0.0247    7.3464 H   0  0  0  0  0  0  0  0  0  0  0  0
    3.8304    1.7080    6.5366 H   0  0  0  0  0  0  0  0  0  0  0  0
    3.6114    1.6547    4.8153 H   0  0  0  0  0  0  0  0  0  0  0  0
    0.6951   -0.8840   -2.2873 N   0  0  0  0  0  0  0  0  0  0  0  0
    1.0204   -0.7538   -3.6890 C   0  0  2  0  0  0  0  0  0  0  0  0
    0.4034   -1.9347   -4.4267 C   0  0  0  0  0  0  0  0  0  0  0  0
    0.3007   -3.0553   -3.9317 O   0  0  0  0  0  0  0  0  0  0  0  0
    2.5248   -0.7035   -3.9056 C   0  0  0  0  0  0  0  0  0  0  0  0
    0.6435   -1.8220   -1.9011 H   0  0  0  0  0  0  0  0  0  0  0  0
    0.5575    0.1765   -4.0360 H   0  0  0  0  0  0  0  0  0  0  0  0
    3.0061   -1.6271   -3.5639 H   0  0  0  0  0  0  0  0  0  0  0  0
    2.7691   -0.5761   -4.9654 H   0  0  0  0  0  0  0  0  0  0  0  0
    2.9709    0.1287   -3.3504 H   0  0  0  0  0  0  0  0  0  0  0  0
    0.0204   -1.6009   -5.7182 N   0  0  0  0  0  0  0  0  0  0  0  0
   -0.5519   -2.5599   -6.6341 C   0  0  0  0  0  0  0  0  0  0  0  0
    0.1054   -0.6385   -6.0316 H   0  0  0  0  0  0  0  0  0  0  0  0
    0.2473   -3.0093   -7.2419 H   0  0  0  0  0  0  0  0  0  0  0  0
   -1.0668   -3.3480   -6.0652 H   0  0  0  0  0  0  0  0  0  0  0  0
   -1.2723   -2.0529   -7.2928 H   0  0  0  0  0  0  0  0  0  0  0  0
  1  3  1  0  0  0  0
  1  7  1  0  0  0  0
  1  2  2  0  0  0  0
 42 43  1  0  0  0  0
 43 51  1  0  0  0  0
 43 44  2  0  0  0  0
  8  9  1  0  0  0  0
  9 17  1  0  0  0  0
  9 10  2  0  0  0  0
 18 19  1  0  0  0  0
 19 41  1  0  0  0  0
 19 20  2  0  0  0  0
 25 26  1  0  0  0  0
 25 27  1  0  0  0  0
 24 25  2  0  0  0  0
 42 45  1  0  0  0  0
  8 11  1  0  0  0  0
 51 52  1  0  0  0  0
 21 22  1  0  0  0  0
 22 23  1  0  0  0  0
 18 21  1  0  0  0  0
 23 24  1  0  0  0  0
 41 42  1  0  0  0  0
  7  8  1  0  0  0  0
 17 18  1  0  0  0  0
  3  4  1  0  0  0  0
  3  5  1  0  0  0  0
  3  6  1  0  0  0  0
 45 48  1  0  0  0  0
 45 49  1  0  0  0  0
 45 50  1  0  0  0  0
 11 14  1  0  0  0  0
 11 15  1  0  0  0  0
 11 16  1  0  0  0  0
 52 54  1  0  0  0  0
 52 55  1  0  0  0  0
 52 56  1  0  0  0  0
 22 32  1  0  0  0  0
 22 33  1  0  0  0  0
 21 30  1  0  0  0  0
 21 31  1  0  0  0  0
 23 34  1  0  0  0  0
 23 35  1  0  0  0  0
 42 47  1  0  0  0  0
  8 13  1  0  0  0  0
 18 29  1  0  0  0  0
 26 37  1  0  0  0  0
 26 38  1  0  0  0  0
 27 39  1  0  0  0  0
 27 40  1  0  0  0  0
 51 53  1  0  0  0  0
  7 12  1  0  0  0  0
 41 46  1  0  0  0  0
 17 28  1  0  0  0  0
 24 36  1  0  0  0  0
M  CHG  1  24   1
M  END
$$$$

  -OEChem-05262214473D

 56 55  0     1  0  0  0  0  0999 V2000
    0.7735   -5.8042   -2.0022 C   0  0  0  0  0  0  0  0  0  0  0  0
   -0.2086   -6.3825   -1.5519 O   0  0  0  0  0  0  0  0  0  0  0  0
    1.4751   -6.3646   -3.1946 C   0  0  0  0  0  0  0  0  0  0  0  0
    2.2765   -7.0687   -2.9186 H   0  0  0  0  0  0  0  0  0  0  0  0
    0.7988   -6.9360   -3.8504 H   0  0  0  0  0  0  0  0  0  0  0  0
    1.9556   -5.6216   -3.8511 H   0  0  0  0  0  0  0  0  0  0  0  0
    1.3322   -4.6359   -1.5106 N   0  0  0  0  0  0  0  0  0  0  0  0
    0.8124   -3.9290   -0.3698 C   0  0  2  0  0  0  0  0  0  0  0  0
    1.0666   -2.4424   -0.5818 C   0  0  0  0  0  0  0  0  0  0  0  0
    2.0598   -2.0076   -1.1610 O   0  0  0  0  0  0  0  0  0  0  0  0
    1.4560   -4.4118    0.9207 C   0  0  0  0  0  0  0  0  0  0  0  0
    2.1528   -4.2578   -1.9805 H   0  0  0  0  0  0  0  0  0  0  0  0
   -0.2667   -4.1160   -0.3467 H   0  0  0  0  0  0  0  0  0  0  0  0
    2.5374   -4.2329    0.9160 H   0  0  0  0  0  0  0  0  0  0  0  0
    1.0390   -3.8932    1.7903 H   0  0  0  0  0  0  0  0  0  0  0  0
    1.2976   -5.4871    1.0566 H   0  0  0  0  0  0  0  0  0  0  0  0
    0.0755   -1.6529   -0.0105 N   0  0  0  0  0  0  0  0  0  0  0  0
    0.1113   -0.2132   -0.0391 C   0  0  2  0  0  0  0  0  0  0  0  0
    0.4952    0.2075   -1.4538 C   0  0  0  0  0  0  0  0  0  0  0  0
    0.8307    1.3543   -1.7426 O   0  0  0  0  0  0  0  0  0  0  0  0
    1.1047    0.3584    0.9776 C   0  0  0  0  0  0  0  0  0  0  0  0
    0.6697    0.1041    2.4258 C   0  0  0  0  0  0  0  0  0  0  0  0
    1.6620    0.6752    3.4334 C   0  0  0  0  0  0  0  0  0  0  0  0
    1.2559    0.4105    4.8119 N   0  3  0  0  0  0  0  0  0  0  0  0
    2.0382    0.7837    5.9063 C   0  0  0  0  0  0  0  0  0  0  0  0
    1.5883    0.4991    7.1912 N   0  0  0  0  0  0  0  0  0  0  0  0
    3.2569    1.4341    5.7430 N   0  0  0  0  0  0  0  0  0  0  0  0
   -0.7323   -2.1024    0.4149 H   0  0  0  0  0  0  0  0  0  0  0  0
   -0.9062    0.1341    0.1734 H   0  0  0  0  0  0  0  0  0  0  0  0
    1.2125    1.4376    0.8156 H   0  0  0  0  0  0  0  0  0  0  0  0
    2.0980   -0.0799    0.8135 H   0  0  0  0  0  0  0  0  0  0  0  0
   -0.3196    0.5458    2.5954 H   0  0  0  0  0  0  0  0  0  0  0  0
    0.5813   -0.9745    2.5995 H   0  0  0  0  0  0  0  0  0  0  0  0
    2.6422    0.2105    3.2887 H   0  0  0  0  0  0  0  0  0  0  0  0
    1.7642    1.7578    3.3111 H   0  0  0  0  0  0  0  0  0  0  0  0
    0.3727   -0.0629    4.9941 H   0  0  0  0  0  0  0  0  0  0  0  0
    2.1340    0.7577    8.0098 H   0  0  0  0  0  0  0  0  0  0  0  0
    0.7021    0.0247    7.3464 H   0  0  0  0  0  0  0  0  0  0  0  0
    3.8304    1.7080    6.5366 H   0  0  0  0  0  0  0  0  0  0  0  0
    3.6114    1.6547    4.8153 H   0  0  0  0  0  0  0  0  0  0  0  0
    0.3712   -0.8356   -2.3608 N   0  0  0  0  0  0  0  0  0  0  0  0
    0.6287   -0.6832   -3.7743 C   0  0  2  0  0  0  0  0  0  0  0  0
   -0.3017   -1.6259   -4.5262 C   0  0  0  0  0  0  0  0  0  0  0  0
   -0.6415   -2.7232   -4.0887 O   0  0  0  0  0  0  0  0  0  0  0  0
    2.0836   -0.9762   -4.1064 C   0  0  0  0  0  0  0  0  0  0  0  0
    0.1183   -1.7603   -2.0253 H   0  0  0  0  0  0  0  0  0  0  0  0
    0.3842    0.3534   -4.0304 H   0  0  0  0  0  0  0  0  0  0  0  0
    2.3472   -2.0104   -3.8567 H   0  0  0  0  0  0  0  0  0  0  0  0
    2.2837   -0.8325   -5.1734 H   0  0  0  0  0  0  0  0  0  0  0  0
    2.7524   -0.3172   -3.5423 H   0  0  0  0  0  0  0  0  0  0  0  0
   -0.6735   -1.1161   -5.7623 N   0  0  0  0  0  0  0  0  0  0  0  0
   -1.5181   -1.8412   -6.6826 C   0  0  0  0  0  0  0  0  0  0  0  0
   -0.3778   -0.1810   -6.0267 H   0  0  0  0  0  0  0  0  0  0  0  0
   -0.8920   -2.4215   -7.3763 H   0  0  0  0  0  0  0  0  0  0  0  0
   -2.1717   -2.5241   -6.1200 H   0  0  0  0  0  0  0  0  0  0  0  0
   -2.1345   -1.1302   -7.2523 H   0  0  0  0  0  0  0  0  0  0  0  0
  1  3  1  0  0  0  0
  1  7  1  0  0  0  0
  1  2  2  0  0  0  0
 42 43  1  0  0  0  0
 43 51  1  0  0  0  0
 43 44  2  0  0  0  0
  8  9  1  0  0  0  0
  9 17  1  0  0  0  0
  9 10  2  0  0  0  0
 18 19  1  0  0  0  0
 19 41  1  0  0  0  0
 19 20  2  0  0  0  0
 25 26  1  0  0  0  0
 25 27  1  0  0  0  0
 24 25  2  0  0  0  0
 42 45  1  0  0  0  0
  8 11  1  0  0  0  0
 51 52  1  0  0  0  0
 21 22  1  0  0  0  0
 22 23  1  0  0  0  0
 18 21  1  0  0  0  0
 23 24  1  0  0  0  0
 41 42  1  0  0  0  0
  7  8  1  0  0  0  0
 17 18  1  0  0  0  0
  3  4  1  0  0  0  0
  3  5  1  0  0  0  0
  3  6  1  0  0  0  0
 45 48  1  0  0  0  0
 45 49  1  0  0  0  0
 45 50  1  0  0  0  0
 11 14  1  0  0  0  0
 11 15  1  0  0  0  0
 11 16  1  0  0  0  0
 52 54  1  0  0  0  0
 52 55  1  0  0  0  0
 52 56  1  0  0  0  0
 22 32  1  0  0  0  0
 22 33  1  0  0  0  0
 21 30  1  0  0  0  0
 21 31  1  0  0  0  0
 23 34  1  0  0  0  0
 23 35  1  0  0  0  0
 42 47  1  0  0  0  0
  8 13  1  0  0  0  0
 18 29  1  0  0  0  0
 26 37  1  0  0  0  0
 26 38  1  0  0  0  0
 27 39  1  0  0  0  0
 27 40  1  0  0  0  0
 51 53  1  0  0  0  0
  7 12  1  0  0  0  0
 41 46  1  0  0  0  0
 17 28  1  0  0  0  0
 24 36  1  0  0  0  0
M  CHG  1  24   1
M  END
$$$$

  -OEChem-05262214473D

 56 55  0     1  0  0  0  0  0999 V2000
    0.7735   -5.8042   -2.0022 C   0  0  0  0  0  0  0  0  0  0  0  0
   -0.2086   -6.3825   -1.5519 O   0  0  0  0  0  0  0  0  0  0  0  0
    1.4751   -6.3646   -3.1946 C   0  0  0  0  0  0  0  0  0  0  0  0
    2.2765   -7.0687   -2.9186 H   0  0  0  0  0  0  0  0  0  0  0  0
    0.7988   -6.9360   -3.8504 H   0  0  0  0  0  0  0  0  0  0  0  0
    1.9556   -5.6216   -3.8511 H   0  0  0  0  0  0  0  0  0  0  0  0
    1.3322   -4.6359   -1.5106 N   0  0  0  0  0  0  0  0  0  0  0  0
    0.8124   -3.9290   -0.3698 C   0  0  2  0  0  0  0  0  0  0  0  0
    1.0666   -2.4424   -0.5818 C   0  0  0  0  0  0  0  0  0  0  0  0
    2.0598   -2.0076   -1.1610 O   0  0  0  0  0  0  0  0  0  0  0  0
    1.4560   -4.4118    0.9207 C   0  0  0  0  0  0  0  0  0  0  0  0
    2.1528   -4.2578   -1.9805 H   0  0  0  0  0  0  0  0  0  0  0  0
   -0.2667   -4.1160   -0.3467 H   0  0  0  0  0  0  0  0  0  0  0  0
    2.5374   -4.2329    0.9160 H   0  0  0  0  0  0  0  0  0  0  0  0
    1.0390   -3.8932    1.7903 H   0  0  0  0  0  0  0  0  0  0  0  0
    1.2976   -5.4871    1.0566 H   0  0  0  0  0  0  0  0  0  0  0  0
    0.0755   -1.6529   -0.0105 N   0  0  0  0  0  0  0  0  0  0  0  0
    0.1113   -0.2132   -0.0391 C   0  0  2  0  0  0  0  0  0  0  0  0
    0.4952    0.2075   -1.4538 C   0  0  0  0  0  0  0  0  0  0  0  0
    1.0797    1.2598   -1.7032 O   0  0  0  0  0  0  0  0  0  0  0  0
    1.1047    0.3584    0.9776 C   0  0  0  0  0  0  0  0  0  0  0  0
    0.6697    0.1041    2.4258 C   0  0  0  0  0  0  0  0  0  0  0  0
    1.6620    0.6752    3.4334 C   0  0  0  0  0  0  0  0  0  0  0  0
    1.2559    0.4105    4.8119 N   0  3  0  0  0  0  0  0  0  0  0  0
    2.0382    0.7837    5.9063 C   0  0  0  0  0  0  0  0  0  0  0  0
    1.5883    0.4991    7.1912 N   0  0  0  0  0  0  0  0  0  0  0  0
    3.2569    1.4341    5.7430 N   0  0  0  0  0  0  0  0  0  0  0  0
   -0.7323   -2.1024    0.4149 H   0  0  0  0  0  0  0  0  0  0  0  0
   -0.9062    0.1341    0.1734 H   0  0  0  0  0  0  0  0  0  0  0  0
    1.2125    1.4376    0.8156 H   0  0  0  0  0  0  0  0  0  0  0  0
    2.0980   -0.0799    0.8135 H   0  0  0  0  0  0  0  0  0  0  0  0
   -0.3196    0.5458    2.5954 H   0  0  0  0  0  0  0  0  0  0  0  0
    0.5813   -0.9745    2.5995 H   0  0  0  0  0  0  0  0  0  0  0  0
    2.6422    0.2105    3.2887 H   0  0  0  0  0  0  0  0  0  0  0  0
    1.7642    1.7578    3.3111 H   0  0  0  0  0  0  0  0  0  0  0  0
    0.3727   -0.0629    4.9941 H   0  0  0  0  0  0  0  0  0  0  0  0
    2.1340    0.7577    8.0098 H   0  0  0  0  0  0  0  0  0  0  0  0
    0.7021    0.0247    7.3464 H   0  0  0  0  0  0  0  0  0  0  0  0
    3.8304    1.7080    6.5366 H   0  0  0  0  0  0  0  0  0  0  0  0
    3.6114    1.6547    4.8153 H   0  0  0  0  0  0  0  0  0  0  0  0
    0.0647   -0.7063   -2.4056 N   0  0  0  0  0  0  0  0  0  0  0  0
    0.2612   -0.5155   -3.8242 C   0  0  2  0  0  0  0  0  0  0  0  0
   -0.9157   -1.1517   -4.5518 C   0  0  0  0  0  0  0  0  0  0  0  0
   -1.4830   -2.1661   -4.1513 O   0  0  0  0  0  0  0  0  0  0  0  0
    1.5776   -1.1205   -4.2867 C   0  0  0  0  0  0  0  0  0  0  0  0
   -0.3831   -1.5665   -2.1037 H   0  0  0  0  0  0  0  0  0  0  0  0
    0.2596    0.5656   -4.0011 H   0  0  0  0  0  0  0  0  0  0  0  0
    1.5979   -2.2033   -4.1174 H   0  0  0  0  0  0  0  0  0  0  0  0
    1.7384   -0.9502   -5.3563 H   0  0  0  0  0  0  0  0  0  0  0  0
    2.4206   -0.6830   -3.7411 H   0  0  0  0  0  0  0  0  0  0  0  0
   -1.2306   -0.4783   -5.7237 N   0  0  0  0  0  0  0  0  0  0  0  0
   -2.2824   -0.9118   -6.6135 C   0  0  0  0  0  0  0  0  0  0  0  0
   -0.7343    0.3766   -5.9576 H   0  0  0  0  0  0  0  0  0  0  0  0
   -1.8610   -1.5714   -7.3864 H   0  0  0  0  0  0  0  0  0  0  0  0
   -3.0450   -1.4594   -6.0403 H   0  0  0  0  0  0  0  0  0  0  0  0
   -2.7428   -0.0346   -7.0916 H   0  0  0  0  0  0  0  0  0  0  0  0
  1  3  1  0  0  0  0
  1  7  1  0  0  0  0
  1  2  2  0  0  0  0
 42 43  1  0  0  0  0
 43 51  1  0  0  0  0
 43 44  2  0  0  0  0
  8  9  1  0  0  0  0
  9 17  1  0  0  0  0
  9 10  2  0  0  0  0
 18 19  1  0  0  0  0
 19 41  1  0  0  0  0
 19 20  2  0  0  0  0
 25 26  1  0  0  0  0
 25 27  1  0  0  0  0
 24 25  2  0  0  0  0
 42 45  1  0  0  0  0
  8 11  1  0  0  0  0
 51 52  1  0  0  0  0
 21 22  1  0  0  0  0
 22 23  1  0  0  0  0
 18 21  1  0  0  0  0
 23 24  1  0  0  0  0
 41 42  1  0  0  0  0
  7  8  1  0  0  0  0
 17 18  1  0  0  0  0
  3  4  1  0  0  0  0
  3  5  1  0  0  0  0
  3  6  1  0  0  0  0
 45 48  1  0  0  0  0
 45 49  1  0  0  0  0
 45 50  1  0  0  0  0
 11 14  1  0  0  0  0
 11 15  1  0  0  0  0
 11 16  1  0  0  0  0
 52 54  1  0  0  0  0
 52 55  1  0  0  0  0
 52 56  1  0  0  0  0
 22 32  1  0  0  0  0
 22 33  1  0  0  0  0
 21 30  1  0  0  0  0
 21 31  1  0  0  0  0
 23 34  1  0  0  0  0
 23 35  1  0  0  0  0
 42 47  1  0  0  0  0
  8 13  1  0  0  0  0
 18 29  1  0  0  0  0
 26 37  1  0  0  0  0
 26 38  1  0  0  0  0
 27 39  1  0  0  0  0
 27 40  1  0  0  0  0
 51 53  1  0  0  0  0
  7 12  1  0  0  0  0
 41 46  1  0  0  0  0
 17 28  1  0  0  0  0
 24 36  1  0  0  0  0
M  CHG  1  24   1
M  END
$$$$

  -OEChem-05262214473D

 56 55  0     1  0  0  0  0  0999 V2000
    0.7735   -5.8042   -2.0022 C   0  0  0  0  0  0  0  0  0  0  0  0
   -0.2086   -6.3825   -1.5519 O   0  0  0  0  0  0  0  0  0  0  0  0
    1.4751   -6.3646   -3.1946 C   0  0  0  0  0  0  0  0  0  0  0  0
    2.2765   -7.0687   -2.9186 H   0  0  0  0  0  0  0  0  0  0  0  0
    0.7988   -6.9360   -3.8504 H   0  0  0  0  0  0  0  0  0  0  0  0
    1.9556   -5.6216   -3.8511 H   0  0  0  0  0  0  0  0  0  0  0  0
    1.3322   -4.6359   -1.5106 N   0  0  0  0  0  0  0  0  0  0  0  0
    0.8124   -3.9290   -0.3698 C   0  0  2  0  0  0  0  0  0  0  0  0
    1.0666   -2.4424   -0.5818 C   0  0  0  0  0  0  0  0  0  0  0  0
    2.0598   -2.0076   -1.1610 O   0  0  0  0  0  0  0  0  0  0  0  0
    1.4560   -4.4118    0.9207 C   0  0  0  0  0  0  0  0  0  0  0  0
    2.1528   -4.2578   -1.9805 H   0  0  0  0  0  0  0  0  0  0  0  0
   -0.2667   -4.1160   -0.3467 H   0  0  0  0  0  0  0  0  0  0  0  0
    2.5374   -4.2329    0.9160 H   0  0  0  0  0  0  0  0  0  0  0  0
    1.0390   -3.8932    1.7903 H   0  0  0  0  0  0  0  0  0  0  0  0
    1.2976   -5.4871    1.0566 H   0  0  0  0  0  0  0  0  0  0  0  0
    0.0755   -1.6529   -0.0105 N   0  0  0  0  0  0  0  0  0  0  0  0
    0.1113   -0.2132   -0.0391 C   0  0  2  0  0  0  0  0  0  0  0  0
    0.4952    0.2075   -1.4538 C   0  0  0  0  0  0  0  0  0  0  0  0
    1.3004    1.1062   -1.6890 O   0  0  0  0  0  0  0  0  0  0  0  0
    1.1047    0.3584    0.9776 C   0  0  0  0  0  0  0  0  0  0  0  0
    0.6697    0.1041    2.4258 C   0  0  0  0  0  0  0  0  0  0  0  0
    1.6620    0.6752    3.4334 C   0  0  0  0  0  0  0  0  0  0  0  0
    1.2559    0.4105    4.8119 N   0  3  0  0  0  0  0  0  0  0  0  0
    2.0382    0.7837    5.9063 C   0  0  0  0  0  0  0  0  0  0  0  0
    1.5883    0.4991    7.1912 N   0  0  0  0  0  0  0  0  0  0  0  0
    3.2569    1.4341    5.7430 N   0  0  0  0  0  0  0  0  0  0  0  0
   -0.7323   -2.1024    0.4149 H   0  0  0  0  0  0  0  0  0  0  0  0
   -0.9062    0.1341    0.1734 H   0  0  0  0  0  0  0  0  0  0  0  0
    1.2125    1.4376    0.8156 H   0  0  0  0  0  0  0  0  0  0  0  0
    2.0980   -0.0799    0.8135 H   0  0  0  0  0  0  0  0  0  0  0  0
   -0.3196    0.5458    2.5954 H   0  0  0  0  0  0  0  0  0  0  0  0
    0.5813   -0.9745    2.5995 H   0  0  0  0  0  0  0  0  0  0  0  0
    2.6422    0.2105    3.2887 H   0  0  0  0  0  0  0  0  0  0  0  0
    1.7642    1.7578    3.3111 H   0  0  0  0  0  0  0  0  0  0  0  0
    0.3727   -0.0629    4.9941 H   0  0  0  0  0  0  0  0  0  0  0  0
    2.1340    0.7577    8.0098 H   0  0  0  0  0  0  0  0  0  0  0  0
    0.7021    0.0247    7.3464 H   0  0  0  0  0  0  0  0  0  0  0  0
    3.8304    1.7080    6.5366 H   0  0  0  0  0  0  0  0  0  0  0  0
    3.6114    1.6547    4.8153 H   0  0  0  0  0  0  0  0  0  0  0  0
   -0.2035   -0.5048   -2.4184 N   0  0  0  0  0  0  0  0  0  0  0  0
   -0.0570   -0.2620   -3.8351 C   0  0  2  0  0  0  0  0  0  0  0  0
   -1.3969   -0.5446   -4.5018 C   0  0  0  0  0  0  0  0  0  0  0  0
   -2.1665   -1.4218   -4.1154 O   0  0  0  0  0  0  0  0  0  0  0  0
    1.0413   -1.1267   -4.4341 C   0  0  0  0  0  0  0  0  0  0  0  0
   -0.8264   -1.2539   -2.1310 H   0  0  0  0  0  0  0  0  0  0  0  0
    0.1923    0.7985   -3.9501 H   0  0  0  0  0  0  0  0  0  0  0  0
    0.8091   -2.1927   -4.3283 H   0  0  0  0  0  0  0  0  0  0  0  0
    1.1704   -0.9209   -5.5018 H   0  0  0  0  0  0  0  0  0  0  0  0
    1.9981   -0.9437   -3.9333 H   0  0  0  0  0  0  0  0  0  0  0  0
   -1.6127    0.2690   -5.6052 N   0  0  0  0  0  0  0  0  0  0  0  0
   -2.7926    0.1650   -6.4317 C   0  0  0  0  0  0  0  0  0  0  0  0
   -0.9399    0.9962   -5.8290 H   0  0  0  0  0  0  0  0  0  0  0  0
   -2.5936   -0.5170   -7.2716 H   0  0  0  0  0  0  0  0  0  0  0  0
   -3.6272   -0.2265   -5.8315 H   0  0  0  0  0  0  0  0  0  0  0  0
   -3.0559    1.1593   -6.8214 H   0  0  0  0  0  0  0  0  0  0  0  0
  1  3  1  0  0  0  0
  1  7  1  0  0  0  0
  1  2  2  0  0  0  0
 42 43  1  0  0  0  0
 43 51  1  0  0  0  0
 43 44  2  0  0  0  0
  8  9  1  0  0  0  0
  9 17  1  0  0  0  0
  9 10  2  0  0  0  0
 18 19  1  0  0  0  0
 19 41  1  0  0  0  0
 19 20  2  0  0  0  0
 25 26  1  0  0  0  0
 25 27  1  0  0  0  0
 24 25  2  0  0  0  0
 42 45  1  0  0  0  0
  8 11  1  0  0  0  0
 51 52  1  0  0  0  0
 21 22  1  0  0  0  0
 22 23  1  0  0  0  0
 18 21  1  0  0  0  0
 23 24  1  0  0  0  0
 41 42  1  0  0  0  0
  7  8  1  0  0  0  0
 17 18  1  0  0  0  0
  3  4  1  0  0  0  0
  3  5  1  0  0  0  0
  3  6  1  0  0  0  0
 45 48  1  0  0  0  0
 45 49  1  0  0  0  0
 45 50  1  0  0  0  0
 11 14  1  0  0  0  0
 11 15  1  0  0  0  0
 11 16  1  0  0  0  0
 52 54  1  0  0  0  0
 52 55  1  0  0  0  0
 52 56  1  0  0  0  0
 22 32  1  0  0  0  0
 22 33  1  0  0  0  0
 21 30  1  0  0  0  0
 21 31  1  0  0  0  0
 23 34  1  0  0  0  0
 23 35  1  0  0  0  0
 42 47  1  0  0  0  0
  8 13  1  0  0  0  0
 18 29  1  0  0  0  0
 26 37  1  0  0  0  0
 26 38  1  0  0  0  0
 27 39  1  0  0  0  0
 27 40  1  0  0  0  0
 51 53  1  0  0  0  0
  7 12  1  0  0  0  0
 41 46  1  0  0  0  0
 17 28  1  0  0  0  0
 24 36  1  0  0  0  0
M  CHG  1  24   1
M  END
$$$$

  -OEChem-05262214473D

 56 55  0     1  0  0  0  0  0999 V2000
    0.7735   -5.8042   -2.0022 C   0  0  0  0  0  0  0  0  0  0  0  0
   -0.2086   -6.3825   -1.5519 O   0  0  0  0  0  0  0  0  0  0  0  0
    1.4751   -6.3646   -3.1946 C   0  0  0  0  0  0  0  0  0  0  0  0
    2.2765   -7.0687   -2.9186 H   0  0  0  0  0  0  0  0  0  0  0  0
    0.7988   -6.9360   -3.8504 H   0  0  0  0  0  0  0  0  0  0  0  0
    1.9556   -5.6216   -3.8511 H   0  0  0  0  0  0  0  0  0  0  0  0
    1.3322   -4.6359   -1.5106 N   0  0  0  0  0  0  0  0  0  0  0  0
    0.8124   -3.9290   -0.3698 C   0  0  2  0  0  0  0  0  0  0  0  0
    1.0666   -2.4424   -0.5818 C   0  0  0  0  0  0  0  0  0  0  0  0
    2.0598   -2.0076   -1.1610 O   0  0  0  0  0  0  0  0  0  0  0  0
    1.4560   -4.4118    0.9207 C   0  0  0  0  0  0  0  0  0  0  0  0
    2.1528   -4.2578   -1.9805 H   0  0  0  0  0  0  0  0  0  0  0  0
   -0.2667   -4.1160   -0.3467 H   0  0  0  0  0  0  0  0  0  0  0  0
    2.5374   -4.2329    0.9160 H   0  0  0  0  0  0  0  0  0  0  0  0
    1.0390   -3.8932    1.7903 H   0  0  0  0  0  0  0  0  0  0  0  0
    1.2976   -5.4871    1.0566 H   0  0  0  0  0  0  0  0  0  0  0  0
    0.0755   -1.6529   -0.0105 N   0  0  0  0  0  0  0  0  0  0  0  0
    0.1113   -0.2132   -0.0391 C   0  0  2  0  0  0  0  0  0  0  0  0
    0.4952    0.2075   -1.4538 C   0  0  0  0  0  0  0  0  0  0  0  0
    1.4777    0.9039   -1.7011 O   0  0  0  0  0  0  0  0  0  0  0  0
    1.1047    0.3584    0.9776 C   0  0  0  0  0  0  0  0  0  0  0  0
    0.6697    0.1041    2.4258 C   0  0  0  0  0  0  0  0  0  0  0  0
    1.6620    0.6752    3.4334 C   0  0  0  0  0  0  0  0  0  0  0  0
    1.2559    0.4105    4.8119 N   0  3  0  0  0  0  0  0  0  0  0  0
    2.0382    0.7837    5.9063 C   0  0  0  0  0  0  0  0  0  0  0  0
    1.5883    0.4991    7.1912 N   0  0  0  0  0  0  0  0  0  0  0  0
    3.2569    1.4341    5.7430 N   0  0  0  0  0  0  0  0  0  0  0  0
   -0.7323   -2.1024    0.4149 H   0  0  0  0  0  0  0  0  0  0  0  0
   -0.9062    0.1341    0.1734 H   0  0  0  0  0  0  0  0  0  0  0  0
    1.2125    1.4376    0.8156 H   0  0  0  0  0  0  0  0  0  0  0  0
    2.0980   -0.0799    0.8135 H   0  0  0  0  0  0  0  0  0  0  0  0
   -0.3196    0.5458    2.5954 H   0  0  0  0  0  0  0  0  0  0  0  0
    0.5813   -0.9745    2.5995 H   0  0  0  0  0  0  0  0  0  0  0  0
    2.6422    0.2105    3.2887 H   0  0  0  0  0  0  0  0  0  0  0  0
    1.7642    1.7578    3.3111 H   0  0  0  0  0  0  0  0  0  0  0  0
    0.3727   -0.0629    4.9941 H   0  0  0  0  0  0  0  0  0  0  0  0
    2.1340    0.7577    8.0098 H   0  0  0  0  0  0  0  0  0  0  0  0
    0.7021    0.0247    7.3464 H   0  0  0  0  0  0  0  0  0  0  0  0
    3.8304    1.7080    6.5366 H   0  0  0  0  0  0  0  0  0  0  0  0
    3.6114    1.6547    4.8153 H   0  0  0  0  0  0  0  0  0  0  0  0
   -0.4151   -0.2450   -2.3986 N   0  0  0  0  0  0  0  0  0  0  0  0
   -0.3043    0.0600   -3.8065 C   0  0  2  0  0  0  0  0  0  0  0  0
   -1.7123    0.1540   -4.3795 C   0  0  0  0  0  0  0  0  0  0  0  0
   -2.6455   -0.5412   -3.9835 O   0  0  0  0  0  0  0  0  0  0  0  0
    0.5112   -0.9943   -4.5385 C   0  0  0  0  0  0  0  0  0  0  0  0
   -1.1816   -0.8437   -2.1054 H   0  0  0  0  0  0  0  0  0  0  0  0
    0.1868    1.0364   -3.8808 H   0  0  0  0  0  0  0  0  0  0  0  0
    0.0348   -1.9794   -4.4750 H   0  0  0  0  0  0  0  0  0  0  0  0
    0.6184   -0.7469   -5.5998 H   0  0  0  0  0  0  0  0  0  0  0  0
    1.5137   -1.0815   -4.1058 H   0  0  0  0  0  0  0  0  0  0  0  0
   -1.7940    1.0749   -5.4147 N   0  0  0  0  0  0  0  0  0  0  0  0
   -3.0138    1.3156   -6.1495 C   0  0  0  0  0  0  0  0  0  0  0  0
   -0.9805    1.6358   -5.6498 H   0  0  0  0  0  0  0  0  0  0  0  0
   -3.0398    0.6699   -7.0396 H   0  0  0  0  0  0  0  0  0  0  0  0
   -3.8786    1.0905   -5.5080 H   0  0  0  0  0  0  0  0  0  0  0  0
   -3.0524    2.3701   -6.4603 H   0  0  0  0  0  0  0  0  0  0  0  0
  1  3  1  0  0  0  0
  1  7  1  0  0  0  0
  1  2  2  0  0  0  0
 42 43  1  0  0  0  0
 43 51  1  0  0  0  0
 43 44  2  0  0  0  0
  8  9  1  0  0  0  0
  9 17  1  0  0  0  0
  9 10  2  0  0  0  0
 18 19  1  0  0  0  0
 19 41  1  0  0  0  0
 19 20  2  0  0  0  0
 25 26  1  0  0  0  0
 25 27  1  0  0  0  0
 24 25  2  0  0  0  0
 42 45  1  0  0  0  0
  8 11  1  0  0  0  0
 51 52  1  0  0  0  0
 21 22  1  0  0  0  0
 22 23  1  0  0  0  0
 18 21  1  0  0  0  0
 23 24  1  0  0  0  0
 41 42  1  0  0  0  0
  7  8  1  0  0  0  0
 17 18  1  0  0  0  0
  3  4  1  0  0  0  0
  3  5  1  0  0  0  0
  3  6  1  0  0  0  0
 45 48  1  0  0  0  0
 45 49  1  0  0  0  0
 45 50  1  0  0  0  0
 11 14  1  0  0  0  0
 11 15  1  0  0  0  0
 11 16  1  0  0  0  0
 52 54  1  0  0  0  0
 52 55  1  0  0  0  0
 52 56  1  0  0  0  0
 22 32  1  0  0  0  0
 22 33  1  0  0  0  0
 21 30  1  0  0  0  0
 21 31  1  0  0  0  0
 23 34  1  0  0  0  0
 23 35  1  0  0  0  0
 42 47  1  0  0  0  0
  8 13  1  0  0  0  0
 18 29  1  0  0  0  0
 26 37  1  0  0  0  0
 26 38  1  0  0  0  0
 27 39  1  0  0  0  0
 27 40  1  0  0  0  0
 51 53  1  0  0  0  0
  7 12  1  0  0  0  0
 41 46  1  0  0  0  0
 17 28  1  0  0  0  0
 24 36  1  0  0  0  0
M  CHG  1  24   1
M  END
$$$$

  -OEChem-05262214473D

 56 55  0     1  0  0  0  0  0999 V2000
    0.7735   -5.8042   -2.0022 C   0  0  0  0  0  0  0  0  0  0  0  0
   -0.2086   -6.3825   -1.5519 O   0  0  0  0  0  0  0  0  0  0  0  0
    1.4751   -6.3646   -3.1946 C   0  0  0  0  0  0  0  0  0  0  0  0
    2.2765   -7.0687   -2.9186 H   0  0  0  0  0  0  0  0  0  0  0  0
    0.7988   -6.9360   -3.8504 H   0  0  0  0  0  0  0  0  0  0  0  0
    1.9556   -5.6216   -3.8511 H   0  0  0  0  0  0  0  0  0  0  0  0
    1.3322   -4.6359   -1.5106 N   0  0  0  0  0  0  0  0  0  0  0  0
    0.8124   -3.9290   -0.3698 C   0  0  2  0  0  0  0  0  0  0  0  0
    1.0666   -2.4424   -0.5818 C   0  0  0  0  0  0  0  0  0  0  0  0
    2.0598   -2.0076   -1.1610 O   0  0  0  0  0  0  0  0  0  0  0  0
    1.4560   -4.4118    0.9207 C   0  0  0  0  0  0  0  0  0  0  0  0
    2.1528   -4.2578   -1.9805 H   0  0  0  0  0  0  0  0  0  0  0  0
   -0.2667   -4.1160   -0.3467 H   0  0  0  0  0  0  0  0  0  0  0  0
    2.5374   -4.2329    0.9160 H   0  0  0  0  0  0  0  0  0  0  0  0
    1.0390   -3.8932    1.7903 H   0  0  0  0  0  0  0  0  0  0  0  0
    1.2976   -5.4871    1.0566 H   0  0  0  0  0  0  0  0  0  0  0  0
    0.0755   -1.6529   -0.0105 N   0  0  0  0  0  0  0  0  0  0  0  0
    0.1113   -0.2132   -0.0391 C   0  0  2  0  0  0  0  0  0  0  0  0
    0.4952    0.2075   -1.4538 C   0  0  0  0  0  0  0  0  0  0  0  0
    1.5994    0.6667   -1.7386 O   0  0  0  0  0  0  0  0  0  0  0  0
    1.1047    0.3584    0.9776 C   0  0  0  0  0  0  0  0  0  0  0  0
    0.6697    0.1041    2.4258 C   0  0  0  0  0  0  0  0  0  0  0  0
    1.6620    0.6752    3.4334 C   0  0  0  0  0  0  0  0  0  0  0  0
    1.2559    0.4105    4.8119 N   0  3  0  0  0  0  0  0  0  0  0  0
    2.0382    0.7837    5.9063 C   0  0  0  0  0  0  0  0  0  0  0  0
    1.5883    0.4991    7.1912 N   0  0  0  0  0  0  0  0  0  0  0  0
    3.2569    1.4341    5.7430 N   0  0  0  0  0  0  0  0  0  0  0  0
   -0.7323   -2.1024    0.4149 H   0  0  0  0  0  0  0  0  0  0  0  0
   -0.9062    0.1341    0.1734 H   0  0  0  0  0  0  0  0  0  0  0  0
    1.2125    1.4376    0.8156 H   0  0  0  0  0  0  0  0  0  0  0  0
    2.0980   -0.0799    0.8135 H   0  0  0  0  0  0  0  0  0  0  0  0
   -0.3196    0.5458    2.5954 H   0  0  0  0  0  0  0  0  0  0  0  0
    0.5813   -0.9745    2.5995 H   0  0  0  0  0  0  0  0  0  0  0  0
    2.6422    0.2105    3.2887 H   0  0  0  0  0  0  0  0  0  0  0  0
    1.7642    1.7578    3.3111 H   0  0  0  0  0  0  0  0  0  0  0  0
    0.3727   -0.0629    4.9941 H   0  0  0  0  0  0  0  0  0  0  0  0
    2.1340    0.7577    8.0098 H   0  0  0  0  0  0  0  0  0  0  0  0
    0.7021    0.0247    7.3464 H   0  0  0  0  0  0  0  0  0  0  0  0
    3.8304    1.7080    6.5366 H   0  0  0  0  0  0  0  0  0  0  0  0
    3.6114    1.6547    4.8153 H   0  0  0  0  0  0  0  0  0  0  0  0
   -0.5558    0.0554   -2.3474 N   0  0  0  0  0  0  0  0  0  0  0  0
   -0.4639    0.4285   -3.7401 C   0  0  2  0  0  0  0  0  0  0  0  0
   -1.8404    0.8966   -4.1934 C   0  0  0  0  0  0  0  0  0  0  0  0
   -2.8873    0.4159   -3.7644 O   0  0  0  0  0  0  0  0  0  0  0  0
    0.0236   -0.7324   -4.5930 C   0  0  0  0  0  0  0  0  0  0  0  0
   -1.4243   -0.3638   -2.0285 H   0  0  0  0  0  0  0  0  0  0  0  0
    0.2436    1.2629   -3.7980 H   0  0  0  0  0  0  0  0  0  0  0  0
   -0.6725   -1.5779   -4.5475 H   0  0  0  0  0  0  0  0  0  0  0  0
    0.1200   -0.4398   -5.6437 H   0  0  0  0  0  0  0  0  0  0  0  0
    1.0004   -1.0871   -4.2468 H   0  0  0  0  0  0  0  0  0  0  0  0
   -1.7620    1.8844   -5.1652 N   0  0  0  0  0  0  0  0  0  0  0  0
   -2.9312    2.4618   -5.7861 C   0  0  0  0  0  0  0  0  0  0  0  0
   -0.8533    2.2516   -5.4322 H   0  0  0  0  0  0  0  0  0  0  0  0
   -3.1694    1.9084   -6.7064 H   0  0  0  0  0  0  0  0  0  0  0  0
   -3.7822    2.4020   -5.0918 H   0  0  0  0  0  0  0  0  0  0  0  0
   -2.7326    3.5152   -6.0329 H   0  0  0  0  0  0  0  0  0  0  0  0
  1  3  1  0  0  0  0
  1  7  1  0  0  0  0
  1  2  2  0  0  0  0
 42 43  1  0  0  0  0
 43 51  1  0  0  0  0
 43 44  2  0  0  0  0
  8  9  1  0  0  0  0
  9 17  1  0  0  0  0
  9 10  2  0  0  0  0
 18 19  1  0  0  0  0
 19 41  1  0  0  0  0
 19 20  2  0  0  0  0
 25 26  1  0  0  0  0
 25 27  1  0  0  0  0
 24 25  2  0  0  0  0
 42 45  1  0  0  0  0
  8 11  1  0  0  0  0
 51 52  1  0  0  0  0
 21 22  1  0  0  0  0
 22 23  1  0  0  0  0
 18 21  1  0  0  0  0
 23 24  1  0  0  0  0
 41 42  1  0  0  0  0
  7  8  1  0  0  0  0
 17 18  1  0  0  0  0
  3  4  1  0  0  0  0
  3  5  1  0  0  0  0
  3  6  1  0  0  0  0
 45 48  1  0  0  0  0
 45 49  1  0  0  0  0
 45 50  1  0  0  0  0
 11 14  1  0  0  0  0
 11 15  1  0  0  0  0
 11 16  1  0  0  0  0
 52 54  1  0  0  0  0
 52 55  1  0  0  0  0
 52 56  1  0  0  0  0
 22 32  1  0  0  0  0
 22 33  1  0  0  0  0
 21 30  1  0  0  0  0
 21 31  1  0  0  0  0
 23 34  1  0  0  0  0
 23 35  1  0  0  0  0
 42 47  1  0  0  0  0
  8 13  1  0  0  0  0
 18 29  1  0  0  0  0
 26 37  1  0  0  0  0
 26 38  1  0  0  0  0
 27 39  1  0  0  0  0
 27 40  1  0  0  0  0
 51 53  1  0  0  0  0
  7 12  1  0  0  0  0
 41 46  1  0  0  0  0
 17 28  1  0  0  0  0
 24 36  1  0  0  0  0
M  CHG  1  24   1
M  END
$$$$

  -OEChem-05262214473D

 56 55  0     1  0  0  0  0  0999 V2000
    0.7735   -5.8042   -2.0022 C   0  0  0  0  0  0  0  0  0  0  0  0
   -0.2086   -6.3825   -1.5519 O   0  0  0  0  0  0  0  0  0  0  0  0
    1.4751   -6.3646   -3.1946 C   0  0  0  0  0  0  0  0  0  0  0  0
    2.2765   -7.0687   -2.9186 H   0  0  0  0  0  0  0  0  0  0  0  0
    0.7988   -6.9360   -3.8504 H   0  0  0  0  0  0  0  0  0  0  0  0
    1.9556   -5.6216   -3.8511 H   0  0  0  0  0  0  0  0  0  0  0  0
    1.3322   -4.6359   -1.5106 N   0  0  0  0  0  0  0  0  0  0  0  0
    0.8124   -3.9290   -0.3698 C   0  0  2  0  0  0  0  0  0  0  0  0
    1.0666   -2.4424   -0.5818 C   0  0  0  0  0  0  0  0  0  0  0  0
    2.0598   -2.0076   -1.1610 O   0  0  0  0  0  0  0  0  0  0  0  0
    1.4560   -4.4118    0.9207 C   0  0  0  0  0  0  0  0  0  0  0  0
    2.1528   -4.2578   -1.9805 H   0  0  0  0  0  0  0  0  0  0  0  0
   -0.2667   -4.1160   -0.3467 H   0  0  0  0  0  0  0  0  0  0  0  0
    2.5374   -4.2329    0.9160 H   0  0  0  0  0  0  0  0  0  0  0  0
    1.0390   -3.8932    1.7903 H   0  0  0  0  0  0  0  0  0  0  0  0
    1.2976   -5.4871    1.0566 H   0  0  0  0  0  0  0  0  0  0  0  0
    0.0755   -1.6529   -0.0105 N   0  0  0  0  0  0  0  0  0  0  0  0
    0.1113   -0.2132   -0.0391 C   0  0  2  0  0  0  0  0  0  0  0  0
    0.4952    0.2075   -1.4538 C   0  0  0  0  0  0  0  0  0  0  0  0
    1.6574    0.4108   -1.7990 O   0  0  0  0  0  0  0  0  0  0  0  0
    1.1047    0.3584    0.9776 C   0  0  0  0  0  0  0  0  0  0  0  0
    0.6697    0.1041    2.4258 C   0  0  0  0  0  0  0  0  0  0  0  0
    1.6620    0.6752    3.4334 C   0  0  0  0  0  0  0  0  0  0  0  0
    1.2559    0.4105    4.8119 N   0  3  0  0  0  0  0  0  0  0  0  0
    2.0382    0.7837    5.9063 C   0  0  0  0  0  0  0  0  0  0  0  0
    1.5883    0.4991    7.1912 N   0  0  0  0  0  0  0  0  0  0  0  0
    3.2569    1.4341    5.7430 N   0  0  0  0  0  0  0  0  0  0  0  0
   -0.7323   -2.1024    0.4149 H   0  0  0  0  0  0  0  0  0  0  0  0
   -0.9062    0.1341    0.1734 H   0  0  0  0  0  0  0  0  0  0  0  0
    1.2125    1.4376    0.8156 H   0  0  0  0  0  0  0  0  0  0  0  0
    2.0980   -0.0799    0.8135 H   0  0  0  0  0  0  0  0  0  0  0  0
   -0.3196    0.5458    2.5954 H   0  0  0  0  0  0  0  0  0  0  0  0
    0.5813   -0.9745    2.5995 H   0  0  0  0  0  0  0  0  0  0  0  0
    2.6422    0.2105    3.2887 H   0  0  0  0  0  0  0  0  0  0  0  0
    1.7642    1.7578    3.3111 H   0  0  0  0  0  0  0  0  0  0  0  0
    0.3727   -0.0629    4.9941 H   0  0  0  0  0  0  0  0  0  0  0  0
    2.1340    0.7577    8.0098 H   0  0  0  0  0  0  0  0  0  0  0  0
    0.7021    0.0247    7.3464 H   0  0  0  0  0  0  0  0  0  0  0  0
    3.8304    1.7080    6.5366 H   0  0  0  0  0  0  0  0  0  0  0  0
    3.6114    1.6547    4.8153 H   0  0  0  0  0  0  0  0  0  0  0  0
   -0.6158    0.3761   -2.2683 N   0  0  0  0  0  0  0  0  0  0  0  0
   -0.5248    0.8185   -3.6407 C   0  0  2  0  0  0  0  0  0  0  0  0
   -1.7727    1.6325   -3.9562 C   0  0  0  0  0  0  0  0  0  0  0  0
   -2.8755    1.3841   -3.4732 O   0  0  0  0  0  0  0  0  0  0  0  0
   -0.3885   -0.3588   -4.5937 C   0  0  0  0  0  0  0  0  0  0  0  0
   -1.5380    0.1529   -1.9057 H   0  0  0  0  0  0  0  0  0  0  0  0
    0.3587    1.4627   -3.7074 H   0  0  0  0  0  0  0  0  0  0  0  0
   -1.2644   -1.0156   -4.5409 H   0  0  0  0  0  0  0  0  0  0  0  0
   -0.2909   -0.0207   -5.6306 H   0  0  0  0  0  0  0  0  0  0  0  0
    0.4931   -0.9601   -4.3467 H   0  0  0  0  0  0  0  0  0  0  0  0
   -1.5189    2.6423   -4.8738 N   0  0  0  0  0  0  0  0  0  0  0  0
   -2.5502    3.5254   -5.3664 C   0  0  0  0  0  0  0  0  0  0  0  0
   -0.5672    2.8018   -5.1909 H   0  0  0  0  0  0  0  0  0  0  0  0
   -2.9733    3.1140   -6.2946 H   0  0  0  0  0  0  0  0  0  0  0  0
   -3.3445    3.6185   -4.6111 H   0  0  0  0  0  0  0  0  0  0  0  0
   -2.1182    4.5167   -5.5683 H   0  0  0  0  0  0  0  0  0  0  0  0
  1  3  1  0  0  0  0
  1  7  1  0  0  0  0
  1  2  2  0  0  0  0
 42 43  1  0  0  0  0
 43 51  1  0  0  0  0
 43 44  2  0  0  0  0
  8  9  1  0  0  0  0
  9 17  1  0  0  0  0
  9 10  2  0  0  0  0
 18 19  1  0  0  0  0
 19 41  1  0  0  0  0
 19 20  2  0  0  0  0
 25 26  1  0  0  0  0
 25 27  1  0  0  0  0
 24 25  2  0  0  0  0
 42 45  1  0  0  0  0
  8 11  1  0  0  0  0
 51 52  1  0  0  0  0
 21 22  1  0  0  0  0
 22 23  1  0  0  0  0
 18 21  1  0  0  0  0
 23 24  1  0  0  0  0
 41 42  1  0  0  0  0
  7  8  1  0  0  0  0
 17 18  1  0  0  0  0
  3  4  1  0  0  0  0
  3  5  1  0  0  0  0
  3  6  1  0  0  0  0
 45 48  1  0  0  0  0
 45 49  1  0  0  0  0
 45 50  1  0  0  0  0
 11 14  1  0  0  0  0
 11 15  1  0  0  0  0
 11 16  1  0  0  0  0
 52 54  1  0  0  0  0
 52 55  1  0  0  0  0
 52 56  1  0  0  0  0
 22 32  1  0  0  0  0
 22 33  1  0  0  0  0
 21 30  1  0  0  0  0
 21 31  1  0  0  0  0
 23 34  1  0  0  0  0
 23 35  1  0  0  0  0
 42 47  1  0  0  0  0
  8 13  1  0  0  0  0
 18 29  1  0  0  0  0
 26 37  1  0  0  0  0
 26 38  1  0  0  0  0
 27 39  1  0  0  0  0
 27 40  1  0  0  0  0
 51 53  1  0  0  0  0
  7 12  1  0  0  0  0
 41 46  1  0  0  0  0
 17 28  1  0  0  0  0
 24 36  1  0  0  0  0
M  CHG  1  24   1
M  END
$$$$

  -OEChem-05262214473D

 56 55  0     1  0  0  0  0  0999 V2000
    0.7735   -5.8042   -2.0022 C   0  0  0  0  0  0  0  0  0  0  0  0
   -0.2086   -6.3825   -1.5519 O   0  0  0  0  0  0  0  0  0  0  0  0
    1.4751   -6.3646   -3.1946 C   0  0  0  0  0  0  0  0  0  0  0  0
    2.2765   -7.0687   -2.9186 H   0  0  0  0  0  0  0  0  0  0  0  0
    0.7988   -6.9360   -3.8504 H   0  0  0  0  0  0  0  0  0  0  0  0
    1.9556   -5.6216   -3.8511 H   0  0  0  0  0  0  0  0  0  0  0  0
    1.3322   -4.6359   -1.5106 N   0  0  0  0  0  0  0  0  0  0  0  0
    0.8124   -3.9290   -0.3698 C   0  0  2  0  0  0  0  0  0  0  0  0
    1.0666   -2.4424   -0.5818 C   0  0  0  0  0  0  0  0  0  0  0  0
    2.0598   -2.0076   -1.1610 O   0  0  0  0  0  0  0  0  0  0  0  0
    1.4560   -4.4118    0.9207 C   0  0  0  0  0  0  0  0  0  0  0  0
    2.1528   -4.2578   -1.9805 H   0  0  0  0  0  0  0  0  0  0  0  0
   -0.2667   -4.1160   -0.3467 H   0  0  0  0  0  0  0  0  0  0  0  0
    2.5374   -4.2329    0.9160 H   0  0  0  0  0  0  0  0  0  0  0  0
    1.0390   -3.8932    1.7903 H   0  0  0  0  0  0  0  0  0  0  0  0
    1.2976   -5.4871    1.0566 H   0  0  0  0  0  0  0  0  0  0  0  0
    0.0755   -1.6529   -0.0105 N   0  0  0  0  0  0  0  0  0  0  0  0
    0.1113   -0.2132   -0.0391 C   0  0  2  0  0  0  0  0  0  0  0  0
    0.4952    0.2075   -1.4538 C   0  0  0  0  0  0  0  0  0  0  0  0
    1.6477    0.1536   -1.8781 O   0  0  0  0  0  0  0  0  0  0  0  0
    1.1047    0.3584    0.9776 C   0  0  0  0  0  0  0  0  0  0  0  0
    0.6697    0.1041    2.4258 C   0  0  0  0  0  0  0  0  0  0  0  0
    1.6620    0.6752    3.4334 C   0  0  0  0  0  0  0  0  0  0  0  0
    1.2559    0.4105    4.8119 N   0  3  0  0  0  0  0  0  0  0  0  0
    2.0382    0.7837    5.9063 C   0  0  0  0  0  0  0  0  0  0  0  0
    1.5883    0.4991    7.1912 N   0  0  0  0  0  0  0  0  0  0  0  0
    3.2569    1.4341    5.7430 N   0  0  0  0  0  0  0  0  0  0  0  0
   -0.7323   -2.1024    0.4149 H   0  0  0  0  0  0  0  0  0  0  0  0
   -0.9062    0.1341    0.1734 H   0  0  0  0  0  0  0  0  0  0  0  0
    1.2125    1.4376    0.8156 H   0  0  0  0  0  0  0  0  0  0  0  0
    2.0980   -0.0799    0.8135 H   0  0  0  0  0  0  0  0  0  0  0  0
   -0.3196    0.5458    2.5954 H   0  0  0  0  0  0  0  0  0  0  0  0
    0.5813   -0.9745    2.5995 H   0  0  0  0  0  0  0  0  0  0  0  0
    2.6422    0.2105    3.2887 H   0  0  0  0  0  0  0  0  0  0  0  0
    1.7642    1.7578    3.3111 H   0  0  0  0  0  0  0  0  0  0  0  0
    0.3727   -0.0629    4.9941 H   0  0  0  0  0  0  0  0  0  0  0  0
    2.1340    0.7577    8.0098 H   0  0  0  0  0  0  0  0  0  0  0  0
    0.7021    0.0247    7.3464 H   0  0  0  0  0  0  0  0  0  0  0  0
    3.8304    1.7080    6.5366 H   0  0  0  0  0  0  0  0  0  0  0  0
    3.6114    1.6547    4.8153 H   0  0  0  0  0  0  0  0  0  0  0  0
   -0.5912    0.6951   -2.1667 N   0  0  0  0  0  0  0  0  0  0  0  0
   -0.4829    1.2033   -3.5148 C   0  0  2  0  0  0  0  0  0  0  0  0
   -1.5136    2.3117   -3.6838 C   0  0  0  0  0  0  0  0  0  0  0  0
   -2.6108    2.2976   -3.1297 O   0  0  0  0  0  0  0  0  0  0  0  0
   -0.6968    0.1011   -4.5406 C   0  0  0  0  0  0  0  0  0  0  0  0
   -1.5150    0.6714   -1.7452 H   0  0  0  0  0  0  0  0  0  0  0  0
    0.5244    1.6221   -3.6150 H   0  0  0  0  0  0  0  0  0  0  0  0
   -1.7007   -0.3307   -4.4556 H   0  0  0  0  0  0  0  0  0  0  0  0
   -0.5862    0.4820   -5.5612 H   0  0  0  0  0  0  0  0  0  0  0  0
    0.0265   -0.7091   -4.3986 H   0  0  0  0  0  0  0  0  0  0  0  0
   -1.0813    3.2972   -4.5603 N   0  0  0  0  0  0  0  0  0  0  0  0
   -1.8968    4.4340   -4.9188 C   0  0  0  0  0  0  0  0  0  0  0  0
   -0.1414    3.2487   -4.9424 H   0  0  0  0  0  0  0  0  0  0  0  0
   -2.4651    4.2047   -5.8323 H   0  0  0  0  0  0  0  0  0  0  0  0
   -2.5953    4.6572   -4.0989 H   0  0  0  0  0  0  0  0  0  0  0  0
   -1.2511    5.3063   -5.0981 H   0  0  0  0  0  0  0  0  0  0  0  0
  1  3  1  0  0  0  0
  1  7  1  0  0  0  0
  1  2  2  0  0  0  0
 42 43  1  0  0  0  0
 43 51  1  0  0  0  0
 43 44  2  0  0  0  0
  8  9  1  0  0  0  0
  9 17  1  0  0  0  0
  9 10  2  0  0  0  0
 18 19  1  0  0  0  0
 19 41  1  0  0  0  0
 19 20  2  0  0  0  0
 25 26  1  0  0  0  0
 25 27  1  0  0  0  0
 24 25  2  0  0  0  0
 42 45  1  0  0  0  0
  8 11  1  0  0  0  0
 51 52  1  0  0  0  0
 21 22  1  0  0  0  0
 22 23  1  0  0  0  0
 18 21  1  0  0  0  0
 23 24  1  0  0  0  0
 41 42  1  0  0  0  0
  7  8  1  0  0  0  0
 17 18  1  0  0  0  0
  3  4  1  0  0  0  0
  3  5  1  0  0  0  0
  3  6  1  0  0  0  0
 45 48  1  0  0  0  0
 45 49  1  0  0  0  0
 45 50  1  0  0  0  0
 11 14  1  0  0  0  0
 11 15  1  0  0  0  0
 11 16  1  0  0  0  0
 52 54  1  0  0  0  0
 52 55  1  0  0  0  0
 52 56  1  0  0  0  0
 22 32  1  0  0  0  0
 22 33  1  0  0  0  0
 21 30  1  0  0  0  0
 21 31  1  0  0  0  0
 23 34  1  0  0  0  0
 23 35  1  0  0  0  0
 42 47  1  0  0  0  0
  8 13  1  0  0  0  0
 18 29  1  0  0  0  0
 26 37  1  0  0  0  0
 26 38  1  0  0  0  0
 27 39  1  0  0  0  0
 27 40  1  0  0  0  0
 51 53  1  0  0  0  0
  7 12  1  0  0  0  0
 41 46  1  0  0  0  0
 17 28  1  0  0  0  0
 24 36  1  0  0  0  0
M  CHG  1  24   1
M  END
$$$$

  -OEChem-05262214473D

 56 55  0     1  0  0  0  0  0999 V2000
    0.7735   -5.8042   -2.0022 C   0  0  0  0  0  0  0  0  0  0  0  0
   -0.2086   -6.3825   -1.5519 O   0  0  0  0  0  0  0  0  0  0  0  0
    1.4751   -6.3646   -3.1946 C   0  0  0  0  0  0  0  0  0  0  0  0
    2.2765   -7.0687   -2.9186 H   0  0  0  0  0  0  0  0  0  0  0  0
    0.7988   -6.9360   -3.8504 H   0  0  0  0  0  0  0  0  0  0  0  0
    1.9556   -5.6216   -3.8511 H   0  0  0  0  0  0  0  0  0  0  0  0
    1.3322   -4.6359   -1.5106 N   0  0  0  0  0  0  0  0  0  0  0  0
    0.8124   -3.9290   -0.3698 C   0  0  2  0  0  0  0  0  0  0  0  0
    1.0666   -2.4424   -0.5818 C   0  0  0  0  0  0  0  0  0  0  0  0
    2.0598   -2.0076   -1.1610 O   0  0  0  0  0  0  0  0  0  0  0  0
    1.4560   -4.4118    0.9207 C   0  0  0  0  0  0  0  0  0  0  0  0
    2.1528   -4.2578   -1.9805 H   0  0  0  0  0  0  0  0  0  0  0  0
   -0.2667   -4.1160   -0.3467 H   0  0  0  0  0  0  0  0  0  0  0  0
    2.5374   -4.2329    0.9160 H   0  0  0  0  0  0  0  0  0  0  0  0
    1.0390   -3.8932    1.7903 H   0  0  0  0  0  0  0  0  0  0  0  0
    1.2976   -5.4871    1.0566 H   0  0  0  0  0  0  0  0  0  0  0  0
    0.0755   -1.6529   -0.0105 N   0  0  0  0  0  0  0  0  0  0  0  0
    0.1113   -0.2132   -0.0391 C   0  0  2  0  0  0  0  0  0  0  0  0
    0.4952    0.2075   -1.4538 C   0  0  0  0  0  0  0  0  0  0  0  0
    1.5709   -0.0873   -1.9706 O   0  0  0  0  0  0  0  0  0  0  0  0
    1.1047    0.3584    0.9776 C   0  0  0  0  0  0  0  0  0  0  0  0
    0.6697    0.1041    2.4258 C   0  0  0  0  0  0  0  0  0  0  0  0
    1.6620    0.6752    3.4334 C   0  0  0  0  0  0  0  0  0  0  0  0
    1.2559    0.4105    4.8119 N   0  3  0  0  0  0  0  0  0  0  0  0
    2.0382    0.7837    5.9063 C   0  0  0  0  0  0  0  0  0  0  0  0
    1.5883    0.4991    7.1912 N   0  0  0  0  0  0  0  0  0  0  0  0
    3.2569    1.4341    5.7430 N   0  0  0  0  0  0  0  0  0  0  0  0
   -0.7323   -2.1024    0.4149 H   0  0  0  0  0  0  0  0  0  0  0  0
   -0.9062    0.1341    0.1734 H   0  0  0  0  0  0  0  0  0  0  0  0
    1.2125    1.4376    0.8156 H   0  0  0  0  0  0  0  0  0  0  0  0
    2.0980   -0.0799    0.8135 H   0  0  0  0  0  0  0  0  0  0  0  0
   -0.3196    0.5458    2.5954 H   0  0  0  0  0  0  0  0  0  0  0  0
    0.5813   -0.9745    2.5995 H   0  0  0  0  0  0  0  0  0  0  0  0
    2.6422    0.2105    3.2887 H   0  0  0  0  0  0  0  0  0  0  0  0
    1.7642    1.7578    3.3111 H   0  0  0  0  0  0  0  0  0  0  0  0
    0.3727   -0.0629    4.9941 H   0  0  0  0  0  0  0  0  0  0  0  0
    2.1340    0.7577    8.0098 H   0  0  0  0  0  0  0  0  0  0  0  0
    0.7021    0.0247    7.3464 H   0  0  0  0  0  0  0  0  0  0  0  0
    3.8304    1.7080    6.5366 H   0  0  0  0  0  0  0  0  0  0  0  0
    3.6114    1.6547    4.8153 H   0  0  0  0  0  0  0  0  0  0  0  0
   -0.4835    0.9906   -2.0496 N   0  0  0  0  0  0  0  0  0  0  0  0
   -0.3410    1.5567   -3.3712 C   0  0  2  0  0  0  0  0  0  0  0  0
   -1.0808    2.8877   -3.3951 C   0  0  0  0  0  0  0  0  0  0  0  0
   -2.1112    3.0940   -2.7572 O   0  0  0  0  0  0  0  0  0  0  0  0
   -0.8805    0.6158   -4.4373 C   0  0  0  0  0  0  0  0  0  0  0  0
   -1.3569    1.1562   -1.5581 H   0  0  0  0  0  0  0  0  0  0  0  0
    0.7293    1.7303   -3.5272 H   0  0  0  0  0  0  0  0  0  0  0  0
   -1.9516    0.4300   -4.2974 H   0  0  0  0  0  0  0  0  0  0  0  0
   -0.7458    1.0338   -5.4404 H   0  0  0  0  0  0  0  0  0  0  0  0
   -0.3677   -0.3513   -4.3992 H   0  0  0  0  0  0  0  0  0  0  0  0
   -0.4790    3.8042   -4.2460 N   0  0  0  0  0  0  0  0  0  0  0  0
   -1.0156    5.1256   -4.4740 C   0  0  0  0  0  0  0  0  0  0  0  0
    0.3949    3.5621   -4.7036 H   0  0  0  0  0  0  0  0  0  0  0  0
   -1.6794    5.1061   -5.3509 H   0  0  0  0  0  0  0  0  0  0  0  0
   -1.5857    5.4472   -3.5899 H   0  0  0  0  0  0  0  0  0  0  0  0
   -0.1904    5.8301   -4.6545 H   0  0  0  0  0  0  0  0  0  0  0  0
  1  3  1  0  0  0  0
  1  7  1  0  0  0  0
  1  2  2  0  0  0  0
 42 43  1  0  0  0  0
 43 51  1  0  0  0  0
 43 44  2  0  0  0  0
  8  9  1  0  0  0  0
  9 17  1  0  0  0  0
  9 10  2  0  0  0  0
 18 19  1  0  0  0  0
 19 41  1  0  0  0  0
 19 20  2  0  0  0  0
 25 26  1  0  0  0  0
 25 27  1  0  0  0  0
 24 25  2  0  0  0  0
 42 45  1  0  0  0  0
  8 11  1  0  0  0  0
 51 52  1  0  0  0  0
 21 22  1  0  0  0  0
 22 23  1  0  0  0  0
 18 21  1  0  0  0  0
 23 24  1  0  0  0  0
 41 42  1  0  0  0  0
  7  8  1  0  0  0  0
 17 18  1  0  0  0  0
  3  4  1  0  0  0  0
  3  5  1  0  0  0  0
  3  6  1  0  0  0  0
 45 48  1  0  0  0  0
 45 49  1  0  0  0  0
 45 50  1  0  0  0  0
 11 14  1  0  0  0  0
 11 15  1  0  0  0  0
 11 16  1  0  0  0  0
 52 54  1  0  0  0  0
 52 55  1  0  0  0  0
 52 56  1  0  0  0  0
 22 32  1  0  0  0  0
 22 33  1  0  0  0  0
 21 30  1  0  0  0  0
 21 31  1  0  0  0  0
 23 34  1  0  0  0  0
 23 35  1  0  0  0  0
 42 47  1  0  0  0  0
  8 13  1  0  0  0  0
 18 29  1  0  0  0  0
 26 37  1  0  0  0  0
 26 38  1  0  0  0  0
 27 39  1  0  0  0  0
 27 40  1  0  0  0  0
 51 53  1  0  0  0  0
  7 12  1  0  0  0  0
 41 46  1  0  0  0  0
 17 28  1  0  0  0  0
 24 36  1  0  0  0  0
M  CHG  1  24   1
M  END
$$$$

  -OEChem-05262214473D

 56 55  0     1  0  0  0  0  0999 V2000
    0.7735   -5.8042   -2.0022 C   0  0  0  0  0  0  0  0  0  0  0  0
   -0.2086   -6.3825   -1.5519 O   0  0  0  0  0  0  0  0  0  0  0  0
    1.4751   -6.3646   -3.1946 C   0  0  0  0  0  0  0  0  0  0  0  0
    2.2765   -7.0687   -2.9186 H   0  0  0  0  0  0  0  0  0  0  0  0
    0.7988   -6.9360   -3.8504 H   0  0  0  0  0  0  0  0  0  0  0  0
    1.9556   -5.6216   -3.8511 H   0  0  0  0  0  0  0  0  0  0  0  0
    1.3322   -4.6359   -1.5106 N   0  0  0  0  0  0  0  0  0  0  0  0
    0.8124   -3.9290   -0.3698 C   0  0  2  0  0  0  0  0  0  0  0  0
    1.0666   -2.4424   -0.5818 C   0  0  0  0  0  0  0  0  0  0  0  0
    2.0598   -2.0076   -1.1610 O   0  0  0  0  0  0  0  0  0  0  0  0
    1.4560   -4.4118    0.9207 C   0  0  0  0  0  0  0  0  0  0  0  0
    2.1528   -4.2578   -1.9805 H   0  0  0  0  0  0  0  0  0  0  0  0
   -0.2667   -4.1160   -0.3467 H   0  0  0  0  0  0  0  0  0  0  0  0
    2.5374   -4.2329    0.9160 H   0  0  0  0  0  0  0  0  0  0  0  0
    1.0390   -3.8932    1.7903 H   0  0  0  0  0  0  0  0  0  0  0  0
    1.2976   -5.4871    1.0566 H   0  0  0  0  0  0  0  0  0  0  0  0
    0.0755   -1.6529   -0.0105 N   0  0  0  0  0  0  0  0  0  0  0  0
    0.1113   -0.2132   -0.0391 C   0  0  2  0  0  0  0  0  0  0  0  0
    0.4952    0.2075   -1.4538 C   0  0  0  0  0  0  0  0  0  0  0  0
    1.4323   -0.2956   -2.0702 O   0  0  0  0  0  0  0  0  0  0  0  0
    1.1047    0.3584    0.9776 C   0  0  0  0  0  0  0  0  0  0  0  0
    0.6697    0.1041    2.4258 C   0  0  0  0  0  0  0  0  0  0  0  0
    1.6620    0.6752    3.4334 C   0  0  0  0  0  0  0  0  0  0  0  0
    1.2559    0.4105    4.8119 N   0  3  0  0  0  0  0  0  0  0  0  0
    2.0382    0.7837    5.9063 C   0  0  0  0  0  0  0  0  0  0  0  0
    1.5883    0.4991    7.1912 N   0  0  0  0  0  0  0  0  0  0  0  0
    3.2569    1.4341    5.7430 N   0  0  0  0  0  0  0  0  0  0  0  0
   -0.7323   -2.1024    0.4149 H   0  0  0  0  0  0  0  0  0  0  0  0
   -0.9062    0.1341    0.1734 H   0  0  0  0  0  0  0  0  0  0  0  0
    1.2125    1.4376    0.8156 H   0  0  0  0  0  0  0  0  0  0  0  0
    2.0980   -0.0799    0.8135 H   0  0  0  0  0  0  0  0  0  0  0  0
   -0.3196    0.5458    2.5954 H   0  0  0  0  0  0  0  0  0  0  0  0
    0.5813   -0.9745    2.5995 H   0  0  0  0  0  0  0  0  0  0  0  0
    2.6422    0.2105    3.2887 H   0  0  0  0  0  0  0  0  0  0  0  0
    1.7642    1.7578    3.3111 H   0  0  0  0  0  0  0  0  0  0  0  0
    0.3727   -0.0629    4.9941 H   0  0  0  0  0  0  0  0  0  0  0  0
    2.1340    0.7577    8.0098 H   0  0  0  0  0  0  0  0  0  0  0  0
    0.7021    0.0247    7.3464 H   0  0  0  0  0  0  0  0  0  0  0  0
    3.8304    1.7080    6.5366 H   0  0  0  0  0  0  0  0  0  0  0  0
    3.6114    1.6547    4.8153 H   0  0  0  0  0  0  0  0  0  0  0  0
   -0.3002    1.2427   -1.9249 N   0  0  0  0  0  0  0  0  0  0  0  0
   -0.1089    1.8547   -3.2196 C   0  0  2  0  0  0  0  0  0  0  0  0
   -0.5039    3.3214   -3.1095 C   0  0  0  0  0  0  0  0  0  0  0  0
   -1.4109    3.7190   -2.3813 O   0  0  0  0  0  0  0  0  0  0  0  0
   -0.9269    1.1504   -4.2909 C   0  0  0  0  0  0  0  0  0  0  0  0
   -1.0744    1.5743   -1.3571 H   0  0  0  0  0  0  0  0  0  0  0  0
    0.9595    1.7799   -3.4500 H   0  0  0  0  0  0  0  0  0  0  0  0
   -2.0000    1.2148   -4.0771 H   0  0  0  0  0  0  0  0  0  0  0  0
   -0.7588    1.5974   -5.2763 H   0  0  0  0  0  0  0  0  0  0  0  0
   -0.6625    0.0890   -4.3482 H   0  0  0  0  0  0  0  0  0  0  0  0
    0.2469    4.1288   -3.9524 N   0  0  0  0  0  0  0  0  0  0  0  0
    0.0334    5.5530   -4.0622 C   0  0  0  0  0  0  0  0  0  0  0  0
    1.0052    3.7204   -4.4909 H   0  0  0  0  0  0  0  0  0  0  0  0
   -0.6696    5.7567   -4.8834 H   0  0  0  0  0  0  0  0  0  0  0  0
   -0.3844    5.9348   -3.1189 H   0  0  0  0  0  0  0  0  0  0  0  0
    0.9916    6.0526   -4.2675 H   0  0  0  0  0  0  0  0  0  0  0  0
  1  3  1  0  0  0  0
  1  7  1  0  0  0  0
  1  2  2  0  0  0  0
 42 43  1  0  0  0  0
 43 51  1  0  0  0  0
 43 44  2  0  0  0  0
  8  9  1  0  0  0  0
  9 17  1  0  0  0  0
  9 10  2  0  0  0  0
 18 19  1  0  0  0  0
 19 41  1  0  0  0  0
 19 20  2  0  0  0  0
 25 26  1  0  0  0  0
 25 27  1  0  0  0  0
 24 25  2  0  0  0  0
 42 45  1  0  0  0  0
  8 11  1  0  0  0  0
 51 52  1  0  0  0  0
 21 22  1  0  0  0  0
 22 23  1  0  0  0  0
 18 21  1  0  0  0  0
 23 24  1  0  0  0  0
 41 42  1  0  0  0  0
  7  8  1  0  0  0  0
 17 18  1  0  0  0  0
  3  4  1  0  0  0  0
  3  5  1  0  0  0  0
  3  6  1  0  0  0  0
 45 48  1  0  0  0  0
 45 49  1  0  0  0  0
 45 50  1  0  0  0  0
 11 14  1  0  0  0  0
 11 15  1  0  0  0  0
 11 16  1  0  0  0  0
 52 54  1  0  0  0  0
 52 55  1  0  0  0  0
 52 56  1  0  0  0  0
 22 32  1  0  0  0  0
 22 33  1  0  0  0  0
 21 30  1  0  0  0  0
 21 31  1  0  0  0  0
 23 34  1  0  0  0  0
 23 35  1  0  0  0  0
 42 47  1  0  0  0  0
  8 13  1  0  0  0  0
 18 29  1  0  0  0  0
 26 37  1  0  0  0  0
 26 38  1  0  0  0  0
 27 39  1  0  0  0  0
 27 40  1  0  0  0  0
 51 53  1  0  0  0  0
  7 12  1  0  0  0  0
 41 46  1  0  0  0  0
 17 28  1  0  0  0  0
 24 36  1  0  0  0  0
M  CHG  1  24   1
M  END
$$$$

  -OEChem-05262214473D

 56 55  0     1  0  0  0  0  0999 V2000
    0.7735   -5.8042   -2.0022 C   0  0  0  0  0  0  0  0  0  0  0  0
   -0.2086   -6.3825   -1.5519 O   0  0  0  0  0  0  0  0  0  0  0  0
    1.4751   -6.3646   -3.1946 C   0  0  0  0  0  0  0  0  0  0  0  0
    2.2765   -7.0687   -2.9186 H   0  0  0  0  0  0  0  0  0  0  0  0
    0.7988   -6.9360   -3.8504 H   0  0  0  0  0  0  0  0  0  0  0  0
    1.9556   -5.6216   -3.8511 H   0  0  0  0  0  0  0  0  0  0  0  0
    1.3322   -4.6359   -1.5106 N   0  0  0  0  0  0  0  0  0  0  0  0
    0.8124   -3.9290   -0.3698 C   0  0  2  0  0  0  0  0  0  0  0  0
    1.0666   -2.4424   -0.5818 C   0  0  0  0  0  0  0  0  0  0  0  0
    2.0598   -2.0076   -1.1610 O   0  0  0  0  0  0  0  0  0  0  0  0
    1.4560   -4.4118    0.9207 C   0  0  0  0  0  0  0  0  0  0  0  0
    2.1528   -4.2578   -1.9805 H   0  0  0  0  0  0  0  0  0  0  0  0
   -0.2667   -4.1160   -0.3467 H   0  0  0  0  0  0  0  0  0  0  0  0
    2.5374   -4.2329    0.9160 H   0  0  0  0  0  0  0  0  0  0  0  0
    1.0390   -3.8932    1.7903 H   0  0  0  0  0  0  0  0  0  0  0  0
    1.2976   -5.4871    1.0566 H   0  0  0  0  0  0  0  0  0  0  0  0
    0.0755   -1.6529   -0.0105 N   0  0  0  0  0  0  0  0  0  0  0  0
    0.1113   -0.2132   -0.0391 C   0  0  2  0  0  0  0  0  0  0  0  0
    0.4952    0.2075   -1.4538 C   0  0  0  0  0  0  0  0  0  0  0  0
    1.2413   -0.4570   -2.1700 O   0  0  0  0  0  0  0  0  0  0  0  0
    1.1047    0.3584    0.9776 C   0  0  0  0  0  0  0  0  0  0  0  0
    0.6697    0.1041    2.4258 C   0  0  0  0  0  0  0  0  0  0  0  0
    1.6620    0.6752    3.4334 C   0  0  0  0  0  0  0  0  0  0  0  0
    1.2559    0.4105    4.8119 N   0  3  0  0  0  0  0  0  0  0  0  0
    2.0382    0.7837    5.9063 C   0  0  0  0  0  0  0  0  0  0  0  0
    1.5883    0.4991    7.1912 N   0  0  0  0  0  0  0  0  0  0  0  0
    3.2569    1.4341    5.7430 N   0  0  0  0  0  0  0  0  0  0  0  0
   -0.7323   -2.1024    0.4149 H   0  0  0  0  0  0  0  0  0  0  0  0
   -0.9062    0.1341    0.1734 H   0  0  0  0  0  0  0  0  0  0  0  0
    1.2125    1.4376    0.8156 H   0  0  0  0  0  0  0  0  0  0  0  0
    2.0980   -0.0799    0.8135 H   0  0  0  0  0  0  0  0  0  0  0  0
   -0.3196    0.5458    2.5954 H   0  0  0  0  0  0  0  0  0  0  0  0
    0.5813   -0.9745    2.5995 H   0  0  0  0  0  0  0  0  0  0  0  0
    2.6422    0.2105    3.2887 H   0  0  0  0  0  0  0  0  0  0  0  0
    1.7642    1.7578    3.3111 H   0  0  0  0  0  0  0  0  0  0  0  0
    0.3727   -0.0629    4.9941 H   0  0  0  0  0  0  0  0  0  0  0  0
    2.1340    0.7577    8.0098 H   0  0  0  0  0  0  0  0  0  0  0  0
    0.7021    0.0247    7.3464 H   0  0  0  0  0  0  0  0  0  0  0  0
    3.8304    1.7080    6.5366 H   0  0  0  0  0  0  0  0  0  0  0  0
    3.6114    1.6547    4.8153 H   0  0  0  0  0  0  0  0  0  0  0  0
   -0.0538    1.4340   -1.8011 N   0  0  0  0  0  0  0  0  0  0  0  0
    0.1977    2.0769   -3.0703 C   0  0  2  0  0  0  0  0  0  0  0  0
    0.1779    3.5832   -2.8466 C   0  0  0  0  0  0  0  0  0  0  0  0
   -0.5576    4.1301   -2.0274 O   0  0  0  0  0  0  0  0  0  0  0  0
   -0.8329    1.6684   -4.1113 C   0  0  0  0  0  0  0  0  0  0  0  0
   -0.6868    1.8973   -1.1558 H   0  0  0  0  0  0  0  0  0  0  0  0
    1.1992    1.7675   -3.3886 H   0  0  0  0  0  0  0  0  0  0  0  0
   -1.8426    1.9701   -3.8098 H   0  0  0  0  0  0  0  0  0  0  0  0
   -0.6244    2.1341   -5.0801 H   0  0  0  0  0  0  0  0  0  0  0  0
   -0.8380    0.5818   -4.2493 H   0  0  0  0  0  0  0  0  0  0  0  0
    1.0470    4.2490   -3.6996 N   0  0  0  0  0  0  0  0  0  0  0  0
    1.1786    5.6872   -3.7114 C   0  0  0  0  0  0  0  0  0  0  0  0
    1.6479    3.7130   -4.3187 H   0  0  0  0  0  0  0  0  0  0  0  0
    0.4954    6.1123   -4.4615 H   0  0  0  0  0  0  0  0  0  0  0  0
    0.9266    6.0866   -2.7180 H   0  0  0  0  0  0  0  0  0  0  0  0
    2.2144    5.9585   -3.9637 H   0  0  0  0  0  0  0  0  0  0  0  0
  1  3  1  0  0  0  0
  1  7  1  0  0  0  0
  1  2  2  0  0  0  0
 42 43  1  0  0  0  0
 43 51  1  0  0  0  0
 43 44  2  0  0  0  0
  8  9  1  0  0  0  0
  9 17  1  0  0  0  0
  9 10  2  0  0  0  0
 18 19  1  0  0  0  0
 19 41  1  0  0  0  0
 19 20  2  0  0  0  0
 25 26  1  0  0  0  0
 25 27  1  0  0  0  0
 24 25  2  0  0  0  0
 42 45  1  0  0  0  0
  8 11  1  0  0  0  0
 51 52  1  0  0  0  0
 21 22  1  0  0  0  0
 22 23  1  0  0  0  0
 18 21  1  0  0  0  0
 23 24  1  0  0  0  0
 41 42  1  0  0  0  0
  7  8  1  0  0  0  0
 17 18  1  0  0  0  0
  3  4  1  0  0  0  0
  3  5  1  0  0  0  0
  3  6  1  0  0  0  0
 45 48  1  0  0  0  0
 45 49  1  0  0  0  0
 45 50  1  0  0  0  0
 11 14  1  0  0  0  0
 11 15  1  0  0  0  0
 11 16  1  0  0  0  0
 52 54  1  0  0  0  0
 52 55  1  0  0  0  0
 52 56  1  0  0  0  0
 22 32  1  0  0  0  0
 22 33  1  0  0  0  0
 21 30  1  0  0  0  0
 21 31  1  0  0  0  0
 23 34  1  0  0  0  0
 23 35  1  0  0  0  0
 42 47  1  0  0  0  0
  8 13  1  0  0  0  0
 18 29  1  0  0  0  0
 26 37  1  0  0  0  0
 26 38  1  0  0  0  0
 27 39  1  0  0  0  0
 27 40  1  0  0  0  0
 51 53  1  0  0  0  0
  7 12  1  0  0  0  0
 41 46  1  0  0  0  0
 17 28  1  0  0  0  0
 24 36  1  0  0  0  0
M  CHG  1  24   1
M  END
$$$$

  -OEChem-05262214473D

 56 55  0     1  0  0  0  0  0999 V2000
    0.7735   -5.8042   -2.0022 C   0  0  0  0  0  0  0  0  0  0  0  0
   -0.2086   -6.3825   -1.5519 O   0  0  0  0  0  0  0  0  0  0  0  0
    1.4751   -6.3646   -3.1946 C   0  0  0  0  0  0  0  0  0  0  0  0
    2.2765   -7.0687   -2.9186 H   0  0  0  0  0  0  0  0  0  0  0  0
    0.7988   -6.9360   -3.8504 H   0  0  0  0  0  0  0  0  0  0  0  0
    1.9556   -5.6216   -3.8511 H   0  0  0  0  0  0  0  0  0  0  0  0
    1.3322   -4.6359   -1.5106 N   0  0  0  0  0  0  0  0  0  0  0  0
    0.8124   -3.9290   -0.3698 C   0  0  2  0  0  0  0  0  0  0  0  0
    1.0666   -2.4424   -0.5818 C   0  0  0  0  0  0  0  0  0  0  0  0
    2.0598   -2.0076   -1.1610 O   0  0  0  0  0  0  0  0  0  0  0  0
    1.4560   -4.4118    0.9207 C   0  0  0  0  0  0  0  0  0  0  0  0
    2.1528   -4.2578   -1.9805 H   0  0  0  0  0  0  0  0  0  0  0  0
   -0.2667   -4.1160   -0.3467 H   0  0  0  0  0  0  0  0  0  0  0  0
    2.5374   -4.2329    0.9160 H   0  0  0  0  0  0  0  0  0  0  0  0
    1.0390   -3.8932    1.7903 H   0  0  0  0  0  0  0  0  0  0  0  0
    1.2976   -5.4871    1.0566 H   0  0  0  0  0  0  0  0  0  0  0  0
    0.0755   -1.6529   -0.0105 N   0  0  0  0  0  0  0  0  0  0  0  0
    0.1113   -0.2132   -0.0391 C   0  0  2  0  0  0  0  0  0  0  0  0
    0.4952    0.2075   -1.4538 C   0  0  0  0  0  0  0  0  0  0  0  0
    1.0109   -0.5605   -2.2633 O   0  0  0  0  0  0  0  0  0  0  0  0
    1.1047    0.3584    0.9776 C   0  0  0  0  0  0  0  0  0  0  0  0
    0.6697    0.1041    2.4258 C   0  0  0  0  0  0  0  0  0  0  0  0
    1.6620    0.6752    3.4334 C   0  0  0  0  0  0  0  0  0  0  0  0
    1.2559    0.4105    4.8119 N   0  3  0  0  0  0  0  0  0  0  0  0
    2.0382    0.7837    5.9063 C   0  0  0  0  0  0  0  0  0  0  0  0
    1.5883    0.4991    7.1912 N   0  0  0  0  0  0  0  0  0  0  0  0
    3.2569    1.4341    5.7430 N   0  0  0  0  0  0  0  0  0  0  0  0
   -0.7323   -2.1024    0.4149 H   0  0  0  0  0  0  0  0  0  0  0  0
   -0.9062    0.1341    0.1734 H   0  0  0  0  0  0  0  0  0  0  0  0
    1.2125    1.4376    0.8156 H   0  0  0  0  0  0  0  0  0  0  0  0
    2.0980   -0.0799    0.8135 H   0  0  0  0  0  0  0  0  0  0  0  0
   -0.3196    0.5458    2.5954 H   0  0  0  0  0  0  0  0  0  0  0  0
    0.5813   -0.9745    2.5995 H   0  0  0  0  0  0  0  0  0  0  0  0
    2.6422    0.2105    3.2887 H   0  0  0  0  0  0  0  0  0  0  0  0
    1.7642    1.7578    3.3111 H   0  0  0  0  0  0  0  0  0  0  0  0
    0.3727   -0.0629    4.9941 H   0  0  0  0  0  0  0  0  0  0  0  0
    2.1340    0.7577    8.0098 H   0  0  0  0  0  0  0  0  0  0  0  0
    0.7021    0.0247    7.3464 H   0  0  0  0  0  0  0  0  0  0  0  0
    3.8304    1.7080    6.5366 H   0  0  0  0  0  0  0  0  0  0  0  0
    3.6114    1.6547    4.8153 H   0  0  0  0  0  0  0  0  0  0  0  0
    0.2391    1.5516   -1.6866 N   0  0  0  0  0  0  0  0  0  0  0  0
    0.5579    2.2082   -2.9335 C   0  0  2  0  0  0  0  0  0  0  0  0
    0.9181    3.6553   -2.6243 C   0  0  0  0  0  0  0  0  0  0  0  0
    0.3907    4.2993   -1.7197 O   0  0  0  0  0  0  0  0  0  0  0  0
   -0.6050    2.1345   -3.9108 C   0  0  0  0  0  0  0  0  0  0  0  0
   -0.2205    2.1031   -0.9681 H   0  0  0  0  0  0  0  0  0  0  0  0
    1.4322    1.6940   -3.3473 H   0  0  0  0  0  0  0  0  0  0  0  0
   -1.4902    2.6444   -3.5135 H   0  0  0  0  0  0  0  0  0  0  0  0
   -0.3516    2.6075   -4.8653 H   0  0  0  0  0  0  0  0  0  0  0  0
   -0.8821    1.0935   -4.1090 H   0  0  0  0  0  0  0  0  0  0  0  0
    1.8668    4.1565   -3.5046 N   0  0  0  0  0  0  0  0  0  0  0  0
    2.3421    5.5191   -3.4457 C   0  0  0  0  0  0  0  0  0  0  0  0
    2.2792    3.5402   -4.1988 H   0  0  0  0  0  0  0  0  0  0  0  0
    1.7362    6.1486   -4.1140 H   0  0  0  0  0  0  0  0  0  0  0  0
    2.2580    5.8924   -2.4144 H   0  0  0  0  0  0  0  0  0  0  0  0
    3.3946    5.5542   -3.7637 H   0  0  0  0  0  0  0  0  0  0  0  0
  1  3  1  0  0  0  0
  1  7  1  0  0  0  0
  1  2  2  0  0  0  0
 42 43  1  0  0  0  0
 43 51  1  0  0  0  0
 43 44  2  0  0  0  0
  8  9  1  0  0  0  0
  9 17  1  0  0  0  0
  9 10  2  0  0  0  0
 18 19  1  0  0  0  0
 19 41  1  0  0  0  0
 19 20  2  0  0  0  0
 25 26  1  0  0  0  0
 25 27  1  0  0  0  0
 24 25  2  0  0  0  0
 42 45  1  0  0  0  0
  8 11  1  0  0  0  0
 51 52  1  0  0  0  0
 21 22  1  0  0  0  0
 22 23  1  0  0  0  0
 18 21  1  0  0  0  0
 23 24  1  0  0  0  0
 41 42  1  0  0  0  0
  7  8  1  0  0  0  0
 17 18  1  0  0  0  0
  3  4  1  0  0  0  0
  3  5  1  0  0  0  0
  3  6  1  0  0  0  0
 45 48  1  0  0  0  0
 45 49  1  0  0  0  0
 45 50  1  0  0  0  0
 11 14  1  0  0  0  0
 11 15  1  0  0  0  0
 11 16  1  0  0  0  0
 52 54  1  0  0  0  0
 52 55  1  0  0  0  0
 52 56  1  0  0  0  0
 22 32  1  0  0  0  0
 22 33  1  0  0  0  0
 21 30  1  0  0  0  0
 21 31  1  0  0  0  0
 23 34  1  0  0  0  0
 23 35  1  0  0  0  0
 42 47  1  0  0  0  0
  8 13  1  0  0  0  0
 18 29  1  0  0  0  0
 26 37  1  0  0  0  0
 26 38  1  0  0  0  0
 27 39  1  0  0  0  0
 27 40  1  0  0  0  0
 51 53  1  0  0  0  0
  7 12  1  0  0  0  0
 41 46  1  0  0  0  0
 17 28  1  0  0  0  0
 24 36  1  0  0  0  0
M  CHG  1  24   1
M  END
$$$$

  -OEChem-05262214473D

 56 55  0     1  0  0  0  0  0999 V2000
    0.7735   -5.8042   -2.0022 C   0  0  0  0  0  0  0  0  0  0  0  0
   -0.2086   -6.3825   -1.5519 O   0  0  0  0  0  0  0  0  0  0  0  0
    1.4751   -6.3646   -3.1946 C   0  0  0  0  0  0  0  0  0  0  0  0
    2.2765   -7.0687   -2.9186 H   0  0  0  0  0  0  0  0  0  0  0  0
    0.7988   -6.9360   -3.8504 H   0  0  0  0  0  0  0  0  0  0  0  0
    1.9556   -5.6216   -3.8511 H   0  0  0  0  0  0  0  0  0  0  0  0
    1.3322   -4.6359   -1.5106 N   0  0  0  0  0  0  0  0  0  0  0  0
    0.8124   -3.9290   -0.3698 C   0  0  2  0  0  0  0  0  0  0  0  0
    1.0666   -2.4424   -0.5818 C   0  0  0  0  0  0  0  0  0  0  0  0
    2.0598   -2.0076   -1.1610 O   0  0  0  0  0  0  0  0  0  0  0  0
    1.4560   -4.4118    0.9207 C   0  0  0  0  0  0  0  0  0  0  0  0
    2.1528   -4.2578   -1.9805 H   0  0  0  0  0  0  0  0  0  0  0  0
   -0.2667   -4.1160   -0.3467 H   0  0  0  0  0  0  0  0  0  0  0  0
    2.5374   -4.2329    0.9160 H   0  0  0  0  0  0  0  0  0  0  0  0
    1.0390   -3.8932    1.7903 H   0  0  0  0  0  0  0  0  0  0  0  0
    1.2976   -5.4871    1.0566 H   0  0  0  0  0  0  0  0  0  0  0  0
    0.0755   -1.6529   -0.0105 N   0  0  0  0  0  0  0  0  0  0  0  0
    0.1113   -0.2132   -0.0391 C   0  0  2  0  0  0  0  0  0  0  0  0
    0.1188    0.2159   -1.5025 C   0  0  0  0  0  0  0  0  0  0  0  0
    0.1365   -0.5855   -2.4345 O   0  0  0  0  0  0  0  0  0  0  0  0
    1.3373    0.3469    0.6893 C   0  0  0  0  0  0  0  0  0  0  0  0
    1.2902    0.0842    2.1992 C   0  0  0  0  0  0  0  0  0  0  0  0
    2.5128    0.6438    2.9191 C   0  0  0  0  0  0  0  0  0  0  0  0
    2.4755    0.3710    4.3541 N   0  3  0  0  0  0  0  0  0  0  0  0
    3.5164    0.7330    5.2110 C   0  0  0  0  0  0  0  0  0  0  0  0
    3.4126    0.4412    6.5670 N   0  0  0  0  0  0  0  0  0  0  0  0
    4.6554    1.3793    4.7418 N   0  0  0  0  0  0  0  0  0  0  0  0
   -0.7323   -2.1024    0.4149 H   0  0  0  0  0  0  0  0  0  0  0  0
   -0.8145    0.1370    0.4314 H   0  0  0  0  0  0  0  0  0  0  0  0
    1.4060    1.4268    0.5111 H   0  0  0  0  0  0  0  0  0  0  0  0
    2.2517   -0.0945    0.2712 H   0  0  0  0  0  0  0  0  0  0  0  0
    0.3811    0.5289    2.6215 H   0  0  0  0  0  0  0  0  0  0  0  0
    1.2432   -0.9953    2.3836 H   0  0  0  0  0  0  0  0  0  0  0  0
    3.4193    0.1759    2.5231 H   0  0  0  0  0  0  0  0  0  0  0  0
    2.5863    1.7268    2.7808 H   0  0  0  0  0  0  0  0  0  0  0  0
    1.6666   -0.0998    4.7559 H   0  0  0  0  0  0  0  0  0  0  0  0
    4.1530    0.6917    7.2180 H   0  0  0  0  0  0  0  0  0  0  0  0
    2.5938   -0.0305    6.9434 H   0  0  0  0  0  0  0  0  0  0  0  0
    5.4162    1.6451    5.3616 H   0  0  0  0  0  0  0  0  0  0  0  0
    4.7591    1.6050    3.7553 H   0  0  0  0  0  0  0  0  0  0  0  0
    0.1529    1.5964   -1.6418 N   0  0  0  0  0  0  0  0  0  0  0  0
    0.2143    2.2558   -2.9259 C   0  0  2  0  0  0  0  0  0  0  0  0
    1.0102    3.5431   -2.7560 C   0  0  0  0  0  0  0  0  0  0  0  0
    0.9804    4.2197   -1.7301 O   0  0  0  0  0  0  0  0  0  0  0  0
   -1.1774    2.5445   -3.4668 C   0  0  0  0  0  0  0  0  0  0  0  0
    0.1024    2.1823   -0.8136 H   0  0  0  0  0  0  0  0  0  0  0  0
    0.7501    1.5811   -3.6025 H   0  0  0  0  0  0  0  0  0  0  0  0
   -1.7294    3.2189   -2.8021 H   0  0  0  0  0  0  0  0  0  0  0  0
   -1.1294    3.0183   -4.4528 H   0  0  0  0  0  0  0  0  0  0  0  0
   -1.7585    1.6207   -3.5603 H   0  0  0  0  0  0  0  0  0  0  0  0
    1.7238    3.8704   -3.9004 N   0  0  0  0  0  0  0  0  0  0  0  0
    2.5236    5.0686   -4.0045 C   0  0  0  0  0  0  0  0  0  0  0  0
    1.7226    3.2313   -4.6899 H   0  0  0  0  0  0  0  0  0  0  0  0
    1.9178    5.8778   -4.4383 H   0  0  0  0  0  0  0  0  0  0  0  0
    2.8701    5.3661   -3.0038 H   0  0  0  0  0  0  0  0  0  0  0  0
    3.3924    4.8744   -4.6506 H   0  0  0  0  0  0  0  0  0  0  0  0
  1  3  1  0  0  0  0
  1  7  1  0  0  0  0
  1  2  2  0  0  0  0
 42 43  1  0  0  0  0
 43 51  1  0  0  0  0
 43 44  2  0  0  0  0
  8  9  1  0  0  0  0
  9 17  1  0  0  0  0
  9 10  2  0  0  0  0
 18 19  1  0  0  0  0
 19 41  1  0  0  0  0
 19 20  2  0  0  0  0
 25 26  1  0  0  0  0
 25 27  1  0  0  0  0
 24 25  2  0  0  0  0
 42 45  1  0  0  0  0
  8 11  1  0  0  0  0
 51 52  1  0  0  0  0
 21 22  1  0  0  0  0
 22 23  1  0  0  0  0
 18 21  1  0  0  0  0
 23 24  1  0  0  0  0
 41 42  1  0  0  0  0
  7  8  1  0  0  0  0
 17 18  1  0  0  0  0
  3  4  1  0  0  0  0
  3  5  1  0  0  0  0
  3  6  1  0  0  0  0
 45 48  1  0  0  0  0
 45 49  1  0  0  0  0
 45 50  1  0  0  0  0
 11 14  1  0  0  0  0
 11 15  1  0  0  0  0
 11 16  1  0  0  0  0
 52 54  1  0  0  0  0
 52 55  1  0  0  0  0
 52 56  1  0  0  0  0
 22 32  1  0  0  0  0
 22 33  1  0  0  0  0
 21 30  1  0  0  0  0
 21 31  1  0  0  0  0
 23 34  1  0  0  0  0
 23 35  1  0  0  0  0
 42 47  1  0  0  0  0
  8 13  1  0  0  0  0
 18 29  1  0  0  0  0
 26 37  1  0  0  0  0
 26 38  1  0  0  0  0
 27 39  1  0  0  0  0
 27 40  1  0  0  0  0
 51 53  1  0  0  0  0
  7 12  1  0  0  0  0
 41 46  1  0  0  0  0
 17 28  1  0  0  0  0
 24 36  1  0  0  0  0
M  CHG  1  24   1
M  END
$$$$

  -OEChem-05262214473D

 56 55  0     1  0  0  0  0  0999 V2000
    0.7735   -5.8042   -2.0022 C   0  0  0  0  0  0  0  0  0  0  0  0
   -0.2086   -6.3825   -1.5519 O   0  0  0  0  0  0  0  0  0  0  0  0
    1.4751   -6.3646   -3.1946 C   0  0  0  0  0  0  0  0  0  0  0  0
    2.2765   -7.0687   -2.9186 H   0  0  0  0  0  0  0  0  0  0  0  0
    0.7988   -6.9360   -3.8504 H   0  0  0  0  0  0  0  0  0  0  0  0
    1.9556   -5.6216   -3.8511 H   0  0  0  0  0  0  0  0  0  0  0  0
    1.3322   -4.6359   -1.5106 N   0  0  0  0  0  0  0  0  0  0  0  0
    0.8124   -3.9290   -0.3698 C   0  0  2  0  0  0  0  0  0  0  0  0
    1.0666   -2.4424   -0.5818 C   0  0  0  0  0  0  0  0  0  0  0  0
    2.0598   -2.0076   -1.1610 O   0  0  0  0  0  0  0  0  0  0  0  0
    1.4560   -4.4118    0.9207 C   0  0  0  0  0  0  0  0  0  0  0  0
    2.1528   -4.2578   -1.9805 H   0  0  0  0  0  0  0  0  0  0  0  0
   -0.2667   -4.1160   -0.3467 H   0  0  0  0  0  0  0  0  0  0  0  0
    2.5374   -4.2329    0.9160 H   0  0  0  0  0  0  0  0  0  0  0  0
    1.0390   -3.8932    1.7903 H   0  0  0  0  0  0  0  0  0  0  0  0
    1.2976   -5.4871    1.0566 H   0  0  0  0  0  0  0  0  0  0  0  0
    0.0755   -1.6529   -0.0105 N   0  0  0  0  0  0  0  0  0  0  0  0
    0.1113   -0.2132   -0.0391 C   0  0  2  0  0  0  0  0  0  0  0  0
    0.1188    0.2159   -1.5025 C   0  0  0  0  0  0  0  0  0  0  0  0
   -0.1309   -0.5550   -2.4269 O   0  0  0  0  0  0  0  0  0  0  0  0
    1.3373    0.3469    0.6893 C   0  0  0  0  0  0  0  0  0  0  0  0
    1.2902    0.0842    2.1992 C   0  0  0  0  0  0  0  0  0  0  0  0
    2.5128    0.6438    2.9191 C   0  0  0  0  0  0  0  0  0  0  0  0
    2.4755    0.3710    4.3541 N   0  3  0  0  0  0  0  0  0  0  0  0
    3.5164    0.7330    5.2110 C   0  0  0  0  0  0  0  0  0  0  0  0
    3.4126    0.4412    6.5670 N   0  0  0  0  0  0  0  0  0  0  0  0
    4.6554    1.3793    4.7418 N   0  0  0  0  0  0  0  0  0  0  0  0
   -0.7323   -2.1024    0.4149 H   0  0  0  0  0  0  0  0  0  0  0  0
   -0.8145    0.1370    0.4314 H   0  0  0  0  0  0  0  0  0  0  0  0
    1.4060    1.4268    0.5111 H   0  0  0  0  0  0  0  0  0  0  0  0
    2.2517   -0.0945    0.2712 H   0  0  0  0  0  0  0  0  0  0  0  0
    0.3811    0.5289    2.6215 H   0  0  0  0  0  0  0  0  0  0  0  0
    1.2432   -0.9953    2.3836 H   0  0  0  0  0  0  0  0  0  0  0  0
    3.4193    0.1759    2.5231 H   0  0  0  0  0  0  0  0  0  0  0  0
    2.5863    1.7268    2.7808 H   0  0  0  0  0  0  0  0  0  0  0  0
    1.6666   -0.0998    4.7559 H   0  0  0  0  0  0  0  0  0  0  0  0
    4.1530    0.6917    7.2180 H   0  0  0  0  0  0  0  0  0  0  0  0
    2.5938   -0.0305    6.9434 H   0  0  0  0  0  0  0  0  0  0  0  0
    5.4162    1.6451    5.3616 H   0  0  0  0  0  0  0  0  0  0  0  0
    4.7591    1.6050    3.7553 H   0  0  0  0  0  0  0  0  0  0  0  0
    0.4845    1.5461   -1.6549 N   0  0  0  0  0  0  0  0  0  0  0  0
    0.6143    2.1829   -2.9453 C   0  0  2  0  0  0  0  0  0  0  0  0
    1.7152    3.2305   -2.8441 C   0  0  0  0  0  0  0  0  0  0  0  0
    1.9290    3.8825   -1.8242 O   0  0  0  0  0  0  0  0  0  0  0  0
   -0.6976    2.8138   -3.3854 C   0  0  0  0  0  0  0  0  0  0  0  0
    0.6415    2.1174   -0.8299 H   0  0  0  0  0  0  0  0  0  0  0  0
    0.9151    1.4035   -3.6538 H   0  0  0  0  0  0  0  0  0  0  0  0
   -1.0150    3.5972   -2.6876 H   0  0  0  0  0  0  0  0  0  0  0  0
   -0.6052    3.2712   -4.3760 H   0  0  0  0  0  0  0  0  0  0  0  0
   -1.4952    2.0643   -3.4288 H   0  0  0  0  0  0  0  0  0  0  0  0
    2.4026    3.3823   -4.0401 N   0  0  0  0  0  0  0  0  0  0  0  0
    3.4652    4.3454   -4.2118 C   0  0  0  0  0  0  0  0  0  0  0  0
    2.1853    2.7718   -4.8223 H   0  0  0  0  0  0  0  0  0  0  0  0
    3.0496    5.2842   -4.6066 H   0  0  0  0  0  0  0  0  0  0  0  0
    3.9465    4.5370   -3.2415 H   0  0  0  0  0  0  0  0  0  0  0  0
    4.2092    3.9483   -4.9181 H   0  0  0  0  0  0  0  0  0  0  0  0
  1  3  1  0  0  0  0
  1  7  1  0  0  0  0
  1  2  2  0  0  0  0
 42 43  1  0  0  0  0
 43 51  1  0  0  0  0
 43 44  2  0  0  0  0
  8  9  1  0  0  0  0
  9 17  1  0  0  0  0
  9 10  2  0  0  0  0
 18 19  1  0  0  0  0
 19 41  1  0  0  0  0
 19 20  2  0  0  0  0
 25 26  1  0  0  0  0
 25 27  1  0  0  0  0
 24 25  2  0  0  0  0
 42 45  1  0  0  0  0
  8 11  1  0  0  0  0
 51 52  1  0  0  0  0
 21 22  1  0  0  0  0
 22 23  1  0  0  0  0
 18 21  1  0  0  0  0
 23 24  1  0  0  0  0
 41 42  1  0  0  0  0
  7  8  1  0  0  0  0
 17 18  1  0  0  0  0
  3  4  1  0  0  0  0
  3  5  1  0  0  0  0
  3  6  1  0  0  0  0
 45 48  1  0  0  0  0
 45 49  1  0  0  0  0
 45 50  1  0  0  0  0
 11 14  1  0  0  0  0
 11 15  1  0  0  0  0
 11 16  1  0  0  0  0
 52 54  1  0  0  0  0
 52 55  1  0  0  0  0
 52 56  1  0  0  0  0
 22 32  1  0  0  0  0
 22 33  1  0  0  0  0
 21 30  1  0  0  0  0
 21 31  1  0  0  0  0
 23 34  1  0  0  0  0
 23 35  1  0  0  0  0
 42 47  1  0  0  0  0
  8 13  1  0  0  0  0
 18 29  1  0  0  0  0
 26 37  1  0  0  0  0
 26 38  1  0  0  0  0
 27 39  1  0  0  0  0
 27 40  1  0  0  0  0
 51 53  1  0  0  0  0
  7 12  1  0  0  0  0
 41 46  1  0  0  0  0
 17 28  1  0  0  0  0
 24 36  1  0  0  0  0
M  CHG  1  24   1
M  END
$$$$

  -OEChem-05262214473D

 56 55  0     1  0  0  0  0  0999 V2000
    0.7735   -5.8042   -2.0022 C   0  0  0  0  0  0  0  0  0  0  0  0
   -0.2086   -6.3825   -1.5519 O   0  0  0  0  0  0  0  0  0  0  0  0
    1.4751   -6.3646   -3.1946 C   0  0  0  0  0  0  0  0  0  0  0  0
    2.2765   -7.0687   -2.9186 H   0  0  0  0  0  0  0  0  0  0  0  0
    0.7988   -6.9360   -3.8504 H   0  0  0  0  0  0  0  0  0  0  0  0
    1.9556   -5.6216   -3.8511 H   0  0  0  0  0  0  0  0  0  0  0  0
    1.3322   -4.6359   -1.5106 N   0  0  0  0  0  0  0  0  0  0  0  0
    0.8124   -3.9290   -0.3698 C   0  0  2  0  0  0  0  0  0  0  0  0
    1.0666   -2.4424   -0.5818 C   0  0  0  0  0  0  0  0  0  0  0  0
    2.0598   -2.0076   -1.1610 O   0  0  0  0  0  0  0  0  0  0  0  0
    1.4560   -4.4118    0.9207 C   0  0  0  0  0  0  0  0  0  0  0  0
    2.1528   -4.2578   -1.9805 H   0  0  0  0  0  0  0  0  0  0  0  0
   -0.2667   -4.1160   -0.3467 H   0  0  0  0  0  0  0  0  0  0  0  0
    2.5374   -4.2329    0.9160 H   0  0  0  0  0  0  0  0  0  0  0  0
    1.0390   -3.8932    1.7903 H   0  0  0  0  0  0  0  0  0  0  0  0
    1.2976   -5.4871    1.0566 H   0  0  0  0  0  0  0  0  0  0  0  0
    0.0755   -1.6529   -0.0105 N   0  0  0  0  0  0  0  0  0  0  0  0
    0.1113   -0.2132   -0.0391 C   0  0  2  0  0  0  0  0  0  0  0  0
    0.1188    0.2159   -1.5025 C   0  0  0  0  0  0  0  0  0  0  0  0
   -0.3811   -0.4591   -2.4000 O   0  0  0  0  0  0  0  0  0  0  0  0
    1.3373    0.3469    0.6893 C   0  0  0  0  0  0  0  0  0  0  0  0
    1.2902    0.0842    2.1992 C   0  0  0  0  0  0  0  0  0  0  0  0
    2.5128    0.6438    2.9191 C   0  0  0  0  0  0  0  0  0  0  0  0
    2.4755    0.3710    4.3541 N   0  3  0  0  0  0  0  0  0  0  0  0
    3.5164    0.7330    5.2110 C   0  0  0  0  0  0  0  0  0  0  0  0
    3.4126    0.4412    6.5670 N   0  0  0  0  0  0  0  0  0  0  0  0
    4.6554    1.3793    4.7418 N   0  0  0  0  0  0  0  0  0  0  0  0
   -0.7323   -2.1024    0.4149 H   0  0  0  0  0  0  0  0  0  0  0  0
   -0.8145    0.1370    0.4314 H   0  0  0  0  0  0  0  0  0  0  0  0
    1.4060    1.4268    0.5111 H   0  0  0  0  0  0  0  0  0  0  0  0
    2.2517   -0.0945    0.2712 H   0  0  0  0  0  0  0  0  0  0  0  0
    0.3811    0.5289    2.6215 H   0  0  0  0  0  0  0  0  0  0  0  0
    1.2432   -0.9953    2.3836 H   0  0  0  0  0  0  0  0  0  0  0  0
    3.4193    0.1759    2.5231 H   0  0  0  0  0  0  0  0  0  0  0  0
    2.5863    1.7268    2.7808 H   0  0  0  0  0  0  0  0  0  0  0  0
    1.6666   -0.0998    4.7559 H   0  0  0  0  0  0  0  0  0  0  0  0
    4.1530    0.6917    7.2180 H   0  0  0  0  0  0  0  0  0  0  0  0
    2.5938   -0.0305    6.9434 H   0  0  0  0  0  0  0  0  0  0  0  0
    5.4162    1.6451    5.3616 H   0  0  0  0  0  0  0  0  0  0  0  0
    4.7591    1.6050    3.7553 H   0  0  0  0  0  0  0  0  0  0  0  0
    0.7914    1.4151   -1.6917 N   0  0  0  0  0  0  0  0  0  0  0  0
    0.9812    2.0133   -2.9932 C   0  0  2  0  0  0  0  0  0  0  0  0
    2.3121    2.7536   -2.9810 C   0  0  0  0  0  0  0  0  0  0  0  0
    2.7547    3.3213   -1.9846 O   0  0  0  0  0  0  0  0  0  0  0  0
   -0.1613    2.9547   -3.3413 C   0  0  0  0  0  0  0  0  0  0  0  0
    1.1449    1.9209   -0.8850 H   0  0  0  0  0  0  0  0  0  0  0  0
    1.0266    1.1910   -3.7156 H   0  0  0  0  0  0  0  0  0  0  0  0
   -0.2226    3.7851   -2.6285 H   0  0  0  0  0  0  0  0  0  0  0  0
   -0.0305    3.3852   -4.3396 H   0  0  0  0  0  0  0  0  0  0  0  0
   -1.1211    2.4272   -3.3205 H   0  0  0  0  0  0  0  0  0  0  0  0
    2.9269    2.7424   -4.2252 N   0  0  0  0  0  0  0  0  0  0  0  0
    4.1800    3.4132   -4.4816 C   0  0  0  0  0  0  0  0  0  0  0  0
    2.5085    2.2132   -4.9845 H   0  0  0  0  0  0  0  0  0  0  0  0
    3.9830    4.4299   -4.8525 H   0  0  0  0  0  0  0  0  0  0  0  0
    4.7630    3.4692   -3.5505 H   0  0  0  0  0  0  0  0  0  0  0  0
    4.7487    2.8512   -5.2371 H   0  0  0  0  0  0  0  0  0  0  0  0
  1  3  1  0  0  0  0
  1  7  1  0  0  0  0
  1  2  2  0  0  0  0
 42 43  1  0  0  0  0
 43 51  1  0  0  0  0
 43 44  2  0  0  0  0
  8  9  1  0  0  0  0
  9 17  1  0  0  0  0
  9 10  2  0  0  0  0
 18 19  1  0  0  0  0
 19 41  1  0  0  0  0
 19 20  2  0  0  0  0
 25 26  1  0  0  0  0
 25 27  1  0  0  0  0
 24 25  2  0  0  0  0
 42 45  1  0  0  0  0
  8 11  1  0  0  0  0
 51 52  1  0  0  0  0
 21 22  1  0  0  0  0
 22 23  1  0  0  0  0
 18 21  1  0  0  0  0
 23 24  1  0  0  0  0
 41 42  1  0  0  0  0
  7  8  1  0  0  0  0
 17 18  1  0  0  0  0
  3  4  1  0  0  0  0
  3  5  1  0  0  0  0
  3  6  1  0  0  0  0
 45 48  1  0  0  0  0
 45 49  1  0  0  0  0
 45 50  1  0  0  0  0
 11 14  1  0  0  0  0
 11 15  1  0  0  0  0
 11 16  1  0  0  0  0
 52 54  1  0  0  0  0
 52 55  1  0  0  0  0
 52 56  1  0  0  0  0
 22 32  1  0  0  0  0
 22 33  1  0  0  0  0
 21 30  1  0  0  0  0
 21 31  1  0  0  0  0
 23 34  1  0  0  0  0
 23 35  1  0  0  0  0
 42 47  1  0  0  0  0
  8 13  1  0  0  0  0
 18 29  1  0  0  0  0
 26 37  1  0  0  0  0
 26 38  1  0  0  0  0
 27 39  1  0  0  0  0
 27 40  1  0  0  0  0
 51 53  1  0  0  0  0
  7 12  1  0  0  0  0
 41 46  1  0  0  0  0
 17 28  1  0  0  0  0
 24 36  1  0  0  0  0
M  CHG  1  24   1
M  END
$$$$

  -OEChem-05262214473D

 56 55  0     1  0  0  0  0  0999 V2000
    0.7735   -5.8042   -2.0022 C   0  0  0  0  0  0  0  0  0  0  0  0
   -0.2086   -6.3825   -1.5519 O   0  0  0  0  0  0  0  0  0  0  0  0
    1.4751   -6.3646   -3.1946 C   0  0  0  0  0  0  0  0  0  0  0  0
    2.2765   -7.0687   -2.9186 H   0  0  0  0  0  0  0  0  0  0  0  0
    0.7988   -6.9360   -3.8504 H   0  0  0  0  0  0  0  0  0  0  0  0
    1.9556   -5.6216   -3.8511 H   0  0  0  0  0  0  0  0  0  0  0  0
    1.3322   -4.6359   -1.5106 N   0  0  0  0  0  0  0  0  0  0  0  0
    0.8124   -3.9290   -0.3698 C   0  0  2  0  0  0  0  0  0  0  0  0
    1.0666   -2.4424   -0.5818 C   0  0  0  0  0  0  0  0  0  0  0  0
    2.0598   -2.0076   -1.1610 O   0  0  0  0  0  0  0  0  0  0  0  0
    1.4560   -4.4118    0.9207 C   0  0  0  0  0  0  0  0  0  0  0  0
    2.1528   -4.2578   -1.9805 H   0  0  0  0  0  0  0  0  0  0  0  0
   -0.2667   -4.1160   -0.3467 H   0  0  0  0  0  0  0  0  0  0  0  0
    2.5374   -4.2329    0.9160 H   0  0  0  0  0  0  0  0  0  0  0  0
    1.0390   -3.8932    1.7903 H   0  0  0  0  0  0  0  0  0  0  0  0
    1.2976   -5.4871    1.0566 H   0  0  0  0  0  0  0  0  0  0  0  0
    0.0755   -1.6529   -0.0105 N   0  0  0  0  0  0  0  0  0  0  0  0
    0.1113   -0.2132   -0.0391 C   0  0  2  0  0  0  0  0  0  0  0  0
    0.1188    0.2159   -1.5025 C   0  0  0  0  0  0  0  0  0  0  0  0
   -0.5970   -0.3044   -2.3558 O   0  0  0  0  0  0  0  0  0  0  0  0
    1.3373    0.3469    0.6893 C   0  0  0  0  0  0  0  0  0  0  0  0
    1.2902    0.0842    2.1992 C   0  0  0  0  0  0  0  0  0  0  0  0
    2.5128    0.6438    2.9191 C   0  0  0  0  0  0  0  0  0  0  0  0
    2.4755    0.3710    4.3541 N   0  3  0  0  0  0  0  0  0  0  0  0
    3.5164    0.7330    5.2110 C   0  0  0  0  0  0  0  0  0  0  0  0
    3.4126    0.4412    6.5670 N   0  0  0  0  0  0  0  0  0  0  0  0
    4.6554    1.3793    4.7418 N   0  0  0  0  0  0  0  0  0  0  0  0
   -0.7323   -2.1024    0.4149 H   0  0  0  0  0  0  0  0  0  0  0  0
   -0.8145    0.1370    0.4314 H   0  0  0  0  0  0  0  0  0  0  0  0
    1.4060    1.4268    0.5111 H   0  0  0  0  0  0  0  0  0  0  0  0
    2.2517   -0.0945    0.2712 H   0  0  0  0  0  0  0  0  0  0  0  0
    0.3811    0.5289    2.6215 H   0  0  0  0  0  0  0  0  0  0  0  0
    1.2432   -0.9953    2.3836 H   0  0  0  0  0  0  0  0  0  0  0  0
    3.4193    0.1759    2.5231 H   0  0  0  0  0  0  0  0  0  0  0  0
    2.5863    1.7268    2.7808 H   0  0  0  0  0  0  0  0  0  0  0  0
    1.6666   -0.0998    4.7559 H   0  0  0  0  0  0  0  0  0  0  0  0
    4.1530    0.6917    7.2180 H   0  0  0  0  0  0  0  0  0  0  0  0
    2.5938   -0.0305    6.9434 H   0  0  0  0  0  0  0  0  0  0  0  0
    5.4162    1.6451    5.3616 H   0  0  0  0  0  0  0  0  0  0  0  0
    4.7591    1.6050    3.7553 H   0  0  0  0  0  0  0  0  0  0  0  0
    1.0526    1.2125   -1.7499 N   0  0  0  0  0  0  0  0  0  0  0  0
    1.2899    1.7583   -3.0664 C   0  0  2  0  0  0  0  0  0  0  0  0
    2.7602    2.1448   -3.1572 C   0  0  0  0  0  0  0  0  0  0  0  0
    3.4013    2.5744   -2.2004 O   0  0  0  0  0  0  0  0  0  0  0  0
    0.3949    2.9575   -3.3377 C   0  0  0  0  0  0  0  0  0  0  0  0
    1.5783    1.6062   -0.9751 H   0  0  0  0  0  0  0  0  0  0  0  0
    1.0770    0.9582   -3.7836 H   0  0  0  0  0  0  0  0  0  0  0  0
    0.5938    3.7696   -2.6288 H   0  0  0  0  0  0  0  0  0  0  0  0
    0.5556    3.3525   -4.3463 H   0  0  0  0  0  0  0  0  0  0  0  0
   -0.6617    2.6847   -3.2426 H   0  0  0  0  0  0  0  0  0  0  0  0
    3.2609    1.9943   -4.4429 N   0  0  0  0  0  0  0  0  0  0  0  0
    4.6193    2.3356   -4.7954 C   0  0  0  0  0  0  0  0  0  0  0  0
    2.6701    1.5936   -5.1654 H   0  0  0  0  0  0  0  0  0  0  0  0
    4.6546    3.3732   -5.1590 H   0  0  0  0  0  0  0  0  0  0  0  0
    5.2641    2.2353   -3.9099 H   0  0  0  0  0  0  0  0  0  0  0  0
    4.9741    1.6580   -5.5860 H   0  0  0  0  0  0  0  0  0  0  0  0
  1  3  1  0  0  0  0
  1  7  1  0  0  0  0
  1  2  2  0  0  0  0
 42 43  1  0  0  0  0
 43 51  1  0  0  0  0
 43 44  2  0  0  0  0
  8  9  1  0  0  0  0
  9 17  1  0  0  0  0
  9 10  2  0  0  0  0
 18 19  1  0  0  0  0
 19 41  1  0  0  0  0
 19 20  2  0  0  0  0
 25 26  1  0  0  0  0
 25 27  1  0  0  0  0
 24 25  2  0  0  0  0
 42 45  1  0  0  0  0
  8 11  1  0  0  0  0
 51 52  1  0  0  0  0
 21 22  1  0  0  0  0
 22 23  1  0  0  0  0
 18 21  1  0  0  0  0
 23 24  1  0  0  0  0
 41 42  1  0  0  0  0
  7  8  1  0  0  0  0
 17 18  1  0  0  0  0
  3  4  1  0  0  0  0
  3  5  1  0  0  0  0
  3  6  1  0  0  0  0
 45 48  1  0  0  0  0
 45 49  1  0  0  0  0
 45 50  1  0  0  0  0
 11 14  1  0  0  0  0
 11 15  1  0  0  0  0
 11 16  1  0  0  0  0
 52 54  1  0  0  0  0
 52 55  1  0  0  0  0
 52 56  1  0  0  0  0
 22 32  1  0  0  0  0
 22 33  1  0  0  0  0
 21 30  1  0  0  0  0
 21 31  1  0  0  0  0
 23 34  1  0  0  0  0
 23 35  1  0  0  0  0
 42 47  1  0  0  0  0
  8 13  1  0  0  0  0
 18 29  1  0  0  0  0
 26 37  1  0  0  0  0
 26 38  1  0  0  0  0
 27 39  1  0  0  0  0
 27 40  1  0  0  0  0
 51 53  1  0  0  0  0
  7 12  1  0  0  0  0
 41 46  1  0  0  0  0
 17 28  1  0  0  0  0
 24 36  1  0  0  0  0
M  CHG  1  24   1
M  END
$$$$

  -OEChem-05262214473D

 56 55  0     1  0  0  0  0  0999 V2000
    0.7735   -5.8042   -2.0022 C   0  0  0  0  0  0  0  0  0  0  0  0
   -0.2086   -6.3825   -1.5519 O   0  0  0  0  0  0  0  0  0  0  0  0
    1.4751   -6.3646   -3.1946 C   0  0  0  0  0  0  0  0  0  0  0  0
    2.2765   -7.0687   -2.9186 H   0  0  0  0  0  0  0  0  0  0  0  0
    0.7988   -6.9360   -3.8504 H   0  0  0  0  0  0  0  0  0  0  0  0
    1.9556   -5.6216   -3.8511 H   0  0  0  0  0  0  0  0  0  0  0  0
    1.3322   -4.6359   -1.5106 N   0  0  0  0  0  0  0  0  0  0  0  0
    0.8124   -3.9290   -0.3698 C   0  0  2  0  0  0  0  0  0  0  0  0
    1.0666   -2.4424   -0.5818 C   0  0  0  0  0  0  0  0  0  0  0  0
    2.0598   -2.0076   -1.1610 O   0  0  0  0  0  0  0  0  0  0  0  0
    1.4560   -4.4118    0.9207 C   0  0  0  0  0  0  0  0  0  0  0  0
    2.1528   -4.2578   -1.9805 H   0  0  0  0  0  0  0  0  0  0  0  0
   -0.2667   -4.1160   -0.3467 H   0  0  0  0  0  0  0  0  0  0  0  0
    2.5374   -4.2329    0.9160 H   0  0  0  0  0  0  0  0  0  0  0  0
    1.0390   -3.8932    1.7903 H   0  0  0  0  0  0  0  0  0  0  0  0
    1.2976   -5.4871    1.0566 H   0  0  0  0  0  0  0  0  0  0  0  0
    0.0755   -1.6529   -0.0105 N   0  0  0  0  0  0  0  0  0  0  0  0
    0.1113   -0.2132   -0.0391 C   0  0  2  0  0  0  0  0  0  0  0  0
    0.1188    0.2159   -1.5025 C   0  0  0  0  0  0  0  0  0  0  0  0
   -0.7639   -0.1014   -2.2971 O   0  0  0  0  0  0  0  0  0  0  0  0
    1.3373    0.3469    0.6893 C   0  0  0  0  0  0  0  0  0  0  0  0
    1.2902    0.0842    2.1992 C   0  0  0  0  0  0  0  0  0  0  0  0
    2.5128    0.6438    2.9191 C   0  0  0  0  0  0  0  0  0  0  0  0
    2.4755    0.3710    4.3541 N   0  3  0  0  0  0  0  0  0  0  0  0
    3.5164    0.7330    5.2110 C   0  0  0  0  0  0  0  0  0  0  0  0
    3.4126    0.4412    6.5670 N   0  0  0  0  0  0  0  0  0  0  0  0
    4.6554    1.3793    4.7418 N   0  0  0  0  0  0  0  0  0  0  0  0
   -0.7323   -2.1024    0.4149 H   0  0  0  0  0  0  0  0  0  0  0  0
   -0.8145    0.1370    0.4314 H   0  0  0  0  0  0  0  0  0  0  0  0
    1.4060    1.4268    0.5111 H   0  0  0  0  0  0  0  0  0  0  0  0
    2.2517   -0.0945    0.2712 H   0  0  0  0  0  0  0  0  0  0  0  0
    0.3811    0.5289    2.6215 H   0  0  0  0  0  0  0  0  0  0  0  0
    1.2432   -0.9953    2.3836 H   0  0  0  0  0  0  0  0  0  0  0  0
    3.4193    0.1759    2.5231 H   0  0  0  0  0  0  0  0  0  0  0  0
    2.5863    1.7268    2.7808 H   0  0  0  0  0  0  0  0  0  0  0  0
    1.6666   -0.0998    4.7559 H   0  0  0  0  0  0  0  0  0  0  0  0
    4.1530    0.6917    7.2180 H   0  0  0  0  0  0  0  0  0  0  0  0
    2.5938   -0.0305    6.9434 H   0  0  0  0  0  0  0  0  0  0  0  0
    5.4162    1.6451    5.3616 H   0  0  0  0  0  0  0  0  0  0  0  0
    4.7591    1.6050    3.7553 H   0  0  0  0  0  0  0  0  0  0  0  0
    1.2503    0.9519   -1.8253 N   0  0  0  0  0  0  0  0  0  0  0  0
    1.5195    1.4355   -3.1599 C   0  0  2  0  0  0  0  0  0  0  0  0
    3.0291    1.4457   -3.3609 C   0  0  0  0  0  0  0  0  0  0  0  0
    3.8245    1.6926   -2.4568 O   0  0  0  0  0  0  0  0  0  0  0  0
    0.9331    2.8222   -3.3747 C   0  0  0  0  0  0  0  0  0  0  0  0
    1.9123    1.1946   -1.0941 H   0  0  0  0  0  0  0  0  0  0  0  0
    1.0629    0.7208   -3.8533 H   0  0  0  0  0  0  0  0  0  0  0  0
    1.3785    3.5519   -2.6887 H   0  0  0  0  0  0  0  0  0  0  0  0
    1.1132    3.1753   -4.3954 H   0  0  0  0  0  0  0  0  0  0  0  0
   -0.1483    2.8193   -3.2006 H   0  0  0  0  0  0  0  0  0  0  0  0
    3.3819    1.1891   -4.6784 N   0  0  0  0  0  0  0  0  0  0  0  0
    4.7531    1.1860   -5.1319 C   0  0  0  0  0  0  0  0  0  0  0  0
    2.6592    0.9551   -5.3527 H   0  0  0  0  0  0  0  0  0  0  0  0
    5.0186    2.1861   -5.5053 H   0  0  0  0  0  0  0  0  0  0  0  0
    5.4154    0.9195   -4.2950 H   0  0  0  0  0  0  0  0  0  0  0  0
    4.8700    0.4498   -5.9408 H   0  0  0  0  0  0  0  0  0  0  0  0
  1  3  1  0  0  0  0
  1  7  1  0  0  0  0
  1  2  2  0  0  0  0
 42 43  1  0  0  0  0
 43 51  1  0  0  0  0
 43 44  2  0  0  0  0
  8  9  1  0  0  0  0
  9 17  1  0  0  0  0
  9 10  2  0  0  0  0
 18 19  1  0  0  0  0
 19 41  1  0  0  0  0
 19 20  2  0  0  0  0
 25 26  1  0  0  0  0
 25 27  1  0  0  0  0
 24 25  2  0  0  0  0
 42 45  1  0  0  0  0
  8 11  1  0  0  0  0
 51 52  1  0  0  0  0
 21 22  1  0  0  0  0
 22 23  1  0  0  0  0
 18 21  1  0  0  0  0
 23 24  1  0  0  0  0
 41 42  1  0  0  0  0
  7  8  1  0  0  0  0
 17 18  1  0  0  0  0
  3  4  1  0  0  0  0
  3  5  1  0  0  0  0
  3  6  1  0  0  0  0
 45 48  1  0  0  0  0
 45 49  1  0  0  0  0
 45 50  1  0  0  0  0
 11 14  1  0  0  0  0
 11 15  1  0  0  0  0
 11 16  1  0  0  0  0
 52 54  1  0  0  0  0
 52 55  1  0  0  0  0
 52 56  1  0  0  0  0
 22 32  1  0  0  0  0
 22 33  1  0  0  0  0
 21 30  1  0  0  0  0
 21 31  1  0  0  0  0
 23 34  1  0  0  0  0
 23 35  1  0  0  0  0
 42 47  1  0  0  0  0
  8 13  1  0  0  0  0
 18 29  1  0  0  0  0
 26 37  1  0  0  0  0
 26 38  1  0  0  0  0
 27 39  1  0  0  0  0
 27 40  1  0  0  0  0
 51 53  1  0  0  0  0
  7 12  1  0  0  0  0
 41 46  1  0  0  0  0
 17 28  1  0  0  0  0
 24 36  1  0  0  0  0
M  CHG  1  24   1
M  END
$$$$

  -OEChem-05262214473D

 56 55  0     1  0  0  0  0  0999 V2000
    0.7735   -5.8042   -2.0022 C   0  0  0  0  0  0  0  0  0  0  0  0
   -0.2086   -6.3825   -1.5519 O   0  0  0  0  0  0  0  0  0  0  0  0
    1.4751   -6.3646   -3.1946 C   0  0  0  0  0  0  0  0  0  0  0  0
    2.2765   -7.0687   -2.9186 H   0  0  0  0  0  0  0  0  0  0  0  0
    0.7988   -6.9360   -3.8504 H   0  0  0  0  0  0  0  0  0  0  0  0
    1.9556   -5.6216   -3.8511 H   0  0  0  0  0  0  0  0  0  0  0  0
    1.3322   -4.6359   -1.5106 N   0  0  0  0  0  0  0  0  0  0  0  0
    0.8124   -3.9290   -0.3698 C   0  0  2  0  0  0  0  0  0  0  0  0
    1.0666   -2.4424   -0.5818 C   0  0  0  0  0  0  0  0  0  0  0  0
    2.0598   -2.0076   -1.1610 O   0  0  0  0  0  0  0  0  0  0  0  0
    1.4560   -4.4118    0.9207 C   0  0  0  0  0  0  0  0  0  0  0  0
    2.1528   -4.2578   -1.9805 H   0  0  0  0  0  0  0  0  0  0  0  0
   -0.2667   -4.1160   -0.3467 H   0  0  0  0  0  0  0  0  0  0  0  0
    2.5374   -4.2329    0.9160 H   0  0  0  0  0  0  0  0  0  0  0  0
    1.0390   -3.8932    1.7903 H   0  0  0  0  0  0  0  0  0  0  0  0
    1.2976   -5.4871    1.0566 H   0  0  0  0  0  0  0  0  0  0  0  0
    0.0755   -1.6529   -0.0105 N   0  0  0  0  0  0  0  0  0  0  0  0
    0.1113   -0.2132   -0.0391 C   0  0  2  0  0  0  0  0  0  0  0  0
    0.1188    0.2159   -1.5025 C   0  0  0  0  0  0  0  0  0  0  0  0
   -0.8704    0.1360   -2.2280 O   0  0  0  0  0  0  0  0  0  0  0  0
    1.3373    0.3469    0.6893 C   0  0  0  0  0  0  0  0  0  0  0  0
    1.2902    0.0842    2.1992 C   0  0  0  0  0  0  0  0  0  0  0  0
    2.5128    0.6438    2.9191 C   0  0  0  0  0  0  0  0  0  0  0  0
    2.4755    0.3710    4.3541 N   0  3  0  0  0  0  0  0  0  0  0  0
    3.5164    0.7330    5.2110 C   0  0  0  0  0  0  0  0  0  0  0  0
    3.4126    0.4412    6.5670 N   0  0  0  0  0  0  0  0  0  0  0  0
    4.6554    1.3793    4.7418 N   0  0  0  0  0  0  0  0  0  0  0  0
   -0.7323   -2.1024    0.4149 H   0  0  0  0  0  0  0  0  0  0  0  0
   -0.8145    0.1370    0.4314 H   0  0  0  0  0  0  0  0  0  0  0  0
    1.4060    1.4268    0.5111 H   0  0  0  0  0  0  0  0  0  0  0  0
    2.2517   -0.0945    0.2712 H   0  0  0  0  0  0  0  0  0  0  0  0
    0.3811    0.5289    2.6215 H   0  0  0  0  0  0  0  0  0  0  0  0
    1.2432   -0.9953    2.3836 H   0  0  0  0  0  0  0  0  0  0  0  0
    3.4193    0.1759    2.5231 H   0  0  0  0  0  0  0  0  0  0  0  0
    2.5863    1.7268    2.7808 H   0  0  0  0  0  0  0  0  0  0  0  0
    1.6666   -0.0998    4.7559 H   0  0  0  0  0  0  0  0  0  0  0  0
    4.1530    0.6917    7.2180 H   0  0  0  0  0  0  0  0  0  0  0  0
    2.5938   -0.0305    6.9434 H   0  0  0  0  0  0  0  0  0  0  0  0
    5.4162    1.6451    5.3616 H   0  0  0  0  0  0  0  0  0  0  0  0
    4.7591    1.6050    3.7553 H   0  0  0  0  0  0  0  0  0  0  0  0
    1.3711    0.6512   -1.9129 N   0  0  0  0  0  0  0  0  0  0  0  0
    1.6542    1.0668   -3.2673 C   0  0  2  0  0  0  0  0  0  0  0  0
    3.1003    0.7039   -3.5781 C   0  0  0  0  0  0  0  0  0  0  0  0
    3.9957    0.7361   -2.7365 O   0  0  0  0  0  0  0  0  0  0  0  0
    1.4167    2.5578   -3.4498 C   0  0  0  0  0  0  0  0  0  0  0  0
    2.1239    0.7143   -1.2339 H   0  0  0  0  0  0  0  0  0  0  0  0
    0.9853    0.4951   -3.9199 H   0  0  0  0  0  0  0  0  0  0  0  0
    2.0780    3.1469   -2.8040 H   0  0  0  0  0  0  0  0  0  0  0  0
    1.6041    2.8658   -4.4837 H   0  0  0  0  0  0  0  0  0  0  0  0
    0.3840    2.8217   -3.1972 H   0  0  0  0  0  0  0  0  0  0  0  0
    3.2816    0.3815   -4.9158 N   0  0  0  0  0  0  0  0  0  0  0  0
    4.5724    0.0428   -5.4681 C   0  0  0  0  0  0  0  0  0  0  0  0
    2.4764    0.3414   -5.5337 H   0  0  0  0  0  0  0  0  0  0  0  0
    5.0501    0.9495   -5.8678 H   0  0  0  0  0  0  0  0  0  0  0  0
    5.2067   -0.3885   -4.6797 H   0  0  0  0  0  0  0  0  0  0  0  0
    4.4437   -0.6908   -6.2775 H   0  0  0  0  0  0  0  0  0  0  0  0
  1  3  1  0  0  0  0
  1  7  1  0  0  0  0
  1  2  2  0  0  0  0
 42 43  1  0  0  0  0
 43 51  1  0  0  0  0
 43 44  2  0  0  0  0
  8  9  1  0  0  0  0
  9 17  1  0  0  0  0
  9 10  2  0  0  0  0
 18 19  1  0  0  0  0
 19 41  1  0  0  0  0
 19 20  2  0  0  0  0
 25 26  1  0  0  0  0
 25 27  1  0  0  0  0
 24 25  2  0  0  0  0
 42 45  1  0  0  0  0
  8 11  1  0  0  0  0
 51 52  1  0  0  0  0
 21 22  1  0  0  0  0
 22 23  1  0  0  0  0
 18 21  1  0  0  0  0
 23 24  1  0  0  0  0
 41 42  1  0  0  0  0
  7  8  1  0  0  0  0
 17 18  1  0  0  0  0
  3  4  1  0  0  0  0
  3  5  1  0  0  0  0
  3  6  1  0  0  0  0
 45 48  1  0  0  0  0
 45 49  1  0  0  0  0
 45 50  1  0  0  0  0
 11 14  1  0  0  0  0
 11 15  1  0  0  0  0
 11 16  1  0  0  0  0
 52 54  1  0  0  0  0
 52 55  1  0  0  0  0
 52 56  1  0  0  0  0
 22 32  1  0  0  0  0
 22 33  1  0  0  0  0
 21 30  1  0  0  0  0
 21 31  1  0  0  0  0
 23 34  1  0  0  0  0
 23 35  1  0  0  0  0
 42 47  1  0  0  0  0
  8 13  1  0  0  0  0
 18 29  1  0  0  0  0
 26 37  1  0  0  0  0
 26 38  1  0  0  0  0
 27 39  1  0  0  0  0
 27 40  1  0  0  0  0
 51 53  1  0  0  0  0
  7 12  1  0  0  0  0
 41 46  1  0  0  0  0
 17 28  1  0  0  0  0
 24 36  1  0  0  0  0
M  CHG  1  24   1
M  END
$$$$

  -OEChem-05262214473D

 56 55  0     1  0  0  0  0  0999 V2000
    0.7735   -5.8042   -2.0022 C   0  0  0  0  0  0  0  0  0  0  0  0
   -0.2086   -6.3825   -1.5519 O   0  0  0  0  0  0  0  0  0  0  0  0
    1.4751   -6.3646   -3.1946 C   0  0  0  0  0  0  0  0  0  0  0  0
    2.2765   -7.0687   -2.9186 H   0  0  0  0  0  0  0  0  0  0  0  0
    0.7988   -6.9360   -3.8504 H   0  0  0  0  0  0  0  0  0  0  0  0
    1.9556   -5.6216   -3.8511 H   0  0  0  0  0  0  0  0  0  0  0  0
    1.3322   -4.6359   -1.5106 N   0  0  0  0  0  0  0  0  0  0  0  0
    0.8124   -3.9290   -0.3698 C   0  0  2  0  0  0  0  0  0  0  0  0
    1.0666   -2.4424   -0.5818 C   0  0  0  0  0  0  0  0  0  0  0  0
    2.0598   -2.0076   -1.1610 O   0  0  0  0  0  0  0  0  0  0  0  0
    1.4560   -4.4118    0.9207 C   0  0  0  0  0  0  0  0  0  0  0  0
    2.1528   -4.2578   -1.9805 H   0  0  0  0  0  0  0  0  0  0  0  0
   -0.2667   -4.1160   -0.3467 H   0  0  0  0  0  0  0  0  0  0  0  0
    2.5374   -4.2329    0.9160 H   0  0  0  0  0  0  0  0  0  0  0  0
    1.0390   -3.8932    1.7903 H   0  0  0  0  0  0  0  0  0  0  0  0
    1.2976   -5.4871    1.0566 H   0  0  0  0  0  0  0  0  0  0  0  0
    0.0755   -1.6529   -0.0105 N   0  0  0  0  0  0  0  0  0  0  0  0
    0.1113   -0.2132   -0.0391 C   0  0  2  0  0  0  0  0  0  0  0  0
    0.1188    0.2159   -1.5025 C   0  0  0  0  0  0  0  0  0  0  0  0
   -0.9093    0.3917   -2.1532 O   0  0  0  0  0  0  0  0  0  0  0  0
    1.3373    0.3469    0.6893 C   0  0  0  0  0  0  0  0  0  0  0  0
    1.2902    0.0842    2.1992 C   0  0  0  0  0  0  0  0  0  0  0  0
    2.5128    0.6438    2.9191 C   0  0  0  0  0  0  0  0  0  0  0  0
    2.4755    0.3710    4.3541 N   0  3  0  0  0  0  0  0  0  0  0  0
    3.5164    0.7330    5.2110 C   0  0  0  0  0  0  0  0  0  0  0  0
    3.4126    0.4412    6.5670 N   0  0  0  0  0  0  0  0  0  0  0  0
    4.6554    1.3793    4.7418 N   0  0  0  0  0  0  0  0  0  0  0  0
   -0.7323   -2.1024    0.4149 H   0  0  0  0  0  0  0  0  0  0  0  0
   -0.8145    0.1370    0.4314 H   0  0  0  0  0  0  0  0  0  0  0  0
    1.4060    1.4268    0.5111 H   0  0  0  0  0  0  0  0  0  0  0  0
    2.2517   -0.0945    0.2712 H   0  0  0  0  0  0  0  0  0  0  0  0
    0.3811    0.5289    2.6215 H   0  0  0  0  0  0  0  0  0  0  0  0
    1.2432   -0.9953    2.3836 H   0  0  0  0  0  0  0  0  0  0  0  0
    3.4193    0.1759    2.5231 H   0  0  0  0  0  0  0  0  0  0  0  0
    2.5863    1.7268    2.7808 H   0  0  0  0  0  0  0  0  0  0  0  0
    1.6666   -0.0998    4.7559 H   0  0  0  0  0  0  0  0  0  0  0  0
    4.1530    0.6917    7.2180 H   0  0  0  0  0  0  0  0  0  0  0  0
    2.5938   -0.0305    6.9434 H   0  0  0  0  0  0  0  0  0  0  0  0
    5.4162    1.6451    5.3616 H   0  0  0  0  0  0  0  0  0  0  0  0
    4.7591    1.6050    3.7553 H   0  0  0  0  0  0  0  0  0  0  0  0
    1.4068    0.3309   -2.0066 N   0  0  0  0  0  0  0  0  0  0  0  0
    1.6850    0.6773   -3.3814 C   0  0  2  0  0  0  0  0  0  0  0  0
    2.9691   -0.0300   -3.7940 C   0  0  0  0  0  0  0  0  0  0  0  0
    3.9031   -0.2300   -3.0203 O   0  0  0  0  0  0  0  0  0  0  0  0
    1.8126    2.1824   -3.5579 C   0  0  0  0  0  0  0  0  0  0  0  0
    2.1989    0.1980   -1.3850 H   0  0  0  0  0  0  0  0  0  0  0  0
    0.8494    0.2965   -3.9788 H   0  0  0  0  0  0  0  0  0  0  0  0
    2.6447    2.5821   -2.9667 H   0  0  0  0  0  0  0  0  0  0  0  0
    1.9951    2.4450   -4.6051 H   0  0  0  0  0  0  0  0  0  0  0  0
    0.8991    2.6918   -3.2327 H   0  0  0  0  0  0  0  0  0  0  0  0
    2.9668   -0.3733   -5.1388 N   0  0  0  0  0  0  0  0  0  0  0  0
    4.0894   -1.0161   -5.7812 C   0  0  0  0  0  0  0  0  0  0  0  0
    2.1342   -0.2058   -5.6959 H   0  0  0  0  0  0  0  0  0  0  0  0
    4.7470   -0.2523   -6.2219 H   0  0  0  0  0  0  0  0  0  0  0  0
    4.6523   -1.5997   -5.0378 H   0  0  0  0  0  0  0  0  0  0  0  0
    3.7240   -1.6863   -6.5732 H   0  0  0  0  0  0  0  0  0  0  0  0
  1  3  1  0  0  0  0
  1  7  1  0  0  0  0
  1  2  2  0  0  0  0
 42 43  1  0  0  0  0
 43 51  1  0  0  0  0
 43 44  2  0  0  0  0
  8  9  1  0  0  0  0
  9 17  1  0  0  0  0
  9 10  2  0  0  0  0
 18 19  1  0  0  0  0
 19 41  1  0  0  0  0
 19 20  2  0  0  0  0
 25 26  1  0  0  0  0
 25 27  1  0  0  0  0
 24 25  2  0  0  0  0
 42 45  1  0  0  0  0
  8 11  1  0  0  0  0
 51 52  1  0  0  0  0
 21 22  1  0  0  0  0
 22 23  1  0  0  0  0
 18 21  1  0  0  0  0
 23 24  1  0  0  0  0
 41 42  1  0  0  0  0
  7  8  1  0  0  0  0
 17 18  1  0  0  0  0
  3  4  1  0  0  0  0
  3  5  1  0  0  0  0
  3  6  1  0  0  0  0
 45 48  1  0  0  0  0
 45 49  1  0  0  0  0
 45 50  1  0  0  0  0
 11 14  1  0  0  0  0
 11 15  1  0  0  0  0
 11 16  1  0  0  0  0
 52 54  1  0  0  0  0
 52 55  1  0  0  0  0
 52 56  1  0  0  0  0
 22 32  1  0  0  0  0
 22 33  1  0  0  0  0
 21 30  1  0  0  0  0
 21 31  1  0  0  0  0
 23 34  1  0  0  0  0
 23 35  1  0  0  0  0
 42 47  1  0  0  0  0
  8 13  1  0  0  0  0
 18 29  1  0  0  0  0
 26 37  1  0  0  0  0
 26 38  1  0  0  0  0
 27 39  1  0  0  0  0
 27 40  1  0  0  0  0
 51 53  1  0  0  0  0
  7 12  1  0  0  0  0
 41 46  1  0  0  0  0
 17 28  1  0  0  0  0
 24 36  1  0  0  0  0
M  CHG  1  24   1
M  END
$$$$

  -OEChem-05262214473D

 56 55  0     1  0  0  0  0  0999 V2000
    0.7735   -5.8042   -2.0022 C   0  0  0  0  0  0  0  0  0  0  0  0
   -0.2086   -6.3825   -1.5519 O   0  0  0  0  0  0  0  0  0  0  0  0
    1.4751   -6.3646   -3.1946 C   0  0  0  0  0  0  0  0  0  0  0  0
    2.2765   -7.0687   -2.9186 H   0  0  0  0  0  0  0  0  0  0  0  0
    0.7988   -6.9360   -3.8504 H   0  0  0  0  0  0  0  0  0  0  0  0
    1.9556   -5.6216   -3.8511 H   0  0  0  0  0  0  0  0  0  0  0  0
    1.3322   -4.6359   -1.5106 N   0  0  0  0  0  0  0  0  0  0  0  0
    0.8124   -3.9290   -0.3698 C   0  0  2  0  0  0  0  0  0  0  0  0
    1.0666   -2.4424   -0.5818 C   0  0  0  0  0  0  0  0  0  0  0  0
    2.0598   -2.0076   -1.1610 O   0  0  0  0  0  0  0  0  0  0  0  0
    1.4560   -4.4118    0.9207 C   0  0  0  0  0  0  0  0  0  0  0  0
    2.1528   -4.2578   -1.9805 H   0  0  0  0  0  0  0  0  0  0  0  0
   -0.2667   -4.1160   -0.3467 H   0  0  0  0  0  0  0  0  0  0  0  0
    2.5374   -4.2329    0.9160 H   0  0  0  0  0  0  0  0  0  0  0  0
    1.0390   -3.8932    1.7903 H   0  0  0  0  0  0  0  0  0  0  0  0
    1.2976   -5.4871    1.0566 H   0  0  0  0  0  0  0  0  0  0  0  0
    0.0755   -1.6529   -0.0105 N   0  0  0  0  0  0  0  0  0  0  0  0
    0.1113   -0.2132   -0.0391 C   0  0  2  0  0  0  0  0  0  0  0  0
    0.1188    0.2159   -1.5025 C   0  0  0  0  0  0  0  0  0  0  0  0
   -0.8779    0.6483   -2.0778 O   0  0  0  0  0  0  0  0  0  0  0  0
    1.3373    0.3469    0.6893 C   0  0  0  0  0  0  0  0  0  0  0  0
    1.2902    0.0842    2.1992 C   0  0  0  0  0  0  0  0  0  0  0  0
    2.5128    0.6438    2.9191 C   0  0  0  0  0  0  0  0  0  0  0  0
    2.4755    0.3710    4.3541 N   0  3  0  0  0  0  0  0  0  0  0  0
    3.5164    0.7330    5.2110 C   0  0  0  0  0  0  0  0  0  0  0  0
    3.4126    0.4412    6.5670 N   0  0  0  0  0  0  0  0  0  0  0  0
    4.6554    1.3793    4.7418 N   0  0  0  0  0  0  0  0  0  0  0  0
   -0.7323   -2.1024    0.4149 H   0  0  0  0  0  0  0  0  0  0  0  0
   -0.8145    0.1370    0.4314 H   0  0  0  0  0  0  0  0  0  0  0  0
    1.4060    1.4268    0.5111 H   0  0  0  0  0  0  0  0  0  0  0  0
    2.2517   -0.0945    0.2712 H   0  0  0  0  0  0  0  0  0  0  0  0
    0.3811    0.5289    2.6215 H   0  0  0  0  0  0  0  0  0  0  0  0
    1.2432   -0.9953    2.3836 H   0  0  0  0  0  0  0  0  0  0  0  0
    3.4193    0.1759    2.5231 H   0  0  0  0  0  0  0  0  0  0  0  0
    2.5863    1.7268    2.7808 H   0  0  0  0  0  0  0  0  0  0  0  0
    1.6666   -0.0998    4.7559 H   0  0  0  0  0  0  0  0  0  0  0  0
    4.1530    0.6917    7.2180 H   0  0  0  0  0  0  0  0  0  0  0  0
    2.5938   -0.0305    6.9434 H   0  0  0  0  0  0  0  0  0  0  0  0
    5.4162    1.6451    5.3616 H   0  0  0  0  0  0  0  0  0  0  0  0
    4.7591    1.6050    3.7553 H   0  0  0  0  0  0  0  0  0  0  0  0
    1.3548    0.0127   -2.1002 N   0  0  0  0  0  0  0  0  0  0  0  0
    1.6096    0.2936   -3.4943 C   0  0  2  0  0  0  0  0  0  0  0  0
    2.6443   -0.7061   -3.9940 C   0  0  0  0  0  0  0  0  0  0  0  0
    3.5531   -1.1398   -3.2889 O   0  0  0  0  0  0  0  0  0  0  0  0
    2.0940    1.7216   -3.6916 C   0  0  0  0  0  0  0  0  0  0  0  0
    2.1321   -0.3192   -1.5370 H   0  0  0  0  0  0  0  0  0  0  0  0
    0.6645    0.1384   -4.0261 H   0  0  0  0  0  0  0  0  0  0  0  0
    3.0399    1.8959   -3.1660 H   0  0  0  0  0  0  0  0  0  0  0  0
    2.2594    1.9416   -4.7514 H   0  0  0  0  0  0  0  0  0  0  0  0
    1.3618    2.4384   -3.3046 H   0  0  0  0  0  0  0  0  0  0  0  0
    2.4591   -1.0240   -5.3322 N   0  0  0  0  0  0  0  0  0  0  0  0
    3.3371   -1.9186   -6.0497 C   0  0  0  0  0  0  0  0  0  0  0  0
    1.6560   -0.6491   -5.8283 H   0  0  0  0  0  0  0  0  0  0  0  0
    4.1300   -1.3375   -6.5433 H   0  0  0  0  0  0  0  0  0  0  0  0
    3.7898   -2.6314   -5.3448 H   0  0  0  0  0  0  0  0  0  0  0  0
    2.7601   -2.4688   -6.8076 H   0  0  0  0  0  0  0  0  0  0  0  0
  1  3  1  0  0  0  0
  1  7  1  0  0  0  0
  1  2  2  0  0  0  0
 42 43  1  0  0  0  0
 43 51  1  0  0  0  0
 43 44  2  0  0  0  0
  8  9  1  0  0  0  0
  9 17  1  0  0  0  0
  9 10  2  0  0  0  0
 18 19  1  0  0  0  0
 19 41  1  0  0  0  0
 19 20  2  0  0  0  0
 25 26  1  0  0  0  0
 25 27  1  0  0  0  0
 24 25  2  0  0  0  0
 42 45  1  0  0  0  0
  8 11  1  0  0  0  0
 51 52  1  0  0  0  0
 21 22  1  0  0  0  0
 22 23  1  0  0  0  0
 18 21  1  0  0  0  0
 23 24  1  0  0  0  0
 41 42  1  0  0  0  0
  7  8  1  0  0  0  0
 17 18  1  0  0  0  0
  3  4  1  0  0  0  0
  3  5  1  0  0  0  0
  3  6  1  0  0  0  0
 45 48  1  0  0  0  0
 45 49  1  0  0  0  0
 45 50  1  0  0  0  0
 11 14  1  0  0  0  0
 11 15  1  0  0  0  0
 11 16  1  0  0  0  0
 52 54  1  0  0  0  0
 52 55  1  0  0  0  0
 52 56  1  0  0  0  0
 22 32  1  0  0  0  0
 22 33  1  0  0  0  0
 21 30  1  0  0  0  0
 21 31  1  0  0  0  0
 23 34  1  0  0  0  0
 23 35  1  0  0  0  0
 42 47  1  0  0  0  0
  8 13  1  0  0  0  0
 18 29  1  0  0  0  0
 26 37  1  0  0  0  0
 26 38  1  0  0  0  0
 27 39  1  0  0  0  0
 27 40  1  0  0  0  0
 51 53  1  0  0  0  0
  7 12  1  0  0  0  0
 41 46  1  0  0  0  0
 17 28  1  0  0  0  0
 24 36  1  0  0  0  0
M  CHG  1  24   1
M  END
$$$$

  -OEChem-05262214473D

 56 55  0     1  0  0  0  0  0999 V2000
    0.7735   -5.8042   -2.0022 C   0  0  0  0  0  0  0  0  0  0  0  0
   -0.2086   -6.3825   -1.5519 O   0  0  0  0  0  0  0  0  0  0  0  0
    1.4751   -6.3646   -3.1946 C   0  0  0  0  0  0  0  0  0  0  0  0
    2.2765   -7.0687   -2.9186 H   0  0  0  0  0  0  0  0  0  0  0  0
    0.7988   -6.9360   -3.8504 H   0  0  0  0  0  0  0  0  0  0  0  0
    1.9556   -5.6216   -3.8511 H   0  0  0  0  0  0  0  0  0  0  0  0
    1.3322   -4.6359   -1.5106 N   0  0  0  0  0  0  0  0  0  0  0  0
    0.8124   -3.9290   -0.3698 C   0  0  2  0  0  0  0  0  0  0  0  0
    1.0666   -2.4424   -0.5818 C   0  0  0  0  0  0  0  0  0  0  0  0
    2.0598   -2.0076   -1.1610 O   0  0  0  0  0  0  0  0  0  0  0  0
    1.4560   -4.4118    0.9207 C   0  0  0  0  0  0  0  0  0  0  0  0
    2.1528   -4.2578   -1.9805 H   0  0  0  0  0  0  0  0  0  0  0  0
   -0.2667   -4.1160   -0.3467 H   0  0  0  0  0  0  0  0  0  0  0  0
    2.5374   -4.2329    0.9160 H   0  0  0  0  0  0  0  0  0  0  0  0
    1.0390   -3.8932    1.7903 H   0  0  0  0  0  0  0  0  0  0  0  0
    1.2976   -5.4871    1.0566 H   0  0  0  0  0  0  0  0  0  0  0  0
    0.0755   -1.6529   -0.0105 N   0  0  0  0  0  0  0  0  0  0  0  0
    0.1113   -0.2132   -0.0391 C   0  0  2  0  0  0  0  0  0  0  0  0
    0.1188    0.2159   -1.5025 C   0  0  0  0  0  0  0  0  0  0  0  0
   -0.7783    0.8882   -2.0069 O   0  0  0  0  0  0  0  0  0  0  0  0
    1.3373    0.3469    0.6893 C   0  0  0  0  0  0  0  0  0  0  0  0
    1.2902    0.0842    2.1992 C   0  0  0  0  0  0  0  0  0  0  0  0
    2.5128    0.6438    2.9191 C   0  0  0  0  0  0  0  0  0  0  0  0
    2.4755    0.3710    4.3541 N   0  3  0  0  0  0  0  0  0  0  0  0
    3.5164    0.7330    5.2110 C   0  0  0  0  0  0  0  0  0  0  0  0
    3.4126    0.4412    6.5670 N   0  0  0  0  0  0  0  0  0  0  0  0
    4.6554    1.3793    4.7418 N   0  0  0  0  0  0  0  0  0  0  0  0
   -0.7323   -2.1024    0.4149 H   0  0  0  0  0  0  0  0  0  0  0  0
   -0.8145    0.1370    0.4314 H   0  0  0  0  0  0  0  0  0  0  0  0
    1.4060    1.4268    0.5111 H   0  0  0  0  0  0  0  0  0  0  0  0
    2.2517   -0.0945    0.2712 H   0  0  0  0  0  0  0  0  0  0  0  0
    0.3811    0.5289    2.6215 H   0  0  0  0  0  0  0  0  0  0  0  0
    1.2432   -0.9953    2.3836 H   0  0  0  0  0  0  0  0  0  0  0  0
    3.4193    0.1759    2.5231 H   0  0  0  0  0  0  0  0  0  0  0  0
    2.5863    1.7268    2.7808 H   0  0  0  0  0  0  0  0  0  0  0  0
    1.6666   -0.0998    4.7559 H   0  0  0  0  0  0  0  0  0  0  0  0
    4.1530    0.6917    7.2180 H   0  0  0  0  0  0  0  0  0  0  0  0
    2.5938   -0.0305    6.9434 H   0  0  0  0  0  0  0  0  0  0  0  0
    5.4162    1.6451    5.3616 H   0  0  0  0  0  0  0  0  0  0  0  0
    4.7591    1.6050    3.7553 H   0  0  0  0  0  0  0  0  0  0  0  0
    1.2187   -0.2816   -2.1872 N   0  0  0  0  0  0  0  0  0  0  0  0
    1.4333   -0.0582   -3.5984 C   0  0  2  0  0  0  0  0  0  0  0  0
    2.1481   -1.2782   -4.1643 C   0  0  0  0  0  0  0  0  0  0  0  0
    2.9695   -1.9313   -3.5241 O   0  0  0  0  0  0  0  0  0  0  0  0
    2.2416    1.2068   -3.8418 C   0  0  0  0  0  0  0  0  0  0  0  0
    1.9281   -0.8020   -1.6796 H   0  0  0  0  0  0  0  0  0  0  0  0
    0.4433    0.0318   -4.0585 H   0  0  0  0  0  0  0  0  0  0  0  0
    3.2368    1.1353   -3.3881 H   0  0  0  0  0  0  0  0  0  0  0  0
    2.3789    1.3900   -4.9126 H   0  0  0  0  0  0  0  0  0  0  0  0
    1.7405    2.0789   -3.4081 H   0  0  0  0  0  0  0  0  0  0  0  0
    1.7930   -1.5262   -5.4828 N   0  0  0  0  0  0  0  0  0  0  0  0
    2.3667   -2.6032   -6.2554 C   0  0  0  0  0  0  0  0  0  0  0  0
    1.0743   -0.9584   -5.9220 H   0  0  0  0  0  0  0  0  0  0  0  0
    3.2410   -2.2320   -6.8101 H   0  0  0  0  0  0  0  0  0  0  0  0
    2.6782   -3.4135   -5.5798 H   0  0  0  0  0  0  0  0  0  0  0  0
    1.6176   -2.9849   -6.9647 H   0  0  0  0  0  0  0  0  0  0  0  0
  1  3  1  0  0  0  0
  1  7  1  0  0  0  0
  1  2  2  0  0  0  0
 42 43  1  0  0  0  0
 43 51  1  0  0  0  0
 43 44  2  0  0  0  0
  8  9  1  0  0  0  0
  9 17  1  0  0  0  0
  9 10  2  0  0  0  0
 18 19  1  0  0  0  0
 19 41  1  0  0  0  0
 19 20  2  0  0  0  0
 25 26  1  0  0  0  0
 25 27  1  0  0  0  0
 24 25  2  0  0  0  0
 42 45  1  0  0  0  0
  8 11  1  0  0  0  0
 51 52  1  0  0  0  0
 21 22  1  0  0  0  0
 22 23  1  0  0  0  0
 18 21  1  0  0  0  0
 23 24  1  0  0  0  0
 41 42  1  0  0  0  0
  7  8  1  0  0  0  0
 17 18  1  0  0  0  0
  3  4  1  0  0  0  0
  3  5  1  0  0  0  0
  3  6  1  0  0  0  0
 45 48  1  0  0  0  0
 45 49  1  0  0  0  0
 45 50  1  0  0  0  0
 11 14  1  0  0  0  0
 11 15  1  0  0  0  0
 11 16  1  0  0  0  0
 52 54  1  0  0  0  0
 52 55  1  0  0  0  0
 52 56  1  0  0  0  0
 22 32  1  0  0  0  0
 22 33  1  0  0  0  0
 21 30  1  0  0  0  0
 21 31  1  0  0  0  0
 23 34  1  0  0  0  0
 23 35  1  0  0  0  0
 42 47  1  0  0  0  0
  8 13  1  0  0  0  0
 18 29  1  0  0  0  0
 26 37  1  0  0  0  0
 26 38  1  0  0  0  0
 27 39  1  0  0  0  0
 27 40  1  0  0  0  0
 51 53  1  0  0  0  0
  7 12  1  0  0  0  0
 41 46  1  0  0  0  0
 17 28  1  0  0  0  0
 24 36  1  0  0  0  0
M  CHG  1  24   1
M  END
$$$$

  -OEChem-05262214473D

 56 55  0     1  0  0  0  0  0999 V2000
    0.7735   -5.8042   -2.0022 C   0  0  0  0  0  0  0  0  0  0  0  0
   -0.2086   -6.3825   -1.5519 O   0  0  0  0  0  0  0  0  0  0  0  0
    1.4751   -6.3646   -3.1946 C   0  0  0  0  0  0  0  0  0  0  0  0
    2.2765   -7.0687   -2.9186 H   0  0  0  0  0  0  0  0  0  0  0  0
    0.7988   -6.9360   -3.8504 H   0  0  0  0  0  0  0  0  0  0  0  0
    1.9556   -5.6216   -3.8511 H   0  0  0  0  0  0  0  0  0  0  0  0
    1.3322   -4.6359   -1.5106 N   0  0  0  0  0  0  0  0  0  0  0  0
    0.8124   -3.9290   -0.3698 C   0  0  2  0  0  0  0  0  0  0  0  0
    1.0666   -2.4424   -0.5818 C   0  0  0  0  0  0  0  0  0  0  0  0
    2.0598   -2.0076   -1.1610 O   0  0  0  0  0  0  0  0  0  0  0  0
    1.4560   -4.4118    0.9207 C   0  0  0  0  0  0  0  0  0  0  0  0
    2.1528   -4.2578   -1.9805 H   0  0  0  0  0  0  0  0  0  0  0  0
   -0.2667   -4.1160   -0.3467 H   0  0  0  0  0  0  0  0  0  0  0  0
    2.5374   -4.2329    0.9160 H   0  0  0  0  0  0  0  0  0  0  0  0
    1.0390   -3.8932    1.7903 H   0  0  0  0  0  0  0  0  0  0  0  0
    1.2976   -5.4871    1.0566 H   0  0  0  0  0  0  0  0  0  0  0  0
    0.0755   -1.6529   -0.0105 N   0  0  0  0  0  0  0  0  0  0  0  0
    0.1113   -0.2132   -0.0391 C   0  0  2  0  0  0  0  0  0  0  0  0
    0.1188    0.2159   -1.5025 C   0  0  0  0  0  0  0  0  0  0  0  0
   -0.6174    1.0952   -1.9454 O   0  0  0  0  0  0  0  0  0  0  0  0
    1.3373    0.3469    0.6893 C   0  0  0  0  0  0  0  0  0  0  0  0
    1.2902    0.0842    2.1992 C   0  0  0  0  0  0  0  0  0  0  0  0
    2.5128    0.6438    2.9191 C   0  0  0  0  0  0  0  0  0  0  0  0
    2.4755    0.3710    4.3541 N   0  3  0  0  0  0  0  0  0  0  0  0
    3.5164    0.7330    5.2110 C   0  0  0  0  0  0  0  0  0  0  0  0
    3.4126    0.4412    6.5670 N   0  0  0  0  0  0  0  0  0  0  0  0
    4.6554    1.3793    4.7418 N   0  0  0  0  0  0  0  0  0  0  0  0
   -0.7323   -2.1024    0.4149 H   0  0  0  0  0  0  0  0  0  0  0  0
   -0.8145    0.1370    0.4314 H   0  0  0  0  0  0  0  0  0  0  0  0
    1.4060    1.4268    0.5111 H   0  0  0  0  0  0  0  0  0  0  0  0
    2.2517   -0.0945    0.2712 H   0  0  0  0  0  0  0  0  0  0  0  0
    0.3811    0.5289    2.6215 H   0  0  0  0  0  0  0  0  0  0  0  0
    1.2432   -0.9953    2.3836 H   0  0  0  0  0  0  0  0  0  0  0  0
    3.4193    0.1759    2.5231 H   0  0  0  0  0  0  0  0  0  0  0  0
    2.5863    1.7268    2.7808 H   0  0  0  0  0  0  0  0  0  0  0  0
    1.6666   -0.0998    4.7559 H   0  0  0  0  0  0  0  0  0  0  0  0
    4.1530    0.6917    7.2180 H   0  0  0  0  0  0  0  0  0  0  0  0
    2.5938   -0.0305    6.9434 H   0  0  0  0  0  0  0  0  0  0  0  0
    5.4162    1.6451    5.3616 H   0  0  0  0  0  0  0  0  0  0  0  0
    4.7591    1.6050    3.7553 H   0  0  0  0  0  0  0  0  0  0  0  0
    1.0079   -0.5319   -2.2617 N   0  0  0  0  0  0  0  0  0  0  0  0
    1.1681   -0.3541   -3.6865 C   0  0  2  0  0  0  0  0  0  0  0  0
    1.5144   -1.7074   -4.2934 C   0  0  0  0  0  0  0  0  0  0  0  0
    2.1920   -2.5507   -3.7096 O   0  0  0  0  0  0  0  0  0  0  0  0
    2.2453    0.6730   -3.9983 C   0  0  0  0  0  0  0  0  0  0  0  0
    1.6007   -1.2175   -1.8031 H   0  0  0  0  0  0  0  0  0  0  0  0
    0.2007   -0.0163   -4.0739 H   0  0  0  0  0  0  0  0  0  0  0  0
    3.2219    0.3519   -3.6179 H   0  0  0  0  0  0  0  0  0  0  0  0
    2.3457    0.8276   -5.0777 H   0  0  0  0  0  0  0  0  0  0  0  0
    2.0095    1.6377   -3.5362 H   0  0  0  0  0  0  0  0  0  0  0  0
    1.0139   -1.8456   -5.5805 N   0  0  0  0  0  0  0  0  0  0  0  0
    1.2444   -3.0232   -6.3843 C   0  0  0  0  0  0  0  0  0  0  0  0
    0.4288   -1.1126   -5.9705 H   0  0  0  0  0  0  0  0  0  0  0  0
    2.1408   -2.8750   -7.0043 H   0  0  0  0  0  0  0  0  0  0  0  0
    1.3931   -3.8925   -5.7268 H   0  0  0  0  0  0  0  0  0  0  0  0
    0.3744   -3.1995   -7.0340 H   0  0  0  0  0  0  0  0  0  0  0  0
  1  3  1  0  0  0  0
  1  7  1  0  0  0  0
  1  2  2  0  0  0  0
 42 43  1  0  0  0  0
 43 51  1  0  0  0  0
 43 44  2  0  0  0  0
  8  9  1  0  0  0  0
  9 17  1  0  0  0  0
  9 10  2  0  0  0  0
 18 19  1  0  0  0  0
 19 41  1  0  0  0  0
 19 20  2  0  0  0  0
 25 26  1  0  0  0  0
 25 27  1  0  0  0  0
 24 25  2  0  0  0  0
 42 45  1  0  0  0  0
  8 11  1  0  0  0  0
 51 52  1  0  0  0  0
 21 22  1  0  0  0  0
 22 23  1  0  0  0  0
 18 21  1  0  0  0  0
 23 24  1  0  0  0  0
 41 42  1  0  0  0  0
  7  8  1  0  0  0  0
 17 18  1  0  0  0  0
  3  4  1  0  0  0  0
  3  5  1  0  0  0  0
  3  6  1  0  0  0  0
 45 48  1  0  0  0  0
 45 49  1  0  0  0  0
 45 50  1  0  0  0  0
 11 14  1  0  0  0  0
 11 15  1  0  0  0  0
 11 16  1  0  0  0  0
 52 54  1  0  0  0  0
 52 55  1  0  0  0  0
 52 56  1  0  0  0  0
 22 32  1  0  0  0  0
 22 33  1  0  0  0  0
 21 30  1  0  0  0  0
 21 31  1  0  0  0  0
 23 34  1  0  0  0  0
 23 35  1  0  0  0  0
 42 47  1  0  0  0  0
  8 13  1  0  0  0  0
 18 29  1  0  0  0  0
 26 37  1  0  0  0  0
 26 38  1  0  0  0  0
 27 39  1  0  0  0  0
 27 40  1  0  0  0  0
 51 53  1  0  0  0  0
  7 12  1  0  0  0  0
 41 46  1  0  0  0  0
 17 28  1  0  0  0  0
 24 36  1  0  0  0  0
M  CHG  1  24   1
M  END
$$$$

  -OEChem-05262214473D

 56 55  0     1  0  0  0  0  0999 V2000
    0.7735   -5.8042   -2.0022 C   0  0  0  0  0  0  0  0  0  0  0  0
   -0.2086   -6.3825   -1.5519 O   0  0  0  0  0  0  0  0  0  0  0  0
    1.4751   -6.3646   -3.1946 C   0  0  0  0  0  0  0  0  0  0  0  0
    2.2765   -7.0687   -2.9186 H   0  0  0  0  0  0  0  0  0  0  0  0
    0.7988   -6.9360   -3.8504 H   0  0  0  0  0  0  0  0  0  0  0  0
    1.9556   -5.6216   -3.8511 H   0  0  0  0  0  0  0  0  0  0  0  0
    1.3322   -4.6359   -1.5106 N   0  0  0  0  0  0  0  0  0  0  0  0
    0.8124   -3.9290   -0.3698 C   0  0  2  0  0  0  0  0  0  0  0  0
    1.0666   -2.4424   -0.5818 C   0  0  0  0  0  0  0  0  0  0  0  0
    2.0598   -2.0076   -1.1610 O   0  0  0  0  0  0  0  0  0  0  0  0
    1.4560   -4.4118    0.9207 C   0  0  0  0  0  0  0  0  0  0  0  0
    2.1528   -4.2578   -1.9805 H   0  0  0  0  0  0  0  0  0  0  0  0
   -0.2667   -4.1160   -0.3467 H   0  0  0  0  0  0  0  0  0  0  0  0
    2.5374   -4.2329    0.9160 H   0  0  0  0  0  0  0  0  0  0  0  0
    1.0390   -3.8932    1.7903 H   0  0  0  0  0  0  0  0  0  0  0  0
    1.2976   -5.4871    1.0566 H   0  0  0  0  0  0  0  0  0  0  0  0
    0.0755   -1.6529   -0.0105 N   0  0  0  0  0  0  0  0  0  0  0  0
    0.1113   -0.2132   -0.0391 C   0  0  2  0  0  0  0  0  0  0  0  0
    0.1188    0.2159   -1.5025 C   0  0  0  0  0  0  0  0  0  0  0  0
   -0.4061    1.2550   -1.8974 O   0  0  0  0  0  0  0  0  0  0  0  0
    1.3373    0.3469    0.6893 C   0  0  0  0  0  0  0  0  0  0  0  0
    1.2902    0.0842    2.1992 C   0  0  0  0  0  0  0  0  0  0  0  0
    2.5128    0.6438    2.9191 C   0  0  0  0  0  0  0  0  0  0  0  0
    2.4755    0.3710    4.3541 N   0  3  0  0  0  0  0  0  0  0  0  0
    3.5164    0.7330    5.2110 C   0  0  0  0  0  0  0  0  0  0  0  0
    3.4126    0.4412    6.5670 N   0  0  0  0  0  0  0  0  0  0  0  0
    4.6554    1.3793    4.7418 N   0  0  0  0  0  0  0  0  0  0  0  0
   -0.7323   -2.1024    0.4149 H   0  0  0  0  0  0  0  0  0  0  0  0
   -0.8145    0.1370    0.4314 H   0  0  0  0  0  0  0  0  0  0  0  0
    1.4060    1.4268    0.5111 H   0  0  0  0  0  0  0  0  0  0  0  0
    2.2517   -0.0945    0.2712 H   0  0  0  0  0  0  0  0  0  0  0  0
    0.3811    0.5289    2.6215 H   0  0  0  0  0  0  0  0  0  0  0  0
    1.2432   -0.9953    2.3836 H   0  0  0  0  0  0  0  0  0  0  0  0
    3.4193    0.1759    2.5231 H   0  0  0  0  0  0  0  0  0  0  0  0
    2.5863    1.7268    2.7808 H   0  0  0  0  0  0  0  0  0  0  0  0
    1.6666   -0.0998    4.7559 H   0  0  0  0  0  0  0  0  0  0  0  0
    4.1530    0.6917    7.2180 H   0  0  0  0  0  0  0  0  0  0  0  0
    2.5938   -0.0305    6.9434 H   0  0  0  0  0  0  0  0  0  0  0  0
    5.4162    1.6451    5.3616 H   0  0  0  0  0  0  0  0  0  0  0  0
    4.7591    1.6050    3.7553 H   0  0  0  0  0  0  0  0  0  0  0  0
    0.7367   -0.7213   -2.3186 N   0  0  0  0  0  0  0  0  0  0  0  0
    0.8320   -0.5739   -3.7527 C   0  0  2  0  0  0  0  0  0  0  0  0
    0.7862   -1.9644   -4.3724 C   0  0  0  0  0  0  0  0  0  0  0  0
    1.2737   -2.9556   -3.8331 O   0  0  0  0  0  0  0  0  0  0  0  0
    2.1050    0.1568   -4.1505 C   0  0  0  0  0  0  0  0  0  0  0  0
    1.1723   -1.5373   -1.8991 H   0  0  0  0  0  0  0  0  0  0  0  0
   -0.0467   -0.0025   -4.0710 H   0  0  0  0  0  0  0  0  0  0  0  0
    2.9962   -0.4007   -3.8398 H   0  0  0  0  0  0  0  0  0  0  0  0
    2.1619    0.2928   -5.2355 H   0  0  0  0  0  0  0  0  0  0  0  0
    2.1504    1.1449   -3.6800 H   0  0  0  0  0  0  0  0  0  0  0  0
    0.1749   -1.9605   -5.6184 N   0  0  0  0  0  0  0  0  0  0  0  0
    0.0466   -3.1500   -6.4275 C   0  0  0  0  0  0  0  0  0  0  0  0
   -0.2365   -1.1012   -5.9705 H   0  0  0  0  0  0  0  0  0  0  0  0
    0.9042   -3.2225   -7.1125 H   0  0  0  0  0  0  0  0  0  0  0  0
    0.0221   -4.0358   -5.7758 H   0  0  0  0  0  0  0  0  0  0  0  0
   -0.8847   -3.0980   -7.0106 H   0  0  0  0  0  0  0  0  0  0  0  0
  1  3  1  0  0  0  0
  1  7  1  0  0  0  0
  1  2  2  0  0  0  0
 42 43  1  0  0  0  0
 43 51  1  0  0  0  0
 43 44  2  0  0  0  0
  8  9  1  0  0  0  0
  9 17  1  0  0  0  0
  9 10  2  0  0  0  0
 18 19  1  0  0  0  0
 19 41  1  0  0  0  0
 19 20  2  0  0  0  0
 25 26  1  0  0  0  0
 25 27  1  0  0  0  0
 24 25  2  0  0  0  0
 42 45  1  0  0  0  0
  8 11  1  0  0  0  0
 51 52  1  0  0  0  0
 21 22  1  0  0  0  0
 22 23  1  0  0  0  0
 18 21  1  0  0  0  0
 23 24  1  0  0  0  0
 41 42  1  0  0  0  0
  7  8  1  0  0  0  0
 17 18  1  0  0  0  0
  3  4  1  0  0  0  0
  3  5  1  0  0  0  0
  3  6  1  0  0  0  0
 45 48  1  0  0  0  0
 45 49  1  0  0  0  0
 45 50  1  0  0  0  0
 11 14  1  0  0  0  0
 11 15  1  0  0  0  0
 11 16  1  0  0  0  0
 52 54  1  0  0  0  0
 52 55  1  0  0  0  0
 52 56  1  0  0  0  0
 22 32  1  0  0  0  0
 22 33  1  0  0  0  0
 21 30  1  0  0  0  0
 21 31  1  0  0  0  0
 23 34  1  0  0  0  0
 23 35  1  0  0  0  0
 42 47  1  0  0  0  0
  8 13  1  0  0  0  0
 18 29  1  0  0  0  0
 26 37  1  0  0  0  0
 26 38  1  0  0  0  0
 27 39  1  0  0  0  0
 27 40  1  0  0  0  0
 51 53  1  0  0  0  0
  7 12  1  0  0  0  0
 41 46  1  0  0  0  0
 17 28  1  0  0  0  0
 24 36  1  0  0  0  0
M  CHG  1  24   1
M  END
$$$$

  -OEChem-05262214473D

 56 55  0     1  0  0  0  0  0999 V2000
    0.7735   -5.8042   -2.0022 C   0  0  0  0  0  0  0  0  0  0  0  0
   -0.2086   -6.3825   -1.5519 O   0  0  0  0  0  0  0  0  0  0  0  0
    1.4751   -6.3646   -3.1946 C   0  0  0  0  0  0  0  0  0  0  0  0
    2.2765   -7.0687   -2.9186 H   0  0  0  0  0  0  0  0  0  0  0  0
    0.7988   -6.9360   -3.8504 H   0  0  0  0  0  0  0  0  0  0  0  0
    1.9556   -5.6216   -3.8511 H   0  0  0  0  0  0  0  0  0  0  0  0
    1.3322   -4.6359   -1.5106 N   0  0  0  0  0  0  0  0  0  0  0  0
    0.8124   -3.9290   -0.3698 C   0  0  2  0  0  0  0  0  0  0  0  0
    1.0666   -2.4424   -0.5818 C   0  0  0  0  0  0  0  0  0  0  0  0
    2.0598   -2.0076   -1.1610 O   0  0  0  0  0  0  0  0  0  0  0  0
    1.4560   -4.4118    0.9207 C   0  0  0  0  0  0  0  0  0  0  0  0
    2.1528   -4.2578   -1.9805 H   0  0  0  0  0  0  0  0  0  0  0  0
   -0.2667   -4.1160   -0.3467 H   0  0  0  0  0  0  0  0  0  0  0  0
    2.5374   -4.2329    0.9160 H   0  0  0  0  0  0  0  0  0  0  0  0
    1.0390   -3.8932    1.7903 H   0  0  0  0  0  0  0  0  0  0  0  0
    1.2976   -5.4871    1.0566 H   0  0  0  0  0  0  0  0  0  0  0  0
    0.0755   -1.6529   -0.0105 N   0  0  0  0  0  0  0  0  0  0  0  0
    0.1113   -0.2132   -0.0391 C   0  0  2  0  0  0  0  0  0  0  0  0
    0.1188    0.2159   -1.5025 C   0  0  0  0  0  0  0  0  0  0  0  0
   -0.1588    1.3569   -1.8663 O   0  0  0  0  0  0  0  0  0  0  0  0
    1.3373    0.3469    0.6893 C   0  0  0  0  0  0  0  0  0  0  0  0
    1.2902    0.0842    2.1992 C   0  0  0  0  0  0  0  0  0  0  0  0
    2.5128    0.6438    2.9191 C   0  0  0  0  0  0  0  0  0  0  0  0
    2.4755    0.3710    4.3541 N   0  3  0  0  0  0  0  0  0  0  0  0
    3.5164    0.7330    5.2110 C   0  0  0  0  0  0  0  0  0  0  0  0
    3.4126    0.4412    6.5670 N   0  0  0  0  0  0  0  0  0  0  0  0
    4.6554    1.3793    4.7418 N   0  0  0  0  0  0  0  0  0  0  0  0
   -0.7323   -2.1024    0.4149 H   0  0  0  0  0  0  0  0  0  0  0  0
   -0.8145    0.1370    0.4314 H   0  0  0  0  0  0  0  0  0  0  0  0
    1.4060    1.4268    0.5111 H   0  0  0  0  0  0  0  0  0  0  0  0
    2.2517   -0.0945    0.2712 H   0  0  0  0  0  0  0  0  0  0  0  0
    0.3811    0.5289    2.6215 H   0  0  0  0  0  0  0  0  0  0  0  0
    1.2432   -0.9953    2.3836 H   0  0  0  0  0  0  0  0  0  0  0  0
    3.4193    0.1759    2.5231 H   0  0  0  0  0  0  0  0  0  0  0  0
    2.5863    1.7268    2.7808 H   0  0  0  0  0  0  0  0  0  0  0  0
    1.6666   -0.0998    4.7559 H   0  0  0  0  0  0  0  0  0  0  0  0
    4.1530    0.6917    7.2180 H   0  0  0  0  0  0  0  0  0  0  0  0
    2.5938   -0.0305    6.9434 H   0  0  0  0  0  0  0  0  0  0  0  0
    5.4162    1.6451    5.3616 H   0  0  0  0  0  0  0  0  0  0  0  0
    4.7591    1.6050    3.7553 H   0  0  0  0  0  0  0  0  0  0  0  0
    0.4235   -0.8368   -2.3541 N   0  0  0  0  0  0  0  0  0  0  0  0
    0.4479   -0.7027   -3.7924 C   0  0  2  0  0  0  0  0  0  0  0  0
    0.0133   -2.0317   -4.3961 C   0  0  0  0  0  0  0  0  0  0  0  0
    0.2772   -3.1185   -3.8859 O   0  0  0  0  0  0  0  0  0  0  0  0
    1.8302   -0.3069   -4.2878 C   0  0  0  0  0  0  0  0  0  0  0  0
    0.6720   -1.7398   -1.9610 H   0  0  0  0  0  0  0  0  0  0  0  0
   -0.2820    0.0724   -4.0503 H   0  0  0  0  0  0  0  0  0  0  0  0
    2.5751   -1.0714   -4.0386 H   0  0  0  0  0  0  0  0  0  0  0  0
    1.8401   -0.1779   -5.3752 H   0  0  0  0  0  0  0  0  0  0  0  0
    2.1537    0.6341   -3.8298 H   0  0  0  0  0  0  0  0  0  0  0  0
   -0.6668   -1.8631   -5.5941 N   0  0  0  0  0  0  0  0  0  0  0  0
   -1.1450   -2.9750   -6.3822 C   0  0  0  0  0  0  0  0  0  0  0  0
   -0.8763   -0.9249   -5.9221 H   0  0  0  0  0  0  0  0  0  0  0  0
   -0.3844   -3.2510   -7.1274 H   0  0  0  0  0  0  0  0  0  0  0  0
   -1.3413   -3.8337   -5.7234 H   0  0  0  0  0  0  0  0  0  0  0  0
   -2.0741   -2.6872   -6.8961 H   0  0  0  0  0  0  0  0  0  0  0  0
  1  3  1  0  0  0  0
  1  7  1  0  0  0  0
  1  2  2  0  0  0  0
 42 43  1  0  0  0  0
 43 51  1  0  0  0  0
 43 44  2  0  0  0  0
  8  9  1  0  0  0  0
  9 17  1  0  0  0  0
  9 10  2  0  0  0  0
 18 19  1  0  0  0  0
 19 41  1  0  0  0  0
 19 20  2  0  0  0  0
 25 26  1  0  0  0  0
 25 27  1  0  0  0  0
 24 25  2  0  0  0  0
 42 45  1  0  0  0  0
  8 11  1  0  0  0  0
 51 52  1  0  0  0  0
 21 22  1  0  0  0  0
 22 23  1  0  0  0  0
 18 21  1  0  0  0  0
 23 24  1  0  0  0  0
 41 42  1  0  0  0  0
  7  8  1  0  0  0  0
 17 18  1  0  0  0  0
  3  4  1  0  0  0  0
  3  5  1  0  0  0  0
  3  6  1  0  0  0  0
 45 48  1  0  0  0  0
 45 49  1  0  0  0  0
 45 50  1  0  0  0  0
 11 14  1  0  0  0  0
 11 15  1  0  0  0  0
 11 16  1  0  0  0  0
 52 54  1  0  0  0  0
 52 55  1  0  0  0  0
 52 56  1  0  0  0  0
 22 32  1  0  0  0  0
 22 33  1  0  0  0  0
 21 30  1  0  0  0  0
 21 31  1  0  0  0  0
 23 34  1  0  0  0  0
 23 35  1  0  0  0  0
 42 47  1  0  0  0  0
  8 13  1  0  0  0  0
 18 29  1  0  0  0  0
 26 37  1  0  0  0  0
 26 38  1  0  0  0  0
 27 39  1  0  0  0  0
 27 40  1  0  0  0  0
 51 53  1  0  0  0  0
  7 12  1  0  0  0  0
 41 46  1  0  0  0  0
 17 28  1  0  0  0  0
 24 36  1  0  0  0  0
M  CHG  1  24   1
M  END
$$$$

  -OEChem-05262214473D

 56 55  0     1  0  0  0  0  0999 V2000
    0.7735   -5.8042   -2.0022 C   0  0  0  0  0  0  0  0  0  0  0  0
   -0.2086   -6.3825   -1.5519 O   0  0  0  0  0  0  0  0  0  0  0  0
    1.4751   -6.3646   -3.1946 C   0  0  0  0  0  0  0  0  0  0  0  0
    2.2765   -7.0687   -2.9186 H   0  0  0  0  0  0  0  0  0  0  0  0
    0.7988   -6.9360   -3.8504 H   0  0  0  0  0  0  0  0  0  0  0  0
    1.9556   -5.6216   -3.8511 H   0  0  0  0  0  0  0  0  0  0  0  0
    1.3322   -4.6359   -1.5106 N   0  0  0  0  0  0  0  0  0  0  0  0
    0.8124   -3.9290   -0.3698 C   0  0  2  0  0  0  0  0  0  0  0  0
    1.0666   -2.4424   -0.5818 C   0  0  0  0  0  0  0  0  0  0  0  0
    2.0598   -2.0076   -1.1610 O   0  0  0  0  0  0  0  0  0  0  0  0
    1.4560   -4.4118    0.9207 C   0  0  0  0  0  0  0  0  0  0  0  0
    2.1528   -4.2578   -1.9805 H   0  0  0  0  0  0  0  0  0  0  0  0
   -0.2667   -4.1160   -0.3467 H   0  0  0  0  0  0  0  0  0  0  0  0
    2.5374   -4.2329    0.9160 H   0  0  0  0  0  0  0  0  0  0  0  0
    1.0390   -3.8932    1.7903 H   0  0  0  0  0  0  0  0  0  0  0  0
    1.2976   -5.4871    1.0566 H   0  0  0  0  0  0  0  0  0  0  0  0
    0.0755   -1.6529   -0.0105 N   0  0  0  0  0  0  0  0  0  0  0  0
    0.1113   -0.2132   -0.0391 C   0  0  2  0  0  0  0  0  0  0  0  0
    0.1188    0.2159   -1.5025 C   0  0  0  0  0  0  0  0  0  0  0  0
    0.1076    1.3938   -1.8541 O   0  0  0  0  0  0  0  0  0  0  0  0
    1.3373    0.3469    0.6893 C   0  0  0  0  0  0  0  0  0  0  0  0
    1.2902    0.0842    2.1992 C   0  0  0  0  0  0  0  0  0  0  0  0
    2.5128    0.6438    2.9191 C   0  0  0  0  0  0  0  0  0  0  0  0
    2.4755    0.3710    4.3541 N   0  3  0  0  0  0  0  0  0  0  0  0
    3.5164    0.7330    5.2110 C   0  0  0  0  0  0  0  0  0  0  0  0
    3.4126    0.4412    6.5670 N   0  0  0  0  0  0  0  0  0  0  0  0
    4.6554    1.3793    4.7418 N   0  0  0  0  0  0  0  0  0  0  0  0
   -0.7323   -2.1024    0.4149 H   0  0  0  0  0  0  0  0  0  0  0  0
   -0.8145    0.1370    0.4314 H   0  0  0  0  0  0  0  0  0  0  0  0
    1.4060    1.4268    0.5111 H   0  0  0  0  0  0  0  0  0  0  0  0
    2.2517   -0.0945    0.2712 H   0  0  0  0  0  0  0  0  0  0  0  0
    0.3811    0.5289    2.6215 H   0  0  0  0  0  0  0  0  0  0  0  0
    1.2432   -0.9953    2.3836 H   0  0  0  0  0  0  0  0  0  0  0  0
    3.4193    0.1759    2.5231 H   0  0  0  0  0  0  0  0  0  0  0  0
    2.5863    1.7268    2.7808 H   0  0  0  0  0  0  0  0  0  0  0  0
    1.6666   -0.0998    4.7559 H   0  0  0  0  0  0  0  0  0  0  0  0
    4.1530    0.6917    7.2180 H   0  0  0  0  0  0  0  0  0  0  0  0
    2.5938   -0.0305    6.9434 H   0  0  0  0  0  0  0  0  0  0  0  0
    5.4162    1.6451    5.3616 H   0  0  0  0  0  0  0  0  0  0  0  0
    4.7591    1.6050    3.7553 H   0  0  0  0  0  0  0  0  0  0  0  0
    0.0897   -0.8705   -2.3657 N   0  0  0  0  0  0  0  0  0  0  0  0
    0.0421   -0.7317   -3.8030 C   0  0  2  0  0  0  0  0  0  0  0  0
   -0.7518   -1.9047   -4.3627 C   0  0  0  0  0  0  0  0  0  0  0  0
   -0.7297   -3.0282   -3.8645 O   0  0  0  0  0  0  0  0  0  0  0  0
    1.4396   -0.6863   -4.4011 C   0  0  0  0  0  0  0  0  0  0  0  0
    0.1341   -1.8110   -1.9846 H   0  0  0  0  0  0  0  0  0  0  0  0
   -0.4892    0.2030   -4.0130 H   0  0  0  0  0  0  0  0  0  0  0  0
    1.9873   -1.6144   -4.2009 H   0  0  0  0  0  0  0  0  0  0  0  0
    1.4021   -0.5524   -5.4872 H   0  0  0  0  0  0  0  0  0  0  0  0
    2.0190    0.1400   -3.9754 H   0  0  0  0  0  0  0  0  0  0  0  0
   -1.4538   -1.5601   -5.5092 N   0  0  0  0  0  0  0  0  0  0  0  0
   -2.2493   -2.5100   -6.2515 C   0  0  0  0  0  0  0  0  0  0  0  0
   -1.4470   -0.5958   -5.8284 H   0  0  0  0  0  0  0  0  0  0  0  0
   -1.6373   -2.9584   -7.0479 H   0  0  0  0  0  0  0  0  0  0  0  0
   -2.6043   -3.2999   -5.5732 H   0  0  0  0  0  0  0  0  0  0  0  0
   -3.1125   -1.9952   -6.6984 H   0  0  0  0  0  0  0  0  0  0  0  0
  1  3  1  0  0  0  0
  1  7  1  0  0  0  0
  1  2  2  0  0  0  0
 42 43  1  0  0  0  0
 43 51  1  0  0  0  0
 43 44  2  0  0  0  0
  8  9  1  0  0  0  0
  9 17  1  0  0  0  0
  9 10  2  0  0  0  0
 18 19  1  0  0  0  0
 19 41  1  0  0  0  0
 19 20  2  0  0  0  0
 25 26  1  0  0  0  0
 25 27  1  0  0  0  0
 24 25  2  0  0  0  0
 42 45  1  0  0  0  0
  8 11  1  0  0  0  0
 51 52  1  0  0  0  0
 21 22  1  0  0  0  0
 22 23  1  0  0  0  0
 18 21  1  0  0  0  0
 23 24  1  0  0  0  0
 41 42  1  0  0  0  0
  7  8  1  0  0  0  0
 17 18  1  0  0  0  0
  3  4  1  0  0  0  0
  3  5  1  0  0  0  0
  3  6  1  0  0  0  0
 45 48  1  0  0  0  0
 45 49  1  0  0  0  0
 45 50  1  0  0  0  0
 11 14  1  0  0  0  0
 11 15  1  0  0  0  0
 11 16  1  0  0  0  0
 52 54  1  0  0  0  0
 52 55  1  0  0  0  0
 52 56  1  0  0  0  0
 22 32  1  0  0  0  0
 22 33  1  0  0  0  0
 21 30  1  0  0  0  0
 21 31  1  0  0  0  0
 23 34  1  0  0  0  0
 23 35  1  0  0  0  0
 42 47  1  0  0  0  0
  8 13  1  0  0  0  0
 18 29  1  0  0  0  0
 26 37  1  0  0  0  0
 26 38  1  0  0  0  0
 27 39  1  0  0  0  0
 27 40  1  0  0  0  0
 51 53  1  0  0  0  0
  7 12  1  0  0  0  0
 41 46  1  0  0  0  0
 17 28  1  0  0  0  0
 24 36  1  0  0  0  0
M  CHG  1  24   1
M  END
$$$$

  -OEChem-05262214473D

 56 55  0     1  0  0  0  0  0999 V2000
    0.7735   -5.8042   -2.0022 C   0  0  0  0  0  0  0  0  0  0  0  0
   -0.2086   -6.3825   -1.5519 O   0  0  0  0  0  0  0  0  0  0  0  0
    1.4751   -6.3646   -3.1946 C   0  0  0  0  0  0  0  0  0  0  0  0
    2.2765   -7.0687   -2.9186 H   0  0  0  0  0  0  0  0  0  0  0  0
    0.7988   -6.9360   -3.8504 H   0  0  0  0  0  0  0  0  0  0  0  0
    1.9556   -5.6216   -3.8511 H   0  0  0  0  0  0  0  0  0  0  0  0
    1.3322   -4.6359   -1.5106 N   0  0  0  0  0  0  0  0  0  0  0  0
    0.8124   -3.9290   -0.3698 C   0  0  2  0  0  0  0  0  0  0  0  0
    1.0666   -2.4424   -0.5818 C   0  0  0  0  0  0  0  0  0  0  0  0
    2.0598   -2.0076   -1.1610 O   0  0  0  0  0  0  0  0  0  0  0  0
    1.4560   -4.4118    0.9207 C   0  0  0  0  0  0  0  0  0  0  0  0
    2.1528   -4.2578   -1.9805 H   0  0  0  0  0  0  0  0  0  0  0  0
   -0.2667   -4.1160   -0.3467 H   0  0  0  0  0  0  0  0  0  0  0  0
    2.5374   -4.2329    0.9160 H   0  0  0  0  0  0  0  0  0  0  0  0
    1.0390   -3.8932    1.7903 H   0  0  0  0  0  0  0  0  0  0  0  0
    1.2976   -5.4871    1.0566 H   0  0  0  0  0  0  0  0  0  0  0  0
    0.0755   -1.6529   -0.0105 N   0  0  0  0  0  0  0  0  0  0  0  0
    0.1113   -0.2132   -0.0391 C   0  0  2  0  0  0  0  0  0  0  0  0
    0.1188    0.2159   -1.5025 C   0  0  0  0  0  0  0  0  0  0  0  0
    0.3750    1.3633   -1.8617 O   0  0  0  0  0  0  0  0  0  0  0  0
    1.3373    0.3469    0.6893 C   0  0  0  0  0  0  0  0  0  0  0  0
    1.2902    0.0842    2.1992 C   0  0  0  0  0  0  0  0  0  0  0  0
    2.5128    0.6438    2.9191 C   0  0  0  0  0  0  0  0  0  0  0  0
    2.4755    0.3710    4.3541 N   0  3  0  0  0  0  0  0  0  0  0  0
    3.5164    0.7330    5.2110 C   0  0  0  0  0  0  0  0  0  0  0  0
    3.4126    0.4412    6.5670 N   0  0  0  0  0  0  0  0  0  0  0  0
    4.6554    1.3793    4.7418 N   0  0  0  0  0  0  0  0  0  0  0  0
   -0.7323   -2.1024    0.4149 H   0  0  0  0  0  0  0  0  0  0  0  0
   -0.8145    0.1370    0.4314 H   0  0  0  0  0  0  0  0  0  0  0  0
    1.4060    1.4268    0.5111 H   0  0  0  0  0  0  0  0  0  0  0  0
    2.2517   -0.0945    0.2712 H   0  0  0  0  0  0  0  0  0  0  0  0
    0.3811    0.5289    2.6215 H   0  0  0  0  0  0  0  0  0  0  0  0
    1.2432   -0.9953    2.3836 H   0  0  0  0  0  0  0  0  0  0  0  0
    3.4193    0.1759    2.5231 H   0  0  0  0  0  0  0  0  0  0  0  0
    2.5863    1.7268    2.7808 H   0  0  0  0  0  0  0  0  0  0  0  0
    1.6666   -0.0998    4.7559 H   0  0  0  0  0  0  0  0  0  0  0  0
    4.1530    0.6917    7.2180 H   0  0  0  0  0  0  0  0  0  0  0  0
    2.5938   -0.0305    6.9434 H   0  0  0  0  0  0  0  0  0  0  0  0
    5.4162    1.6451    5.3616 H   0  0  0  0  0  0  0  0  0  0  0  0
    4.7591    1.6050    3.7553 H   0  0  0  0  0  0  0  0  0  0  0  0
   -0.2419   -0.8202   -2.3526 N   0  0  0  0  0  0  0  0  0  0  0  0
   -0.3579   -0.6588   -3.7837 C   0  0  2  0  0  0  0  0  0  0  0  0
   -1.4568   -1.5921   -4.2746 C   0  0  0  0  0  0  0  0  0  0  0  0
   -1.6784   -2.6911   -3.7705 O   0  0  0  0  0  0  0  0  0  0  0  0
    0.9598   -0.9556   -4.4825 C   0  0  0  0  0  0  0  0  0  0  0  0
   -0.4050   -1.7462   -1.9684 H   0  0  0  0  0  0  0  0  0  0  0  0
   -0.6542    0.3807   -3.9618 H   0  0  0  0  0  0  0  0  0  0  0  0
    1.2728   -1.9927   -4.3155 H   0  0  0  0  0  0  0  0  0  0  0  0
    0.8779   -0.8053   -5.5641 H   0  0  0  0  0  0  0  0  0  0  0  0
    1.7557   -0.3036   -4.1068 H   0  0  0  0  0  0  0  0  0  0  0  0
   -2.1326   -1.0719   -5.3695 N   0  0  0  0  0  0  0  0  0  0  0  0
   -3.1909   -1.7868   -6.0441 C   0  0  0  0  0  0  0  0  0  0  0  0
   -1.9097   -0.1363   -5.6960 H   0  0  0  0  0  0  0  0  0  0  0  0
   -2.7690   -2.3648   -6.8795 H   0  0  0  0  0  0  0  0  0  0  0  0
   -3.6807   -2.4709   -5.3355 H   0  0  0  0  0  0  0  0  0  0  0  0
   -3.9293   -1.0691   -6.4309 H   0  0  0  0  0  0  0  0  0  0  0  0
  1  3  1  0  0  0  0
  1  7  1  0  0  0  0
  1  2  2  0  0  0  0
 42 43  1  0  0  0  0
 43 51  1  0  0  0  0
 43 44  2  0  0  0  0
  8  9  1  0  0  0  0
  9 17  1  0  0  0  0
  9 10  2  0  0  0  0
 18 19  1  0  0  0  0
 19 41  1  0  0  0  0
 19 20  2  0  0  0  0
 25 26  1  0  0  0  0
 25 27  1  0  0  0  0
 24 25  2  0  0  0  0
 42 45  1  0  0  0  0
  8 11  1  0  0  0  0
 51 52  1  0  0  0  0
 21 22  1  0  0  0  0
 22 23  1  0  0  0  0
 18 21  1  0  0  0  0
 23 24  1  0  0  0  0
 41 42  1  0  0  0  0
  7  8  1  0  0  0  0
 17 18  1  0  0  0  0
  3  4  1  0  0  0  0
  3  5  1  0  0  0  0
  3  6  1  0  0  0  0
 45 48  1  0  0  0  0
 45 49  1  0  0  0  0
 45 50  1  0  0  0  0
 11 14  1  0  0  0  0
 11 15  1  0  0  0  0
 11 16  1  0  0  0  0
 52 54  1  0  0  0  0
 52 55  1  0  0  0  0
 52 56  1  0  0  0  0
 22 32  1  0  0  0  0
 22 33  1  0  0  0  0
 21 30  1  0  0  0  0
 21 31  1  0  0  0  0
 23 34  1  0  0  0  0
 23 35  1  0  0  0  0
 42 47  1  0  0  0  0
  8 13  1  0  0  0  0
 18 29  1  0  0  0  0
 26 37  1  0  0  0  0
 26 38  1  0  0  0  0
 27 39  1  0  0  0  0
 27 40  1  0  0  0  0
 51 53  1  0  0  0  0
  7 12  1  0  0  0  0
 41 46  1  0  0  0  0
 17 28  1  0  0  0  0
 24 36  1  0  0  0  0
M  CHG  1  24   1
M  END
$$$$

  -OEChem-05262214473D

 56 55  0     1  0  0  0  0  0999 V2000
    0.7735   -5.8042   -2.0022 C   0  0  0  0  0  0  0  0  0  0  0  0
   -0.2086   -6.3825   -1.5519 O   0  0  0  0  0  0  0  0  0  0  0  0
    1.4751   -6.3646   -3.1946 C   0  0  0  0  0  0  0  0  0  0  0  0
    2.2765   -7.0687   -2.9186 H   0  0  0  0  0  0  0  0  0  0  0  0
    0.7988   -6.9360   -3.8504 H   0  0  0  0  0  0  0  0  0  0  0  0
    1.9556   -5.6216   -3.8511 H   0  0  0  0  0  0  0  0  0  0  0  0
    1.3322   -4.6359   -1.5106 N   0  0  0  0  0  0  0  0  0  0  0  0
    0.8124   -3.9290   -0.3698 C   0  0  2  0  0  0  0  0  0  0  0  0
    1.0666   -2.4424   -0.5818 C   0  0  0  0  0  0  0  0  0  0  0  0
    2.0598   -2.0076   -1.1610 O   0  0  0  0  0  0  0  0  0  0  0  0
    1.4560   -4.4118    0.9207 C   0  0  0  0  0  0  0  0  0  0  0  0
    2.1528   -4.2578   -1.9805 H   0  0  0  0  0  0  0  0  0  0  0  0
   -0.2667   -4.1160   -0.3467 H   0  0  0  0  0  0  0  0  0  0  0  0
    2.5374   -4.2329    0.9160 H   0  0  0  0  0  0  0  0  0  0  0  0
    1.0390   -3.8932    1.7903 H   0  0  0  0  0  0  0  0  0  0  0  0
    1.2976   -5.4871    1.0566 H   0  0  0  0  0  0  0  0  0  0  0  0
    0.0755   -1.6529   -0.0105 N   0  0  0  0  0  0  0  0  0  0  0  0
    0.1113   -0.2132   -0.0391 C   0  0  2  0  0  0  0  0  0  0  0  0
    0.1188    0.2159   -1.5025 C   0  0  0  0  0  0  0  0  0  0  0  0
    0.6252    1.2675   -1.8885 O   0  0  0  0  0  0  0  0  0  0  0  0
    1.3373    0.3469    0.6893 C   0  0  0  0  0  0  0  0  0  0  0  0
    1.2902    0.0842    2.1992 C   0  0  0  0  0  0  0  0  0  0  0  0
    2.5128    0.6438    2.9191 C   0  0  0  0  0  0  0  0  0  0  0  0
    2.4755    0.3710    4.3541 N   0  3  0  0  0  0  0  0  0  0  0  0
    3.5164    0.7330    5.2110 C   0  0  0  0  0  0  0  0  0  0  0  0
    3.4126    0.4412    6.5670 N   0  0  0  0  0  0  0  0  0  0  0  0
    4.6554    1.3793    4.7418 N   0  0  0  0  0  0  0  0  0  0  0  0
   -0.7323   -2.1024    0.4149 H   0  0  0  0  0  0  0  0  0  0  0  0
   -0.8145    0.1370    0.4314 H   0  0  0  0  0  0  0  0  0  0  0  0
    1.4060    1.4268    0.5111 H   0  0  0  0  0  0  0  0  0  0  0  0
    2.2517   -0.0945    0.2712 H   0  0  0  0  0  0  0  0  0  0  0  0
    0.3811    0.5289    2.6215 H   0  0  0  0  0  0  0  0  0  0  0  0
    1.2432   -0.9953    2.3836 H   0  0  0  0  0  0  0  0  0  0  0  0
    3.4193    0.1759    2.5231 H   0  0  0  0  0  0  0  0  0  0  0  0
    2.5863    1.7268    2.7808 H   0  0  0  0  0  0  0  0  0  0  0  0
    1.6666   -0.0998    4.7559 H   0  0  0  0  0  0  0  0  0  0  0  0
    4.1530    0.6917    7.2180 H   0  0  0  0  0  0  0  0  0  0  0  0
    2.5938   -0.0305    6.9434 H   0  0  0  0  0  0  0  0  0  0  0  0
    5.4162    1.6451    5.3616 H   0  0  0  0  0  0  0  0  0  0  0  0
    4.7591    1.6050    3.7553 H   0  0  0  0  0  0  0  0  0  0  0  0
   -0.5488   -0.6892   -2.3157 N   0  0  0  0  0  0  0  0  0  0  0  0
   -0.7247   -0.4892   -3.7358 C   0  0  2  0  0  0  0  0  0  0  0  0
   -2.0537   -1.1151   -4.1378 C   0  0  0  0  0  0  0  0  0  0  0  0
   -2.5041   -2.1299   -3.6101 O   0  0  0  0  0  0  0  0  0  0  0  0
    0.4235   -1.0965   -4.5266 C   0  0  0  0  0  0  0  0  0  0  0  0
   -0.9084   -1.5497   -1.9133 H   0  0  0  0  0  0  0  0  0  0  0  0
   -0.7657    0.5931   -3.9000 H   0  0  0  0  0  0  0  0  0  0  0  0
    0.4804   -2.1805   -4.3746 H   0  0  0  0  0  0  0  0  0  0  0  0
    0.3032   -0.9192   -5.6004 H   0  0  0  0  0  0  0  0  0  0  0  0
    1.3816   -0.6665   -4.2152 H   0  0  0  0  0  0  0  0  0  0  0  0
   -2.6569   -0.4320   -5.1845 N   0  0  0  0  0  0  0  0  0  0  0  0
   -3.9057   -0.8546   -5.7743 C   0  0  0  0  0  0  0  0  0  0  0  0
   -2.2329    0.4223   -5.5338 H   0  0  0  0  0  0  0  0  0  0  0  0
   -3.7025   -1.5105   -6.6337 H   0  0  0  0  0  0  0  0  0  0  0  0
   -4.4973   -1.4030   -5.0265 H   0  0  0  0  0  0  0  0  0  0  0  0
   -4.4688    0.0279   -6.1119 H   0  0  0  0  0  0  0  0  0  0  0  0
  1  3  1  0  0  0  0
  1  7  1  0  0  0  0
  1  2  2  0  0  0  0
 42 43  1  0  0  0  0
 43 51  1  0  0  0  0
 43 44  2  0  0  0  0
  8  9  1  0  0  0  0
  9 17  1  0  0  0  0
  9 10  2  0  0  0  0
 18 19  1  0  0  0  0
 19 41  1  0  0  0  0
 19 20  2  0  0  0  0
 25 26  1  0  0  0  0
 25 27  1  0  0  0  0
 24 25  2  0  0  0  0
 42 45  1  0  0  0  0
  8 11  1  0  0  0  0
 51 52  1  0  0  0  0
 21 22  1  0  0  0  0
 22 23  1  0  0  0  0
 18 21  1  0  0  0  0
 23 24  1  0  0  0  0
 41 42  1  0  0  0  0
  7  8  1  0  0  0  0
 17 18  1  0  0  0  0
  3  4  1  0  0  0  0
  3  5  1  0  0  0  0
  3  6  1  0  0  0  0
 45 48  1  0  0  0  0
 45 49  1  0  0  0  0
 45 50  1  0  0  0  0
 11 14  1  0  0  0  0
 11 15  1  0  0  0  0
 11 16  1  0  0  0  0
 52 54  1  0  0  0  0
 52 55  1  0  0  0  0
 52 56  1  0  0  0  0
 22 32  1  0  0  0  0
 22 33  1  0  0  0  0
 21 30  1  0  0  0  0
 21 31  1  0  0  0  0
 23 34  1  0  0  0  0
 23 35  1  0  0  0  0
 42 47  1  0  0  0  0
  8 13  1  0  0  0  0
 18 29  1  0  0  0  0
 26 37  1  0  0  0  0
 26 38  1  0  0  0  0
 27 39  1  0  0  0  0
 27 40  1  0  0  0  0
 51 53  1  0  0  0  0
  7 12  1  0  0  0  0
 41 46  1  0  0  0  0
 17 28  1  0  0  0  0
 24 36  1  0  0  0  0
M  CHG  1  24   1
M  END
$$$$

  -OEChem-05262214473D

 56 55  0     1  0  0  0  0  0999 V2000
    0.7735   -5.8042   -2.0022 C   0  0  0  0  0  0  0  0  0  0  0  0
   -0.2086   -6.3825   -1.5519 O   0  0  0  0  0  0  0  0  0  0  0  0
    1.4751   -6.3646   -3.1946 C   0  0  0  0  0  0  0  0  0  0  0  0
    2.2765   -7.0687   -2.9186 H   0  0  0  0  0  0  0  0  0  0  0  0
    0.7988   -6.9360   -3.8504 H   0  0  0  0  0  0  0  0  0  0  0  0
    1.9556   -5.6216   -3.8511 H   0  0  0  0  0  0  0  0  0  0  0  0
    1.3322   -4.6359   -1.5106 N   0  0  0  0  0  0  0  0  0  0  0  0
    0.8124   -3.9290   -0.3698 C   0  0  2  0  0  0  0  0  0  0  0  0
    1.0666   -2.4424   -0.5818 C   0  0  0  0  0  0  0  0  0  0  0  0
    2.0598   -2.0076   -1.1610 O   0  0  0  0  0  0  0  0  0  0  0  0
    1.4560   -4.4118    0.9207 C   0  0  0  0  0  0  0  0  0  0  0  0
    2.1528   -4.2578   -1.9805 H   0  0  0  0  0  0  0  0  0  0  0  0
   -0.2667   -4.1160   -0.3467 H   0  0  0  0  0  0  0  0  0  0  0  0
    2.5374   -4.2329    0.9160 H   0  0  0  0  0  0  0  0  0  0  0  0
    1.0390   -3.8932    1.7903 H   0  0  0  0  0  0  0  0  0  0  0  0
    1.2976   -5.4871    1.0566 H   0  0  0  0  0  0  0  0  0  0  0  0
    0.0755   -1.6529   -0.0105 N   0  0  0  0  0  0  0  0  0  0  0  0
    0.1113   -0.2132   -0.0391 C   0  0  2  0  0  0  0  0  0  0  0  0
    0.1188    0.2159   -1.5025 C   0  0  0  0  0  0  0  0  0  0  0  0
    0.8410    1.1128   -1.9328 O   0  0  0  0  0  0  0  0  0  0  0  0
    1.3373    0.3469    0.6893 C   0  0  0  0  0  0  0  0  0  0  0  0
    1.2902    0.0842    2.1992 C   0  0  0  0  0  0  0  0  0  0  0  0
    2.5128    0.6438    2.9191 C   0  0  0  0  0  0  0  0  0  0  0  0
    2.4755    0.3710    4.3541 N   0  3  0  0  0  0  0  0  0  0  0  0
    3.5164    0.7330    5.2110 C   0  0  0  0  0  0  0  0  0  0  0  0
    3.4126    0.4412    6.5670 N   0  0  0  0  0  0  0  0  0  0  0  0
    4.6554    1.3793    4.7418 N   0  0  0  0  0  0  0  0  0  0  0  0
   -0.7323   -2.1024    0.4149 H   0  0  0  0  0  0  0  0  0  0  0  0
   -0.8145    0.1370    0.4314 H   0  0  0  0  0  0  0  0  0  0  0  0
    1.4060    1.4268    0.5111 H   0  0  0  0  0  0  0  0  0  0  0  0
    2.2517   -0.0945    0.2712 H   0  0  0  0  0  0  0  0  0  0  0  0
    0.3811    0.5289    2.6215 H   0  0  0  0  0  0  0  0  0  0  0  0
    1.2432   -0.9953    2.3836 H   0  0  0  0  0  0  0  0  0  0  0  0
    3.4193    0.1759    2.5231 H   0  0  0  0  0  0  0  0  0  0  0  0
    2.5863    1.7268    2.7808 H   0  0  0  0  0  0  0  0  0  0  0  0
    1.6666   -0.0998    4.7559 H   0  0  0  0  0  0  0  0  0  0  0  0
    4.1530    0.6917    7.2180 H   0  0  0  0  0  0  0  0  0  0  0  0
    2.5938   -0.0305    6.9434 H   0  0  0  0  0  0  0  0  0  0  0  0
    5.4162    1.6451    5.3616 H   0  0  0  0  0  0  0  0  0  0  0  0
    4.7591    1.6050    3.7553 H   0  0  0  0  0  0  0  0  0  0  0  0
   -0.8100   -0.4865   -2.2576 N   0  0  0  0  0  0  0  0  0  0  0  0
   -1.0335   -0.2342   -3.6625 C   0  0  2  0  0  0  0  0  0  0  0  0
   -2.5018   -0.5064   -3.9615 C   0  0  0  0  0  0  0  0  0  0  0  0
   -3.1506   -1.3830   -3.3943 O   0  0  0  0  0  0  0  0  0  0  0  0
   -0.1327   -1.0994   -4.5302 C   0  0  0  0  0  0  0  0  0  0  0  0
   -1.3419   -1.2349   -1.8232 H   0  0  0  0  0  0  0  0  0  0  0  0
   -0.8161    0.8260   -3.8320 H   0  0  0  0  0  0  0  0  0  0  0  0
   -0.3360   -2.1651   -4.3742 H   0  0  0  0  0  0  0  0  0  0  0  0
   -0.2829   -0.8865   -5.5938 H   0  0  0  0  0  0  0  0  0  0  0  0
    0.9222   -0.9240   -4.2930 H   0  0  0  0  0  0  0  0  0  0  0  0
   -2.9909    0.3160   -4.9668 N   0  0  0  0  0  0  0  0  0  0  0  0
   -4.3450    0.2230   -5.4605 C   0  0  0  0  0  0  0  0  0  0  0  0
   -2.3945    1.0420   -5.3529 H   0  0  0  0  0  0  0  0  0  0  0  0
   -4.3741   -0.4538   -6.3272 H   0  0  0  0  0  0  0  0  0  0  0  0
   -4.9983   -0.1692   -4.6672 H   0  0  0  0  0  0  0  0  0  0  0  0
   -4.6942    1.2212   -5.7631 H   0  0  0  0  0  0  0  0  0  0  0  0
  1  3  1  0  0  0  0
  1  7  1  0  0  0  0
  1  2  2  0  0  0  0
 42 43  1  0  0  0  0
 43 51  1  0  0  0  0
 43 44  2  0  0  0  0
  8  9  1  0  0  0  0
  9 17  1  0  0  0  0
  9 10  2  0  0  0  0
 18 19  1  0  0  0  0
 19 41  1  0  0  0  0
 19 20  2  0  0  0  0
 25 26  1  0  0  0  0
 25 27  1  0  0  0  0
 24 25  2  0  0  0  0
 42 45  1  0  0  0  0
  8 11  1  0  0  0  0
 51 52  1  0  0  0  0
 21 22  1  0  0  0  0
 22 23  1  0  0  0  0
 18 21  1  0  0  0  0
 23 24  1  0  0  0  0
 41 42  1  0  0  0  0
  7  8  1  0  0  0  0
 17 18  1  0  0  0  0
  3  4  1  0  0  0  0
  3  5  1  0  0  0  0
  3  6  1  0  0  0  0
 45 48  1  0  0  0  0
 45 49  1  0  0  0  0
 45 50  1  0  0  0  0
 11 14  1  0  0  0  0
 11 15  1  0  0  0  0
 11 16  1  0  0  0  0
 52 54  1  0  0  0  0
 52 55  1  0  0  0  0
 52 56  1  0  0  0  0
 22 32  1  0  0  0  0
 22 33  1  0  0  0  0
 21 30  1  0  0  0  0
 21 31  1  0  0  0  0
 23 34  1  0  0  0  0
 23 35  1  0  0  0  0
 42 47  1  0  0  0  0
  8 13  1  0  0  0  0
 18 29  1  0  0  0  0
 26 37  1  0  0  0  0
 26 38  1  0  0  0  0
 27 39  1  0  0  0  0
 27 40  1  0  0  0  0
 51 53  1  0  0  0  0
  7 12  1  0  0  0  0
 41 46  1  0  0  0  0
 17 28  1  0  0  0  0
 24 36  1  0  0  0  0
M  CHG  1  24   1
M  END
$$$$

  -OEChem-05262214473D

 56 55  0     1  0  0  0  0  0999 V2000
    0.7735   -5.8042   -2.0022 C   0  0  0  0  0  0  0  0  0  0  0  0
   -0.2086   -6.3825   -1.5519 O   0  0  0  0  0  0  0  0  0  0  0  0
    1.4751   -6.3646   -3.1946 C   0  0  0  0  0  0  0  0  0  0  0  0
    2.2765   -7.0687   -2.9186 H   0  0  0  0  0  0  0  0  0  0  0  0
    0.7988   -6.9360   -3.8504 H   0  0  0  0  0  0  0  0  0  0  0  0
    1.9556   -5.6216   -3.8511 H   0  0  0  0  0  0  0  0  0  0  0  0
    1.3322   -4.6359   -1.5106 N   0  0  0  0  0  0  0  0  0  0  0  0
    0.8124   -3.9290   -0.3698 C   0  0  2  0  0  0  0  0  0  0  0  0
    1.0666   -2.4424   -0.5818 C   0  0  0  0  0  0  0  0  0  0  0  0
    2.0598   -2.0076   -1.1610 O   0  0  0  0  0  0  0  0  0  0  0  0
    1.4560   -4.4118    0.9207 C   0  0  0  0  0  0  0  0  0  0  0  0
    2.1528   -4.2578   -1.9805 H   0  0  0  0  0  0  0  0  0  0  0  0
   -0.2667   -4.1160   -0.3467 H   0  0  0  0  0  0  0  0  0  0  0  0
    2.5374   -4.2329    0.9160 H   0  0  0  0  0  0  0  0  0  0  0  0
    1.0390   -3.8932    1.7903 H   0  0  0  0  0  0  0  0  0  0  0  0
    1.2976   -5.4871    1.0566 H   0  0  0  0  0  0  0  0  0  0  0  0
    0.0755   -1.6529   -0.0105 N   0  0  0  0  0  0  0  0  0  0  0  0
    0.1113   -0.2132   -0.0391 C   0  0  2  0  0  0  0  0  0  0  0  0
    0.1188    0.2159   -1.5025 C   0  0  0  0  0  0  0  0  0  0  0  0
    1.0079    0.9098   -1.9915 O   0  0  0  0  0  0  0  0  0  0  0  0
    1.3373    0.3469    0.6893 C   0  0  0  0  0  0  0  0  0  0  0  0
    1.2902    0.0842    2.1992 C   0  0  0  0  0  0  0  0  0  0  0  0
    2.5128    0.6438    2.9191 C   0  0  0  0  0  0  0  0  0  0  0  0
    2.4755    0.3710    4.3541 N   0  3  0  0  0  0  0  0  0  0  0  0
    3.5164    0.7330    5.2110 C   0  0  0  0  0  0  0  0  0  0  0  0
    3.4126    0.4412    6.5670 N   0  0  0  0  0  0  0  0  0  0  0  0
    4.6554    1.3793    4.7418 N   0  0  0  0  0  0  0  0  0  0  0  0
   -0.7323   -2.1024    0.4149 H   0  0  0  0  0  0  0  0  0  0  0  0
   -0.8145    0.1370    0.4314 H   0  0  0  0  0  0  0  0  0  0  0  0
    1.4060    1.4268    0.5111 H   0  0  0  0  0  0  0  0  0  0  0  0
    2.2517   -0.0945    0.2712 H   0  0  0  0  0  0  0  0  0  0  0  0
    0.3811    0.5289    2.6215 H   0  0  0  0  0  0  0  0  0  0  0  0
    1.2432   -0.9953    2.3836 H   0  0  0  0  0  0  0  0  0  0  0  0
    3.4193    0.1759    2.5231 H   0  0  0  0  0  0  0  0  0  0  0  0
    2.5863    1.7268    2.7808 H   0  0  0  0  0  0  0  0  0  0  0  0
    1.6666   -0.0998    4.7559 H   0  0  0  0  0  0  0  0  0  0  0  0
    4.1530    0.6917    7.2180 H   0  0  0  0  0  0  0  0  0  0  0  0
    2.5938   -0.0305    6.9434 H   0  0  0  0  0  0  0  0  0  0  0  0
    5.4162    1.6451    5.3616 H   0  0  0  0  0  0  0  0  0  0  0  0
    4.7591    1.6050    3.7553 H   0  0  0  0  0  0  0  0  0  0  0  0
   -1.0077   -0.2260   -2.1822 N   0  0  0  0  0  0  0  0  0  0  0  0
   -1.2630    0.0886   -3.5690 C   0  0  2  0  0  0  0  0  0  0  0  0
   -2.7707    0.1927   -3.7578 C   0  0  0  0  0  0  0  0  0  0  0  0
   -3.5739   -0.5012   -3.1378 O   0  0  0  0  0  0  0  0  0  0  0  0
   -0.6709   -0.9640   -4.4933 C   0  0  0  0  0  0  0  0  0  0  0  0
   -1.6758   -0.8234   -1.7041 H   0  0  0  0  0  0  0  0  0  0  0  0
   -0.8020    1.0634   -3.7623 H   0  0  0  0  0  0  0  0  0  0  0  0
   -1.1207   -1.9474   -4.3143 H   0  0  0  0  0  0  0  0  0  0  0  0
   -0.8405   -0.7094   -5.5447 H   0  0  0  0  0  0  0  0  0  0  0  0
    0.4088   -1.0585   -4.3351 H   0  0  0  0  0  0  0  0  0  0  0  0
   -3.1119    1.1213   -4.7312 N   0  0  0  0  0  0  0  0  0  0  0  0
   -4.4788    1.3725   -5.1240 C   0  0  0  0  0  0  0  0  0  0  0  0
   -2.3835    1.6804   -5.1656 H   0  0  0  0  0  0  0  0  0  0  0  0
   -4.7380    0.7333   -5.9809 H   0  0  0  0  0  0  0  0  0  0  0  0
   -5.1496    1.1466   -4.2820 H   0  0  0  0  0  0  0  0  0  0  0  0
   -4.5902    2.4293   -5.4082 H   0  0  0  0  0  0  0  0  0  0  0  0
  1  3  1  0  0  0  0
  1  7  1  0  0  0  0
  1  2  2  0  0  0  0
 42 43  1  0  0  0  0
 43 51  1  0  0  0  0
 43 44  2  0  0  0  0
  8  9  1  0  0  0  0
  9 17  1  0  0  0  0
  9 10  2  0  0  0  0
 18 19  1  0  0  0  0
 19 41  1  0  0  0  0
 19 20  2  0  0  0  0
 25 26  1  0  0  0  0
 25 27  1  0  0  0  0
 24 25  2  0  0  0  0
 42 45  1  0  0  0  0
  8 11  1  0  0  0  0
 51 52  1  0  0  0  0
 21 22  1  0  0  0  0
 22 23  1  0  0  0  0
 18 21  1  0  0  0  0
 23 24  1  0  0  0  0
 41 42  1  0  0  0  0
  7  8  1  0  0  0  0
 17 18  1  0  0  0  0
  3  4  1  0  0  0  0
  3  5  1  0  0  0  0
  3  6  1  0  0  0  0
 45 48  1  0  0  0  0
 45 49  1  0  0  0  0
 45 50  1  0  0  0  0
 11 14  1  0  0  0  0
 11 15  1  0  0  0  0
 11 16  1  0  0  0  0
 52 54  1  0  0  0  0
 52 55  1  0  0  0  0
 52 56  1  0  0  0  0
 22 32  1  0  0  0  0
 22 33  1  0  0  0  0
 21 30  1  0  0  0  0
 21 31  1  0  0  0  0
 23 34  1  0  0  0  0
 23 35  1  0  0  0  0
 42 47  1  0  0  0  0
  8 13  1  0  0  0  0
 18 29  1  0  0  0  0
 26 37  1  0  0  0  0
 26 38  1  0  0  0  0
 27 39  1  0  0  0  0
 27 40  1  0  0  0  0
 51 53  1  0  0  0  0
  7 12  1  0  0  0  0
 41 46  1  0  0  0  0
 17 28  1  0  0  0  0
 24 36  1  0  0  0  0
M  CHG  1  24   1
M  END
$$$$

  -OEChem-05262214473D

 56 55  0     1  0  0  0  0  0999 V2000
    0.7735   -5.8042   -2.0022 C   0  0  0  0  0  0  0  0  0  0  0  0
   -0.2086   -6.3825   -1.5519 O   0  0  0  0  0  0  0  0  0  0  0  0
    1.4751   -6.3646   -3.1946 C   0  0  0  0  0  0  0  0  0  0  0  0
    2.2765   -7.0687   -2.9186 H   0  0  0  0  0  0  0  0  0  0  0  0
    0.7988   -6.9360   -3.8504 H   0  0  0  0  0  0  0  0  0  0  0  0
    1.9556   -5.6216   -3.8511 H   0  0  0  0  0  0  0  0  0  0  0  0
    1.3322   -4.6359   -1.5106 N   0  0  0  0  0  0  0  0  0  0  0  0
    0.8124   -3.9290   -0.3698 C   0  0  2  0  0  0  0  0  0  0  0  0
    1.0666   -2.4424   -0.5818 C   0  0  0  0  0  0  0  0  0  0  0  0
    2.0598   -2.0076   -1.1610 O   0  0  0  0  0  0  0  0  0  0  0  0
    1.4560   -4.4118    0.9207 C   0  0  0  0  0  0  0  0  0  0  0  0
    2.1528   -4.2578   -1.9805 H   0  0  0  0  0  0  0  0  0  0  0  0
   -0.2667   -4.1160   -0.3467 H   0  0  0  0  0  0  0  0  0  0  0  0
    2.5374   -4.2329    0.9160 H   0  0  0  0  0  0  0  0  0  0  0  0
    1.0390   -3.8932    1.7903 H   0  0  0  0  0  0  0  0  0  0  0  0
    1.2976   -5.4871    1.0566 H   0  0  0  0  0  0  0  0  0  0  0  0
    0.0755   -1.6529   -0.0105 N   0  0  0  0  0  0  0  0  0  0  0  0
    0.1113   -0.2132   -0.0391 C   0  0  2  0  0  0  0  0  0  0  0  0
    0.1188    0.2159   -1.5025 C   0  0  0  0  0  0  0  0  0  0  0  0
    1.1144    0.6723   -2.0606 O   0  0  0  0  0  0  0  0  0  0  0  0
    1.3373    0.3469    0.6893 C   0  0  0  0  0  0  0  0  0  0  0  0
    1.2902    0.0842    2.1992 C   0  0  0  0  0  0  0  0  0  0  0  0
    2.5128    0.6438    2.9191 C   0  0  0  0  0  0  0  0  0  0  0  0
    2.4755    0.3710    4.3541 N   0  3  0  0  0  0  0  0  0  0  0  0
    3.5164    0.7330    5.2110 C   0  0  0  0  0  0  0  0  0  0  0  0
    3.4126    0.4412    6.5670 N   0  0  0  0  0  0  0  0  0  0  0  0
    4.6554    1.3793    4.7418 N   0  0  0  0  0  0  0  0  0  0  0  0
   -0.7323   -2.1024    0.4149 H   0  0  0  0  0  0  0  0  0  0  0  0
   -0.8145    0.1370    0.4314 H   0  0  0  0  0  0  0  0  0  0  0  0
    1.4060    1.4268    0.5111 H   0  0  0  0  0  0  0  0  0  0  0  0
    2.2517   -0.0945    0.2712 H   0  0  0  0  0  0  0  0  0  0  0  0
    0.3811    0.5289    2.6215 H   0  0  0  0  0  0  0  0  0  0  0  0
    1.2432   -0.9953    2.3836 H   0  0  0  0  0  0  0  0  0  0  0  0
    3.4193    0.1759    2.5231 H   0  0  0  0  0  0  0  0  0  0  0  0
    2.5863    1.7268    2.7808 H   0  0  0  0  0  0  0  0  0  0  0  0
    1.6666   -0.0998    4.7559 H   0  0  0  0  0  0  0  0  0  0  0  0
    4.1530    0.6917    7.2180 H   0  0  0  0  0  0  0  0  0  0  0  0
    2.5938   -0.0305    6.9434 H   0  0  0  0  0  0  0  0  0  0  0  0
    5.4162    1.6451    5.3616 H   0  0  0  0  0  0  0  0  0  0  0  0
    4.7591    1.6050    3.7553 H   0  0  0  0  0  0  0  0  0  0  0  0
   -1.1285    0.0747   -2.0946 N   0  0  0  0  0  0  0  0  0  0  0  0
   -1.3978    0.4573   -3.4616 C   0  0  2  0  0  0  0  0  0  0  0  0
   -2.8419    0.9345   -3.5406 C   0  0  0  0  0  0  0  0  0  0  0  0
   -3.7450    0.4553   -2.8581 O   0  0  0  0  0  0  0  0  0  0  0  0
   -1.1545   -0.6996   -4.4182 C   0  0  0  0  0  0  0  0  0  0  0  0
   -1.8875   -0.3430   -1.5643 H   0  0  0  0  0  0  0  0  0  0  0  0
   -0.7244    1.2890   -3.6957 H   0  0  0  0  0  0  0  0  0  0  0  0
   -1.8202   -1.5424   -4.1991 H   0  0  0  0  0  0  0  0  0  0  0  0
   -1.3314   -0.3999   -5.4564 H   0  0  0  0  0  0  0  0  0  0  0  0
   -0.1235   -1.0609   -4.3385 H   0  0  0  0  0  0  0  0  0  0  0  0
   -3.0116    1.9289   -4.4939 N   0  0  0  0  0  0  0  0  0  0  0  0
   -4.2981    2.5157   -4.7878 C   0  0  0  0  0  0  0  0  0  0  0  0
   -2.2007    2.2941   -4.9847 H   0  0  0  0  0  0  0  0  0  0  0  0
   -4.7695    1.9699   -5.6184 H   0  0  0  0  0  0  0  0  0  0  0  0
   -4.9409    2.4547   -3.8973 H   0  0  0  0  0  0  0  0  0  0  0  0
   -4.1638    3.5700   -5.0715 H   0  0  0  0  0  0  0  0  0  0  0  0
  1  3  1  0  0  0  0
  1  7  1  0  0  0  0
  1  2  2  0  0  0  0
 42 43  1  0  0  0  0
 43 51  1  0  0  0  0
 43 44  2  0  0  0  0
  8  9  1  0  0  0  0
  9 17  1  0  0  0  0
  9 10  2  0  0  0  0
 18 19  1  0  0  0  0
 19 41  1  0  0  0  0
 19 20  2  0  0  0  0
 25 26  1  0  0  0  0
 25 27  1  0  0  0  0
 24 25  2  0  0  0  0
 42 45  1  0  0  0  0
  8 11  1  0  0  0  0
 51 52  1  0  0  0  0
 21 22  1  0  0  0  0
 22 23  1  0  0  0  0
 18 21  1  0  0  0  0
 23 24  1  0  0  0  0
 41 42  1  0  0  0  0
  7  8  1  0  0  0  0
 17 18  1  0  0  0  0
  3  4  1  0  0  0  0
  3  5  1  0  0  0  0
  3  6  1  0  0  0  0
 45 48  1  0  0  0  0
 45 49  1  0  0  0  0
 45 50  1  0  0  0  0
 11 14  1  0  0  0  0
 11 15  1  0  0  0  0
 11 16  1  0  0  0  0
 52 54  1  0  0  0  0
 52 55  1  0  0  0  0
 52 56  1  0  0  0  0
 22 32  1  0  0  0  0
 22 33  1  0  0  0  0
 21 30  1  0  0  0  0
 21 31  1  0  0  0  0
 23 34  1  0  0  0  0
 23 35  1  0  0  0  0
 42 47  1  0  0  0  0
  8 13  1  0  0  0  0
 18 29  1  0  0  0  0
 26 37  1  0  0  0  0
 26 38  1  0  0  0  0
 27 39  1  0  0  0  0
 27 40  1  0  0  0  0
 51 53  1  0  0  0  0
  7 12  1  0  0  0  0
 41 46  1  0  0  0  0
 17 28  1  0  0  0  0
 24 36  1  0  0  0  0
M  CHG  1  24   1
M  END
$$$$

  -OEChem-05262214473D

 56 55  0     1  0  0  0  0  0999 V2000
    0.7735   -5.8042   -2.0022 C   0  0  0  0  0  0  0  0  0  0  0  0
   -0.2086   -6.3825   -1.5519 O   0  0  0  0  0  0  0  0  0  0  0  0
    1.4751   -6.3646   -3.1946 C   0  0  0  0  0  0  0  0  0  0  0  0
    2.2765   -7.0687   -2.9186 H   0  0  0  0  0  0  0  0  0  0  0  0
    0.7988   -6.9360   -3.8504 H   0  0  0  0  0  0  0  0  0  0  0  0
    1.9556   -5.6216   -3.8511 H   0  0  0  0  0  0  0  0  0  0  0  0
    1.3322   -4.6359   -1.5106 N   0  0  0  0  0  0  0  0  0  0  0  0
    0.8124   -3.9290   -0.3698 C   0  0  2  0  0  0  0  0  0  0  0  0
    1.0666   -2.4424   -0.5818 C   0  0  0  0  0  0  0  0  0  0  0  0
    2.0598   -2.0076   -1.1610 O   0  0  0  0  0  0  0  0  0  0  0  0
    1.4560   -4.4118    0.9207 C   0  0  0  0  0  0  0  0  0  0  0  0
    2.1528   -4.2578   -1.9805 H   0  0  0  0  0  0  0  0  0  0  0  0
   -0.2667   -4.1160   -0.3467 H   0  0  0  0  0  0  0  0  0  0  0  0
    2.5374   -4.2329    0.9160 H   0  0  0  0  0  0  0  0  0  0  0  0
    1.0390   -3.8932    1.7903 H   0  0  0  0  0  0  0  0  0  0  0  0
    1.2976   -5.4871    1.0566 H   0  0  0  0  0  0  0  0  0  0  0  0
    0.0755   -1.6529   -0.0105 N   0  0  0  0  0  0  0  0  0  0  0  0
    0.1113   -0.2132   -0.0391 C   0  0  2  0  0  0  0  0  0  0  0  0
    0.1188    0.2159   -1.5025 C   0  0  0  0  0  0  0  0  0  0  0  0
    1.1533    0.4166   -2.1354 O   0  0  0  0  0  0  0  0  0  0  0  0
    1.3373    0.3469    0.6893 C   0  0  0  0  0  0  0  0  0  0  0  0
    1.2902    0.0842    2.1992 C   0  0  0  0  0  0  0  0  0  0  0  0
    2.5128    0.6438    2.9191 C   0  0  0  0  0  0  0  0  0  0  0  0
    2.4755    0.3710    4.3541 N   0  3  0  0  0  0  0  0  0  0  0  0
    3.5164    0.7330    5.2110 C   0  0  0  0  0  0  0  0  0  0  0  0
    3.4126    0.4412    6.5670 N   0  0  0  0  0  0  0  0  0  0  0  0
    4.6554    1.3793    4.7418 N   0  0  0  0  0  0  0  0  0  0  0  0
   -0.7323   -2.1024    0.4149 H   0  0  0  0  0  0  0  0  0  0  0  0
   -0.8145    0.1370    0.4314 H   0  0  0  0  0  0  0  0  0  0  0  0
    1.4060    1.4268    0.5111 H   0  0  0  0  0  0  0  0  0  0  0  0
    2.2517   -0.0945    0.2712 H   0  0  0  0  0  0  0  0  0  0  0  0
    0.3811    0.5289    2.6215 H   0  0  0  0  0  0  0  0  0  0  0  0
    1.2432   -0.9953    2.3836 H   0  0  0  0  0  0  0  0  0  0  0  0
    3.4193    0.1759    2.5231 H   0  0  0  0  0  0  0  0  0  0  0  0
    2.5863    1.7268    2.7808 H   0  0  0  0  0  0  0  0  0  0  0  0
    1.6666   -0.0998    4.7559 H   0  0  0  0  0  0  0  0  0  0  0  0
    4.1530    0.6917    7.2180 H   0  0  0  0  0  0  0  0  0  0  0  0
    2.5938   -0.0305    6.9434 H   0  0  0  0  0  0  0  0  0  0  0  0
    5.4162    1.6451    5.3616 H   0  0  0  0  0  0  0  0  0  0  0  0
    4.7591    1.6050    3.7553 H   0  0  0  0  0  0  0  0  0  0  0  0
   -1.1641    0.3951   -2.0008 N   0  0  0  0  0  0  0  0  0  0  0  0
   -1.4285    0.8468   -3.3475 C   0  0  2  0  0  0  0  0  0  0  0  0
   -2.7107    1.6685   -3.3247 C   0  0  0  0  0  0  0  0  0  0  0  0
   -3.6525    1.4214   -2.5743 O   0  0  0  0  0  0  0  0  0  0  0  0
   -1.5504   -0.3242   -4.3101 C   0  0  0  0  0  0  0  0  0  0  0  0
   -1.9625    0.1733   -1.4133 H   0  0  0  0  0  0  0  0  0  0  0  0
   -0.5885    1.4877   -3.6367 H   0  0  0  0  0  0  0  0  0  0  0  0
   -2.3869   -0.9776   -4.0363 H   0  0  0  0  0  0  0  0  0  0  0  0
   -1.7224    0.0209   -5.3349 H   0  0  0  0  0  0  0  0  0  0  0  0
   -0.6386   -0.9310   -4.3030 H   0  0  0  0  0  0  0  0  0  0  0  0
   -2.6968    2.6837   -4.2709 N   0  0  0  0  0  0  0  0  0  0  0  0
   -3.8151    3.5747   -4.4748 C   0  0  0  0  0  0  0  0  0  0  0  0
   -1.8586    2.8413   -4.8225 H   0  0  0  0  0  0  0  0  0  0  0  0
   -4.4665    3.1717   -5.2643 H   0  0  0  0  0  0  0  0  0  0  0  0
   -4.3865    3.6658   -3.5393 H   0  0  0  0  0  0  0  0  0  0  0  0
   -3.4441    4.5655   -4.7759 H   0  0  0  0  0  0  0  0  0  0  0  0
  1  3  1  0  0  0  0
  1  7  1  0  0  0  0
  1  2  2  0  0  0  0
 42 43  1  0  0  0  0
 43 51  1  0  0  0  0
 43 44  2  0  0  0  0
  8  9  1  0  0  0  0
  9 17  1  0  0  0  0
  9 10  2  0  0  0  0
 18 19  1  0  0  0  0
 19 41  1  0  0  0  0
 19 20  2  0  0  0  0
 25 26  1  0  0  0  0
 25 27  1  0  0  0  0
 24 25  2  0  0  0  0
 42 45  1  0  0  0  0
  8 11  1  0  0  0  0
 51 52  1  0  0  0  0
 21 22  1  0  0  0  0
 22 23  1  0  0  0  0
 18 21  1  0  0  0  0
 23 24  1  0  0  0  0
 41 42  1  0  0  0  0
  7  8  1  0  0  0  0
 17 18  1  0  0  0  0
  3  4  1  0  0  0  0
  3  5  1  0  0  0  0
  3  6  1  0  0  0  0
 45 48  1  0  0  0  0
 45 49  1  0  0  0  0
 45 50  1  0  0  0  0
 11 14  1  0  0  0  0
 11 15  1  0  0  0  0
 11 16  1  0  0  0  0
 52 54  1  0  0  0  0
 52 55  1  0  0  0  0
 52 56  1  0  0  0  0
 22 32  1  0  0  0  0
 22 33  1  0  0  0  0
 21 30  1  0  0  0  0
 21 31  1  0  0  0  0
 23 34  1  0  0  0  0
 23 35  1  0  0  0  0
 42 47  1  0  0  0  0
  8 13  1  0  0  0  0
 18 29  1  0  0  0  0
 26 37  1  0  0  0  0
 26 38  1  0  0  0  0
 27 39  1  0  0  0  0
 27 40  1  0  0  0  0
 51 53  1  0  0  0  0
  7 12  1  0  0  0  0
 41 46  1  0  0  0  0
 17 28  1  0  0  0  0
 24 36  1  0  0  0  0
M  CHG  1  24   1
M  END
$$$$

  -OEChem-05262214473D

 56 55  0     1  0  0  0  0  0999 V2000
    0.7735   -5.8042   -2.0022 C   0  0  0  0  0  0  0  0  0  0  0  0
   -0.2086   -6.3825   -1.5519 O   0  0  0  0  0  0  0  0  0  0  0  0
    1.4751   -6.3646   -3.1946 C   0  0  0  0  0  0  0  0  0  0  0  0
    2.2765   -7.0687   -2.9186 H   0  0  0  0  0  0  0  0  0  0  0  0
    0.7988   -6.9360   -3.8504 H   0  0  0  0  0  0  0  0  0  0  0  0
    1.9556   -5.6216   -3.8511 H   0  0  0  0  0  0  0  0  0  0  0  0
    1.3322   -4.6359   -1.5106 N   0  0  0  0  0  0  0  0  0  0  0  0
    0.8124   -3.9290   -0.3698 C   0  0  2  0  0  0  0  0  0  0  0  0
    1.0666   -2.4424   -0.5818 C   0  0  0  0  0  0  0  0  0  0  0  0
    2.0598   -2.0076   -1.1610 O   0  0  0  0  0  0  0  0  0  0  0  0
    1.4560   -4.4118    0.9207 C   0  0  0  0  0  0  0  0  0  0  0  0
    2.1528   -4.2578   -1.9805 H   0  0  0  0  0  0  0  0  0  0  0  0
   -0.2667   -4.1160   -0.3467 H   0  0  0  0  0  0  0  0  0  0  0  0
    2.5374   -4.2329    0.9160 H   0  0  0  0  0  0  0  0  0  0  0  0
    1.0390   -3.8932    1.7903 H   0  0  0  0  0  0  0  0  0  0  0  0
    1.2976   -5.4871    1.0566 H   0  0  0  0  0  0  0  0  0  0  0  0
    0.0755   -1.6529   -0.0105 N   0  0  0  0  0  0  0  0  0  0  0  0
    0.1113   -0.2132   -0.0391 C   0  0  2  0  0  0  0  0  0  0  0  0
    0.1188    0.2159   -1.5025 C   0  0  0  0  0  0  0  0  0  0  0  0
    1.1219    0.1601   -2.2108 O   0  0  0  0  0  0  0  0  0  0  0  0
    1.3373    0.3469    0.6893 C   0  0  0  0  0  0  0  0  0  0  0  0
    1.2902    0.0842    2.1992 C   0  0  0  0  0  0  0  0  0  0  0  0
    2.5128    0.6438    2.9191 C   0  0  0  0  0  0  0  0  0  0  0  0
    2.4755    0.3710    4.3541 N   0  3  0  0  0  0  0  0  0  0  0  0
    3.5164    0.7330    5.2110 C   0  0  0  0  0  0  0  0  0  0  0  0
    3.4126    0.4412    6.5670 N   0  0  0  0  0  0  0  0  0  0  0  0
    4.6554    1.3793    4.7418 N   0  0  0  0  0  0  0  0  0  0  0  0
   -0.7323   -2.1024    0.4149 H   0  0  0  0  0  0  0  0  0  0  0  0
   -0.8145    0.1370    0.4314 H   0  0  0  0  0  0  0  0  0  0  0  0
    1.4060    1.4268    0.5111 H   0  0  0  0  0  0  0  0  0  0  0  0
    2.2517   -0.0945    0.2712 H   0  0  0  0  0  0  0  0  0  0  0  0
    0.3811    0.5289    2.6215 H   0  0  0  0  0  0  0  0  0  0  0  0
    1.2432   -0.9953    2.3836 H   0  0  0  0  0  0  0  0  0  0  0  0
    3.4193    0.1759    2.5231 H   0  0  0  0  0  0  0  0  0  0  0  0
    2.5863    1.7268    2.7808 H   0  0  0  0  0  0  0  0  0  0  0  0
    1.6666   -0.0998    4.7559 H   0  0  0  0  0  0  0  0  0  0  0  0
    4.1530    0.6917    7.2180 H   0  0  0  0  0  0  0  0  0  0  0  0
    2.5938   -0.0305    6.9434 H   0  0  0  0  0  0  0  0  0  0  0  0
    5.4162    1.6451    5.3616 H   0  0  0  0  0  0  0  0  0  0  0  0
    4.7591    1.6050    3.7553 H   0  0  0  0  0  0  0  0  0  0  0  0
   -1.1122    0.7132   -1.9073 N   0  0  0  0  0  0  0  0  0  0  0  0
   -1.3532    1.2305   -3.2346 C   0  0  2  0  0  0  0  0  0  0  0  0
   -2.3859    2.3445   -3.1248 C   0  0  0  0  0  0  0  0  0  0  0  0
   -3.3024    2.3312   -2.3057 O   0  0  0  0  0  0  0  0  0  0  0  0
   -1.8318    0.1366   -4.1763 C   0  0  0  0  0  0  0  0  0  0  0  0
   -1.8956    0.6905   -1.2613 H   0  0  0  0  0  0  0  0  0  0  0  0
   -0.4036    1.6457   -3.5895 H   0  0  0  0  0  0  0  0  0  0  0  0
   -2.7821   -0.2914   -3.8370 H   0  0  0  0  0  0  0  0  0  0  0  0
   -1.9867    0.5243   -5.1886 H   0  0  0  0  0  0  0  0  0  0  0  0
   -1.1012   -0.6777   -4.2311 H   0  0  0  0  0  0  0  0  0  0  0  0
   -2.1891    3.3344   -4.0775 N   0  0  0  0  0  0  0  0  0  0  0  0
   -3.0628    4.4772   -4.2063 C   0  0  0  0  0  0  0  0  0  0  0  0
   -1.3804    3.2846   -4.6900 H   0  0  0  0  0  0  0  0  0  0  0  0
   -3.8494    4.2569   -4.9429 H   0  0  0  0  0  0  0  0  0  0  0  0
   -3.5241    4.6976   -3.2323 H   0  0  0  0  0  0  0  0  0  0  0  0
   -2.4802    5.3480   -4.5415 H   0  0  0  0  0  0  0  0  0  0  0  0
  1  3  1  0  0  0  0
  1  7  1  0  0  0  0
  1  2  2  0  0  0  0
 42 43  1  0  0  0  0
 43 51  1  0  0  0  0
 43 44  2  0  0  0  0
  8  9  1  0  0  0  0
  9 17  1  0  0  0  0
  9 10  2  0  0  0  0
 18 19  1  0  0  0  0
 19 41  1  0  0  0  0
 19 20  2  0  0  0  0
 25 26  1  0  0  0  0
 25 27  1  0  0  0  0
 24 25  2  0  0  0  0
 42 45  1  0  0  0  0
  8 11  1  0  0  0  0
 51 52  1  0  0  0  0
 21 22  1  0  0  0  0
 22 23  1  0  0  0  0
 18 21  1  0  0  0  0
 23 24  1  0  0  0  0
 41 42  1  0  0  0  0
  7  8  1  0  0  0  0
 17 18  1  0  0  0  0
  3  4  1  0  0  0  0
  3  5  1  0  0  0  0
  3  6  1  0  0  0  0
 45 48  1  0  0  0  0
 45 49  1  0  0  0  0
 45 50  1  0  0  0  0
 11 14  1  0  0  0  0
 11 15  1  0  0  0  0
 11 16  1  0  0  0  0
 52 54  1  0  0  0  0
 52 55  1  0  0  0  0
 52 56  1  0  0  0  0
 22 32  1  0  0  0  0
 22 33  1  0  0  0  0
 21 30  1  0  0  0  0
 21 31  1  0  0  0  0
 23 34  1  0  0  0  0
 23 35  1  0  0  0  0
 42 47  1  0  0  0  0
  8 13  1  0  0  0  0
 18 29  1  0  0  0  0
 26 37  1  0  0  0  0
 26 38  1  0  0  0  0
 27 39  1  0  0  0  0
 27 40  1  0  0  0  0
 51 53  1  0  0  0  0
  7 12  1  0  0  0  0
 41 46  1  0  0  0  0
 17 28  1  0  0  0  0
 24 36  1  0  0  0  0
M  CHG  1  24   1
M  END
$$$$

  -OEChem-05262214473D

 56 55  0     1  0  0  0  0  0999 V2000
    0.7735   -5.8042   -2.0022 C   0  0  0  0  0  0  0  0  0  0  0  0
   -0.2086   -6.3825   -1.5519 O   0  0  0  0  0  0  0  0  0  0  0  0
    1.4751   -6.3646   -3.1946 C   0  0  0  0  0  0  0  0  0  0  0  0
    2.2765   -7.0687   -2.9186 H   0  0  0  0  0  0  0  0  0  0  0  0
    0.7988   -6.9360   -3.8504 H   0  0  0  0  0  0  0  0  0  0  0  0
    1.9556   -5.6216   -3.8511 H   0  0  0  0  0  0  0  0  0  0  0  0
    1.3322   -4.6359   -1.5106 N   0  0  0  0  0  0  0  0  0  0  0  0
    0.8124   -3.9290   -0.3698 C   0  0  2  0  0  0  0  0  0  0  0  0
    1.0666   -2.4424   -0.5818 C   0  0  0  0  0  0  0  0  0  0  0  0
    2.0598   -2.0076   -1.1610 O   0  0  0  0  0  0  0  0  0  0  0  0
    1.4560   -4.4118    0.9207 C   0  0  0  0  0  0  0  0  0  0  0  0
    2.1528   -4.2578   -1.9805 H   0  0  0  0  0  0  0  0  0  0  0  0
   -0.2667   -4.1160   -0.3467 H   0  0  0  0  0  0  0  0  0  0  0  0
    2.5374   -4.2329    0.9160 H   0  0  0  0  0  0  0  0  0  0  0  0
    1.0390   -3.8932    1.7903 H   0  0  0  0  0  0  0  0  0  0  0  0
    1.2976   -5.4871    1.0566 H   0  0  0  0  0  0  0  0  0  0  0  0
    0.0755   -1.6529   -0.0105 N   0  0  0  0  0  0  0  0  0  0  0  0
    0.1113   -0.2132   -0.0391 C   0  0  2  0  0  0  0  0  0  0  0  0
    0.1188    0.2159   -1.5025 C   0  0  0  0  0  0  0  0  0  0  0  0
    1.0224   -0.0799   -2.2817 O   0  0  0  0  0  0  0  0  0  0  0  0
    1.3373    0.3469    0.6893 C   0  0  0  0  0  0  0  0  0  0  0  0
    1.2902    0.0842    2.1992 C   0  0  0  0  0  0  0  0  0  0  0  0
    2.5128    0.6438    2.9191 C   0  0  0  0  0  0  0  0  0  0  0  0
    2.4755    0.3710    4.3541 N   0  3  0  0  0  0  0  0  0  0  0  0
    3.5164    0.7330    5.2110 C   0  0  0  0  0  0  0  0  0  0  0  0
    3.4126    0.4412    6.5670 N   0  0  0  0  0  0  0  0  0  0  0  0
    4.6554    1.3793    4.7418 N   0  0  0  0  0  0  0  0  0  0  0  0
   -0.7323   -2.1024    0.4149 H   0  0  0  0  0  0  0  0  0  0  0  0
   -0.8145    0.1370    0.4314 H   0  0  0  0  0  0  0  0  0  0  0  0
    1.4060    1.4268    0.5111 H   0  0  0  0  0  0  0  0  0  0  0  0
    2.2517   -0.0945    0.2712 H   0  0  0  0  0  0  0  0  0  0  0  0
    0.3811    0.5289    2.6215 H   0  0  0  0  0  0  0  0  0  0  0  0
    1.2432   -0.9953    2.3836 H   0  0  0  0  0  0  0  0  0  0  0  0
    3.4193    0.1759    2.5231 H   0  0  0  0  0  0  0  0  0  0  0  0
    2.5863    1.7268    2.7808 H   0  0  0  0  0  0  0  0  0  0  0  0
    1.6666   -0.0998    4.7559 H   0  0  0  0  0  0  0  0  0  0  0  0
    4.1530    0.6917    7.2180 H   0  0  0  0  0  0  0  0  0  0  0  0
    2.5938   -0.0305    6.9434 H   0  0  0  0  0  0  0  0  0  0  0  0
    5.4162    1.6451    5.3616 H   0  0  0  0  0  0  0  0  0  0  0  0
    4.7591    1.6050    3.7553 H   0  0  0  0  0  0  0  0  0  0  0  0
   -0.9761    1.0075   -1.8203 N   0  0  0  0  0  0  0  0  0  0  0  0
   -1.1769    1.5823   -3.1305 C   0  0  2  0  0  0  0  0  0  0  0  0
   -1.8897    2.9167   -2.9544 C   0  0  0  0  0  0  0  0  0  0  0  0
   -2.7188    3.1228   -2.0706 O   0  0  0  0  0  0  0  0  0  0  0  0
   -1.9794    0.6514   -4.0261 C   0  0  0  0  0  0  0  0  0  0  0  0
   -1.6916    1.1733   -1.1186 H   0  0  0  0  0  0  0  0  0  0  0  0
   -0.1824    1.7524   -3.5570 H   0  0  0  0  0  0  0  0  0  0  0  0
   -2.9790    0.4692   -3.6149 H   0  0  0  0  0  0  0  0  0  0  0  0
   -2.1062    1.0760   -5.0275 H   0  0  0  0  0  0  0  0  0  0  0  0
   -1.4800   -0.3182   -4.1275 H   0  0  0  0  0  0  0  0  0  0  0  0
   -1.5230    3.8365   -3.9268 N   0  0  0  0  0  0  0  0  0  0  0  0
   -2.0924    5.1618   -4.0006 C   0  0  0  0  0  0  0  0  0  0  0  0
   -0.7987    3.5939   -4.5963 H   0  0  0  0  0  0  0  0  0  0  0  0
   -2.9605    5.1514   -4.6761 H   0  0  0  0  0  0  0  0  0  0  0  0
   -2.4124    5.4796   -2.9973 H   0  0  0  0  0  0  0  0  0  0  0  0
   -1.3377    5.8641   -4.3843 H   0  0  0  0  0  0  0  0  0  0  0  0
  1  3  1  0  0  0  0
  1  7  1  0  0  0  0
  1  2  2  0  0  0  0
 42 43  1  0  0  0  0
 43 51  1  0  0  0  0
 43 44  2  0  0  0  0
  8  9  1  0  0  0  0
  9 17  1  0  0  0  0
  9 10  2  0  0  0  0
 18 19  1  0  0  0  0
 19 41  1  0  0  0  0
 19 20  2  0  0  0  0
 25 26  1  0  0  0  0
 25 27  1  0  0  0  0
 24 25  2  0  0  0  0
 42 45  1  0  0  0  0
  8 11  1  0  0  0  0
 51 52  1  0  0  0  0
 21 22  1  0  0  0  0
 22 23  1  0  0  0  0
 18 21  1  0  0  0  0
 23 24  1  0  0  0  0
 41 42  1  0  0  0  0
  7  8  1  0  0  0  0
 17 18  1  0  0  0  0
  3  4  1  0  0  0  0
  3  5  1  0  0  0  0
  3  6  1  0  0  0  0
 45 48  1  0  0  0  0
 45 49  1  0  0  0  0
 45 50  1  0  0  0  0
 11 14  1  0  0  0  0
 11 15  1  0  0  0  0
 11 16  1  0  0  0  0
 52 54  1  0  0  0  0
 52 55  1  0  0  0  0
 52 56  1  0  0  0  0
 22 32  1  0  0  0  0
 22 33  1  0  0  0  0
 21 30  1  0  0  0  0
 21 31  1  0  0  0  0
 23 34  1  0  0  0  0
 23 35  1  0  0  0  0
 42 47  1  0  0  0  0
  8 13  1  0  0  0  0
 18 29  1  0  0  0  0
 26 37  1  0  0  0  0
 26 38  1  0  0  0  0
 27 39  1  0  0  0  0
 27 40  1  0  0  0  0
 51 53  1  0  0  0  0
  7 12  1  0  0  0  0
 41 46  1  0  0  0  0
 17 28  1  0  0  0  0
 24 36  1  0  0  0  0
M  CHG  1  24   1
M  END
$$$$

  -OEChem-05262214473D

 56 55  0     1  0  0  0  0  0999 V2000
    0.7735   -5.8042   -2.0022 C   0  0  0  0  0  0  0  0  0  0  0  0
   -0.2086   -6.3825   -1.5519 O   0  0  0  0  0  0  0  0  0  0  0  0
    1.4751   -6.3646   -3.1946 C   0  0  0  0  0  0  0  0  0  0  0  0
    2.2765   -7.0687   -2.9186 H   0  0  0  0  0  0  0  0  0  0  0  0
    0.7988   -6.9360   -3.8504 H   0  0  0  0  0  0  0  0  0  0  0  0
    1.9556   -5.6216   -3.8511 H   0  0  0  0  0  0  0  0  0  0  0  0
    1.3322   -4.6359   -1.5106 N   0  0  0  0  0  0  0  0  0  0  0  0
    0.8124   -3.9290   -0.3698 C   0  0  2  0  0  0  0  0  0  0  0  0
    1.0666   -2.4424   -0.5818 C   0  0  0  0  0  0  0  0  0  0  0  0
    2.0598   -2.0076   -1.1610 O   0  0  0  0  0  0  0  0  0  0  0  0
    1.4560   -4.4118    0.9207 C   0  0  0  0  0  0  0  0  0  0  0  0
    2.1528   -4.2578   -1.9805 H   0  0  0  0  0  0  0  0  0  0  0  0
   -0.2667   -4.1160   -0.3467 H   0  0  0  0  0  0  0  0  0  0  0  0
    2.5374   -4.2329    0.9160 H   0  0  0  0  0  0  0  0  0  0  0  0
    1.0390   -3.8932    1.7903 H   0  0  0  0  0  0  0  0  0  0  0  0
    1.2976   -5.4871    1.0566 H   0  0  0  0  0  0  0  0  0  0  0  0
    0.0755   -1.6529   -0.0105 N   0  0  0  0  0  0  0  0  0  0  0  0
    0.1113   -0.2132   -0.0391 C   0  0  2  0  0  0  0  0  0  0  0  0
    0.1188    0.2159   -1.5025 C   0  0  0  0  0  0  0  0  0  0  0  0
    0.8615   -0.2868   -2.3432 O   0  0  0  0  0  0  0  0  0  0  0  0
    1.3373    0.3469    0.6893 C   0  0  0  0  0  0  0  0  0  0  0  0
    1.2902    0.0842    2.1992 C   0  0  0  0  0  0  0  0  0  0  0  0
    2.5128    0.6438    2.9191 C   0  0  0  0  0  0  0  0  0  0  0  0
    2.4755    0.3710    4.3541 N   0  3  0  0  0  0  0  0  0  0  0  0
    3.5164    0.7330    5.2110 C   0  0  0  0  0  0  0  0  0  0  0  0
    3.4126    0.4412    6.5670 N   0  0  0  0  0  0  0  0  0  0  0  0
    4.6554    1.3793    4.7418 N   0  0  0  0  0  0  0  0  0  0  0  0
   -0.7323   -2.1024    0.4149 H   0  0  0  0  0  0  0  0  0  0  0  0
   -0.8145    0.1370    0.4314 H   0  0  0  0  0  0  0  0  0  0  0  0
    1.4060    1.4268    0.5111 H   0  0  0  0  0  0  0  0  0  0  0  0
    2.2517   -0.0945    0.2712 H   0  0  0  0  0  0  0  0  0  0  0  0
    0.3811    0.5289    2.6215 H   0  0  0  0  0  0  0  0  0  0  0  0
    1.2432   -0.9953    2.3836 H   0  0  0  0  0  0  0  0  0  0  0  0
    3.4193    0.1759    2.5231 H   0  0  0  0  0  0  0  0  0  0  0  0
    2.5863    1.7268    2.7808 H   0  0  0  0  0  0  0  0  0  0  0  0
    1.6666   -0.0998    4.7559 H   0  0  0  0  0  0  0  0  0  0  0  0
    4.1530    0.6917    7.2180 H   0  0  0  0  0  0  0  0  0  0  0  0
    2.5938   -0.0305    6.9434 H   0  0  0  0  0  0  0  0  0  0  0  0
    5.4162    1.6451    5.3616 H   0  0  0  0  0  0  0  0  0  0  0  0
    4.7591    1.6050    3.7553 H   0  0  0  0  0  0  0  0  0  0  0  0
   -0.7653    1.2578   -1.7458 N   0  0  0  0  0  0  0  0  0  0  0  0
   -0.9117    1.8782   -3.0424 C   0  0  2  0  0  0  0  0  0  0  0  0
   -1.2560    3.3458   -2.8253 C   0  0  0  0  0  0  0  0  0  0  0  0
   -1.9414    3.7421   -1.8850 O   0  0  0  0  0  0  0  0  0  0  0  0
   -1.9832    1.1851   -3.8696 C   0  0  0  0  0  0  0  0  0  0  0  0
   -1.3642    1.5888   -0.9951 H   0  0  0  0  0  0  0  0  0  0  0  0
    0.0602    1.8005   -3.5417 H   0  0  0  0  0  0  0  0  0  0  0  0
   -2.9641    1.2526   -3.3851 H   0  0  0  0  0  0  0  0  0  0  0  0
   -2.0730    1.6383   -4.8623 H   0  0  0  0  0  0  0  0  0  0  0  0
   -1.7490    0.1230   -3.9995 H   0  0  0  0  0  0  0  0  0  0  0  0
   -0.7439    4.1560   -3.8292 N   0  0  0  0  0  0  0  0  0  0  0  0
   -0.9701    5.5818   -3.8717 C   0  0  0  0  0  0  0  0  0  0  0  0
   -0.1532    3.7481   -4.5478 H   0  0  0  0  0  0  0  0  0  0  0  0
   -1.8603    5.7944   -4.4819 H   0  0  0  0  0  0  0  0  0  0  0  0
   -1.1273    5.9586   -2.8503 H   0  0  0  0  0  0  0  0  0  0  0  0
   -0.0946    6.0787   -4.3151 H   0  0  0  0  0  0  0  0  0  0  0  0
  1  3  1  0  0  0  0
  1  7  1  0  0  0  0
  1  2  2  0  0  0  0
 42 43  1  0  0  0  0
 43 51  1  0  0  0  0
 43 44  2  0  0  0  0
  8  9  1  0  0  0  0
  9 17  1  0  0  0  0
  9 10  2  0  0  0  0
 18 19  1  0  0  0  0
 19 41  1  0  0  0  0
 19 20  2  0  0  0  0
 25 26  1  0  0  0  0
 25 27  1  0  0  0  0
 24 25  2  0  0  0  0
 42 45  1  0  0  0  0
  8 11  1  0  0  0  0
 51 52  1  0  0  0  0
 21 22  1  0  0  0  0
 22 23  1  0  0  0  0
 18 21  1  0  0  0  0
 23 24  1  0  0  0  0
 41 42  1  0  0  0  0
  7  8  1  0  0  0  0
 17 18  1  0  0  0  0
  3  4  1  0  0  0  0
  3  5  1  0  0  0  0
  3  6  1  0  0  0  0
 45 48  1  0  0  0  0
 45 49  1  0  0  0  0
 45 50  1  0  0  0  0
 11 14  1  0  0  0  0
 11 15  1  0  0  0  0
 11 16  1  0  0  0  0
 52 54  1  0  0  0  0
 52 55  1  0  0  0  0
 52 56  1  0  0  0  0
 22 32  1  0  0  0  0
 22 33  1  0  0  0  0
 21 30  1  0  0  0  0
 21 31  1  0  0  0  0
 23 34  1  0  0  0  0
 23 35  1  0  0  0  0
 42 47  1  0  0  0  0
  8 13  1  0  0  0  0
 18 29  1  0  0  0  0
 26 37  1  0  0  0  0
 26 38  1  0  0  0  0
 27 39  1  0  0  0  0
 27 40  1  0  0  0  0
 51 53  1  0  0  0  0
  7 12  1  0  0  0  0
 41 46  1  0  0  0  0
 17 28  1  0  0  0  0
 24 36  1  0  0  0  0
M  CHG  1  24   1
M  END
$$$$

  -OEChem-05262214473D

 56 55  0     1  0  0  0  0  0999 V2000
    0.7735   -5.8042   -2.0022 C   0  0  0  0  0  0  0  0  0  0  0  0
   -0.2086   -6.3825   -1.5519 O   0  0  0  0  0  0  0  0  0  0  0  0
    1.4751   -6.3646   -3.1946 C   0  0  0  0  0  0  0  0  0  0  0  0
    2.2765   -7.0687   -2.9186 H   0  0  0  0  0  0  0  0  0  0  0  0
    0.7988   -6.9360   -3.8504 H   0  0  0  0  0  0  0  0  0  0  0  0
    1.9556   -5.6216   -3.8511 H   0  0  0  0  0  0  0  0  0  0  0  0
    1.3322   -4.6359   -1.5106 N   0  0  0  0  0  0  0  0  0  0  0  0
    0.8124   -3.9290   -0.3698 C   0  0  2  0  0  0  0  0  0  0  0  0
    1.0666   -2.4424   -0.5818 C   0  0  0  0  0  0  0  0  0  0  0  0
    2.0598   -2.0076   -1.1610 O   0  0  0  0  0  0  0  0  0  0  0  0
    1.4560   -4.4118    0.9207 C   0  0  0  0  0  0  0  0  0  0  0  0
    2.1528   -4.2578   -1.9805 H   0  0  0  0  0  0  0  0  0  0  0  0
   -0.2667   -4.1160   -0.3467 H   0  0  0  0  0  0  0  0  0  0  0  0
    2.5374   -4.2329    0.9160 H   0  0  0  0  0  0  0  0  0  0  0  0
    1.0390   -3.8932    1.7903 H   0  0  0  0  0  0  0  0  0  0  0  0
    1.2976   -5.4871    1.0566 H   0  0  0  0  0  0  0  0  0  0  0  0
    0.0755   -1.6529   -0.0105 N   0  0  0  0  0  0  0  0  0  0  0  0
    0.1113   -0.2132   -0.0391 C   0  0  2  0  0  0  0  0  0  0  0  0
    0.1188    0.2159   -1.5025 C   0  0  0  0  0  0  0  0  0  0  0  0
    0.6502   -0.4466   -2.3912 O   0  0  0  0  0  0  0  0  0  0  0  0
    1.3373    0.3469    0.6893 C   0  0  0  0  0  0  0  0  0  0  0  0
    1.2902    0.0842    2.1992 C   0  0  0  0  0  0  0  0  0  0  0  0
    2.5128    0.6438    2.9191 C   0  0  0  0  0  0  0  0  0  0  0  0
    2.4755    0.3710    4.3541 N   0  3  0  0  0  0  0  0  0  0  0  0
    3.5164    0.7330    5.2110 C   0  0  0  0  0  0  0  0  0  0  0  0
    3.4126    0.4412    6.5670 N   0  0  0  0  0  0  0  0  0  0  0  0
    4.6554    1.3793    4.7418 N   0  0  0  0  0  0  0  0  0  0  0  0
   -0.7323   -2.1024    0.4149 H   0  0  0  0  0  0  0  0  0  0  0  0
   -0.8145    0.1370    0.4314 H   0  0  0  0  0  0  0  0  0  0  0  0
    1.4060    1.4268    0.5111 H   0  0  0  0  0  0  0  0  0  0  0  0
    2.2517   -0.0945    0.2712 H   0  0  0  0  0  0  0  0  0  0  0  0
    0.3811    0.5289    2.6215 H   0  0  0  0  0  0  0  0  0  0  0  0
    1.2432   -0.9953    2.3836 H   0  0  0  0  0  0  0  0  0  0  0  0
    3.4193    0.1759    2.5231 H   0  0  0  0  0  0  0  0  0  0  0  0
    2.5863    1.7268    2.7808 H   0  0  0  0  0  0  0  0  0  0  0  0
    1.6666   -0.0998    4.7559 H   0  0  0  0  0  0  0  0  0  0  0  0
    4.1530    0.6917    7.2180 H   0  0  0  0  0  0  0  0  0  0  0  0
    2.5938   -0.0305    6.9434 H   0  0  0  0  0  0  0  0  0  0  0  0
    5.4162    1.6451    5.3616 H   0  0  0  0  0  0  0  0  0  0  0  0
    4.7591    1.6050    3.7553 H   0  0  0  0  0  0  0  0  0  0  0  0
   -0.4940    1.4472   -1.6889 N   0  0  0  0  0  0  0  0  0  0  0  0
   -0.5756    2.0980   -2.9762 C   0  0  2  0  0  0  0  0  0  0  0  0
   -0.5278    3.6028   -2.7463 C   0  0  0  0  0  0  0  0  0  0  0  0
   -1.0231    4.1470   -1.7616 O   0  0  0  0  0  0  0  0  0  0  0  0
   -1.8428    1.7014   -3.7175 C   0  0  0  0  0  0  0  0  0  0  0  0
   -0.9358    1.9086   -0.8991 H   0  0  0  0  0  0  0  0  0  0  0  0
    0.3076    1.7866   -3.5445 H   0  0  0  0  0  0  0  0  0  0  0  0
   -2.7384    2.0052   -3.1632 H   0  0  0  0  0  0  0  0  0  0  0  0
   -1.8892    2.1731   -4.7046 H   0  0  0  0  0  0  0  0  0  0  0  0
   -1.8899    0.6158   -3.8557 H   0  0  0  0  0  0  0  0  0  0  0  0
    0.0951    4.2709   -3.7912 N   0  0  0  0  0  0  0  0  0  0  0  0
    0.2277    5.7086   -3.8284 C   0  0  0  0  0  0  0  0  0  0  0  0
    0.5121    3.7367   -4.5478 H   0  0  0  0  0  0  0  0  0  0  0  0
   -0.6237    6.1419   -4.3737 H   0  0  0  0  0  0  0  0  0  0  0  0
    0.2437    6.1019   -2.8013 H   0  0  0  0  0  0  0  0  0  0  0  0
    1.1646    5.9772   -4.3385 H   0  0  0  0  0  0  0  0  0  0  0  0
  1  3  1  0  0  0  0
  1  7  1  0  0  0  0
  1  2  2  0  0  0  0
 42 43  1  0  0  0  0
 43 51  1  0  0  0  0
 43 44  2  0  0  0  0
  8  9  1  0  0  0  0
  9 17  1  0  0  0  0
  9 10  2  0  0  0  0
 18 19  1  0  0  0  0
 19 41  1  0  0  0  0
 19 20  2  0  0  0  0
 25 26  1  0  0  0  0
 25 27  1  0  0  0  0
 24 25  2  0  0  0  0
 42 45  1  0  0  0  0
  8 11  1  0  0  0  0
 51 52  1  0  0  0  0
 21 22  1  0  0  0  0
 22 23  1  0  0  0  0
 18 21  1  0  0  0  0
 23 24  1  0  0  0  0
 41 42  1  0  0  0  0
  7  8  1  0  0  0  0
 17 18  1  0  0  0  0
  3  4  1  0  0  0  0
  3  5  1  0  0  0  0
  3  6  1  0  0  0  0
 45 48  1  0  0  0  0
 45 49  1  0  0  0  0
 45 50  1  0  0  0  0
 11 14  1  0  0  0  0
 11 15  1  0  0  0  0
 11 16  1  0  0  0  0
 52 54  1  0  0  0  0
 52 55  1  0  0  0  0
 52 56  1  0  0  0  0
 22 32  1  0  0  0  0
 22 33  1  0  0  0  0
 21 30  1  0  0  0  0
 21 31  1  0  0  0  0
 23 34  1  0  0  0  0
 23 35  1  0  0  0  0
 42 47  1  0  0  0  0
  8 13  1  0  0  0  0
 18 29  1  0  0  0  0
 26 37  1  0  0  0  0
 26 38  1  0  0  0  0
 27 39  1  0  0  0  0
 27 40  1  0  0  0  0
 51 53  1  0  0  0  0
  7 12  1  0  0  0  0
 41 46  1  0  0  0  0
 17 28  1  0  0  0  0
 24 36  1  0  0  0  0
M  CHG  1  24   1
M  END
$$$$

  -OEChem-05262214473D

 56 55  0     1  0  0  0  0  0999 V2000
    0.7735   -5.8042   -2.0022 C   0  0  0  0  0  0  0  0  0  0  0  0
   -0.2086   -6.3825   -1.5519 O   0  0  0  0  0  0  0  0  0  0  0  0
    1.4751   -6.3646   -3.1946 C   0  0  0  0  0  0  0  0  0  0  0  0
    2.2765   -7.0687   -2.9186 H   0  0  0  0  0  0  0  0  0  0  0  0
    0.7988   -6.9360   -3.8504 H   0  0  0  0  0  0  0  0  0  0  0  0
    1.9556   -5.6216   -3.8511 H   0  0  0  0  0  0  0  0  0  0  0  0
    1.3322   -4.6359   -1.5106 N   0  0  0  0  0  0  0  0  0  0  0  0
    0.8124   -3.9290   -0.3698 C   0  0  2  0  0  0  0  0  0  0  0  0
    1.0666   -2.4424   -0.5818 C   0  0  0  0  0  0  0  0  0  0  0  0
    2.0598   -2.0076   -1.1610 O   0  0  0  0  0  0  0  0  0  0  0  0
    1.4560   -4.4118    0.9207 C   0  0  0  0  0  0  0  0  0  0  0  0
    2.1528   -4.2578   -1.9805 H   0  0  0  0  0  0  0  0  0  0  0  0
   -0.2667   -4.1160   -0.3467 H   0  0  0  0  0  0  0  0  0  0  0  0
    2.5374   -4.2329    0.9160 H   0  0  0  0  0  0  0  0  0  0  0  0
    1.0390   -3.8932    1.7903 H   0  0  0  0  0  0  0  0  0  0  0  0
    1.2976   -5.4871    1.0566 H   0  0  0  0  0  0  0  0  0  0  0  0
    0.0755   -1.6529   -0.0105 N   0  0  0  0  0  0  0  0  0  0  0  0
    0.1113   -0.2132   -0.0391 C   0  0  2  0  0  0  0  0  0  0  0  0
    0.1188    0.2159   -1.5025 C   0  0  0  0  0  0  0  0  0  0  0  0
    0.4029   -0.5485   -2.4223 O   0  0  0  0  0  0  0  0  0  0  0  0
    1.3373    0.3469    0.6893 C   0  0  0  0  0  0  0  0  0  0  0  0
    1.2902    0.0842    2.1992 C   0  0  0  0  0  0  0  0  0  0  0  0
    2.5128    0.6438    2.9191 C   0  0  0  0  0  0  0  0  0  0  0  0
    2.4755    0.3710    4.3541 N   0  3  0  0  0  0  0  0  0  0  0  0
    3.5164    0.7330    5.2110 C   0  0  0  0  0  0  0  0  0  0  0  0
    3.4126    0.4412    6.5670 N   0  0  0  0  0  0  0  0  0  0  0  0
    4.6554    1.3793    4.7418 N   0  0  0  0  0  0  0  0  0  0  0  0
   -0.7323   -2.1024    0.4149 H   0  0  0  0  0  0  0  0  0  0  0  0
   -0.8145    0.1370    0.4314 H   0  0  0  0  0  0  0  0  0  0  0  0
    1.4060    1.4268    0.5111 H   0  0  0  0  0  0  0  0  0  0  0  0
    2.2517   -0.0945    0.2712 H   0  0  0  0  0  0  0  0  0  0  0  0
    0.3811    0.5289    2.6215 H   0  0  0  0  0  0  0  0  0  0  0  0
    1.2432   -0.9953    2.3836 H   0  0  0  0  0  0  0  0  0  0  0  0
    3.4193    0.1759    2.5231 H   0  0  0  0  0  0  0  0  0  0  0  0
    2.5863    1.7268    2.7808 H   0  0  0  0  0  0  0  0  0  0  0  0
    1.6666   -0.0998    4.7559 H   0  0  0  0  0  0  0  0  0  0  0  0
    4.1530    0.6917    7.2180 H   0  0  0  0  0  0  0  0  0  0  0  0
    2.5938   -0.0305    6.9434 H   0  0  0  0  0  0  0  0  0  0  0  0
    5.4162    1.6451    5.3616 H   0  0  0  0  0  0  0  0  0  0  0  0
    4.7591    1.6050    3.7553 H   0  0  0  0  0  0  0  0  0  0  0  0
   -0.1809    1.5627   -1.6534 N   0  0  0  0  0  0  0  0  0  0  0  0
   -0.1915    2.2268   -2.9365 C   0  0  2  0  0  0  0  0  0  0  0  0
    0.2451    3.6701   -2.7226 C   0  0  0  0  0  0  0  0  0  0  0  0
   -0.0265    4.3099   -1.7087 O   0  0  0  0  0  0  0  0  0  0  0  0
   -1.5680    2.1651   -3.5801 C   0  0  0  0  0  0  0  0  0  0  0  0
   -0.4356    2.1110   -0.8372 H   0  0  0  0  0  0  0  0  0  0  0  0
    0.5429    1.7118   -3.5653 H   0  0  0  0  0  0  0  0  0  0  0  0
   -2.3173    2.6759   -2.9644 H   0  0  0  0  0  0  0  0  0  0  0  0
   -1.5674    2.6438   -4.5649 H   0  0  0  0  0  0  0  0  0  0  0  0
   -1.8932    1.1267   -3.7059 H   0  0  0  0  0  0  0  0  0  0  0  0
    0.9368    4.1735   -3.8155 N   0  0  0  0  0  0  0  0  0  0  0  0
    1.4193    5.5335   -3.8737 C   0  0  0  0  0  0  0  0  0  0  0  0
    1.1519    3.5604   -4.5963 H   0  0  0  0  0  0  0  0  0  0  0  0
    0.6649    6.1704   -4.3588 H   0  0  0  0  0  0  0  0  0  0  0  0
    1.6071    5.8998   -2.8537 H   0  0  0  0  0  0  0  0  0  0  0  0
    2.3539    5.5664   -4.4529 H   0  0  0  0  0  0  0  0  0  0  0  0
  1  3  1  0  0  0  0
  1  7  1  0  0  0  0
  1  2  2  0  0  0  0
 42 43  1  0  0  0  0
 43 51  1  0  0  0  0
 43 44  2  0  0  0  0
  8  9  1  0  0  0  0
  9 17  1  0  0  0  0
  9 10  2  0  0  0  0
 18 19  1  0  0  0  0
 19 41  1  0  0  0  0
 19 20  2  0  0  0  0
 25 26  1  0  0  0  0
 25 27  1  0  0  0  0
 24 25  2  0  0  0  0
 42 45  1  0  0  0  0
  8 11  1  0  0  0  0
 51 52  1  0  0  0  0
 21 22  1  0  0  0  0
 22 23  1  0  0  0  0
 18 21  1  0  0  0  0
 23 24  1  0  0  0  0
 41 42  1  0  0  0  0
  7  8  1  0  0  0  0
 17 18  1  0  0  0  0
  3  4  1  0  0  0  0
  3  5  1  0  0  0  0
  3  6  1  0  0  0  0
 45 48  1  0  0  0  0
 45 49  1  0  0  0  0
 45 50  1  0  0  0  0
 11 14  1  0  0  0  0
 11 15  1  0  0  0  0
 11 16  1  0  0  0  0
 52 54  1  0  0  0  0
 52 55  1  0  0  0  0
 52 56  1  0  0  0  0
 22 32  1  0  0  0  0
 22 33  1  0  0  0  0
 21 30  1  0  0  0  0
 21 31  1  0  0  0  0
 23 34  1  0  0  0  0
 23 35  1  0  0  0  0
 42 47  1  0  0  0  0
  8 13  1  0  0  0  0
 18 29  1  0  0  0  0
 26 37  1  0  0  0  0
 26 38  1  0  0  0  0
 27 39  1  0  0  0  0
 27 40  1  0  0  0  0
 51 53  1  0  0  0  0
  7 12  1  0  0  0  0
 41 46  1  0  0  0  0
 17 28  1  0  0  0  0
 24 36  1  0  0  0  0
M  CHG  1  24   1
M  END
$$$$

  -OEChem-05262214473D

 56 55  0     1  0  0  0  0  0999 V2000
    0.7735   -5.8042   -2.0022 C   0  0  0  0  0  0  0  0  0  0  0  0
   -0.2086   -6.3825   -1.5519 O   0  0  0  0  0  0  0  0  0  0  0  0
    1.4751   -6.3646   -3.1946 C   0  0  0  0  0  0  0  0  0  0  0  0
    2.2765   -7.0687   -2.9186 H   0  0  0  0  0  0  0  0  0  0  0  0
    0.7988   -6.9360   -3.8504 H   0  0  0  0  0  0  0  0  0  0  0  0
    1.9556   -5.6216   -3.8511 H   0  0  0  0  0  0  0  0  0  0  0  0
    1.3322   -4.6359   -1.5106 N   0  0  0  0  0  0  0  0  0  0  0  0
    0.8124   -3.9290   -0.3698 C   0  0  2  0  0  0  0  0  0  0  0  0
    1.0666   -2.4424   -0.5818 C   0  0  0  0  0  0  0  0  0  0  0  0
    2.0598   -2.0076   -1.1610 O   0  0  0  0  0  0  0  0  0  0  0  0
    1.4560   -4.4118    0.9207 C   0  0  0  0  0  0  0  0  0  0  0  0
    2.1528   -4.2578   -1.9805 H   0  0  0  0  0  0  0  0  0  0  0  0
   -0.2667   -4.1160   -0.3467 H   0  0  0  0  0  0  0  0  0  0  0  0
    2.5374   -4.2329    0.9160 H   0  0  0  0  0  0  0  0  0  0  0  0
    1.0390   -3.8932    1.7903 H   0  0  0  0  0  0  0  0  0  0  0  0
    1.2976   -5.4871    1.0566 H   0  0  0  0  0  0  0  0  0  0  0  0
    0.0755   -1.6529   -0.0105 N   0  0  0  0  0  0  0  0  0  0  0  0
    0.1113   -0.2132   -0.0391 C   0  0  2  0  0  0  0  0  0  0  0  0
   -0.2574    0.2263   -1.4521 C   0  0  0  0  0  0  0  0  0  0  0  0
   -0.4862   -0.5685   -2.3615 O   0  0  0  0  0  0  0  0  0  0  0  0
    1.4873    0.3364    0.3505 C   0  0  0  0  0  0  0  0  0  0  0  0
    1.8308    0.0631    1.8198 C   0  0  0  0  0  0  0  0  0  0  0  0
    3.2014    0.6123    2.2020 C   0  0  0  0  0  0  0  0  0  0  0  0
    3.5349    0.3295    3.5963 N   0  3  0  0  0  0  0  0  0  0  0  0
    4.7642    0.6810    4.1568 C   0  0  0  0  0  0  0  0  0  0  0  0
    5.0129    0.3800    5.4917 N   0  0  0  0  0  0  0  0  0  0  0  0
    5.7469    1.3256    3.4126 N   0  0  0  0  0  0  0  0  0  0  0  0
   -0.7323   -2.1024    0.4149 H   0  0  0  0  0  0  0  0  0  0  0  0
   -0.6591    0.1376    0.6569 H   0  0  0  0  0  0  0  0  0  0  0  0
    1.5141    1.4172    0.1669 H   0  0  0  0  0  0  0  0  0  0  0  0
    2.2598   -0.1060   -0.2924 H   0  0  0  0  0  0  0  0  0  0  0  0
    1.0646    0.5087    2.4654 H   0  0  0  0  0  0  0  0  0  0  0  0
    1.8267   -1.0174    2.0038 H   0  0  0  0  0  0  0  0  0  0  0  0
    3.9718    0.1434    1.5822 H   0  0  0  0  0  0  0  0  0  0  0  0
    3.2431    1.6960    2.0556 H   0  0  0  0  0  0  0  0  0  0  0  0
    2.8547   -0.1407    4.1909 H   0  0  0  0  0  0  0  0  0  0  0  0
    5.8980    0.6225    5.9304 H   0  0  0  0  0  0  0  0  0  0  0  0
    4.3166   -0.0909    6.0644 H   0  0  0  0  0  0  0  0  0  0  0  0
    6.6437    1.5837    3.8159 H   0  0  0  0  0  0  0  0  0  0  0  0
    5.5932    1.5580    2.4342 H   0  0  0  0  0  0  0  0  0  0  0  0
   -0.2522    1.6076   -1.5875 N   0  0  0  0  0  0  0  0  0  0  0  0
   -0.5211    2.2758   -2.8400 C   0  0  2  0  0  0  0  0  0  0  0  0
    0.2993    3.5585   -2.8743 C   0  0  0  0  0  0  0  0  0  0  0  0
    0.5400    4.2278   -1.8717 O   0  0  0  0  0  0  0  0  0  0  0  0
   -2.0036    2.5743   -3.0008 C   0  0  0  0  0  0  0  0  0  0  0  0
   -0.0832    2.1877   -0.7711 H   0  0  0  0  0  0  0  0  0  0  0  0
   -0.1826    1.6037   -3.6361 H   0  0  0  0  0  0  0  0  0  0  0  0
   -2.3609    3.2464   -2.2120 H   0  0  0  0  0  0  0  0  0  0  0  0
   -2.2095    3.0550   -3.9628 H   0  0  0  0  0  0  0  0  0  0  0  0
   -2.5947    1.6538   -2.9460 H   0  0  0  0  0  0  0  0  0  0  0  0
    0.6946    3.8908   -4.1625 N   0  0  0  0  0  0  0  0  0  0  0  0
    1.4474    5.0863   -4.4630 C   0  0  0  0  0  0  0  0  0  0  0  0
    0.4854    3.2574   -4.9285 H   0  0  0  0  0  0  0  0  0  0  0  0
    0.7549    5.9012   -4.7206 H   0  0  0  0  0  0  0  0  0  0  0  0
    2.0427    5.3751   -3.5843 H   0  0  0  0  0  0  0  0  0  0  0  0
    2.1183    4.8929   -5.3130 H   0  0  0  0  0  0  0  0  0  0  0  0
  1  3  1  0  0  0  0
  1  7  1  0  0  0  0
  1  2  2  0  0  0  0
 42 43  1  0  0  0  0
 43 51  1  0  0  0  0
 43 44  2  0  0  0  0
  8  9  1  0  0  0  0
  9 17  1  0  0  0  0
  9 10  2  0  0  0  0
 18 19  1  0  0  0  0
 19 41  1  0  0  0  0
 19 20  2  0  0  0  0
 25 26  1  0  0  0  0
 25 27  1  0  0  0  0
 24 25  2  0  0  0  0
 42 45  1  0  0  0  0
  8 11  1  0  0  0  0
 51 52  1  0  0  0  0
 21 22  1  0  0  0  0
 22 23  1  0  0  0  0
 18 21  1  0  0  0  0
 23 24  1  0  0  0  0
 41 42  1  0  0  0  0
  7  8  1  0  0  0  0
 17 18  1  0  0  0  0
  3  4  1  0  0  0  0
  3  5  1  0  0  0  0
  3  6  1  0  0  0  0
 45 48  1  0  0  0  0
 45 49  1  0  0  0  0
 45 50  1  0  0  0  0
 11 14  1  0  0  0  0
 11 15  1  0  0  0  0
 11 16  1  0  0  0  0
 52 54  1  0  0  0  0
 52 55  1  0  0  0  0
 52 56  1  0  0  0  0
 22 32  1  0  0  0  0
 22 33  1  0  0  0  0
 21 30  1  0  0  0  0
 21 31  1  0  0  0  0
 23 34  1  0  0  0  0
 23 35  1  0  0  0  0
 42 47  1  0  0  0  0
  8 13  1  0  0  0  0
 18 29  1  0  0  0  0
 26 37  1  0  0  0  0
 26 38  1  0  0  0  0
 27 39  1  0  0  0  0
 27 40  1  0  0  0  0
 51 53  1  0  0  0  0
  7 12  1  0  0  0  0
 41 46  1  0  0  0  0
 17 28  1  0  0  0  0
 24 36  1  0  0  0  0
M  CHG  1  24   1
M  END
$$$$

  -OEChem-05262214473D

 56 55  0     1  0  0  0  0  0999 V2000
    0.7735   -5.8042   -2.0022 C   0  0  0  0  0  0  0  0  0  0  0  0
   -0.2086   -6.3825   -1.5519 O   0  0  0  0  0  0  0  0  0  0  0  0
    1.4751   -6.3646   -3.1946 C   0  0  0  0  0  0  0  0  0  0  0  0
    2.2765   -7.0687   -2.9186 H   0  0  0  0  0  0  0  0  0  0  0  0
    0.7988   -6.9360   -3.8504 H   0  0  0  0  0  0  0  0  0  0  0  0
    1.9556   -5.6216   -3.8511 H   0  0  0  0  0  0  0  0  0  0  0  0
    1.3322   -4.6359   -1.5106 N   0  0  0  0  0  0  0  0  0  0  0  0
    0.8124   -3.9290   -0.3698 C   0  0  2  0  0  0  0  0  0  0  0  0
    1.0666   -2.4424   -0.5818 C   0  0  0  0  0  0  0  0  0  0  0  0
    2.0598   -2.0076   -1.1610 O   0  0  0  0  0  0  0  0  0  0  0  0
    1.4560   -4.4118    0.9207 C   0  0  0  0  0  0  0  0  0  0  0  0
    2.1528   -4.2578   -1.9805 H   0  0  0  0  0  0  0  0  0  0  0  0
   -0.2667   -4.1160   -0.3467 H   0  0  0  0  0  0  0  0  0  0  0  0
    2.5374   -4.2329    0.9160 H   0  0  0  0  0  0  0  0  0  0  0  0
    1.0390   -3.8932    1.7903 H   0  0  0  0  0  0  0  0  0  0  0  0
    1.2976   -5.4871    1.0566 H   0  0  0  0  0  0  0  0  0  0  0  0
    0.0755   -1.6529   -0.0105 N   0  0  0  0  0  0  0  0  0  0  0  0
    0.1113   -0.2132   -0.0391 C   0  0  2  0  0  0  0  0  0  0  0  0
   -0.2574    0.2263   -1.4521 C   0  0  0  0  0  0  0  0  0  0  0  0
   -0.7424   -0.5369   -2.2848 O   0  0  0  0  0  0  0  0  0  0  0  0
    1.4873    0.3364    0.3505 C   0  0  0  0  0  0  0  0  0  0  0  0
    1.8308    0.0631    1.8198 C   0  0  0  0  0  0  0  0  0  0  0  0
    3.2014    0.6123    2.2020 C   0  0  0  0  0  0  0  0  0  0  0  0
    3.5349    0.3295    3.5963 N   0  3  0  0  0  0  0  0  0  0  0  0
    4.7642    0.6810    4.1568 C   0  0  0  0  0  0  0  0  0  0  0  0
    5.0129    0.3800    5.4917 N   0  0  0  0  0  0  0  0  0  0  0  0
    5.7469    1.3256    3.4126 N   0  0  0  0  0  0  0  0  0  0  0  0
   -0.7323   -2.1024    0.4149 H   0  0  0  0  0  0  0  0  0  0  0  0
   -0.6591    0.1376    0.6569 H   0  0  0  0  0  0  0  0  0  0  0  0
    1.5141    1.4172    0.1669 H   0  0  0  0  0  0  0  0  0  0  0  0
    2.2598   -0.1060   -0.2924 H   0  0  0  0  0  0  0  0  0  0  0  0
    1.0646    0.5087    2.4654 H   0  0  0  0  0  0  0  0  0  0  0  0
    1.8267   -1.0174    2.0038 H   0  0  0  0  0  0  0  0  0  0  0  0
    3.9718    0.1434    1.5822 H   0  0  0  0  0  0  0  0  0  0  0  0
    3.2431    1.6960    2.0556 H   0  0  0  0  0  0  0  0  0  0  0  0
    2.8547   -0.1407    4.1909 H   0  0  0  0  0  0  0  0  0  0  0  0
    5.8980    0.6225    5.9304 H   0  0  0  0  0  0  0  0  0  0  0  0
    4.3166   -0.0909    6.0644 H   0  0  0  0  0  0  0  0  0  0  0  0
    6.6437    1.5837    3.8159 H   0  0  0  0  0  0  0  0  0  0  0  0
    5.5932    1.5580    2.4342 H   0  0  0  0  0  0  0  0  0  0  0  0
    0.0644    1.5559   -1.6863 N   0  0  0  0  0  0  0  0  0  0  0  0
   -0.1402    2.2014   -2.9626 C   0  0  2  0  0  0  0  0  0  0  0  0
    0.9556    3.2435   -3.1436 C   0  0  0  0  0  0  0  0  0  0  0  0
    1.4299    3.8873   -2.2100 O   0  0  0  0  0  0  0  0  0  0  0  0
   -1.5174    2.8410   -3.0447 C   0  0  0  0  0  0  0  0  0  0  0  0
    0.4329    2.1207   -0.9267 H   0  0  0  0  0  0  0  0  0  0  0  0
   -0.0376    1.4257   -3.7293 H   0  0  0  0  0  0  0  0  0  0  0  0
   -1.6389    3.6208   -2.2840 H   0  0  0  0  0  0  0  0  0  0  0  0
   -1.6817    3.3050   -4.0228 H   0  0  0  0  0  0  0  0  0  0  0  0
   -2.3036    2.0953   -2.8846 H   0  0  0  0  0  0  0  0  0  0  0  0
    1.3112    3.4008   -4.4759 N   0  0  0  0  0  0  0  0  0  0  0  0
    2.2989    4.3605   -4.9111 C   0  0  0  0  0  0  0  0  0  0  0  0
    0.8953    2.7968   -5.1787 H   0  0  0  0  0  0  0  0  0  0  0  0
    1.8010    5.3039   -5.1795 H   0  0  0  0  0  0  0  0  0  0  0  0
    3.0160    4.5432   -4.0972 H   0  0  0  0  0  0  0  0  0  0  0  0
    2.8325    3.9653   -5.7880 H   0  0  0  0  0  0  0  0  0  0  0  0
  1  3  1  0  0  0  0
  1  7  1  0  0  0  0
  1  2  2  0  0  0  0
 42 43  1  0  0  0  0
 43 51  1  0  0  0  0
 43 44  2  0  0  0  0
  8  9  1  0  0  0  0
  9 17  1  0  0  0  0
  9 10  2  0  0  0  0
 18 19  1  0  0  0  0
 19 41  1  0  0  0  0
 19 20  2  0  0  0  0
 25 26  1  0  0  0  0
 25 27  1  0  0  0  0
 24 25  2  0  0  0  0
 42 45  1  0  0  0  0
  8 11  1  0  0  0  0
 51 52  1  0  0  0  0
 21 22  1  0  0  0  0
 22 23  1  0  0  0  0
 18 21  1  0  0  0  0
 23 24  1  0  0  0  0
 41 42  1  0  0  0  0
  7  8  1  0  0  0  0
 17 18  1  0  0  0  0
  3  4  1  0  0  0  0
  3  5  1  0  0  0  0
  3  6  1  0  0  0  0
 45 48  1  0  0  0  0
 45 49  1  0  0  0  0
 45 50  1  0  0  0  0
 11 14  1  0  0  0  0
 11 15  1  0  0  0  0
 11 16  1  0  0  0  0
 52 54  1  0  0  0  0
 52 55  1  0  0  0  0
 52 56  1  0  0  0  0
 22 32  1  0  0  0  0
 22 33  1  0  0  0  0
 21 30  1  0  0  0  0
 21 31  1  0  0  0  0
 23 34  1  0  0  0  0
 23 35  1  0  0  0  0
 42 47  1  0  0  0  0
  8 13  1  0  0  0  0
 18 29  1  0  0  0  0
 26 37  1  0  0  0  0
 26 38  1  0  0  0  0
 27 39  1  0  0  0  0
 27 40  1  0  0  0  0
 51 53  1  0  0  0  0
  7 12  1  0  0  0  0
 41 46  1  0  0  0  0
 17 28  1  0  0  0  0
 24 36  1  0  0  0  0
M  CHG  1  24   1
M  END
$$$$

  -OEChem-05262214473D

 56 55  0     1  0  0  0  0  0999 V2000
    0.7735   -5.8042   -2.0022 C   0  0  0  0  0  0  0  0  0  0  0  0
   -0.2086   -6.3825   -1.5519 O   0  0  0  0  0  0  0  0  0  0  0  0
    1.4751   -6.3646   -3.1946 C   0  0  0  0  0  0  0  0  0  0  0  0
    2.2765   -7.0687   -2.9186 H   0  0  0  0  0  0  0  0  0  0  0  0
    0.7988   -6.9360   -3.8504 H   0  0  0  0  0  0  0  0  0  0  0  0
    1.9556   -5.6216   -3.8511 H   0  0  0  0  0  0  0  0  0  0  0  0
    1.3322   -4.6359   -1.5106 N   0  0  0  0  0  0  0  0  0  0  0  0
    0.8124   -3.9290   -0.3698 C   0  0  2  0  0  0  0  0  0  0  0  0
    1.0666   -2.4424   -0.5818 C   0  0  0  0  0  0  0  0  0  0  0  0
    2.0598   -2.0076   -1.1610 O   0  0  0  0  0  0  0  0  0  0  0  0
    1.4560   -4.4118    0.9207 C   0  0  0  0  0  0  0  0  0  0  0  0
    2.1528   -4.2578   -1.9805 H   0  0  0  0  0  0  0  0  0  0  0  0
   -0.2667   -4.1160   -0.3467 H   0  0  0  0  0  0  0  0  0  0  0  0
    2.5374   -4.2329    0.9160 H   0  0  0  0  0  0  0  0  0  0  0  0
    1.0390   -3.8932    1.7903 H   0  0  0  0  0  0  0  0  0  0  0  0
    1.2976   -5.4871    1.0566 H   0  0  0  0  0  0  0  0  0  0  0  0
    0.0755   -1.6529   -0.0105 N   0  0  0  0  0  0  0  0  0  0  0  0
    0.1113   -0.2132   -0.0391 C   0  0  2  0  0  0  0  0  0  0  0  0
   -0.2574    0.2263   -1.4521 C   0  0  0  0  0  0  0  0  0  0  0  0
   -0.9765   -0.4401   -2.1936 O   0  0  0  0  0  0  0  0  0  0  0  0
    1.4873    0.3364    0.3505 C   0  0  0  0  0  0  0  0  0  0  0  0
    1.8308    0.0631    1.8198 C   0  0  0  0  0  0  0  0  0  0  0  0
    3.2014    0.6123    2.2020 C   0  0  0  0  0  0  0  0  0  0  0  0
    3.5349    0.3295    3.5963 N   0  3  0  0  0  0  0  0  0  0  0  0
    4.7642    0.6810    4.1568 C   0  0  0  0  0  0  0  0  0  0  0  0
    5.0129    0.3800    5.4917 N   0  0  0  0  0  0  0  0  0  0  0  0
    5.7469    1.3256    3.4126 N   0  0  0  0  0  0  0  0  0  0  0  0
   -0.7323   -2.1024    0.4149 H   0  0  0  0  0  0  0  0  0  0  0  0
   -0.6591    0.1376    0.6569 H   0  0  0  0  0  0  0  0  0  0  0  0
    1.5141    1.4172    0.1669 H   0  0  0  0  0  0  0  0  0  0  0  0
    2.2598   -0.1060   -0.2924 H   0  0  0  0  0  0  0  0  0  0  0  0
    1.0646    0.5087    2.4654 H   0  0  0  0  0  0  0  0  0  0  0  0
    1.8267   -1.0174    2.0038 H   0  0  0  0  0  0  0  0  0  0  0  0
    3.9718    0.1434    1.5822 H   0  0  0  0  0  0  0  0  0  0  0  0
    3.2431    1.6960    2.0556 H   0  0  0  0  0  0  0  0  0  0  0  0
    2.8547   -0.1407    4.1909 H   0  0  0  0  0  0  0  0  0  0  0  0
    5.8980    0.6225    5.9304 H   0  0  0  0  0  0  0  0  0  0  0  0
    4.3166   -0.0909    6.0644 H   0  0  0  0  0  0  0  0  0  0  0  0
    6.6437    1.5837    3.8159 H   0  0  0  0  0  0  0  0  0  0  0  0
    5.5932    1.5580    2.4342 H   0  0  0  0  0  0  0  0  0  0  0  0
    0.3505    1.4239   -1.8020 N   0  0  0  0  0  0  0  0  0  0  0  0
    0.2008    2.0305   -3.1047 C   0  0  2  0  0  0  0  0  0  0  0  0
    1.4940    2.7650   -3.4330 C   0  0  0  0  0  0  0  0  0  0  0  0
    2.1827    3.3237   -2.5818 O   0  0  0  0  0  0  0  0  0  0  0  0
   -0.9872    2.9793   -3.1401 C   0  0  0  0  0  0  0  0  0  0  0  0
    0.9037    1.9224   -1.1112 H   0  0  0  0  0  0  0  0  0  0  0  0
    0.0528    1.2132   -3.8190 H   0  0  0  0  0  0  0  0  0  0  0  0
   -0.8570    3.8048   -2.4308 H   0  0  0  0  0  0  0  0  0  0  0  0
   -1.1165    3.4163   -4.1357 H   0  0  0  0  0  0  0  0  0  0  0  0
   -1.9121    2.4558   -2.8747 H   0  0  0  0  0  0  0  0  0  0  0  0
    1.7659    2.7600   -4.7939 N   0  0  0  0  0  0  0  0  0  0  0  0
    2.9140    3.4272   -5.3620 C   0  0  0  0  0  0  0  0  0  0  0  0
    1.1622    2.2380   -5.4222 H   0  0  0  0  0  0  0  0  0  0  0  0
    2.6340    4.4474   -5.6633 H   0  0  0  0  0  0  0  0  0  0  0  0
    3.7184    3.4741   -4.6131 H   0  0  0  0  0  0  0  0  0  0  0  0
    3.2646    2.8682   -6.2421 H   0  0  0  0  0  0  0  0  0  0  0  0
  1  3  1  0  0  0  0
  1  7  1  0  0  0  0
  1  2  2  0  0  0  0
 42 43  1  0  0  0  0
 43 51  1  0  0  0  0
 43 44  2  0  0  0  0
  8  9  1  0  0  0  0
  9 17  1  0  0  0  0
  9 10  2  0  0  0  0
 18 19  1  0  0  0  0
 19 41  1  0  0  0  0
 19 20  2  0  0  0  0
 25 26  1  0  0  0  0
 25 27  1  0  0  0  0
 24 25  2  0  0  0  0
 42 45  1  0  0  0  0
  8 11  1  0  0  0  0
 51 52  1  0  0  0  0
 21 22  1  0  0  0  0
 22 23  1  0  0  0  0
 18 21  1  0  0  0  0
 23 24  1  0  0  0  0
 41 42  1  0  0  0  0
  7  8  1  0  0  0  0
 17 18  1  0  0  0  0
  3  4  1  0  0  0  0
  3  5  1  0  0  0  0
  3  6  1  0  0  0  0
 45 48  1  0  0  0  0
 45 49  1  0  0  0  0
 45 50  1  0  0  0  0
 11 14  1  0  0  0  0
 11 15  1  0  0  0  0
 11 16  1  0  0  0  0
 52 54  1  0  0  0  0
 52 55  1  0  0  0  0
 52 56  1  0  0  0  0
 22 32  1  0  0  0  0
 22 33  1  0  0  0  0
 21 30  1  0  0  0  0
 21 31  1  0  0  0  0
 23 34  1  0  0  0  0
 23 35  1  0  0  0  0
 42 47  1  0  0  0  0
  8 13  1  0  0  0  0
 18 29  1  0  0  0  0
 26 37  1  0  0  0  0
 26 38  1  0  0  0  0
 27 39  1  0  0  0  0
 27 40  1  0  0  0  0
 51 53  1  0  0  0  0
  7 12  1  0  0  0  0
 41 46  1  0  0  0  0
 17 28  1  0  0  0  0
 24 36  1  0  0  0  0
M  CHG  1  24   1
M  END
$$$$

  -OEChem-05262214473D

 56 55  0     1  0  0  0  0  0999 V2000
    0.7735   -5.8042   -2.0022 C   0  0  0  0  0  0  0  0  0  0  0  0
   -0.2086   -6.3825   -1.5519 O   0  0  0  0  0  0  0  0  0  0  0  0
    1.4751   -6.3646   -3.1946 C   0  0  0  0  0  0  0  0  0  0  0  0
    2.2765   -7.0687   -2.9186 H   0  0  0  0  0  0  0  0  0  0  0  0
    0.7988   -6.9360   -3.8504 H   0  0  0  0  0  0  0  0  0  0  0  0
    1.9556   -5.6216   -3.8511 H   0  0  0  0  0  0  0  0  0  0  0  0
    1.3322   -4.6359   -1.5106 N   0  0  0  0  0  0  0  0  0  0  0  0
    0.8124   -3.9290   -0.3698 C   0  0  2  0  0  0  0  0  0  0  0  0
    1.0666   -2.4424   -0.5818 C   0  0  0  0  0  0  0  0  0  0  0  0
    2.0598   -2.0076   -1.1610 O   0  0  0  0  0  0  0  0  0  0  0  0
    1.4560   -4.4118    0.9207 C   0  0  0  0  0  0  0  0  0  0  0  0
    2.1528   -4.2578   -1.9805 H   0  0  0  0  0  0  0  0  0  0  0  0
   -0.2667   -4.1160   -0.3467 H   0  0  0  0  0  0  0  0  0  0  0  0
    2.5374   -4.2329    0.9160 H   0  0  0  0  0  0  0  0  0  0  0  0
    1.0390   -3.8932    1.7903 H   0  0  0  0  0  0  0  0  0  0  0  0
    1.2976   -5.4871    1.0566 H   0  0  0  0  0  0  0  0  0  0  0  0
    0.0755   -1.6529   -0.0105 N   0  0  0  0  0  0  0  0  0  0  0  0
    0.1113   -0.2132   -0.0391 C   0  0  2  0  0  0  0  0  0  0  0  0
   -0.2574    0.2263   -1.4521 C   0  0  0  0  0  0  0  0  0  0  0  0
   -1.1727   -0.2848   -2.0941 O   0  0  0  0  0  0  0  0  0  0  0  0
    1.4873    0.3364    0.3505 C   0  0  0  0  0  0  0  0  0  0  0  0
    1.8308    0.0631    1.8198 C   0  0  0  0  0  0  0  0  0  0  0  0
    3.2014    0.6123    2.2020 C   0  0  0  0  0  0  0  0  0  0  0  0
    3.5349    0.3295    3.5963 N   0  3  0  0  0  0  0  0  0  0  0  0
    4.7642    0.6810    4.1568 C   0  0  0  0  0  0  0  0  0  0  0  0
    5.0129    0.3800    5.4917 N   0  0  0  0  0  0  0  0  0  0  0  0
    5.7469    1.3256    3.4126 N   0  0  0  0  0  0  0  0  0  0  0  0
   -0.7323   -2.1024    0.4149 H   0  0  0  0  0  0  0  0  0  0  0  0
   -0.6591    0.1376    0.6569 H   0  0  0  0  0  0  0  0  0  0  0  0
    1.5141    1.4172    0.1669 H   0  0  0  0  0  0  0  0  0  0  0  0
    2.2598   -0.1060   -0.2924 H   0  0  0  0  0  0  0  0  0  0  0  0
    1.0646    0.5087    2.4654 H   0  0  0  0  0  0  0  0  0  0  0  0
    1.8267   -1.0174    2.0038 H   0  0  0  0  0  0  0  0  0  0  0  0
    3.9718    0.1434    1.5822 H   0  0  0  0  0  0  0  0  0  0  0  0
    3.2431    1.6960    2.0556 H   0  0  0  0  0  0  0  0  0  0  0  0
    2.8547   -0.1407    4.1909 H   0  0  0  0  0  0  0  0  0  0  0  0
    5.8980    0.6225    5.9304 H   0  0  0  0  0  0  0  0  0  0  0  0
    4.3166   -0.0909    6.0644 H   0  0  0  0  0  0  0  0  0  0  0  0
    6.6437    1.5837    3.8159 H   0  0  0  0  0  0  0  0  0  0  0  0
    5.5932    1.5580    2.4342 H   0  0  0  0  0  0  0  0  0  0  0  0
    0.5866    1.2206   -1.9269 N   0  0  0  0  0  0  0  0  0  0  0  0
    0.4785    1.7748   -3.2568 C   0  0  2  0  0  0  0  0  0  0  0  0
    1.8776    2.1555   -3.7227 C   0  0  0  0  0  0  0  0  0  0  0  0
    2.7469    2.5756   -2.9618 O   0  0  0  0  0  0  0  0  0  0  0  0
   -0.4490    2.9797   -3.2804 C   0  0  0  0  0  0  0  0  0  0  0  0
    1.2972    1.6065   -1.3122 H   0  0  0  0  0  0  0  0  0  0  0  0
    0.0826    0.9807   -3.8991 H   0  0  0  0  0  0  0  0  0  0  0  0
   -0.0686    3.7858   -2.6425 H   0  0  0  0  0  0  0  0  0  0  0  0
   -0.5522    3.3811   -4.2939 H   0  0  0  0  0  0  0  0  0  0  0  0
   -1.4466    2.7108   -2.9168 H   0  0  0  0  0  0  0  0  0  0  0  0
    2.0278    2.0121   -5.0949 N   0  0  0  0  0  0  0  0  0  0  0  0
    3.2507    2.3500   -5.7850 C   0  0  0  0  0  0  0  0  0  0  0  0
    1.2678    1.6190   -5.6424 H   0  0  0  0  0  0  0  0  0  0  0  0
    3.1971    3.3900   -6.1393 H   0  0  0  0  0  0  0  0  0  0  0  0
    4.1020    2.2407   -5.0969 H   0  0  0  0  0  0  0  0  0  0  0  0
    3.3849    1.6765   -6.6442 H   0  0  0  0  0  0  0  0  0  0  0  0
  1  3  1  0  0  0  0
  1  7  1  0  0  0  0
  1  2  2  0  0  0  0
 42 43  1  0  0  0  0
 43 51  1  0  0  0  0
 43 44  2  0  0  0  0
  8  9  1  0  0  0  0
  9 17  1  0  0  0  0
  9 10  2  0  0  0  0
 18 19  1  0  0  0  0
 19 41  1  0  0  0  0
 19 20  2  0  0  0  0
 25 26  1  0  0  0  0
 25 27  1  0  0  0  0
 24 25  2  0  0  0  0
 42 45  1  0  0  0  0
  8 11  1  0  0  0  0
 51 52  1  0  0  0  0
 21 22  1  0  0  0  0
 22 23  1  0  0  0  0
 18 21  1  0  0  0  0
 23 24  1  0  0  0  0
 41 42  1  0  0  0  0
  7  8  1  0  0  0  0
 17 18  1  0  0  0  0
  3  4  1  0  0  0  0
  3  5  1  0  0  0  0
  3  6  1  0  0  0  0
 45 48  1  0  0  0  0
 45 49  1  0  0  0  0
 45 50  1  0  0  0  0
 11 14  1  0  0  0  0
 11 15  1  0  0  0  0
 11 16  1  0  0  0  0
 52 54  1  0  0  0  0
 52 55  1  0  0  0  0
 52 56  1  0  0  0  0
 22 32  1  0  0  0  0
 22 33  1  0  0  0  0
 21 30  1  0  0  0  0
 21 31  1  0  0  0  0
 23 34  1  0  0  0  0
 23 35  1  0  0  0  0
 42 47  1  0  0  0  0
  8 13  1  0  0  0  0
 18 29  1  0  0  0  0
 26 37  1  0  0  0  0
 26 38  1  0  0  0  0
 27 39  1  0  0  0  0
 27 40  1  0  0  0  0
 51 53  1  0  0  0  0
  7 12  1  0  0  0  0
 41 46  1  0  0  0  0
 17 28  1  0  0  0  0
 24 36  1  0  0  0  0
M  CHG  1  24   1
M  END
$$$$

  -OEChem-05262214473D

 56 55  0     1  0  0  0  0  0999 V2000
    0.7735   -5.8042   -2.0022 C   0  0  0  0  0  0  0  0  0  0  0  0
   -0.2086   -6.3825   -1.5519 O   0  0  0  0  0  0  0  0  0  0  0  0
    1.4751   -6.3646   -3.1946 C   0  0  0  0  0  0  0  0  0  0  0  0
    2.2765   -7.0687   -2.9186 H   0  0  0  0  0  0  0  0  0  0  0  0
    0.7988   -6.9360   -3.8504 H   0  0  0  0  0  0  0  0  0  0  0  0
    1.9556   -5.6216   -3.8511 H   0  0  0  0  0  0  0  0  0  0  0  0
    1.3322   -4.6359   -1.5106 N   0  0  0  0  0  0  0  0  0  0  0  0
    0.8124   -3.9290   -0.3698 C   0  0  2  0  0  0  0  0  0  0  0  0
    1.0666   -2.4424   -0.5818 C   0  0  0  0  0  0  0  0  0  0  0  0
    2.0598   -2.0076   -1.1610 O   0  0  0  0  0  0  0  0  0  0  0  0
    1.4560   -4.4118    0.9207 C   0  0  0  0  0  0  0  0  0  0  0  0
    2.1528   -4.2578   -1.9805 H   0  0  0  0  0  0  0  0  0  0  0  0
   -0.2667   -4.1160   -0.3467 H   0  0  0  0  0  0  0  0  0  0  0  0
    2.5374   -4.2329    0.9160 H   0  0  0  0  0  0  0  0  0  0  0  0
    1.0390   -3.8932    1.7903 H   0  0  0  0  0  0  0  0  0  0  0  0
    1.2976   -5.4871    1.0566 H   0  0  0  0  0  0  0  0  0  0  0  0
    0.0755   -1.6529   -0.0105 N   0  0  0  0  0  0  0  0  0  0  0  0
    0.1113   -0.2132   -0.0391 C   0  0  2  0  0  0  0  0  0  0  0  0
   -0.2574    0.2263   -1.4521 C   0  0  0  0  0  0  0  0  0  0  0  0
   -1.3175   -0.0816   -1.9931 O   0  0  0  0  0  0  0  0  0  0  0  0
    1.4873    0.3364    0.3505 C   0  0  0  0  0  0  0  0  0  0  0  0
    1.8308    0.0631    1.8198 C   0  0  0  0  0  0  0  0  0  0  0  0
    3.2014    0.6123    2.2020 C   0  0  0  0  0  0  0  0  0  0  0  0
    3.5349    0.3295    3.5963 N   0  3  0  0  0  0  0  0  0  0  0  0
    4.7642    0.6810    4.1568 C   0  0  0  0  0  0  0  0  0  0  0  0
    5.0129    0.3800    5.4917 N   0  0  0  0  0  0  0  0  0  0  0  0
    5.7469    1.3256    3.4126 N   0  0  0  0  0  0  0  0  0  0  0  0
   -0.7323   -2.1024    0.4149 H   0  0  0  0  0  0  0  0  0  0  0  0
   -0.6591    0.1376    0.6569 H   0  0  0  0  0  0  0  0  0  0  0  0
    1.5141    1.4172    0.1669 H   0  0  0  0  0  0  0  0  0  0  0  0
    2.2598   -0.1060   -0.2924 H   0  0  0  0  0  0  0  0  0  0  0  0
    1.0646    0.5087    2.4654 H   0  0  0  0  0  0  0  0  0  0  0  0
    1.8267   -1.0174    2.0038 H   0  0  0  0  0  0  0  0  0  0  0  0
    3.9718    0.1434    1.5822 H   0  0  0  0  0  0  0  0  0  0  0  0
    3.2431    1.6960    2.0556 H   0  0  0  0  0  0  0  0  0  0  0  0
    2.8547   -0.1407    4.1909 H   0  0  0  0  0  0  0  0  0  0  0  0
    5.8980    0.6225    5.9304 H   0  0  0  0  0  0  0  0  0  0  0  0
    4.3166   -0.0909    6.0644 H   0  0  0  0  0  0  0  0  0  0  0  0
    6.6437    1.5837    3.8159 H   0  0  0  0  0  0  0  0  0  0  0  0
    5.5932    1.5580    2.4342 H   0  0  0  0  0  0  0  0  0  0  0  0
    0.7565    0.9597   -2.0524 N   0  0  0  0  0  0  0  0  0  0  0  0
    0.6741    1.4516   -3.4084 C   0  0  2  0  0  0  0  0  0  0  0  0
    2.0804    1.4568   -3.9930 C   0  0  0  0  0  0  0  0  0  0  0  0
    3.0841    1.6938   -3.3241 O   0  0  0  0  0  0  0  0  0  0  0  0
    0.0605    2.8423   -3.4561 C   0  0  0  0  0  0  0  0  0  0  0  0
    1.5865    1.1943   -1.5159 H   0  0  0  0  0  0  0  0  0  0  0  0
    0.0495    0.7439   -3.9642 H   0  0  0  0  0  0  0  0  0  0  0  0
    0.6725    3.5652   -2.9045 H   0  0  0  0  0  0  0  0  0  0  0  0
   -0.0275    3.2019   -4.4866 H   0  0  0  0  0  0  0  0  0  0  0  0
   -0.9391    2.8428   -3.0082 H   0  0  0  0  0  0  0  0  0  0  0  0
    2.0789    1.2080   -5.3584 N   0  0  0  0  0  0  0  0  0  0  0  0
    3.2861    1.2023   -6.1512 C   0  0  0  0  0  0  0  0  0  0  0  0
    1.2049    0.9820   -5.8241 H   0  0  0  0  0  0  0  0  0  0  0  0
    3.4519    2.2039   -6.5748 H   0  0  0  0  0  0  0  0  0  0  0  0
    4.1407    0.9270   -5.5157 H   0  0  0  0  0  0  0  0  0  0  0  0
    3.1854    0.4714   -6.9671 H   0  0  0  0  0  0  0  0  0  0  0  0
  1  3  1  0  0  0  0
  1  7  1  0  0  0  0
  1  2  2  0  0  0  0
 42 43  1  0  0  0  0
 43 51  1  0  0  0  0
 43 44  2  0  0  0  0
  8  9  1  0  0  0  0
  9 17  1  0  0  0  0
  9 10  2  0  0  0  0
 18 19  1  0  0  0  0
 19 41  1  0  0  0  0
 19 20  2  0  0  0  0
 25 26  1  0  0  0  0
 25 27  1  0  0  0  0
 24 25  2  0  0  0  0
 42 45  1  0  0  0  0
  8 11  1  0  0  0  0
 51 52  1  0  0  0  0
 21 22  1  0  0  0  0
 22 23  1  0  0  0  0
 18 21  1  0  0  0  0
 23 24  1  0  0  0  0
 41 42  1  0  0  0  0
  7  8  1  0  0  0  0
 17 18  1  0  0  0  0
  3  4  1  0  0  0  0
  3  5  1  0  0  0  0
  3  6  1  0  0  0  0
 45 48  1  0  0  0  0
 45 49  1  0  0  0  0
 45 50  1  0  0  0  0
 11 14  1  0  0  0  0
 11 15  1  0  0  0  0
 11 16  1  0  0  0  0
 52 54  1  0  0  0  0
 52 55  1  0  0  0  0
 52 56  1  0  0  0  0
 22 32  1  0  0  0  0
 22 33  1  0  0  0  0
 21 30  1  0  0  0  0
 21 31  1  0  0  0  0
 23 34  1  0  0  0  0
 23 35  1  0  0  0  0
 42 47  1  0  0  0  0
  8 13  1  0  0  0  0
 18 29  1  0  0  0  0
 26 37  1  0  0  0  0
 26 38  1  0  0  0  0
 27 39  1  0  0  0  0
 27 40  1  0  0  0  0
 51 53  1  0  0  0  0
  7 12  1  0  0  0  0
 41 46  1  0  0  0  0
 17 28  1  0  0  0  0
 24 36  1  0  0  0  0
M  CHG  1  24   1
M  END
$$$$

  -OEChem-05262214473D

 56 55  0     1  0  0  0  0  0999 V2000
    0.7735   -5.8042   -2.0022 C   0  0  0  0  0  0  0  0  0  0  0  0
   -0.2086   -6.3825   -1.5519 O   0  0  0  0  0  0  0  0  0  0  0  0
    1.4751   -6.3646   -3.1946 C   0  0  0  0  0  0  0  0  0  0  0  0
    2.2765   -7.0687   -2.9186 H   0  0  0  0  0  0  0  0  0  0  0  0
    0.7988   -6.9360   -3.8504 H   0  0  0  0  0  0  0  0  0  0  0  0
    1.9556   -5.6216   -3.8511 H   0  0  0  0  0  0  0  0  0  0  0  0
    1.3322   -4.6359   -1.5106 N   0  0  0  0  0  0  0  0  0  0  0  0
    0.8124   -3.9290   -0.3698 C   0  0  2  0  0  0  0  0  0  0  0  0
    1.0666   -2.4424   -0.5818 C   0  0  0  0  0  0  0  0  0  0  0  0
    2.0598   -2.0076   -1.1610 O   0  0  0  0  0  0  0  0  0  0  0  0
    1.4560   -4.4118    0.9207 C   0  0  0  0  0  0  0  0  0  0  0  0
    2.1528   -4.2578   -1.9805 H   0  0  0  0  0  0  0  0  0  0  0  0
   -0.2667   -4.1160   -0.3467 H   0  0  0  0  0  0  0  0  0  0  0  0
    2.5374   -4.2329    0.9160 H   0  0  0  0  0  0  0  0  0  0  0  0
    1.0390   -3.8932    1.7903 H   0  0  0  0  0  0  0  0  0  0  0  0
    1.2976   -5.4871    1.0566 H   0  0  0  0  0  0  0  0  0  0  0  0
    0.0755   -1.6529   -0.0105 N   0  0  0  0  0  0  0  0  0  0  0  0
    0.1113   -0.2132   -0.0391 C   0  0  2  0  0  0  0  0  0  0  0  0
   -0.2574    0.2263   -1.4521 C   0  0  0  0  0  0  0  0  0  0  0  0
   -1.4011    0.1558   -1.8974 O   0  0  0  0  0  0  0  0  0  0  0  0
    1.4873    0.3364    0.3505 C   0  0  0  0  0  0  0  0  0  0  0  0
    1.8308    0.0631    1.8198 C   0  0  0  0  0  0  0  0  0  0  0  0
    3.2014    0.6123    2.2020 C   0  0  0  0  0  0  0  0  0  0  0  0
    3.5349    0.3295    3.5963 N   0  3  0  0  0  0  0  0  0  0  0  0
    4.7642    0.6810    4.1568 C   0  0  0  0  0  0  0  0  0  0  0  0
    5.0129    0.3800    5.4917 N   0  0  0  0  0  0  0  0  0  0  0  0
    5.7469    1.3256    3.4126 N   0  0  0  0  0  0  0  0  0  0  0  0
   -0.7323   -2.1024    0.4149 H   0  0  0  0  0  0  0  0  0  0  0  0
   -0.6591    0.1376    0.6569 H   0  0  0  0  0  0  0  0  0  0  0  0
    1.5141    1.4172    0.1669 H   0  0  0  0  0  0  0  0  0  0  0  0
    2.2598   -0.1060   -0.2924 H   0  0  0  0  0  0  0  0  0  0  0  0
    1.0646    0.5087    2.4654 H   0  0  0  0  0  0  0  0  0  0  0  0
    1.8267   -1.0174    2.0038 H   0  0  0  0  0  0  0  0  0  0  0  0
    3.9718    0.1434    1.5822 H   0  0  0  0  0  0  0  0  0  0  0  0
    3.2431    1.6960    2.0556 H   0  0  0  0  0  0  0  0  0  0  0  0
    2.8547   -0.1407    4.1909 H   0  0  0  0  0  0  0  0  0  0  0  0
    5.8980    0.6225    5.9304 H   0  0  0  0  0  0  0  0  0  0  0  0
    4.3166   -0.0909    6.0644 H   0  0  0  0  0  0  0  0  0  0  0  0
    6.6437    1.5837    3.8159 H   0  0  0  0  0  0  0  0  0  0  0  0
    5.5932    1.5580    2.4342 H   0  0  0  0  0  0  0  0  0  0  0  0
    0.8487    0.6591   -2.1700 N   0  0  0  0  0  0  0  0  0  0  0  0
    0.7743    1.0831   -3.5491 C   0  0  2  0  0  0  0  0  0  0  0  0
    2.0886    0.7162   -4.2255 C   0  0  0  0  0  0  0  0  0  0  0  0
    3.1714    0.7386   -3.6441 O   0  0  0  0  0  0  0  0  0  0  0  0
    0.5066    2.5763   -3.6553 C   0  0  0  0  0  0  0  0  0  0  0  0
    1.7519    0.7141   -1.7085 H   0  0  0  0  0  0  0  0  0  0  0  0
   -0.0441    0.5190   -4.0097 H   0  0  0  0  0  0  0  0  0  0  0  0
    1.3160    3.1580   -3.1992 H   0  0  0  0  0  0  0  0  0  0  0  0
    0.4221    2.8910   -4.7007 H   0  0  0  0  0  0  0  0  0  0  0  0
   -0.4239    2.8429   -3.1427 H   0  0  0  0  0  0  0  0  0  0  0  0
    1.9157    0.4026   -5.5664 N   0  0  0  0  0  0  0  0  0  0  0  0
    3.0177    0.0623   -6.4358 C   0  0  0  0  0  0  0  0  0  0  0  0
    0.9779    0.3704   -5.9552 H   0  0  0  0  0  0  0  0  0  0  0  0
    3.3812    0.9698   -6.9403 H   0  0  0  0  0  0  0  0  0  0  0  0
    3.8318   -0.3773   -5.8409 H   0  0  0  0  0  0  0  0  0  0  0  0
    2.6796   -0.6650   -7.1886 H   0  0  0  0  0  0  0  0  0  0  0  0
  1  3  1  0  0  0  0
  1  7  1  0  0  0  0
  1  2  2  0  0  0  0
 42 43  1  0  0  0  0
 43 51  1  0  0  0  0
 43 44  2  0  0  0  0
  8  9  1  0  0  0  0
  9 17  1  0  0  0  0
  9 10  2  0  0  0  0
 18 19  1  0  0  0  0
 19 41  1  0  0  0  0
 19 20  2  0  0  0  0
 25 26  1  0  0  0  0
 25 27  1  0  0  0  0
 24 25  2  0  0  0  0
 42 45  1  0  0  0  0
  8 11  1  0  0  0  0
 51 52  1  0  0  0  0
 21 22  1  0  0  0  0
 22 23  1  0  0  0  0
 18 21  1  0  0  0  0
 23 24  1  0  0  0  0
 41 42  1  0  0  0  0
  7  8  1  0  0  0  0
 17 18  1  0  0  0  0
  3  4  1  0  0  0  0
  3  5  1  0  0  0  0
  3  6  1  0  0  0  0
 45 48  1  0  0  0  0
 45 49  1  0  0  0  0
 45 50  1  0  0  0  0
 11 14  1  0  0  0  0
 11 15  1  0  0  0  0
 11 16  1  0  0  0  0
 52 54  1  0  0  0  0
 52 55  1  0  0  0  0
 52 56  1  0  0  0  0
 22 32  1  0  0  0  0
 22 33  1  0  0  0  0
 21 30  1  0  0  0  0
 21 31  1  0  0  0  0
 23 34  1  0  0  0  0
 23 35  1  0  0  0  0
 42 47  1  0  0  0  0
  8 13  1  0  0  0  0
 18 29  1  0  0  0  0
 26 37  1  0  0  0  0
 26 38  1  0  0  0  0
 27 39  1  0  0  0  0
 27 40  1  0  0  0  0
 51 53  1  0  0  0  0
  7 12  1  0  0  0  0
 41 46  1  0  0  0  0
 17 28  1  0  0  0  0
 24 36  1  0  0  0  0
M  CHG  1  24   1
M  END
$$$$

  -OEChem-05262214473D

 56 55  0     1  0  0  0  0  0999 V2000
    0.7735   -5.8042   -2.0022 C   0  0  0  0  0  0  0  0  0  0  0  0
   -0.2086   -6.3825   -1.5519 O   0  0  0  0  0  0  0  0  0  0  0  0
    1.4751   -6.3646   -3.1946 C   0  0  0  0  0  0  0  0  0  0  0  0
    2.2765   -7.0687   -2.9186 H   0  0  0  0  0  0  0  0  0  0  0  0
    0.7988   -6.9360   -3.8504 H   0  0  0  0  0  0  0  0  0  0  0  0
    1.9556   -5.6216   -3.8511 H   0  0  0  0  0  0  0  0  0  0  0  0
    1.3322   -4.6359   -1.5106 N   0  0  0  0  0  0  0  0  0  0  0  0
    0.8124   -3.9290   -0.3698 C   0  0  2  0  0  0  0  0  0  0  0  0
    1.0666   -2.4424   -0.5818 C   0  0  0  0  0  0  0  0  0  0  0  0
    2.0598   -2.0076   -1.1610 O   0  0  0  0  0  0  0  0  0  0  0  0
    1.4560   -4.4118    0.9207 C   0  0  0  0  0  0  0  0  0  0  0  0
    2.1528   -4.2578   -1.9805 H   0  0  0  0  0  0  0  0  0  0  0  0
   -0.2667   -4.1160   -0.3467 H   0  0  0  0  0  0  0  0  0  0  0  0
    2.5374   -4.2329    0.9160 H   0  0  0  0  0  0  0  0  0  0  0  0
    1.0390   -3.8932    1.7903 H   0  0  0  0  0  0  0  0  0  0  0  0
    1.2976   -5.4871    1.0566 H   0  0  0  0  0  0  0  0  0  0  0  0
    0.0755   -1.6529   -0.0105 N   0  0  0  0  0  0  0  0  0  0  0  0
    0.1113   -0.2132   -0.0391 C   0  0  2  0  0  0  0  0  0  0  0  0
   -0.2574    0.2263   -1.4521 C   0  0  0  0  0  0  0  0  0  0  0  0
   -1.4177    0.4112   -1.8136 O   0  0  0  0  0  0  0  0  0  0  0  0
    1.4873    0.3364    0.3505 C   0  0  0  0  0  0  0  0  0  0  0  0
    1.8308    0.0631    1.8198 C   0  0  0  0  0  0  0  0  0  0  0  0
    3.2014    0.6123    2.2020 C   0  0  0  0  0  0  0  0  0  0  0  0
    3.5349    0.3295    3.5963 N   0  3  0  0  0  0  0  0  0  0  0  0
    4.7642    0.6810    4.1568 C   0  0  0  0  0  0  0  0  0  0  0  0
    5.0129    0.3800    5.4917 N   0  0  0  0  0  0  0  0  0  0  0  0
    5.7469    1.3256    3.4126 N   0  0  0  0  0  0  0  0  0  0  0  0
   -0.7323   -2.1024    0.4149 H   0  0  0  0  0  0  0  0  0  0  0  0
   -0.6591    0.1376    0.6569 H   0  0  0  0  0  0  0  0  0  0  0  0
    1.5141    1.4172    0.1669 H   0  0  0  0  0  0  0  0  0  0  0  0
    2.2598   -0.1060   -0.2924 H   0  0  0  0  0  0  0  0  0  0  0  0
    1.0646    0.5087    2.4654 H   0  0  0  0  0  0  0  0  0  0  0  0
    1.8267   -1.0174    2.0038 H   0  0  0  0  0  0  0  0  0  0  0  0
    3.9718    0.1434    1.5822 H   0  0  0  0  0  0  0  0  0  0  0  0
    3.2431    1.6960    2.0556 H   0  0  0  0  0  0  0  0  0  0  0  0
    2.8547   -0.1407    4.1909 H   0  0  0  0  0  0  0  0  0  0  0  0
    5.8980    0.6225    5.9304 H   0  0  0  0  0  0  0  0  0  0  0  0
    4.3166   -0.0909    6.0644 H   0  0  0  0  0  0  0  0  0  0  0  0
    6.6437    1.5837    3.8159 H   0  0  0  0  0  0  0  0  0  0  0  0
    5.5932    1.5580    2.4342 H   0  0  0  0  0  0  0  0  0  0  0  0
    0.8570    0.3393   -2.2716 N   0  0  0  0  0  0  0  0  0  0  0  0
    0.7722    0.6943   -3.6695 C   0  0  2  0  0  0  0  0  0  0  0  0
    1.9016   -0.0156   -4.4044 C   0  0  0  0  0  0  0  0  0  0  0  0
    3.0028   -0.2250   -3.8998 O   0  0  0  0  0  0  0  0  0  0  0  0
    0.8589    2.2000   -3.8643 C   0  0  0  0  0  0  0  0  0  0  0  0
    1.7822    0.1986   -1.8768 H   0  0  0  0  0  0  0  0  0  0  0  0
   -0.1917    0.3214   -4.0326 H   0  0  0  0  0  0  0  0  0  0  0  0
    1.8179    2.5919   -3.5063 H   0  0  0  0  0  0  0  0  0  0  0  0
    0.7658    2.4694   -4.9216 H   0  0  0  0  0  0  0  0  0  0  0  0
    0.0636    2.7110   -3.3109 H   0  0  0  0  0  0  0  0  0  0  0  0
    1.5495   -0.3493   -5.7047 N   0  0  0  0  0  0  0  0  0  0  0  0
    2.4638   -0.9923   -6.6194 C   0  0  0  0  0  0  0  0  0  0  0  0
    0.6021   -0.1741   -6.0265 H   0  0  0  0  0  0  0  0  0  0  0  0
    2.9896   -0.2282   -7.2108 H   0  0  0  0  0  0  0  0  0  0  0  0
    3.1963   -1.5835   -6.0503 H   0  0  0  0  0  0  0  0  0  0  0  0
    1.9020   -1.6553   -7.2937 H   0  0  0  0  0  0  0  0  0  0  0  0
  1  3  1  0  0  0  0
  1  7  1  0  0  0  0
  1  2  2  0  0  0  0
 42 43  1  0  0  0  0
 43 51  1  0  0  0  0
 43 44  2  0  0  0  0
  8  9  1  0  0  0  0
  9 17  1  0  0  0  0
  9 10  2  0  0  0  0
 18 19  1  0  0  0  0
 19 41  1  0  0  0  0
 19 20  2  0  0  0  0
 25 26  1  0  0  0  0
 25 27  1  0  0  0  0
 24 25  2  0  0  0  0
 42 45  1  0  0  0  0
  8 11  1  0  0  0  0
 51 52  1  0  0  0  0
 21 22  1  0  0  0  0
 22 23  1  0  0  0  0
 18 21  1  0  0  0  0
 23 24  1  0  0  0  0
 41 42  1  0  0  0  0
  7  8  1  0  0  0  0
 17 18  1  0  0  0  0
  3  4  1  0  0  0  0
  3  5  1  0  0  0  0
  3  6  1  0  0  0  0
 45 48  1  0  0  0  0
 45 49  1  0  0  0  0
 45 50  1  0  0  0  0
 11 14  1  0  0  0  0
 11 15  1  0  0  0  0
 11 16  1  0  0  0  0
 52 54  1  0  0  0  0
 52 55  1  0  0  0  0
 52 56  1  0  0  0  0
 22 32  1  0  0  0  0
 22 33  1  0  0  0  0
 21 30  1  0  0  0  0
 21 31  1  0  0  0  0
 23 34  1  0  0  0  0
 23 35  1  0  0  0  0
 42 47  1  0  0  0  0
  8 13  1  0  0  0  0
 18 29  1  0  0  0  0
 26 37  1  0  0  0  0
 26 38  1  0  0  0  0
 27 39  1  0  0  0  0
 27 40  1  0  0  0  0
 51 53  1  0  0  0  0
  7 12  1  0  0  0  0
 41 46  1  0  0  0  0
 17 28  1  0  0  0  0
 24 36  1  0  0  0  0
M  CHG  1  24   1
M  END
$$$$

  -OEChem-05262214473D

 56 55  0     1  0  0  0  0  0999 V2000
    0.7735   -5.8042   -2.0022 C   0  0  0  0  0  0  0  0  0  0  0  0
   -0.2086   -6.3825   -1.5519 O   0  0  0  0  0  0  0  0  0  0  0  0
    1.4751   -6.3646   -3.1946 C   0  0  0  0  0  0  0  0  0  0  0  0
    2.2765   -7.0687   -2.9186 H   0  0  0  0  0  0  0  0  0  0  0  0
    0.7988   -6.9360   -3.8504 H   0  0  0  0  0  0  0  0  0  0  0  0
    1.9556   -5.6216   -3.8511 H   0  0  0  0  0  0  0  0  0  0  0  0
    1.3322   -4.6359   -1.5106 N   0  0  0  0  0  0  0  0  0  0  0  0
    0.8124   -3.9290   -0.3698 C   0  0  2  0  0  0  0  0  0  0  0  0
    1.0666   -2.4424   -0.5818 C   0  0  0  0  0  0  0  0  0  0  0  0
    2.0598   -2.0076   -1.1610 O   0  0  0  0  0  0  0  0  0  0  0  0
    1.4560   -4.4118    0.9207 C   0  0  0  0  0  0  0  0  0  0  0  0
    2.1528   -4.2578   -1.9805 H   0  0  0  0  0  0  0  0  0  0  0  0
   -0.2667   -4.1160   -0.3467 H   0  0  0  0  0  0  0  0  0  0  0  0
    2.5374   -4.2329    0.9160 H   0  0  0  0  0  0  0  0  0  0  0  0
    1.0390   -3.8932    1.7903 H   0  0  0  0  0  0  0  0  0  0  0  0
    1.2976   -5.4871    1.0566 H   0  0  0  0  0  0  0  0  0  0  0  0
    0.0755   -1.6529   -0.0105 N   0  0  0  0  0  0  0  0  0  0  0  0
    0.1113   -0.2132   -0.0391 C   0  0  2  0  0  0  0  0  0  0  0  0
   -0.2574    0.2263   -1.4521 C   0  0  0  0  0  0  0  0  0  0  0  0
   -1.3664    0.6671   -1.7474 O   0  0  0  0  0  0  0  0  0  0  0  0
    1.4873    0.3364    0.3505 C   0  0  0  0  0  0  0  0  0  0  0  0
    1.8308    0.0631    1.8198 C   0  0  0  0  0  0  0  0  0  0  0  0
    3.2014    0.6123    2.2020 C   0  0  0  0  0  0  0  0  0  0  0  0
    3.5349    0.3295    3.5963 N   0  3  0  0  0  0  0  0  0  0  0  0
    4.7642    0.6810    4.1568 C   0  0  0  0  0  0  0  0  0  0  0  0
    5.0129    0.3800    5.4917 N   0  0  0  0  0  0  0  0  0  0  0  0
    5.7469    1.3256    3.4126 N   0  0  0  0  0  0  0  0  0  0  0  0
   -0.7323   -2.1024    0.4149 H   0  0  0  0  0  0  0  0  0  0  0  0
   -0.6591    0.1376    0.6569 H   0  0  0  0  0  0  0  0  0  0  0  0
    1.5141    1.4172    0.1669 H   0  0  0  0  0  0  0  0  0  0  0  0
    2.2598   -0.1060   -0.2924 H   0  0  0  0  0  0  0  0  0  0  0  0
    1.0646    0.5087    2.4654 H   0  0  0  0  0  0  0  0  0  0  0  0
    1.8267   -1.0174    2.0038 H   0  0  0  0  0  0  0  0  0  0  0  0
    3.9718    0.1434    1.5822 H   0  0  0  0  0  0  0  0  0  0  0  0
    3.2431    1.6960    2.0556 H   0  0  0  0  0  0  0  0  0  0  0  0
    2.8547   -0.1407    4.1909 H   0  0  0  0  0  0  0  0  0  0  0  0
    5.8980    0.6225    5.9304 H   0  0  0  0  0  0  0  0  0  0  0  0
    4.3166   -0.0909    6.0644 H   0  0  0  0  0  0  0  0  0  0  0  0
    6.6437    1.5837    3.8159 H   0  0  0  0  0  0  0  0  0  0  0  0
    5.5932    1.5580    2.4342 H   0  0  0  0  0  0  0  0  0  0  0  0
    0.7806    0.0221   -2.3504 N   0  0  0  0  0  0  0  0  0  0  0  0
    0.6679    0.3117   -3.7613 C   0  0  2  0  0  0  0  0  0  0  0  0
    1.5321   -0.6888   -4.5174 C   0  0  0  0  0  0  0  0  0  0  0  0
    2.5897   -1.1314   -4.0740 O   0  0  0  0  0  0  0  0  0  0  0  0
    1.0933    1.7390   -4.0689 C   0  0  0  0  0  0  0  0  0  0  0  0
    1.6752   -0.3172   -2.0094 H   0  0  0  0  0  0  0  0  0  0  0  0
   -0.3835    0.1645   -4.0314 H   0  0  0  0  0  0  0  0  0  0  0  0
    2.1440    1.9055   -3.8049 H   0  0  0  0  0  0  0  0  0  0  0  0
    0.9802    1.9659   -5.1342 H   0  0  0  0  0  0  0  0  0  0  0  0
    0.4904    2.4562   -3.5016 H   0  0  0  0  0  0  0  0  0  0  0  0
    1.0052   -0.9964   -5.7640 N   0  0  0  0  0  0  0  0  0  0  0  0
    1.6623   -1.8896   -6.6893 C   0  0  0  0  0  0  0  0  0  0  0  0
    0.1033   -0.6145   -6.0333 H   0  0  0  0  0  0  0  0  0  0  0  0
    2.3040   -1.3084   -7.3678 H   0  0  0  0  0  0  0  0  0  0  0  0
    2.2777   -2.6094   -6.1296 H   0  0  0  0  0  0  0  0  0  0  0  0
    0.9056   -2.4319   -7.2753 H   0  0  0  0  0  0  0  0  0  0  0  0
  1  3  1  0  0  0  0
  1  7  1  0  0  0  0
  1  2  2  0  0  0  0
 42 43  1  0  0  0  0
 43 51  1  0  0  0  0
 43 44  2  0  0  0  0
  8  9  1  0  0  0  0
  9 17  1  0  0  0  0
  9 10  2  0  0  0  0
 18 19  1  0  0  0  0
 19 41  1  0  0  0  0
 19 20  2  0  0  0  0
 25 26  1  0  0  0  0
 25 27  1  0  0  0  0
 24 25  2  0  0  0  0
 42 45  1  0  0  0  0
  8 11  1  0  0  0  0
 51 52  1  0  0  0  0
 21 22  1  0  0  0  0
 22 23  1  0  0  0  0
 18 21  1  0  0  0  0
 23 24  1  0  0  0  0
 41 42  1  0  0  0  0
  7  8  1  0  0  0  0
 17 18  1  0  0  0  0
  3  4  1  0  0  0  0
  3  5  1  0  0  0  0
  3  6  1  0  0  0  0
 45 48  1  0  0  0  0
 45 49  1  0  0  0  0
 45 50  1  0  0  0  0
 11 14  1  0  0  0  0
 11 15  1  0  0  0  0
 11 16  1  0  0  0  0
 52 54  1  0  0  0  0
 52 55  1  0  0  0  0
 52 56  1  0  0  0  0
 22 32  1  0  0  0  0
 22 33  1  0  0  0  0
 21 30  1  0  0  0  0
 21 31  1  0  0  0  0
 23 34  1  0  0  0  0
 23 35  1  0  0  0  0
 42 47  1  0  0  0  0
  8 13  1  0  0  0  0
 18 29  1  0  0  0  0
 26 37  1  0  0  0  0
 26 38  1  0  0  0  0
 27 39  1  0  0  0  0
 27 40  1  0  0  0  0
 51 53  1  0  0  0  0
  7 12  1  0  0  0  0
 41 46  1  0  0  0  0
 17 28  1  0  0  0  0
 24 36  1  0  0  0  0
M  CHG  1  24   1
M  END
$$$$

  -OEChem-05262214473D

 56 55  0     1  0  0  0  0  0999 V2000
    0.7735   -5.8042   -2.0022 C   0  0  0  0  0  0  0  0  0  0  0  0
   -0.2086   -6.3825   -1.5519 O   0  0  0  0  0  0  0  0  0  0  0  0
    1.4751   -6.3646   -3.1946 C   0  0  0  0  0  0  0  0  0  0  0  0
    2.2765   -7.0687   -2.9186 H   0  0  0  0  0  0  0  0  0  0  0  0
    0.7988   -6.9360   -3.8504 H   0  0  0  0  0  0  0  0  0  0  0  0
    1.9556   -5.6216   -3.8511 H   0  0  0  0  0  0  0  0  0  0  0  0
    1.3322   -4.6359   -1.5106 N   0  0  0  0  0  0  0  0  0  0  0  0
    0.8124   -3.9290   -0.3698 C   0  0  2  0  0  0  0  0  0  0  0  0
    1.0666   -2.4424   -0.5818 C   0  0  0  0  0  0  0  0  0  0  0  0
    2.0598   -2.0076   -1.1610 O   0  0  0  0  0  0  0  0  0  0  0  0
    1.4560   -4.4118    0.9207 C   0  0  0  0  0  0  0  0  0  0  0  0
    2.1528   -4.2578   -1.9805 H   0  0  0  0  0  0  0  0  0  0  0  0
   -0.2667   -4.1160   -0.3467 H   0  0  0  0  0  0  0  0  0  0  0  0
    2.5374   -4.2329    0.9160 H   0  0  0  0  0  0  0  0  0  0  0  0
    1.0390   -3.8932    1.7903 H   0  0  0  0  0  0  0  0  0  0  0  0
    1.2976   -5.4871    1.0566 H   0  0  0  0  0  0  0  0  0  0  0  0
    0.0755   -1.6529   -0.0105 N   0  0  0  0  0  0  0  0  0  0  0  0
    0.1113   -0.2132   -0.0391 C   0  0  2  0  0  0  0  0  0  0  0  0
   -0.2574    0.2263   -1.4521 C   0  0  0  0  0  0  0  0  0  0  0  0
   -1.2504    0.9060   -1.7033 O   0  0  0  0  0  0  0  0  0  0  0  0
    1.4873    0.3364    0.3505 C   0  0  0  0  0  0  0  0  0  0  0  0
    1.8308    0.0631    1.8198 C   0  0  0  0  0  0  0  0  0  0  0  0
    3.2014    0.6123    2.2020 C   0  0  0  0  0  0  0  0  0  0  0  0
    3.5349    0.3295    3.5963 N   0  3  0  0  0  0  0  0  0  0  0  0
    4.7642    0.6810    4.1568 C   0  0  0  0  0  0  0  0  0  0  0  0
    5.0129    0.3800    5.4917 N   0  0  0  0  0  0  0  0  0  0  0  0
    5.7469    1.3256    3.4126 N   0  0  0  0  0  0  0  0  0  0  0  0
   -0.7323   -2.1024    0.4149 H   0  0  0  0  0  0  0  0  0  0  0  0
   -0.6591    0.1376    0.6569 H   0  0  0  0  0  0  0  0  0  0  0  0
    1.5141    1.4172    0.1669 H   0  0  0  0  0  0  0  0  0  0  0  0
    2.2598   -0.1060   -0.2924 H   0  0  0  0  0  0  0  0  0  0  0  0
    1.0646    0.5087    2.4654 H   0  0  0  0  0  0  0  0  0  0  0  0
    1.8267   -1.0174    2.0038 H   0  0  0  0  0  0  0  0  0  0  0  0
    3.9718    0.1434    1.5822 H   0  0  0  0  0  0  0  0  0  0  0  0
    3.2431    1.6960    2.0556 H   0  0  0  0  0  0  0  0  0  0  0  0
    2.8547   -0.1407    4.1909 H   0  0  0  0  0  0  0  0  0  0  0  0
    5.8980    0.6225    5.9304 H   0  0  0  0  0  0  0  0  0  0  0  0
    4.3166   -0.0909    6.0644 H   0  0  0  0  0  0  0  0  0  0  0  0
    6.6437    1.5837    3.8159 H   0  0  0  0  0  0  0  0  0  0  0  0
    5.5932    1.5580    2.4342 H   0  0  0  0  0  0  0  0  0  0  0  0
    0.6250   -0.2710   -2.4009 N   0  0  0  0  0  0  0  0  0  0  0  0
    0.4686   -0.0386   -3.8183 C   0  0  2  0  0  0  0  0  0  0  0  0
    1.0053   -1.2575   -4.5568 C   0  0  0  0  0  0  0  0  0  0  0  0
    1.9604   -1.9187   -4.1547 O   0  0  0  0  0  0  0  0  0  0  0  0
    1.1939    1.2246   -4.2552 C   0  0  0  0  0  0  0  0  0  0  0  0
    1.4383   -0.7981   -2.0971 H   0  0  0  0  0  0  0  0  0  0  0  0
   -0.6063    0.0590   -4.0061 H   0  0  0  0  0  0  0  0  0  0  0  0
    2.2722    1.1457   -4.0748 H   0  0  0  0  0  0  0  0  0  0  0  0
    1.0507    1.4149   -5.3240 H   0  0  0  0  0  0  0  0  0  0  0  0
    0.8273    2.0958   -3.7016 H   0  0  0  0  0  0  0  0  0  0  0  0
    0.3198   -1.4946   -5.7401 N   0  0  0  0  0  0  0  0  0  0  0  0
    0.6676   -2.5686   -6.6409 C   0  0  0  0  0  0  0  0  0  0  0  0
   -0.4847   -0.9206   -5.9751 H   0  0  0  0  0  0  0  0  0  0  0  0
    1.3709   -2.1972   -7.4008 H   0  0  0  0  0  0  0  0  0  0  0  0
    1.1384   -3.3849   -6.0736 H   0  0  0  0  0  0  0  0  0  0  0  0
   -0.2418   -2.9420   -7.1345 H   0  0  0  0  0  0  0  0  0  0  0  0
  1  3  1  0  0  0  0
  1  7  1  0  0  0  0
  1  2  2  0  0  0  0
 42 43  1  0  0  0  0
 43 51  1  0  0  0  0
 43 44  2  0  0  0  0
  8  9  1  0  0  0  0
  9 17  1  0  0  0  0
  9 10  2  0  0  0  0
 18 19  1  0  0  0  0
 19 41  1  0  0  0  0
 19 20  2  0  0  0  0
 25 26  1  0  0  0  0
 25 27  1  0  0  0  0
 24 25  2  0  0  0  0
 42 45  1  0  0  0  0
  8 11  1  0  0  0  0
 51 52  1  0  0  0  0
 21 22  1  0  0  0  0
 22 23  1  0  0  0  0
 18 21  1  0  0  0  0
 23 24  1  0  0  0  0
 41 42  1  0  0  0  0
  7  8  1  0  0  0  0
 17 18  1  0  0  0  0
  3  4  1  0  0  0  0
  3  5  1  0  0  0  0
  3  6  1  0  0  0  0
 45 48  1  0  0  0  0
 45 49  1  0  0  0  0
 45 50  1  0  0  0  0
 11 14  1  0  0  0  0
 11 15  1  0  0  0  0
 11 16  1  0  0  0  0
 52 54  1  0  0  0  0
 52 55  1  0  0  0  0
 52 56  1  0  0  0  0
 22 32  1  0  0  0  0
 22 33  1  0  0  0  0
 21 30  1  0  0  0  0
 21 31  1  0  0  0  0
 23 34  1  0  0  0  0
 23 35  1  0  0  0  0
 42 47  1  0  0  0  0
  8 13  1  0  0  0  0
 18 29  1  0  0  0  0
 26 37  1  0  0  0  0
 26 38  1  0  0  0  0
 27 39  1  0  0  0  0
 27 40  1  0  0  0  0
 51 53  1  0  0  0  0
  7 12  1  0  0  0  0
 41 46  1  0  0  0  0
 17 28  1  0  0  0  0
 24 36  1  0  0  0  0
M  CHG  1  24   1
M  END
$$$$

  -OEChem-05262214473D

 56 55  0     1  0  0  0  0  0999 V2000
    0.7735   -5.8042   -2.0022 C   0  0  0  0  0  0  0  0  0  0  0  0
   -0.2086   -6.3825   -1.5519 O   0  0  0  0  0  0  0  0  0  0  0  0
    1.4751   -6.3646   -3.1946 C   0  0  0  0  0  0  0  0  0  0  0  0
    2.2765   -7.0687   -2.9186 H   0  0  0  0  0  0  0  0  0  0  0  0
    0.7988   -6.9360   -3.8504 H   0  0  0  0  0  0  0  0  0  0  0  0
    1.9556   -5.6216   -3.8511 H   0  0  0  0  0  0  0  0  0  0  0  0
    1.3322   -4.6359   -1.5106 N   0  0  0  0  0  0  0  0  0  0  0  0
    0.8124   -3.9290   -0.3698 C   0  0  2  0  0  0  0  0  0  0  0  0
    1.0666   -2.4424   -0.5818 C   0  0  0  0  0  0  0  0  0  0  0  0
    2.0598   -2.0076   -1.1610 O   0  0  0  0  0  0  0  0  0  0  0  0
    1.4560   -4.4118    0.9207 C   0  0  0  0  0  0  0  0  0  0  0  0
    2.1528   -4.2578   -1.9805 H   0  0  0  0  0  0  0  0  0  0  0  0
   -0.2667   -4.1160   -0.3467 H   0  0  0  0  0  0  0  0  0  0  0  0
    2.5374   -4.2329    0.9160 H   0  0  0  0  0  0  0  0  0  0  0  0
    1.0390   -3.8932    1.7903 H   0  0  0  0  0  0  0  0  0  0  0  0
    1.2976   -5.4871    1.0566 H   0  0  0  0  0  0  0  0  0  0  0  0
    0.0755   -1.6529   -0.0105 N   0  0  0  0  0  0  0  0  0  0  0  0
    0.1113   -0.2132   -0.0391 C   0  0  2  0  0  0  0  0  0  0  0  0
   -0.2574    0.2263   -1.4521 C   0  0  0  0  0  0  0  0  0  0  0  0
   -1.0779    1.1118   -1.6844 O   0  0  0  0  0  0  0  0  0  0  0  0
    1.4873    0.3364    0.3505 C   0  0  0  0  0  0  0  0  0  0  0  0
    1.8308    0.0631    1.8198 C   0  0  0  0  0  0  0  0  0  0  0  0
    3.2014    0.6123    2.2020 C   0  0  0  0  0  0  0  0  0  0  0  0
    3.5349    0.3295    3.5963 N   0  3  0  0  0  0  0  0  0  0  0  0
    4.7642    0.6810    4.1568 C   0  0  0  0  0  0  0  0  0  0  0  0
    5.0129    0.3800    5.4917 N   0  0  0  0  0  0  0  0  0  0  0  0
    5.7469    1.3256    3.4126 N   0  0  0  0  0  0  0  0  0  0  0  0
   -0.7323   -2.1024    0.4149 H   0  0  0  0  0  0  0  0  0  0  0  0
   -0.6591    0.1376    0.6569 H   0  0  0  0  0  0  0  0  0  0  0  0
    1.5141    1.4172    0.1669 H   0  0  0  0  0  0  0  0  0  0  0  0
    2.2598   -0.1060   -0.2924 H   0  0  0  0  0  0  0  0  0  0  0  0
    1.0646    0.5087    2.4654 H   0  0  0  0  0  0  0  0  0  0  0  0
    1.8267   -1.0174    2.0038 H   0  0  0  0  0  0  0  0  0  0  0  0
    3.9718    0.1434    1.5822 H   0  0  0  0  0  0  0  0  0  0  0  0
    3.2431    1.6960    2.0556 H   0  0  0  0  0  0  0  0  0  0  0  0
    2.8547   -0.1407    4.1909 H   0  0  0  0  0  0  0  0  0  0  0  0
    5.8980    0.6225    5.9304 H   0  0  0  0  0  0  0  0  0  0  0  0
    4.3166   -0.0909    6.0644 H   0  0  0  0  0  0  0  0  0  0  0  0
    6.6437    1.5837    3.8159 H   0  0  0  0  0  0  0  0  0  0  0  0
    5.5932    1.5580    2.4342 H   0  0  0  0  0  0  0  0  0  0  0  0
    0.4006   -0.5199   -2.4198 N   0  0  0  0  0  0  0  0  0  0  0  0
    0.1878   -0.3327   -3.8365 C   0  0  2  0  0  0  0  0  0  0  0  0
    0.3572   -1.6831   -4.5201 C   0  0  0  0  0  0  0  0  0  0  0  0
    1.1577   -2.5334   -4.1364 O   0  0  0  0  0  0  0  0  0  0  0  0
    1.1539    0.6920   -4.4104 C   0  0  0  0  0  0  0  0  0  0  0  0
    1.0877   -1.2113   -2.1341 H   0  0  0  0  0  0  0  0  0  0  0  0
   -0.8448    0.0120   -3.9584 H   0  0  0  0  0  0  0  0  0  0  0  0
    2.1936    0.3640   -4.2975 H   0  0  0  0  0  0  0  0  0  0  0  0
    0.9725    0.8538   -5.4781 H   0  0  0  0  0  0  0  0  0  0  0  0
    1.0514    1.6544   -3.8975 H   0  0  0  0  0  0  0  0  0  0  0  0
   -0.4600   -1.8100   -5.6347 N   0  0  0  0  0  0  0  0  0  0  0  0
   -0.4524   -2.9828   -6.4775 C   0  0  0  0  0  0  0  0  0  0  0  0
   -1.1216   -1.0717   -5.8558 H   0  0  0  0  0  0  0  0  0  0  0  0
    0.2541   -2.8340   -7.3074 H   0  0  0  0  0  0  0  0  0  0  0  0
   -0.1438   -3.8573   -5.8859 H   0  0  0  0  0  0  0  0  0  0  0  0
   -1.4618   -3.1507   -6.8810 H   0  0  0  0  0  0  0  0  0  0  0  0
  1  3  1  0  0  0  0
  1  7  1  0  0  0  0
  1  2  2  0  0  0  0
 42 43  1  0  0  0  0
 43 51  1  0  0  0  0
 43 44  2  0  0  0  0
  8  9  1  0  0  0  0
  9 17  1  0  0  0  0
  9 10  2  0  0  0  0
 18 19  1  0  0  0  0
 19 41  1  0  0  0  0
 19 20  2  0  0  0  0
 25 26  1  0  0  0  0
 25 27  1  0  0  0  0
 24 25  2  0  0  0  0
 42 45  1  0  0  0  0
  8 11  1  0  0  0  0
 51 52  1  0  0  0  0
 21 22  1  0  0  0  0
 22 23  1  0  0  0  0
 18 21  1  0  0  0  0
 23 24  1  0  0  0  0
 41 42  1  0  0  0  0
  7  8  1  0  0  0  0
 17 18  1  0  0  0  0
  3  4  1  0  0  0  0
  3  5  1  0  0  0  0
  3  6  1  0  0  0  0
 45 48  1  0  0  0  0
 45 49  1  0  0  0  0
 45 50  1  0  0  0  0
 11 14  1  0  0  0  0
 11 15  1  0  0  0  0
 11 16  1  0  0  0  0
 52 54  1  0  0  0  0
 52 55  1  0  0  0  0
 52 56  1  0  0  0  0
 22 32  1  0  0  0  0
 22 33  1  0  0  0  0
 21 30  1  0  0  0  0
 21 31  1  0  0  0  0
 23 34  1  0  0  0  0
 23 35  1  0  0  0  0
 42 47  1  0  0  0  0
  8 13  1  0  0  0  0
 18 29  1  0  0  0  0
 26 37  1  0  0  0  0
 26 38  1  0  0  0  0
 27 39  1  0  0  0  0
 27 40  1  0  0  0  0
 51 53  1  0  0  0  0
  7 12  1  0  0  0  0
 41 46  1  0  0  0  0
 17 28  1  0  0  0  0
 24 36  1  0  0  0  0
M  CHG  1  24   1
M  END
$$$$

  -OEChem-05262214473D

 56 55  0     1  0  0  0  0  0999 V2000
    0.7735   -5.8042   -2.0022 C   0  0  0  0  0  0  0  0  0  0  0  0
   -0.2086   -6.3825   -1.5519 O   0  0  0  0  0  0  0  0  0  0  0  0
    1.4751   -6.3646   -3.1946 C   0  0  0  0  0  0  0  0  0  0  0  0
    2.2765   -7.0687   -2.9186 H   0  0  0  0  0  0  0  0  0  0  0  0
    0.7988   -6.9360   -3.8504 H   0  0  0  0  0  0  0  0  0  0  0  0
    1.9556   -5.6216   -3.8511 H   0  0  0  0  0  0  0  0  0  0  0  0
    1.3322   -4.6359   -1.5106 N   0  0  0  0  0  0  0  0  0  0  0  0
    0.8124   -3.9290   -0.3698 C   0  0  2  0  0  0  0  0  0  0  0  0
    1.0666   -2.4424   -0.5818 C   0  0  0  0  0  0  0  0  0  0  0  0
    2.0598   -2.0076   -1.1610 O   0  0  0  0  0  0  0  0  0  0  0  0
    1.4560   -4.4118    0.9207 C   0  0  0  0  0  0  0  0  0  0  0  0
    2.1528   -4.2578   -1.9805 H   0  0  0  0  0  0  0  0  0  0  0  0
   -0.2667   -4.1160   -0.3467 H   0  0  0  0  0  0  0  0  0  0  0  0
    2.5374   -4.2329    0.9160 H   0  0  0  0  0  0  0  0  0  0  0  0
    1.0390   -3.8932    1.7903 H   0  0  0  0  0  0  0  0  0  0  0  0
    1.2976   -5.4871    1.0566 H   0  0  0  0  0  0  0  0  0  0  0  0
    0.0755   -1.6529   -0.0105 N   0  0  0  0  0  0  0  0  0  0  0  0
    0.1113   -0.2132   -0.0391 C   0  0  2  0  0  0  0  0  0  0  0  0
   -0.2574    0.2263   -1.4521 C   0  0  0  0  0  0  0  0  0  0  0  0
   -0.8604    1.2704   -1.6918 O   0  0  0  0  0  0  0  0  0  0  0  0
    1.4873    0.3364    0.3505 C   0  0  0  0  0  0  0  0  0  0  0  0
    1.8308    0.0631    1.8198 C   0  0  0  0  0  0  0  0  0  0  0  0
    3.2014    0.6123    2.2020 C   0  0  0  0  0  0  0  0  0  0  0  0
    3.5349    0.3295    3.5963 N   0  3  0  0  0  0  0  0  0  0  0  0
    4.7642    0.6810    4.1568 C   0  0  0  0  0  0  0  0  0  0  0  0
    5.0129    0.3800    5.4917 N   0  0  0  0  0  0  0  0  0  0  0  0
    5.7469    1.3256    3.4126 N   0  0  0  0  0  0  0  0  0  0  0  0
   -0.7323   -2.1024    0.4149 H   0  0  0  0  0  0  0  0  0  0  0  0
   -0.6591    0.1376    0.6569 H   0  0  0  0  0  0  0  0  0  0  0  0
    1.5141    1.4172    0.1669 H   0  0  0  0  0  0  0  0  0  0  0  0
    2.2598   -0.1060   -0.2924 H   0  0  0  0  0  0  0  0  0  0  0  0
    1.0646    0.5087    2.4654 H   0  0  0  0  0  0  0  0  0  0  0  0
    1.8267   -1.0174    2.0038 H   0  0  0  0  0  0  0  0  0  0  0  0
    3.9718    0.1434    1.5822 H   0  0  0  0  0  0  0  0  0  0  0  0
    3.2431    1.6960    2.0556 H   0  0  0  0  0  0  0  0  0  0  0  0
    2.8547   -0.1407    4.1909 H   0  0  0  0  0  0  0  0  0  0  0  0
    5.8980    0.6225    5.9304 H   0  0  0  0  0  0  0  0  0  0  0  0
    4.3166   -0.0909    6.0644 H   0  0  0  0  0  0  0  0  0  0  0  0
    6.6437    1.5837    3.8159 H   0  0  0  0  0  0  0  0  0  0  0  0
    5.5932    1.5580    2.4342 H   0  0  0  0  0  0  0  0  0  0  0  0
    0.1227   -0.7077   -2.4057 N   0  0  0  0  0  0  0  0  0  0  0  0
   -0.1553   -0.5506   -3.8148 C   0  0  2  0  0  0  0  0  0  0  0  0
   -0.3682   -1.9364   -4.4095 C   0  0  0  0  0  0  0  0  0  0  0  0
    0.2363   -2.9334   -4.0204 O   0  0  0  0  0  0  0  0  0  0  0  0
    0.9759    0.1775   -4.5241 C   0  0  0  0  0  0  0  0  0  0  0  0
    0.6471   -1.5286   -2.1179 H   0  0  0  0  0  0  0  0  0  0  0  0
   -1.0830    0.0269   -3.8916 H   0  0  0  0  0  0  0  0  0  0  0  0
    1.9137   -0.3861   -4.4577 H   0  0  0  0  0  0  0  0  0  0  0  0
    0.7510    0.3210   -5.5861 H   0  0  0  0  0  0  0  0  0  0  0  0
    1.1473    1.1620   -4.0757 H   0  0  0  0  0  0  0  0  0  0  0  0
   -1.2809   -1.9210   -5.4549 N   0  0  0  0  0  0  0  0  0  0  0  0
   -1.6213   -3.1041   -6.2101 C   0  0  0  0  0  0  0  0  0  0  0  0
   -1.7642   -1.0574   -5.6836 H   0  0  0  0  0  0  0  0  0  0  0  0
   -0.9705   -3.1754   -7.0940 H   0  0  0  0  0  0  0  0  0  0  0  0
   -1.4817   -3.9944   -5.5793 H   0  0  0  0  0  0  0  0  0  0  0  0
   -2.6714   -3.0439   -6.5321 H   0  0  0  0  0  0  0  0  0  0  0  0
  1  3  1  0  0  0  0
  1  7  1  0  0  0  0
  1  2  2  0  0  0  0
 42 43  1  0  0  0  0
 43 51  1  0  0  0  0
 43 44  2  0  0  0  0
  8  9  1  0  0  0  0
  9 17  1  0  0  0  0
  9 10  2  0  0  0  0
 18 19  1  0  0  0  0
 19 41  1  0  0  0  0
 19 20  2  0  0  0  0
 25 26  1  0  0  0  0
 25 27  1  0  0  0  0
 24 25  2  0  0  0  0
 42 45  1  0  0  0  0
  8 11  1  0  0  0  0
 51 52  1  0  0  0  0
 21 22  1  0  0  0  0
 22 23  1  0  0  0  0
 18 21  1  0  0  0  0
 23 24  1  0  0  0  0
 41 42  1  0  0  0  0
  7  8  1  0  0  0  0
 17 18  1  0  0  0  0
  3  4  1  0  0  0  0
  3  5  1  0  0  0  0
  3  6  1  0  0  0  0
 45 48  1  0  0  0  0
 45 49  1  0  0  0  0
 45 50  1  0  0  0  0
 11 14  1  0  0  0  0
 11 15  1  0  0  0  0
 11 16  1  0  0  0  0
 52 54  1  0  0  0  0
 52 55  1  0  0  0  0
 52 56  1  0  0  0  0
 22 32  1  0  0  0  0
 22 33  1  0  0  0  0
 21 30  1  0  0  0  0
 21 31  1  0  0  0  0
 23 34  1  0  0  0  0
 23 35  1  0  0  0  0
 42 47  1  0  0  0  0
  8 13  1  0  0  0  0
 18 29  1  0  0  0  0
 26 37  1  0  0  0  0
 26 38  1  0  0  0  0
 27 39  1  0  0  0  0
 27 40  1  0  0  0  0
 51 53  1  0  0  0  0
  7 12  1  0  0  0  0
 41 46  1  0  0  0  0
 17 28  1  0  0  0  0
 24 36  1  0  0  0  0
M  CHG  1  24   1
M  END
$$$$

  -OEChem-05262214473D

 56 55  0     1  0  0  0  0  0999 V2000
    0.7735   -5.8042   -2.0022 C   0  0  0  0  0  0  0  0  0  0  0  0
   -0.2086   -6.3825   -1.5519 O   0  0  0  0  0  0  0  0  0  0  0  0
    1.4751   -6.3646   -3.1946 C   0  0  0  0  0  0  0  0  0  0  0  0
    2.2765   -7.0687   -2.9186 H   0  0  0  0  0  0  0  0  0  0  0  0
    0.7988   -6.9360   -3.8504 H   0  0  0  0  0  0  0  0  0  0  0  0
    1.9556   -5.6216   -3.8511 H   0  0  0  0  0  0  0  0  0  0  0  0
    1.3322   -4.6359   -1.5106 N   0  0  0  0  0  0  0  0  0  0  0  0
    0.8124   -3.9290   -0.3698 C   0  0  2  0  0  0  0  0  0  0  0  0
    1.0666   -2.4424   -0.5818 C   0  0  0  0  0  0  0  0  0  0  0  0
    2.0598   -2.0076   -1.1610 O   0  0  0  0  0  0  0  0  0  0  0  0
    1.4560   -4.4118    0.9207 C   0  0  0  0  0  0  0  0  0  0  0  0
    2.1528   -4.2578   -1.9805 H   0  0  0  0  0  0  0  0  0  0  0  0
   -0.2667   -4.1160   -0.3467 H   0  0  0  0  0  0  0  0  0  0  0  0
    2.5374   -4.2329    0.9160 H   0  0  0  0  0  0  0  0  0  0  0  0
    1.0390   -3.8932    1.7903 H   0  0  0  0  0  0  0  0  0  0  0  0
    1.2976   -5.4871    1.0566 H   0  0  0  0  0  0  0  0  0  0  0  0
    0.0755   -1.6529   -0.0105 N   0  0  0  0  0  0  0  0  0  0  0  0
    0.1113   -0.2132   -0.0391 C   0  0  2  0  0  0  0  0  0  0  0  0
   -0.2574    0.2263   -1.4521 C   0  0  0  0  0  0  0  0  0  0  0  0
   -0.6129    1.3710   -1.7251 O   0  0  0  0  0  0  0  0  0  0  0  0
    1.4873    0.3364    0.3505 C   0  0  0  0  0  0  0  0  0  0  0  0
    1.8308    0.0631    1.8198 C   0  0  0  0  0  0  0  0  0  0  0  0
    3.2014    0.6123    2.2020 C   0  0  0  0  0  0  0  0  0  0  0  0
    3.5349    0.3295    3.5963 N   0  3  0  0  0  0  0  0  0  0  0  0
    4.7642    0.6810    4.1568 C   0  0  0  0  0  0  0  0  0  0  0  0
    5.0129    0.3800    5.4917 N   0  0  0  0  0  0  0  0  0  0  0  0
    5.7469    1.3256    3.4126 N   0  0  0  0  0  0  0  0  0  0  0  0
   -0.7323   -2.1024    0.4149 H   0  0  0  0  0  0  0  0  0  0  0  0
   -0.6591    0.1376    0.6569 H   0  0  0  0  0  0  0  0  0  0  0  0
    1.5141    1.4172    0.1669 H   0  0  0  0  0  0  0  0  0  0  0  0
    2.2598   -0.1060   -0.2924 H   0  0  0  0  0  0  0  0  0  0  0  0
    1.0646    0.5087    2.4654 H   0  0  0  0  0  0  0  0  0  0  0  0
    1.8267   -1.0174    2.0038 H   0  0  0  0  0  0  0  0  0  0  0  0
    3.9718    0.1434    1.5822 H   0  0  0  0  0  0  0  0  0  0  0  0
    3.2431    1.6960    2.0556 H   0  0  0  0  0  0  0  0  0  0  0  0
    2.8547   -0.1407    4.1909 H   0  0  0  0  0  0  0  0  0  0  0  0
    5.8980    0.6225    5.9304 H   0  0  0  0  0  0  0  0  0  0  0  0
    4.3166   -0.0909    6.0644 H   0  0  0  0  0  0  0  0  0  0  0  0
    6.6437    1.5837    3.8159 H   0  0  0  0  0  0  0  0  0  0  0  0
    5.5932    1.5580    2.4342 H   0  0  0  0  0  0  0  0  0  0  0  0
   -0.1897   -0.8216   -2.3596 N   0  0  0  0  0  0  0  0  0  0  0  0
   -0.5373   -0.6774   -3.7545 C   0  0  2  0  0  0  0  0  0  0  0  0
   -1.1213   -2.0002   -4.2328 C   0  0  0  0  0  0  0  0  0  0  0  0
   -0.7409   -3.0917   -3.8145 O   0  0  0  0  0  0  0  0  0  0  0  0
    0.6721   -0.2840   -4.5883 C   0  0  0  0  0  0  0  0  0  0  0  0
    0.1467   -1.7284   -2.0494 H   0  0  0  0  0  0  0  0  0  0  0  0
   -1.3045    0.1026   -3.8103 H   0  0  0  0  0  0  0  0  0  0  0  0
    1.4515   -1.0535   -4.5447 H   0  0  0  0  0  0  0  0  0  0  0  0
    0.4011   -0.1473   -5.6404 H   0  0  0  0  0  0  0  0  0  0  0  0
    1.1087    0.6523   -4.2242 H   0  0  0  0  0  0  0  0  0  0  0  0
   -2.0871   -1.8202   -5.2132 N   0  0  0  0  0  0  0  0  0  0  0  0
   -2.7596   -2.9243   -5.8571 C   0  0  0  0  0  0  0  0  0  0  0  0
   -2.3687   -0.8787   -5.4703 H   0  0  0  0  0  0  0  0  0  0  0  0
   -2.2192   -3.1983   -6.7752 H   0  0  0  0  0  0  0  0  0  0  0  0
   -2.7839   -3.7868   -5.1749 H   0  0  0  0  0  0  0  0  0  0  0  0
   -3.7882   -2.6289   -6.1115 H   0  0  0  0  0  0  0  0  0  0  0  0
  1  3  1  0  0  0  0
  1  7  1  0  0  0  0
  1  2  2  0  0  0  0
 42 43  1  0  0  0  0
 43 51  1  0  0  0  0
 43 44  2  0  0  0  0
  8  9  1  0  0  0  0
  9 17  1  0  0  0  0
  9 10  2  0  0  0  0
 18 19  1  0  0  0  0
 19 41  1  0  0  0  0
 19 20  2  0  0  0  0
 25 26  1  0  0  0  0
 25 27  1  0  0  0  0
 24 25  2  0  0  0  0
 42 45  1  0  0  0  0
  8 11  1  0  0  0  0
 51 52  1  0  0  0  0
 21 22  1  0  0  0  0
 22 23  1  0  0  0  0
 18 21  1  0  0  0  0
 23 24  1  0  0  0  0
 41 42  1  0  0  0  0
  7  8  1  0  0  0  0
 17 18  1  0  0  0  0
  3  4  1  0  0  0  0
  3  5  1  0  0  0  0
  3  6  1  0  0  0  0
 45 48  1  0  0  0  0
 45 49  1  0  0  0  0
 45 50  1  0  0  0  0
 11 14  1  0  0  0  0
 11 15  1  0  0  0  0
 11 16  1  0  0  0  0
 52 54  1  0  0  0  0
 52 55  1  0  0  0  0
 52 56  1  0  0  0  0
 22 32  1  0  0  0  0
 22 33  1  0  0  0  0
 21 30  1  0  0  0  0
 21 31  1  0  0  0  0
 23 34  1  0  0  0  0
 23 35  1  0  0  0  0
 42 47  1  0  0  0  0
  8 13  1  0  0  0  0
 18 29  1  0  0  0  0
 26 37  1  0  0  0  0
 26 38  1  0  0  0  0
 27 39  1  0  0  0  0
 27 40  1  0  0  0  0
 51 53  1  0  0  0  0
  7 12  1  0  0  0  0
 41 46  1  0  0  0  0
 17 28  1  0  0  0  0
 24 36  1  0  0  0  0
M  CHG  1  24   1
M  END
$$$$

  -OEChem-05262214473D

 56 55  0     1  0  0  0  0  0999 V2000
    0.7735   -5.8042   -2.0022 C   0  0  0  0  0  0  0  0  0  0  0  0
   -0.2086   -6.3825   -1.5519 O   0  0  0  0  0  0  0  0  0  0  0  0
    1.4751   -6.3646   -3.1946 C   0  0  0  0  0  0  0  0  0  0  0  0
    2.2765   -7.0687   -2.9186 H   0  0  0  0  0  0  0  0  0  0  0  0
    0.7988   -6.9360   -3.8504 H   0  0  0  0  0  0  0  0  0  0  0  0
    1.9556   -5.6216   -3.8511 H   0  0  0  0  0  0  0  0  0  0  0  0
    1.3322   -4.6359   -1.5106 N   0  0  0  0  0  0  0  0  0  0  0  0
    0.8124   -3.9290   -0.3698 C   0  0  2  0  0  0  0  0  0  0  0  0
    1.0666   -2.4424   -0.5818 C   0  0  0  0  0  0  0  0  0  0  0  0
    2.0598   -2.0076   -1.1610 O   0  0  0  0  0  0  0  0  0  0  0  0
    1.4560   -4.4118    0.9207 C   0  0  0  0  0  0  0  0  0  0  0  0
    2.1528   -4.2578   -1.9805 H   0  0  0  0  0  0  0  0  0  0  0  0
   -0.2667   -4.1160   -0.3467 H   0  0  0  0  0  0  0  0  0  0  0  0
    2.5374   -4.2329    0.9160 H   0  0  0  0  0  0  0  0  0  0  0  0
    1.0390   -3.8932    1.7903 H   0  0  0  0  0  0  0  0  0  0  0  0
    1.2976   -5.4871    1.0566 H   0  0  0  0  0  0  0  0  0  0  0  0
    0.0755   -1.6529   -0.0105 N   0  0  0  0  0  0  0  0  0  0  0  0
    0.1113   -0.2132   -0.0391 C   0  0  2  0  0  0  0  0  0  0  0  0
   -0.2574    0.2263   -1.4521 C   0  0  0  0  0  0  0  0  0  0  0  0
   -0.3521    1.4067   -1.7820 O   0  0  0  0  0  0  0  0  0  0  0  0
    1.4873    0.3364    0.3505 C   0  0  0  0  0  0  0  0  0  0  0  0
    1.8308    0.0631    1.8198 C   0  0  0  0  0  0  0  0  0  0  0  0
    3.2014    0.6123    2.2020 C   0  0  0  0  0  0  0  0  0  0  0  0
    3.5349    0.3295    3.5963 N   0  3  0  0  0  0  0  0  0  0  0  0
    4.7642    0.6810    4.1568 C   0  0  0  0  0  0  0  0  0  0  0  0
    5.0129    0.3800    5.4917 N   0  0  0  0  0  0  0  0  0  0  0  0
    5.7469    1.3256    3.4126 N   0  0  0  0  0  0  0  0  0  0  0  0
   -0.7323   -2.1024    0.4149 H   0  0  0  0  0  0  0  0  0  0  0  0
   -0.6591    0.1376    0.6569 H   0  0  0  0  0  0  0  0  0  0  0  0
    1.5141    1.4172    0.1669 H   0  0  0  0  0  0  0  0  0  0  0  0
    2.2598   -0.1060   -0.2924 H   0  0  0  0  0  0  0  0  0  0  0  0
    1.0646    0.5087    2.4654 H   0  0  0  0  0  0  0  0  0  0  0  0
    1.8267   -1.0174    2.0038 H   0  0  0  0  0  0  0  0  0  0  0  0
    3.9718    0.1434    1.5822 H   0  0  0  0  0  0  0  0  0  0  0  0
    3.2431    1.6960    2.0556 H   0  0  0  0  0  0  0  0  0  0  0  0
    2.8547   -0.1407    4.1909 H   0  0  0  0  0  0  0  0  0  0  0  0
    5.8980    0.6225    5.9304 H   0  0  0  0  0  0  0  0  0  0  0  0
    4.3166   -0.0909    6.0644 H   0  0  0  0  0  0  0  0  0  0  0  0
    6.6437    1.5837    3.8159 H   0  0  0  0  0  0  0  0  0  0  0  0
    5.5932    1.5580    2.4342 H   0  0  0  0  0  0  0  0  0  0  0  0
   -0.5153   -0.8538   -2.2846 N   0  0  0  0  0  0  0  0  0  0  0  0
   -0.9323   -0.7045   -3.6599 C   0  0  2  0  0  0  0  0  0  0  0  0
   -1.8509   -1.8701   -4.0019 C   0  0  0  0  0  0  0  0  0  0  0  0
   -1.7075   -2.9973   -3.5329 O   0  0  0  0  0  0  0  0  0  0  0  0
    0.2632   -0.6609   -4.5989 C   0  0  0  0  0  0  0  0  0  0  0  0
   -0.3795   -1.7972   -1.9335 H   0  0  0  0  0  0  0  0  0  0  0  0
   -1.4942    0.2339   -3.7199 H   0  0  0  0  0  0  0  0  0  0  0  0
    0.8385   -1.5928   -4.5525 H   0  0  0  0  0  0  0  0  0  0  0  0
   -0.0531   -0.5191   -5.6376 H   0  0  0  0  0  0  0  0  0  0  0  0
    0.9380    0.1598   -4.3328 H   0  0  0  0  0  0  0  0  0  0  0  0
   -2.8236   -1.5143   -4.9258 N   0  0  0  0  0  0  0  0  0  0  0  0
   -3.7896   -2.4555   -5.4424 C   0  0  0  0  0  0  0  0  0  0  0  0
   -2.8938   -0.5478   -5.2303 H   0  0  0  0  0  0  0  0  0  0  0  0
   -3.4071   -2.9009   -6.3727 H   0  0  0  0  0  0  0  0  0  0  0  0
   -3.9618   -3.2487   -4.7000 H   0  0  0  0  0  0  0  0  0  0  0  0
   -4.7360   -1.9338   -5.6479 H   0  0  0  0  0  0  0  0  0  0  0  0
  1  3  1  0  0  0  0
  1  7  1  0  0  0  0
  1  2  2  0  0  0  0
 42 43  1  0  0  0  0
 43 51  1  0  0  0  0
 43 44  2  0  0  0  0
  8  9  1  0  0  0  0
  9 17  1  0  0  0  0
  9 10  2  0  0  0  0
 18 19  1  0  0  0  0
 19 41  1  0  0  0  0
 19 20  2  0  0  0  0
 25 26  1  0  0  0  0
 25 27  1  0  0  0  0
 24 25  2  0  0  0  0
 42 45  1  0  0  0  0
  8 11  1  0  0  0  0
 51 52  1  0  0  0  0
 21 22  1  0  0  0  0
 22 23  1  0  0  0  0
 18 21  1  0  0  0  0
 23 24  1  0  0  0  0
 41 42  1  0  0  0  0
  7  8  1  0  0  0  0
 17 18  1  0  0  0  0
  3  4  1  0  0  0  0
  3  5  1  0  0  0  0
  3  6  1  0  0  0  0
 45 48  1  0  0  0  0
 45 49  1  0  0  0  0
 45 50  1  0  0  0  0
 11 14  1  0  0  0  0
 11 15  1  0  0  0  0
 11 16  1  0  0  0  0
 52 54  1  0  0  0  0
 52 55  1  0  0  0  0
 52 56  1  0  0  0  0
 22 32  1  0  0  0  0
 22 33  1  0  0  0  0
 21 30  1  0  0  0  0
 21 31  1  0  0  0  0
 23 34  1  0  0  0  0
 23 35  1  0  0  0  0
 42 47  1  0  0  0  0
  8 13  1  0  0  0  0
 18 29  1  0  0  0  0
 26 37  1  0  0  0  0
 26 38  1  0  0  0  0
 27 39  1  0  0  0  0
 27 40  1  0  0  0  0
 51 53  1  0  0  0  0
  7 12  1  0  0  0  0
 41 46  1  0  0  0  0
 17 28  1  0  0  0  0
 24 36  1  0  0  0  0
M  CHG  1  24   1
M  END
$$$$

  -OEChem-05262214473D

 56 55  0     1  0  0  0  0  0999 V2000
    0.7735   -5.8042   -2.0022 C   0  0  0  0  0  0  0  0  0  0  0  0
   -0.2086   -6.3825   -1.5519 O   0  0  0  0  0  0  0  0  0  0  0  0
    1.4751   -6.3646   -3.1946 C   0  0  0  0  0  0  0  0  0  0  0  0
    2.2765   -7.0687   -2.9186 H   0  0  0  0  0  0  0  0  0  0  0  0
    0.7988   -6.9360   -3.8504 H   0  0  0  0  0  0  0  0  0  0  0  0
    1.9556   -5.6216   -3.8511 H   0  0  0  0  0  0  0  0  0  0  0  0
    1.3322   -4.6359   -1.5106 N   0  0  0  0  0  0  0  0  0  0  0  0
    0.8124   -3.9290   -0.3698 C   0  0  2  0  0  0  0  0  0  0  0  0
    1.0666   -2.4424   -0.5818 C   0  0  0  0  0  0  0  0  0  0  0  0
    2.0598   -2.0076   -1.1610 O   0  0  0  0  0  0  0  0  0  0  0  0
    1.4560   -4.4118    0.9207 C   0  0  0  0  0  0  0  0  0  0  0  0
    2.1528   -4.2578   -1.9805 H   0  0  0  0  0  0  0  0  0  0  0  0
   -0.2667   -4.1160   -0.3467 H   0  0  0  0  0  0  0  0  0  0  0  0
    2.5374   -4.2329    0.9160 H   0  0  0  0  0  0  0  0  0  0  0  0
    1.0390   -3.8932    1.7903 H   0  0  0  0  0  0  0  0  0  0  0  0
    1.2976   -5.4871    1.0566 H   0  0  0  0  0  0  0  0  0  0  0  0
    0.0755   -1.6529   -0.0105 N   0  0  0  0  0  0  0  0  0  0  0  0
    0.1113   -0.2132   -0.0391 C   0  0  2  0  0  0  0  0  0  0  0  0
   -0.2574    0.2263   -1.4521 C   0  0  0  0  0  0  0  0  0  0  0  0
   -0.0960    1.3751   -1.8587 O   0  0  0  0  0  0  0  0  0  0  0  0
    1.4873    0.3364    0.3505 C   0  0  0  0  0  0  0  0  0  0  0  0
    1.8308    0.0631    1.8198 C   0  0  0  0  0  0  0  0  0  0  0  0
    3.2014    0.6123    2.2020 C   0  0  0  0  0  0  0  0  0  0  0  0
    3.5349    0.3295    3.5963 N   0  3  0  0  0  0  0  0  0  0  0  0
    4.7642    0.6810    4.1568 C   0  0  0  0  0  0  0  0  0  0  0  0
    5.0129    0.3800    5.4917 N   0  0  0  0  0  0  0  0  0  0  0  0
    5.7469    1.3256    3.4126 N   0  0  0  0  0  0  0  0  0  0  0  0
   -0.7323   -2.1024    0.4149 H   0  0  0  0  0  0  0  0  0  0  0  0
   -0.6591    0.1376    0.6569 H   0  0  0  0  0  0  0  0  0  0  0  0
    1.5141    1.4172    0.1669 H   0  0  0  0  0  0  0  0  0  0  0  0
    2.2598   -0.1060   -0.2924 H   0  0  0  0  0  0  0  0  0  0  0  0
    1.0646    0.5087    2.4654 H   0  0  0  0  0  0  0  0  0  0  0  0
    1.8267   -1.0174    2.0038 H   0  0  0  0  0  0  0  0  0  0  0  0
    3.9718    0.1434    1.5822 H   0  0  0  0  0  0  0  0  0  0  0  0
    3.2431    1.6960    2.0556 H   0  0  0  0  0  0  0  0  0  0  0  0
    2.8547   -0.1407    4.1909 H   0  0  0  0  0  0  0  0  0  0  0  0
    5.8980    0.6225    5.9304 H   0  0  0  0  0  0  0  0  0  0  0  0
    4.3166   -0.0909    6.0644 H   0  0  0  0  0  0  0  0  0  0  0  0
    6.6437    1.5837    3.8159 H   0  0  0  0  0  0  0  0  0  0  0  0
    5.5932    1.5580    2.4342 H   0  0  0  0  0  0  0  0  0  0  0  0
   -0.8320   -0.8021   -2.1859 N   0  0  0  0  0  0  0  0  0  0  0  0
   -1.3132   -0.6301   -3.5373 C   0  0  2  0  0  0  0  0  0  0  0  0
   -2.5072   -1.5551   -3.7326 C   0  0  0  0  0  0  0  0  0  0  0  0
   -2.5974   -2.6567   -3.1947 O   0  0  0  0  0  0  0  0  0  0  0  0
   -0.2230   -0.9276   -4.5550 C   0  0  0  0  0  0  0  0  0  0  0  0
   -0.8956   -1.7301   -1.7779 H   0  0  0  0  0  0  0  0  0  0  0  0
   -1.6392    0.4119   -3.6267 H   0  0  0  0  0  0  0  0  0  0  0  0
    0.1164   -1.9672   -4.4805 H   0  0  0  0  0  0  0  0  0  0  0  0
   -0.5809   -0.7692   -5.5776 H   0  0  0  0  0  0  0  0  0  0  0  0
    0.6470   -0.2817   -4.3942 H   0  0  0  0  0  0  0  0  0  0  0  0
   -3.4402   -1.0243   -4.6124 N   0  0  0  0  0  0  0  0  0  0  0  0
   -4.6412   -1.7297   -4.9944 C   0  0  0  0  0  0  0  0  0  0  0  0
   -3.3037   -0.0873   -4.9800 H   0  0  0  0  0  0  0  0  0  0  0  0
   -4.4532   -2.3036   -5.9138 H   0  0  0  0  0  0  0  0  0  0  0  0
   -4.9351   -2.4168   -4.1872 H   0  0  0  0  0  0  0  0  0  0  0  0
   -5.4502   -1.0062   -5.1728 H   0  0  0  0  0  0  0  0  0  0  0  0
  1  3  1  0  0  0  0
  1  7  1  0  0  0  0
  1  2  2  0  0  0  0
 42 43  1  0  0  0  0
 43 51  1  0  0  0  0
 43 44  2  0  0  0  0
  8  9  1  0  0  0  0
  9 17  1  0  0  0  0
  9 10  2  0  0  0  0
 18 19  1  0  0  0  0
 19 41  1  0  0  0  0
 19 20  2  0  0  0  0
 25 26  1  0  0  0  0
 25 27  1  0  0  0  0
 24 25  2  0  0  0  0
 42 45  1  0  0  0  0
  8 11  1  0  0  0  0
 51 52  1  0  0  0  0
 21 22  1  0  0  0  0
 22 23  1  0  0  0  0
 18 21  1  0  0  0  0
 23 24  1  0  0  0  0
 41 42  1  0  0  0  0
  7  8  1  0  0  0  0
 17 18  1  0  0  0  0
  3  4  1  0  0  0  0
  3  5  1  0  0  0  0
  3  6  1  0  0  0  0
 45 48  1  0  0  0  0
 45 49  1  0  0  0  0
 45 50  1  0  0  0  0
 11 14  1  0  0  0  0
 11 15  1  0  0  0  0
 11 16  1  0  0  0  0
 52 54  1  0  0  0  0
 52 55  1  0  0  0  0
 52 56  1  0  0  0  0
 22 32  1  0  0  0  0
 22 33  1  0  0  0  0
 21 30  1  0  0  0  0
 21 31  1  0  0  0  0
 23 34  1  0  0  0  0
 23 35  1  0  0  0  0
 42 47  1  0  0  0  0
  8 13  1  0  0  0  0
 18 29  1  0  0  0  0
 26 37  1  0  0  0  0
 26 38  1  0  0  0  0
 27 39  1  0  0  0  0
 27 40  1  0  0  0  0
 51 53  1  0  0  0  0
  7 12  1  0  0  0  0
 41 46  1  0  0  0  0
 17 28  1  0  0  0  0
 24 36  1  0  0  0  0
M  CHG  1  24   1
M  END
$$$$

  -OEChem-05262214473D

 56 55  0     1  0  0  0  0  0999 V2000
    0.7735   -5.8042   -2.0022 C   0  0  0  0  0  0  0  0  0  0  0  0
   -0.2086   -6.3825   -1.5519 O   0  0  0  0  0  0  0  0  0  0  0  0
    1.4751   -6.3646   -3.1946 C   0  0  0  0  0  0  0  0  0  0  0  0
    2.2765   -7.0687   -2.9186 H   0  0  0  0  0  0  0  0  0  0  0  0
    0.7988   -6.9360   -3.8504 H   0  0  0  0  0  0  0  0  0  0  0  0
    1.9556   -5.6216   -3.8511 H   0  0  0  0  0  0  0  0  0  0  0  0
    1.3322   -4.6359   -1.5106 N   0  0  0  0  0  0  0  0  0  0  0  0
    0.8124   -3.9290   -0.3698 C   0  0  2  0  0  0  0  0  0  0  0  0
    1.0666   -2.4424   -0.5818 C   0  0  0  0  0  0  0  0  0  0  0  0
    2.0598   -2.0076   -1.1610 O   0  0  0  0  0  0  0  0  0  0  0  0
    1.4560   -4.4118    0.9207 C   0  0  0  0  0  0  0  0  0  0  0  0
    2.1528   -4.2578   -1.9805 H   0  0  0  0  0  0  0  0  0  0  0  0
   -0.2667   -4.1160   -0.3467 H   0  0  0  0  0  0  0  0  0  0  0  0
    2.5374   -4.2329    0.9160 H   0  0  0  0  0  0  0  0  0  0  0  0
    1.0390   -3.8932    1.7903 H   0  0  0  0  0  0  0  0  0  0  0  0
    1.2976   -5.4871    1.0566 H   0  0  0  0  0  0  0  0  0  0  0  0
    0.0755   -1.6529   -0.0105 N   0  0  0  0  0  0  0  0  0  0  0  0
    0.1113   -0.2132   -0.0391 C   0  0  2  0  0  0  0  0  0  0  0  0
   -0.2574    0.2263   -1.4521 C   0  0  0  0  0  0  0  0  0  0  0  0
    0.1382    1.2784   -1.9499 O   0  0  0  0  0  0  0  0  0  0  0  0
    1.4873    0.3364    0.3505 C   0  0  0  0  0  0  0  0  0  0  0  0
    1.8308    0.0631    1.8198 C   0  0  0  0  0  0  0  0  0  0  0  0
    3.2014    0.6123    2.2020 C   0  0  0  0  0  0  0  0  0  0  0  0
    3.5349    0.3295    3.5963 N   0  3  0  0  0  0  0  0  0  0  0  0
    4.7642    0.6810    4.1568 C   0  0  0  0  0  0  0  0  0  0  0  0
    5.0129    0.3800    5.4917 N   0  0  0  0  0  0  0  0  0  0  0  0
    5.7469    1.3256    3.4126 N   0  0  0  0  0  0  0  0  0  0  0  0
   -0.7323   -2.1024    0.4149 H   0  0  0  0  0  0  0  0  0  0  0  0
   -0.6591    0.1376    0.6569 H   0  0  0  0  0  0  0  0  0  0  0  0
    1.5141    1.4172    0.1669 H   0  0  0  0  0  0  0  0  0  0  0  0
    2.2598   -0.1060   -0.2924 H   0  0  0  0  0  0  0  0  0  0  0  0
    1.0646    0.5087    2.4654 H   0  0  0  0  0  0  0  0  0  0  0  0
    1.8267   -1.0174    2.0038 H   0  0  0  0  0  0  0  0  0  0  0  0
    3.9718    0.1434    1.5822 H   0  0  0  0  0  0  0  0  0  0  0  0
    3.2431    1.6960    2.0556 H   0  0  0  0  0  0  0  0  0  0  0  0
    2.8547   -0.1407    4.1909 H   0  0  0  0  0  0  0  0  0  0  0  0
    5.8980    0.6225    5.9304 H   0  0  0  0  0  0  0  0  0  0  0  0
    4.3166   -0.0909    6.0644 H   0  0  0  0  0  0  0  0  0  0  0  0
    6.6437    1.5837    3.8159 H   0  0  0  0  0  0  0  0  0  0  0  0
    5.5932    1.5580    2.4342 H   0  0  0  0  0  0  0  0  0  0  0  0
   -1.1181   -0.6701   -2.0702 N   0  0  0  0  0  0  0  0  0  0  0  0
   -1.6541   -0.4592   -3.3951 C   0  0  2  0  0  0  0  0  0  0  0  0
   -3.0456   -1.0766   -3.4433 C   0  0  0  0  0  0  0  0  0  0  0  0
   -3.3502   -2.0931   -2.8229 O   0  0  0  0  0  0  0  0  0  0  0  0
   -0.7532   -1.0659   -4.4596 C   0  0  0  0  0  0  0  0  0  0  0  0
   -1.3665   -1.5319   -1.5933 H   0  0  0  0  0  0  0  0  0  0  0  0
   -1.7296    0.6244   -3.5370 H   0  0  0  0  0  0  0  0  0  0  0  0
   -0.6654   -2.1512   -4.3337 H   0  0  0  0  0  0  0  0  0  0  0  0
   -1.1461   -0.8804   -5.4647 H   0  0  0  0  0  0  0  0  0  0  0  0
    0.2554   -0.6422   -4.4042 H   0  0  0  0  0  0  0  0  0  0  0  0
   -3.8949   -0.3835   -4.2944 N   0  0  0  0  0  0  0  0  0  0  0  0
   -5.2563   -0.7965   -4.5435 C   0  0  0  0  0  0  0  0  0  0  0  0
   -3.5705    0.4715   -4.7365 H   0  0  0  0  0  0  0  0  0  0  0  0
   -5.2862   -1.4471   -5.4299 H   0  0  0  0  0  0  0  0  0  0  0  0
   -5.6375   -1.3476   -3.6712 H   0  0  0  0  0  0  0  0  0  0  0  0
   -5.8823    0.0909   -4.7188 H   0  0  0  0  0  0  0  0  0  0  0  0
  1  3  1  0  0  0  0
  1  7  1  0  0  0  0
  1  2  2  0  0  0  0
 42 43  1  0  0  0  0
 43 51  1  0  0  0  0
 43 44  2  0  0  0  0
  8  9  1  0  0  0  0
  9 17  1  0  0  0  0
  9 10  2  0  0  0  0
 18 19  1  0  0  0  0
 19 41  1  0  0  0  0
 19 20  2  0  0  0  0
 25 26  1  0  0  0  0
 25 27  1  0  0  0  0
 24 25  2  0  0  0  0
 42 45  1  0  0  0  0
  8 11  1  0  0  0  0
 51 52  1  0  0  0  0
 21 22  1  0  0  0  0
 22 23  1  0  0  0  0
 18 21  1  0  0  0  0
 23 24  1  0  0  0  0
 41 42  1  0  0  0  0
  7  8  1  0  0  0  0
 17 18  1  0  0  0  0
  3  4  1  0  0  0  0
  3  5  1  0  0  0  0
  3  6  1  0  0  0  0
 45 48  1  0  0  0  0
 45 49  1  0  0  0  0
 45 50  1  0  0  0  0
 11 14  1  0  0  0  0
 11 15  1  0  0  0  0
 11 16  1  0  0  0  0
 52 54  1  0  0  0  0
 52 55  1  0  0  0  0
 52 56  1  0  0  0  0
 22 32  1  0  0  0  0
 22 33  1  0  0  0  0
 21 30  1  0  0  0  0
 21 31  1  0  0  0  0
 23 34  1  0  0  0  0
 23 35  1  0  0  0  0
 42 47  1  0  0  0  0
  8 13  1  0  0  0  0
 18 29  1  0  0  0  0
 26 37  1  0  0  0  0
 26 38  1  0  0  0  0
 27 39  1  0  0  0  0
 27 40  1  0  0  0  0
 51 53  1  0  0  0  0
  7 12  1  0  0  0  0
 41 46  1  0  0  0  0
 17 28  1  0  0  0  0
 24 36  1  0  0  0  0
M  CHG  1  24   1
M  END
$$$$

  -OEChem-05262214473D

 56 55  0     1  0  0  0  0  0999 V2000
    0.7735   -5.8042   -2.0022 C   0  0  0  0  0  0  0  0  0  0  0  0
   -0.2086   -6.3825   -1.5519 O   0  0  0  0  0  0  0  0  0  0  0  0
    1.4751   -6.3646   -3.1946 C   0  0  0  0  0  0  0  0  0  0  0  0
    2.2765   -7.0687   -2.9186 H   0  0  0  0  0  0  0  0  0  0  0  0
    0.7988   -6.9360   -3.8504 H   0  0  0  0  0  0  0  0  0  0  0  0
    1.9556   -5.6216   -3.8511 H   0  0  0  0  0  0  0  0  0  0  0  0
    1.3322   -4.6359   -1.5106 N   0  0  0  0  0  0  0  0  0  0  0  0
    0.8124   -3.9290   -0.3698 C   0  0  2  0  0  0  0  0  0  0  0  0
    1.0666   -2.4424   -0.5818 C   0  0  0  0  0  0  0  0  0  0  0  0
    2.0598   -2.0076   -1.1610 O   0  0  0  0  0  0  0  0  0  0  0  0
    1.4560   -4.4118    0.9207 C   0  0  0  0  0  0  0  0  0  0  0  0
    2.1528   -4.2578   -1.9805 H   0  0  0  0  0  0  0  0  0  0  0  0
   -0.2667   -4.1160   -0.3467 H   0  0  0  0  0  0  0  0  0  0  0  0
    2.5374   -4.2329    0.9160 H   0  0  0  0  0  0  0  0  0  0  0  0
    1.0390   -3.8932    1.7903 H   0  0  0  0  0  0  0  0  0  0  0  0
    1.2976   -5.4871    1.0566 H   0  0  0  0  0  0  0  0  0  0  0  0
    0.0755   -1.6529   -0.0105 N   0  0  0  0  0  0  0  0  0  0  0  0
    0.1113   -0.2132   -0.0391 C   0  0  2  0  0  0  0  0  0  0  0  0
   -0.2574    0.2263   -1.4521 C   0  0  0  0  0  0  0  0  0  0  0  0
    0.3343    1.1231   -2.0494 O   0  0  0  0  0  0  0  0  0  0  0  0
    1.4873    0.3364    0.3505 C   0  0  0  0  0  0  0  0  0  0  0  0
    1.8308    0.0631    1.8198 C   0  0  0  0  0  0  0  0  0  0  0  0
    3.2014    0.6123    2.2020 C   0  0  0  0  0  0  0  0  0  0  0  0
    3.5349    0.3295    3.5963 N   0  3  0  0  0  0  0  0  0  0  0  0
    4.7642    0.6810    4.1568 C   0  0  0  0  0  0  0  0  0  0  0  0
    5.0129    0.3800    5.4917 N   0  0  0  0  0  0  0  0  0  0  0  0
    5.7469    1.3256    3.4126 N   0  0  0  0  0  0  0  0  0  0  0  0
   -0.7323   -2.1024    0.4149 H   0  0  0  0  0  0  0  0  0  0  0  0
   -0.6591    0.1376    0.6569 H   0  0  0  0  0  0  0  0  0  0  0  0
    1.5141    1.4172    0.1669 H   0  0  0  0  0  0  0  0  0  0  0  0
    2.2598   -0.1060   -0.2924 H   0  0  0  0  0  0  0  0  0  0  0  0
    1.0646    0.5087    2.4654 H   0  0  0  0  0  0  0  0  0  0  0  0
    1.8267   -1.0174    2.0038 H   0  0  0  0  0  0  0  0  0  0  0  0
    3.9718    0.1434    1.5822 H   0  0  0  0  0  0  0  0  0  0  0  0
    3.2431    1.6960    2.0556 H   0  0  0  0  0  0  0  0  0  0  0  0
    2.8547   -0.1407    4.1909 H   0  0  0  0  0  0  0  0  0  0  0  0
    5.8980    0.6225    5.9304 H   0  0  0  0  0  0  0  0  0  0  0  0
    4.3166   -0.0909    6.0644 H   0  0  0  0  0  0  0  0  0  0  0  0
    6.6437    1.5837    3.8159 H   0  0  0  0  0  0  0  0  0  0  0  0
    5.5932    1.5580    2.4342 H   0  0  0  0  0  0  0  0  0  0  0  0
   -1.3541   -0.4668   -1.9453 N   0  0  0  0  0  0  0  0  0  0  0  0
   -1.9319   -0.2035   -3.2431 C   0  0  2  0  0  0  0  0  0  0  0  0
   -3.4292   -0.4672   -3.1535 C   0  0  0  0  0  0  0  0  0  0  0  0
   -3.9144   -1.3450   -2.4429 O   0  0  0  0  0  0  0  0  0  0  0  0
   -1.2914   -1.0663   -4.3192 C   0  0  0  0  0  0  0  0  0  0  0  0
   -1.7600   -1.2159   -1.3923 H   0  0  0  0  0  0  0  0  0  0  0  0
   -1.7594    0.8570   -3.4569 H   0  0  0  0  0  0  0  0  0  0  0  0
   -1.4538   -2.1322   -4.1221 H   0  0  0  0  0  0  0  0  0  0  0  0
   -1.7104   -0.8453   -5.3065 H   0  0  0  0  0  0  0  0  0  0  0  0
   -0.2101   -0.8972   -4.3620 H   0  0  0  0  0  0  0  0  0  0  0  0
   -4.1567    0.3645   -3.9933 N   0  0  0  0  0  0  0  0  0  0  0  0
   -5.5930    0.2807   -4.1205 C   0  0  0  0  0  0  0  0  0  0  0  0
   -3.6761    1.0906   -4.5164 H   0  0  0  0  0  0  0  0  0  0  0  0
   -5.8493   -0.3897   -4.9540 H   0  0  0  0  0  0  0  0  0  0  0  0
   -6.0211   -0.1142   -3.1874 H   0  0  0  0  0  0  0  0  0  0  0  0
   -6.0026    1.2826   -4.3166 H   0  0  0  0  0  0  0  0  0  0  0  0
  1  3  1  0  0  0  0
  1  7  1  0  0  0  0
  1  2  2  0  0  0  0
 42 43  1  0  0  0  0
 43 51  1  0  0  0  0
 43 44  2  0  0  0  0
  8  9  1  0  0  0  0
  9 17  1  0  0  0  0
  9 10  2  0  0  0  0
 18 19  1  0  0  0  0
 19 41  1  0  0  0  0
 19 20  2  0  0  0  0
 25 26  1  0  0  0  0
 25 27  1  0  0  0  0
 24 25  2  0  0  0  0
 42 45  1  0  0  0  0
  8 11  1  0  0  0  0
 51 52  1  0  0  0  0
 21 22  1  0  0  0  0
 22 23  1  0  0  0  0
 18 21  1  0  0  0  0
 23 24  1  0  0  0  0
 41 42  1  0  0  0  0
  7  8  1  0  0  0  0
 17 18  1  0  0  0  0
  3  4  1  0  0  0  0
  3  5  1  0  0  0  0
  3  6  1  0  0  0  0
 45 48  1  0  0  0  0
 45 49  1  0  0  0  0
 45 50  1  0  0  0  0
 11 14  1  0  0  0  0
 11 15  1  0  0  0  0
 11 16  1  0  0  0  0
 52 54  1  0  0  0  0
 52 55  1  0  0  0  0
 52 56  1  0  0  0  0
 22 32  1  0  0  0  0
 22 33  1  0  0  0  0
 21 30  1  0  0  0  0
 21 31  1  0  0  0  0
 23 34  1  0  0  0  0
 23 35  1  0  0  0  0
 42 47  1  0  0  0  0
  8 13  1  0  0  0  0
 18 29  1  0  0  0  0
 26 37  1  0  0  0  0
 26 38  1  0  0  0  0
 27 39  1  0  0  0  0
 27 40  1  0  0  0  0
 51 53  1  0  0  0  0
  7 12  1  0  0  0  0
 41 46  1  0  0  0  0
 17 28  1  0  0  0  0
 24 36  1  0  0  0  0
M  CHG  1  24   1
M  END
$$$$

  -OEChem-05262214473D

 56 55  0     1  0  0  0  0  0999 V2000
    0.7735   -5.8042   -2.0022 C   0  0  0  0  0  0  0  0  0  0  0  0
   -0.2086   -6.3825   -1.5519 O   0  0  0  0  0  0  0  0  0  0  0  0
    1.4751   -6.3646   -3.1946 C   0  0  0  0  0  0  0  0  0  0  0  0
    2.2765   -7.0687   -2.9186 H   0  0  0  0  0  0  0  0  0  0  0  0
    0.7988   -6.9360   -3.8504 H   0  0  0  0  0  0  0  0  0  0  0  0
    1.9556   -5.6216   -3.8511 H   0  0  0  0  0  0  0  0  0  0  0  0
    1.3322   -4.6359   -1.5106 N   0  0  0  0  0  0  0  0  0  0  0  0
    0.8124   -3.9290   -0.3698 C   0  0  2  0  0  0  0  0  0  0  0  0
    1.0666   -2.4424   -0.5818 C   0  0  0  0  0  0  0  0  0  0  0  0
    2.0598   -2.0076   -1.1610 O   0  0  0  0  0  0  0  0  0  0  0  0
    1.4560   -4.4118    0.9207 C   0  0  0  0  0  0  0  0  0  0  0  0
    2.1528   -4.2578   -1.9805 H   0  0  0  0  0  0  0  0  0  0  0  0
   -0.2667   -4.1160   -0.3467 H   0  0  0  0  0  0  0  0  0  0  0  0
    2.5374   -4.2329    0.9160 H   0  0  0  0  0  0  0  0  0  0  0  0
    1.0390   -3.8932    1.7903 H   0  0  0  0  0  0  0  0  0  0  0  0
    1.2976   -5.4871    1.0566 H   0  0  0  0  0  0  0  0  0  0  0  0
    0.0755   -1.6529   -0.0105 N   0  0  0  0  0  0  0  0  0  0  0  0
    0.1113   -0.2132   -0.0391 C   0  0  2  0  0  0  0  0  0  0  0  0
   -0.2574    0.2263   -1.4521 C   0  0  0  0  0  0  0  0  0  0  0  0
    0.4791    0.9198   -2.1505 O   0  0  0  0  0  0  0  0  0  0  0  0
    1.4873    0.3364    0.3505 C   0  0  0  0  0  0  0  0  0  0  0  0
    1.8308    0.0631    1.8198 C   0  0  0  0  0  0  0  0  0  0  0  0
    3.2014    0.6123    2.2020 C   0  0  0  0  0  0  0  0  0  0  0  0
    3.5349    0.3295    3.5963 N   0  3  0  0  0  0  0  0  0  0  0  0
    4.7642    0.6810    4.1568 C   0  0  0  0  0  0  0  0  0  0  0  0
    5.0129    0.3800    5.4917 N   0  0  0  0  0  0  0  0  0  0  0  0
    5.7469    1.3256    3.4126 N   0  0  0  0  0  0  0  0  0  0  0  0
   -0.7323   -2.1024    0.4149 H   0  0  0  0  0  0  0  0  0  0  0  0
   -0.6591    0.1376    0.6569 H   0  0  0  0  0  0  0  0  0  0  0  0
    1.5141    1.4172    0.1669 H   0  0  0  0  0  0  0  0  0  0  0  0
    2.2598   -0.1060   -0.2924 H   0  0  0  0  0  0  0  0  0  0  0  0
    1.0646    0.5087    2.4654 H   0  0  0  0  0  0  0  0  0  0  0  0
    1.8267   -1.0174    2.0038 H   0  0  0  0  0  0  0  0  0  0  0  0
    3.9718    0.1434    1.5822 H   0  0  0  0  0  0  0  0  0  0  0  0
    3.2431    1.6960    2.0556 H   0  0  0  0  0  0  0  0  0  0  0  0
    2.8547   -0.1407    4.1909 H   0  0  0  0  0  0  0  0  0  0  0  0
    5.8980    0.6225    5.9304 H   0  0  0  0  0  0  0  0  0  0  0  0
    4.3166   -0.0909    6.0644 H   0  0  0  0  0  0  0  0  0  0  0  0
    6.6437    1.5837    3.8159 H   0  0  0  0  0  0  0  0  0  0  0  0
    5.5932    1.5580    2.4342 H   0  0  0  0  0  0  0  0  0  0  0  0
   -1.5240   -0.2059   -1.8198 N   0  0  0  0  0  0  0  0  0  0  0  0
   -2.1275    0.1197   -3.0915 C   0  0  2  0  0  0  0  0  0  0  0  0
   -3.6320    0.2316   -2.8832 C   0  0  0  0  0  0  0  0  0  0  0  0
   -4.2516   -0.4633   -2.0805 O   0  0  0  0  0  0  0  0  0  0  0  0
   -1.8009   -0.9289   -4.1435 C   0  0  0  0  0  0  0  0  0  0  0  0
   -2.0493   -0.8038   -1.1886 H   0  0  0  0  0  0  0  0  0  0  0  0
   -1.7263    1.0938   -3.3918 H   0  0  0  0  0  0  0  0  0  0  0  0
   -2.1950   -1.9116   -3.8600 H   0  0  0  0  0  0  0  0  0  0  0  0
   -2.2352   -0.6661   -5.1138 H   0  0  0  0  0  0  0  0  0  0  0  0
   -0.7176   -1.0292   -4.2706 H   0  0  0  0  0  0  0  0  0  0  0  0
   -4.2078    1.1685   -3.7299 N   0  0  0  0  0  0  0  0  0  0  0  0
   -5.6283    1.4284   -3.7542 C   0  0  0  0  0  0  0  0  0  0  0  0
   -3.6133    1.7276   -4.3346 H   0  0  0  0  0  0  0  0  0  0  0  0
   -6.1042    0.7964   -4.5185 H   0  0  0  0  0  0  0  0  0  0  0  0
   -6.0598    1.1994   -2.7686 H   0  0  0  0  0  0  0  0  0  0  0  0
   -5.8031    2.4877   -3.9938 H   0  0  0  0  0  0  0  0  0  0  0  0
  1  3  1  0  0  0  0
  1  7  1  0  0  0  0
  1  2  2  0  0  0  0
 42 43  1  0  0  0  0
 43 51  1  0  0  0  0
 43 44  2  0  0  0  0
  8  9  1  0  0  0  0
  9 17  1  0  0  0  0
  9 10  2  0  0  0  0
 18 19  1  0  0  0  0
 19 41  1  0  0  0  0
 19 20  2  0  0  0  0
 25 26  1  0  0  0  0
 25 27  1  0  0  0  0
 24 25  2  0  0  0  0
 42 45  1  0  0  0  0
  8 11  1  0  0  0  0
 51 52  1  0  0  0  0
 21 22  1  0  0  0  0
 22 23  1  0  0  0  0
 18 21  1  0  0  0  0
 23 24  1  0  0  0  0
 41 42  1  0  0  0  0
  7  8  1  0  0  0  0
 17 18  1  0  0  0  0
  3  4  1  0  0  0  0
  3  5  1  0  0  0  0
  3  6  1  0  0  0  0
 45 48  1  0  0  0  0
 45 49  1  0  0  0  0
 45 50  1  0  0  0  0
 11 14  1  0  0  0  0
 11 15  1  0  0  0  0
 11 16  1  0  0  0  0
 52 54  1  0  0  0  0
 52 55  1  0  0  0  0
 52 56  1  0  0  0  0
 22 32  1  0  0  0  0
 22 33  1  0  0  0  0
 21 30  1  0  0  0  0
 21 31  1  0  0  0  0
 23 34  1  0  0  0  0
 23 35  1  0  0  0  0
 42 47  1  0  0  0  0
  8 13  1  0  0  0  0
 18 29  1  0  0  0  0
 26 37  1  0  0  0  0
 26 38  1  0  0  0  0
 27 39  1  0  0  0  0
 27 40  1  0  0  0  0
 51 53  1  0  0  0  0
  7 12  1  0  0  0  0
 41 46  1  0  0  0  0
 17 28  1  0  0  0  0
 24 36  1  0  0  0  0
M  CHG  1  24   1
M  END
$$$$

  -OEChem-05262214473D

 56 55  0     1  0  0  0  0  0999 V2000
    0.7735   -5.8042   -2.0022 C   0  0  0  0  0  0  0  0  0  0  0  0
   -0.2086   -6.3825   -1.5519 O   0  0  0  0  0  0  0  0  0  0  0  0
    1.4751   -6.3646   -3.1946 C   0  0  0  0  0  0  0  0  0  0  0  0
    2.2765   -7.0687   -2.9186 H   0  0  0  0  0  0  0  0  0  0  0  0
    0.7988   -6.9360   -3.8504 H   0  0  0  0  0  0  0  0  0  0  0  0
    1.9556   -5.6216   -3.8511 H   0  0  0  0  0  0  0  0  0  0  0  0
    1.3322   -4.6359   -1.5106 N   0  0  0  0  0  0  0  0  0  0  0  0
    0.8124   -3.9290   -0.3698 C   0  0  2  0  0  0  0  0  0  0  0  0
    1.0666   -2.4424   -0.5818 C   0  0  0  0  0  0  0  0  0  0  0  0
    2.0598   -2.0076   -1.1610 O   0  0  0  0  0  0  0  0  0  0  0  0
    1.4560   -4.4118    0.9207 C   0  0  0  0  0  0  0  0  0  0  0  0
    2.1528   -4.2578   -1.9805 H   0  0  0  0  0  0  0  0  0  0  0  0
   -0.2667   -4.1160   -0.3467 H   0  0  0  0  0  0  0  0  0  0  0  0
    2.5374   -4.2329    0.9160 H   0  0  0  0  0  0  0  0  0  0  0  0
    1.0390   -3.8932    1.7903 H   0  0  0  0  0  0  0  0  0  0  0  0
    1.2976   -5.4871    1.0566 H   0  0  0  0  0  0  0  0  0  0  0  0
    0.0755   -1.6529   -0.0105 N   0  0  0  0  0  0  0  0  0  0  0  0
    0.1113   -0.2132   -0.0391 C   0  0  2  0  0  0  0  0  0  0  0  0
   -0.2574    0.2263   -1.4521 C   0  0  0  0  0  0  0  0  0  0  0  0
    0.5627    0.6824   -2.2461 O   0  0  0  0  0  0  0  0  0  0  0  0
    1.4873    0.3364    0.3505 C   0  0  0  0  0  0  0  0  0  0  0  0
    1.8308    0.0631    1.8198 C   0  0  0  0  0  0  0  0  0  0  0  0
    3.2014    0.6123    2.2020 C   0  0  0  0  0  0  0  0  0  0  0  0
    3.5349    0.3295    3.5963 N   0  3  0  0  0  0  0  0  0  0  0  0
    4.7642    0.6810    4.1568 C   0  0  0  0  0  0  0  0  0  0  0  0
    5.0129    0.3800    5.4917 N   0  0  0  0  0  0  0  0  0  0  0  0
    5.7469    1.3256    3.4126 N   0  0  0  0  0  0  0  0  0  0  0  0
   -0.7323   -2.1024    0.4149 H   0  0  0  0  0  0  0  0  0  0  0  0
   -0.6591    0.1376    0.6569 H   0  0  0  0  0  0  0  0  0  0  0  0
    1.5141    1.4172    0.1669 H   0  0  0  0  0  0  0  0  0  0  0  0
    2.2598   -0.1060   -0.2924 H   0  0  0  0  0  0  0  0  0  0  0  0
    1.0646    0.5087    2.4654 H   0  0  0  0  0  0  0  0  0  0  0  0
    1.8267   -1.0174    2.0038 H   0  0  0  0  0  0  0  0  0  0  0  0
    3.9718    0.1434    1.5822 H   0  0  0  0  0  0  0  0  0  0  0  0
    3.2431    1.6960    2.0556 H   0  0  0  0  0  0  0  0  0  0  0  0
    2.8547   -0.1407    4.1909 H   0  0  0  0  0  0  0  0  0  0  0  0
    5.8980    0.6225    5.9304 H   0  0  0  0  0  0  0  0  0  0  0  0
    4.3166   -0.0909    6.0644 H   0  0  0  0  0  0  0  0  0  0  0  0
    6.6437    1.5837    3.8159 H   0  0  0  0  0  0  0  0  0  0  0  0
    5.5932    1.5580    2.4342 H   0  0  0  0  0  0  0  0  0  0  0  0
   -1.6163    0.0947   -1.7022 N   0  0  0  0  0  0  0  0  0  0  0  0
   -2.2277    0.4882   -2.9507 C   0  0  2  0  0  0  0  0  0  0  0  0
   -3.6402    0.9721   -2.6507 C   0  0  0  0  0  0  0  0  0  0  0  0
   -4.3389    0.4919   -1.7606 O   0  0  0  0  0  0  0  0  0  0  0  0
   -2.2470   -0.6629   -3.9443 C   0  0  0  0  0  0  0  0  0  0  0  0
   -2.2147   -0.3236   -0.9960 H   0  0  0  0  0  0  0  0  0  0  0  0
   -1.6328    1.3186   -3.3463 H   0  0  0  0  0  0  0  0  0  0  0  0
   -2.8384   -1.5044   -3.5653 H   0  0  0  0  0  0  0  0  0  0  0  0
   -2.6847   -0.3551   -4.8997 H   0  0  0  0  0  0  0  0  0  0  0  0
   -1.2327   -1.0293   -4.1362 H   0  0  0  0  0  0  0  0  0  0  0  0
   -4.0447    1.9739   -3.5219 N   0  0  0  0  0  0  0  0  0  0  0  0
   -5.3599    2.5684   -3.4696 C   0  0  0  0  0  0  0  0  0  0  0  0
   -3.3862    2.3392   -4.2036 H   0  0  0  0  0  0  0  0  0  0  0  0
   -6.0334    2.0305   -4.1530 H   0  0  0  0  0  0  0  0  0  0  0  0
   -5.7509    2.5038   -2.4435 H   0  0  0  0  0  0  0  0  0  0  0  0
   -5.2973    3.6241   -3.7723 H   0  0  0  0  0  0  0  0  0  0  0  0
  1  3  1  0  0  0  0
  1  7  1  0  0  0  0
  1  2  2  0  0  0  0
 42 43  1  0  0  0  0
 43 51  1  0  0  0  0
 43 44  2  0  0  0  0
  8  9  1  0  0  0  0
  9 17  1  0  0  0  0
  9 10  2  0  0  0  0
 18 19  1  0  0  0  0
 19 41  1  0  0  0  0
 19 20  2  0  0  0  0
 25 26  1  0  0  0  0
 25 27  1  0  0  0  0
 24 25  2  0  0  0  0
 42 45  1  0  0  0  0
  8 11  1  0  0  0  0
 51 52  1  0  0  0  0
 21 22  1  0  0  0  0
 22 23  1  0  0  0  0
 18 21  1  0  0  0  0
 23 24  1  0  0  0  0
 41 42  1  0  0  0  0
  7  8  1  0  0  0  0
 17 18  1  0  0  0  0
  3  4  1  0  0  0  0
  3  5  1  0  0  0  0
  3  6  1  0  0  0  0
 45 48  1  0  0  0  0
 45 49  1  0  0  0  0
 45 50  1  0  0  0  0
 11 14  1  0  0  0  0
 11 15  1  0  0  0  0
 11 16  1  0  0  0  0
 52 54  1  0  0  0  0
 52 55  1  0  0  0  0
 52 56  1  0  0  0  0
 22 32  1  0  0  0  0
 22 33  1  0  0  0  0
 21 30  1  0  0  0  0
 21 31  1  0  0  0  0
 23 34  1  0  0  0  0
 23 35  1  0  0  0  0
 42 47  1  0  0  0  0
  8 13  1  0  0  0  0
 18 29  1  0  0  0  0
 26 37  1  0  0  0  0
 26 38  1  0  0  0  0
 27 39  1  0  0  0  0
 27 40  1  0  0  0  0
 51 53  1  0  0  0  0
  7 12  1  0  0  0  0
 41 46  1  0  0  0  0
 17 28  1  0  0  0  0
 24 36  1  0  0  0  0
M  CHG  1  24   1
M  END
$$$$

  -OEChem-05262214473D

 56 55  0     1  0  0  0  0  0999 V2000
    0.7735   -5.8042   -2.0022 C   0  0  0  0  0  0  0  0  0  0  0  0
   -0.2086   -6.3825   -1.5519 O   0  0  0  0  0  0  0  0  0  0  0  0
    1.4751   -6.3646   -3.1946 C   0  0  0  0  0  0  0  0  0  0  0  0
    2.2765   -7.0687   -2.9186 H   0  0  0  0  0  0  0  0  0  0  0  0
    0.7988   -6.9360   -3.8504 H   0  0  0  0  0  0  0  0  0  0  0  0
    1.9556   -5.6216   -3.8511 H   0  0  0  0  0  0  0  0  0  0  0  0
    1.3322   -4.6359   -1.5106 N   0  0  0  0  0  0  0  0  0  0  0  0
    0.8124   -3.9290   -0.3698 C   0  0  2  0  0  0  0  0  0  0  0  0
    1.0666   -2.4424   -0.5818 C   0  0  0  0  0  0  0  0  0  0  0  0
    2.0598   -2.0076   -1.1610 O   0  0  0  0  0  0  0  0  0  0  0  0
    1.4560   -4.4118    0.9207 C   0  0  0  0  0  0  0  0  0  0  0  0
    2.1528   -4.2578   -1.9805 H   0  0  0  0  0  0  0  0  0  0  0  0
   -0.2667   -4.1160   -0.3467 H   0  0  0  0  0  0  0  0  0  0  0  0
    2.5374   -4.2329    0.9160 H   0  0  0  0  0  0  0  0  0  0  0  0
    1.0390   -3.8932    1.7903 H   0  0  0  0  0  0  0  0  0  0  0  0
    1.2976   -5.4871    1.0566 H   0  0  0  0  0  0  0  0  0  0  0  0
    0.0755   -1.6529   -0.0105 N   0  0  0  0  0  0  0  0  0  0  0  0
    0.1113   -0.2132   -0.0391 C   0  0  2  0  0  0  0  0  0  0  0  0
   -0.2574    0.2263   -1.4521 C   0  0  0  0  0  0  0  0  0  0  0  0
    0.5794    0.4271   -2.3299 O   0  0  0  0  0  0  0  0  0  0  0  0
    1.4873    0.3364    0.3505 C   0  0  0  0  0  0  0  0  0  0  0  0
    1.8308    0.0631    1.8198 C   0  0  0  0  0  0  0  0  0  0  0  0
    3.2014    0.6123    2.2020 C   0  0  0  0  0  0  0  0  0  0  0  0
    3.5349    0.3295    3.5963 N   0  3  0  0  0  0  0  0  0  0  0  0
    4.7642    0.6810    4.1568 C   0  0  0  0  0  0  0  0  0  0  0  0
    5.0129    0.3800    5.4917 N   0  0  0  0  0  0  0  0  0  0  0  0
    5.7469    1.3256    3.4126 N   0  0  0  0  0  0  0  0  0  0  0  0
   -0.7323   -2.1024    0.4149 H   0  0  0  0  0  0  0  0  0  0  0  0
   -0.6591    0.1376    0.6569 H   0  0  0  0  0  0  0  0  0  0  0  0
    1.5141    1.4172    0.1669 H   0  0  0  0  0  0  0  0  0  0  0  0
    2.2598   -0.1060   -0.2924 H   0  0  0  0  0  0  0  0  0  0  0  0
    1.0646    0.5087    2.4654 H   0  0  0  0  0  0  0  0  0  0  0  0
    1.8267   -1.0174    2.0038 H   0  0  0  0  0  0  0  0  0  0  0  0
    3.9718    0.1434    1.5822 H   0  0  0  0  0  0  0  0  0  0  0  0
    3.2431    1.6960    2.0556 H   0  0  0  0  0  0  0  0  0  0  0  0
    2.8547   -0.1407    4.1909 H   0  0  0  0  0  0  0  0  0  0  0  0
    5.8980    0.6225    5.9304 H   0  0  0  0  0  0  0  0  0  0  0  0
    4.3166   -0.0909    6.0644 H   0  0  0  0  0  0  0  0  0  0  0  0
    6.6437    1.5837    3.8159 H   0  0  0  0  0  0  0  0  0  0  0  0
    5.5932    1.5580    2.4342 H   0  0  0  0  0  0  0  0  0  0  0  0
   -1.6245    0.4145   -1.6005 N   0  0  0  0  0  0  0  0  0  0  0  0
   -2.2255    0.8770   -2.8303 C   0  0  2  0  0  0  0  0  0  0  0  0
   -3.4532    1.7039   -2.4719 C   0  0  0  0  0  0  0  0  0  0  0  0
   -4.1703    1.4556   -1.5048 O   0  0  0  0  0  0  0  0  0  0  0  0
   -2.5993   -0.2866   -3.7353 C   0  0  0  0  0  0  0  0  0  0  0  0
   -2.2450    0.1920   -0.8278 H   0  0  0  0  0  0  0  0  0  0  0  0
   -1.4851    1.5163   -3.3233 H   0  0  0  0  0  0  0  0  0  0  0  0
   -3.3403   -0.9383   -3.2582 H   0  0  0  0  0  0  0  0  0  0  0  0
   -3.0284    0.0665   -4.6788 H   0  0  0  0  0  0  0  0  0  0  0  0
   -1.7203   -0.8974   -3.9679 H   0  0  0  0  0  0  0  0  0  0  0  0
   -3.6785    2.7258   -3.3835 N   0  0  0  0  0  0  0  0  0  0  0  0
   -4.8061    3.6230   -3.2861 C   0  0  0  0  0  0  0  0  0  0  0  0
   -3.0105    2.8837   -4.1323 H   0  0  0  0  0  0  0  0  0  0  0  0
   -5.6419    3.2285   -3.8825 H   0  0  0  0  0  0  0  0  0  0  0  0
   -5.1154    3.7100   -2.2341 H   0  0  0  0  0  0  0  0  0  0  0  0
   -4.5197    4.6144   -3.6672 H   0  0  0  0  0  0  0  0  0  0  0  0
  1  3  1  0  0  0  0
  1  7  1  0  0  0  0
  1  2  2  0  0  0  0
 42 43  1  0  0  0  0
 43 51  1  0  0  0  0
 43 44  2  0  0  0  0
  8  9  1  0  0  0  0
  9 17  1  0  0  0  0
  9 10  2  0  0  0  0
 18 19  1  0  0  0  0
 19 41  1  0  0  0  0
 19 20  2  0  0  0  0
 25 26  1  0  0  0  0
 25 27  1  0  0  0  0
 24 25  2  0  0  0  0
 42 45  1  0  0  0  0
  8 11  1  0  0  0  0
 51 52  1  0  0  0  0
 21 22  1  0  0  0  0
 22 23  1  0  0  0  0
 18 21  1  0  0  0  0
 23 24  1  0  0  0  0
 41 42  1  0  0  0  0
  7  8  1  0  0  0  0
 17 18  1  0  0  0  0
  3  4  1  0  0  0  0
  3  5  1  0  0  0  0
  3  6  1  0  0  0  0
 45 48  1  0  0  0  0
 45 49  1  0  0  0  0
 45 50  1  0  0  0  0
 11 14  1  0  0  0  0
 11 15  1  0  0  0  0
 11 16  1  0  0  0  0
 52 54  1  0  0  0  0
 52 55  1  0  0  0  0
 52 56  1  0  0  0  0
 22 32  1  0  0  0  0
 22 33  1  0  0  0  0
 21 30  1  0  0  0  0
 21 31  1  0  0  0  0
 23 34  1  0  0  0  0
 23 35  1  0  0  0  0
 42 47  1  0  0  0  0
  8 13  1  0  0  0  0
 18 29  1  0  0  0  0
 26 37  1  0  0  0  0
 26 38  1  0  0  0  0
 27 39  1  0  0  0  0
 27 40  1  0  0  0  0
 51 53  1  0  0  0  0
  7 12  1  0  0  0  0
 41 46  1  0  0  0  0
 17 28  1  0  0  0  0
 24 36  1  0  0  0  0
M  CHG  1  24   1
M  END
$$$$

  -OEChem-05262214473D

 56 55  0     1  0  0  0  0  0999 V2000
    0.7735   -5.8042   -2.0022 C   0  0  0  0  0  0  0  0  0  0  0  0
   -0.2086   -6.3825   -1.5519 O   0  0  0  0  0  0  0  0  0  0  0  0
    1.4751   -6.3646   -3.1946 C   0  0  0  0  0  0  0  0  0  0  0  0
    2.2765   -7.0687   -2.9186 H   0  0  0  0  0  0  0  0  0  0  0  0
    0.7988   -6.9360   -3.8504 H   0  0  0  0  0  0  0  0  0  0  0  0
    1.9556   -5.6216   -3.8511 H   0  0  0  0  0  0  0  0  0  0  0  0
    1.3322   -4.6359   -1.5106 N   0  0  0  0  0  0  0  0  0  0  0  0
    0.8124   -3.9290   -0.3698 C   0  0  2  0  0  0  0  0  0  0  0  0
    1.0666   -2.4424   -0.5818 C   0  0  0  0  0  0  0  0  0  0  0  0
    2.0598   -2.0076   -1.1610 O   0  0  0  0  0  0  0  0  0  0  0  0
    1.4560   -4.4118    0.9207 C   0  0  0  0  0  0  0  0  0  0  0  0
    2.1528   -4.2578   -1.9805 H   0  0  0  0  0  0  0  0  0  0  0  0
   -0.2667   -4.1160   -0.3467 H   0  0  0  0  0  0  0  0  0  0  0  0
    2.5374   -4.2329    0.9160 H   0  0  0  0  0  0  0  0  0  0  0  0
    1.0390   -3.8932    1.7903 H   0  0  0  0  0  0  0  0  0  0  0  0
    1.2976   -5.4871    1.0566 H   0  0  0  0  0  0  0  0  0  0  0  0
    0.0755   -1.6529   -0.0105 N   0  0  0  0  0  0  0  0  0  0  0  0
    0.1113   -0.2132   -0.0391 C   0  0  2  0  0  0  0  0  0  0  0  0
   -0.2574    0.2263   -1.4521 C   0  0  0  0  0  0  0  0  0  0  0  0
    0.5280    0.1712   -2.3961 O   0  0  0  0  0  0  0  0  0  0  0  0
    1.4873    0.3364    0.3505 C   0  0  0  0  0  0  0  0  0  0  0  0
    1.8308    0.0631    1.8198 C   0  0  0  0  0  0  0  0  0  0  0  0
    3.2014    0.6123    2.2020 C   0  0  0  0  0  0  0  0  0  0  0  0
    3.5349    0.3295    3.5963 N   0  3  0  0  0  0  0  0  0  0  0  0
    4.7642    0.6810    4.1568 C   0  0  0  0  0  0  0  0  0  0  0  0
    5.0129    0.3800    5.4917 N   0  0  0  0  0  0  0  0  0  0  0  0
    5.7469    1.3256    3.4126 N   0  0  0  0  0  0  0  0  0  0  0  0
   -0.7323   -2.1024    0.4149 H   0  0  0  0  0  0  0  0  0  0  0  0
   -0.6591    0.1376    0.6569 H   0  0  0  0  0  0  0  0  0  0  0  0
    1.5141    1.4172    0.1669 H   0  0  0  0  0  0  0  0  0  0  0  0
    2.2598   -0.1060   -0.2924 H   0  0  0  0  0  0  0  0  0  0  0  0
    1.0646    0.5087    2.4654 H   0  0  0  0  0  0  0  0  0  0  0  0
    1.8267   -1.0174    2.0038 H   0  0  0  0  0  0  0  0  0  0  0  0
    3.9718    0.1434    1.5822 H   0  0  0  0  0  0  0  0  0  0  0  0
    3.2431    1.6960    2.0556 H   0  0  0  0  0  0  0  0  0  0  0  0
    2.8547   -0.1407    4.1909 H   0  0  0  0  0  0  0  0  0  0  0  0
    5.8980    0.6225    5.9304 H   0  0  0  0  0  0  0  0  0  0  0  0
    4.3166   -0.0909    6.0644 H   0  0  0  0  0  0  0  0  0  0  0  0
    6.6437    1.5837    3.8159 H   0  0  0  0  0  0  0  0  0  0  0  0
    5.5932    1.5580    2.4342 H   0  0  0  0  0  0  0  0  0  0  0  0
   -1.5482    0.7317   -1.5218 N   0  0  0  0  0  0  0  0  0  0  0  0
   -2.1212    1.2596   -2.7385 C   0  0  2  0  0  0  0  0  0  0  0  0
   -3.0837    2.3772   -2.3589 C   0  0  0  0  0  0  0  0  0  0  0  0
   -3.7572    2.3619   -1.3306 O   0  0  0  0  0  0  0  0  0  0  0  0
   -2.8337    0.1744   -3.5307 C   0  0  0  0  0  0  0  0  0  0  0  0
   -2.1380    0.7078   -0.6952 H   0  0  0  0  0  0  0  0  0  0  0  0
   -1.2933    1.6732   -3.3246 H   0  0  0  0  0  0  0  0  0  0  0  0
   -3.6665   -0.2519   -2.9596 H   0  0  0  0  0  0  0  0  0  0  0  0
   -3.2428    0.5700   -4.4662 H   0  0  0  0  0  0  0  0  0  0  0  0
   -2.1471   -0.6426   -3.7773 H   0  0  0  0  0  0  0  0  0  0  0  0
   -3.1341    3.3729   -3.3243 N   0  0  0  0  0  0  0  0  0  0  0  0
   -4.0045    4.5204   -3.2161 C   0  0  0  0  0  0  0  0  0  0  0  0
   -2.5116    3.3241   -4.1255 H   0  0  0  0  0  0  0  0  0  0  0  0
   -4.9562    4.3087   -3.7254 H   0  0  0  0  0  0  0  0  0  0  0  0
   -4.1968    4.7358   -2.1547 H   0  0  0  0  0  0  0  0  0  0  0  0
   -3.5233    5.3910   -3.6856 H   0  0  0  0  0  0  0  0  0  0  0  0
  1  3  1  0  0  0  0
  1  7  1  0  0  0  0
  1  2  2  0  0  0  0
 42 43  1  0  0  0  0
 43 51  1  0  0  0  0
 43 44  2  0  0  0  0
  8  9  1  0  0  0  0
  9 17  1  0  0  0  0
  9 10  2  0  0  0  0
 18 19  1  0  0  0  0
 19 41  1  0  0  0  0
 19 20  2  0  0  0  0
 25 26  1  0  0  0  0
 25 27  1  0  0  0  0
 24 25  2  0  0  0  0
 42 45  1  0  0  0  0
  8 11  1  0  0  0  0
 51 52  1  0  0  0  0
 21 22  1  0  0  0  0
 22 23  1  0  0  0  0
 18 21  1  0  0  0  0
 23 24  1  0  0  0  0
 41 42  1  0  0  0  0
  7  8  1  0  0  0  0
 17 18  1  0  0  0  0
  3  4  1  0  0  0  0
  3  5  1  0  0  0  0
  3  6  1  0  0  0  0
 45 48  1  0  0  0  0
 45 49  1  0  0  0  0
 45 50  1  0  0  0  0
 11 14  1  0  0  0  0
 11 15  1  0  0  0  0
 11 16  1  0  0  0  0
 52 54  1  0  0  0  0
 52 55  1  0  0  0  0
 52 56  1  0  0  0  0
 22 32  1  0  0  0  0
 22 33  1  0  0  0  0
 21 30  1  0  0  0  0
 21 31  1  0  0  0  0
 23 34  1  0  0  0  0
 23 35  1  0  0  0  0
 42 47  1  0  0  0  0
  8 13  1  0  0  0  0
 18 29  1  0  0  0  0
 26 37  1  0  0  0  0
 26 38  1  0  0  0  0
 27 39  1  0  0  0  0
 27 40  1  0  0  0  0
 51 53  1  0  0  0  0
  7 12  1  0  0  0  0
 41 46  1  0  0  0  0
 17 28  1  0  0  0  0
 24 36  1  0  0  0  0
M  CHG  1  24   1
M  END
$$$$

  -OEChem-05262214473D

 56 55  0     1  0  0  0  0  0999 V2000
    0.7735   -5.8042   -2.0022 C   0  0  0  0  0  0  0  0  0  0  0  0
   -0.2086   -6.3825   -1.5519 O   0  0  0  0  0  0  0  0  0  0  0  0
    1.4751   -6.3646   -3.1946 C   0  0  0  0  0  0  0  0  0  0  0  0
    2.2765   -7.0687   -2.9186 H   0  0  0  0  0  0  0  0  0  0  0  0
    0.7988   -6.9360   -3.8504 H   0  0  0  0  0  0  0  0  0  0  0  0
    1.9556   -5.6216   -3.8511 H   0  0  0  0  0  0  0  0  0  0  0  0
    1.3322   -4.6359   -1.5106 N   0  0  0  0  0  0  0  0  0  0  0  0
    0.8124   -3.9290   -0.3698 C   0  0  2  0  0  0  0  0  0  0  0  0
    1.0666   -2.4424   -0.5818 C   0  0  0  0  0  0  0  0  0  0  0  0
    2.0598   -2.0076   -1.1610 O   0  0  0  0  0  0  0  0  0  0  0  0
    1.4560   -4.4118    0.9207 C   0  0  0  0  0  0  0  0  0  0  0  0
    2.1528   -4.2578   -1.9805 H   0  0  0  0  0  0  0  0  0  0  0  0
   -0.2667   -4.1160   -0.3467 H   0  0  0  0  0  0  0  0  0  0  0  0
    2.5374   -4.2329    0.9160 H   0  0  0  0  0  0  0  0  0  0  0  0
    1.0390   -3.8932    1.7903 H   0  0  0  0  0  0  0  0  0  0  0  0
    1.2976   -5.4871    1.0566 H   0  0  0  0  0  0  0  0  0  0  0  0
    0.0755   -1.6529   -0.0105 N   0  0  0  0  0  0  0  0  0  0  0  0
    0.1113   -0.2132   -0.0391 C   0  0  2  0  0  0  0  0  0  0  0  0
   -0.2574    0.2263   -1.4521 C   0  0  0  0  0  0  0  0  0  0  0  0
    0.4121   -0.0678   -2.4402 O   0  0  0  0  0  0  0  0  0  0  0  0
    1.4873    0.3364    0.3505 C   0  0  0  0  0  0  0  0  0  0  0  0
    1.8308    0.0631    1.8198 C   0  0  0  0  0  0  0  0  0  0  0  0
    3.2014    0.6123    2.2020 C   0  0  0  0  0  0  0  0  0  0  0  0
    3.5349    0.3295    3.5963 N   0  3  0  0  0  0  0  0  0  0  0  0
    4.7642    0.6810    4.1568 C   0  0  0  0  0  0  0  0  0  0  0  0
    5.0129    0.3800    5.4917 N   0  0  0  0  0  0  0  0  0  0  0  0
    5.7469    1.3256    3.4126 N   0  0  0  0  0  0  0  0  0  0  0  0
   -0.7323   -2.1024    0.4149 H   0  0  0  0  0  0  0  0  0  0  0  0
   -0.6591    0.1376    0.6569 H   0  0  0  0  0  0  0  0  0  0  0  0
    1.5141    1.4172    0.1669 H   0  0  0  0  0  0  0  0  0  0  0  0
    2.2598   -0.1060   -0.2924 H   0  0  0  0  0  0  0  0  0  0  0  0
    1.0646    0.5087    2.4654 H   0  0  0  0  0  0  0  0  0  0  0  0
    1.8267   -1.0174    2.0038 H   0  0  0  0  0  0  0  0  0  0  0  0
    3.9718    0.1434    1.5822 H   0  0  0  0  0  0  0  0  0  0  0  0
    3.2431    1.6960    2.0556 H   0  0  0  0  0  0  0  0  0  0  0  0
    2.8547   -0.1407    4.1909 H   0  0  0  0  0  0  0  0  0  0  0  0
    5.8980    0.6225    5.9304 H   0  0  0  0  0  0  0  0  0  0  0  0
    4.3166   -0.0909    6.0644 H   0  0  0  0  0  0  0  0  0  0  0  0
    6.6437    1.5837    3.8159 H   0  0  0  0  0  0  0  0  0  0  0  0
    5.5932    1.5580    2.4342 H   0  0  0  0  0  0  0  0  0  0  0  0
   -1.3925    1.0248   -1.4712 N   0  0  0  0  0  0  0  0  0  0  0  0
   -1.9219    1.6098   -2.6816 C   0  0  2  0  0  0  0  0  0  0  0  0
   -2.5569    2.9459   -2.3194 C   0  0  0  0  0  0  0  0  0  0  0  0
   -3.1279    3.1493   -1.2500 O   0  0  0  0  0  0  0  0  0  0  0  0
   -2.9343    0.6888   -3.3444 C   0  0  0  0  0  0  0  0  0  0  0  0
   -1.9011    1.1887   -0.6074 H   0  0  0  0  0  0  0  0  0  0  0  0
   -1.0705    1.7787   -3.3499 H   0  0  0  0  0  0  0  0  0  0  0  0
   -3.7946    0.5080   -2.6897 H   0  0  0  0  0  0  0  0  0  0  0  0
   -3.3133    1.1210   -4.2764 H   0  0  0  0  0  0  0  0  0  0  0  0
   -2.4840   -0.2822   -3.5772 H   0  0  0  0  0  0  0  0  0  0  0  0
   -2.4487    3.8711   -3.3482 N   0  0  0  0  0  0  0  0  0  0  0  0
   -3.0098    5.1993   -3.2645 C   0  0  0  0  0  0  0  0  0  0  0  0
   -1.9237    3.6302   -4.1837 H   0  0  0  0  0  0  0  0  0  0  0  0
   -4.0232    5.1975   -3.6925 H   0  0  0  0  0  0  0  0  0  0  0  0
   -3.0575    5.5113   -2.2108 H   0  0  0  0  0  0  0  0  0  0  0  0
   -2.3759    5.9011   -3.8264 H   0  0  0  0  0  0  0  0  0  0  0  0
  1  3  1  0  0  0  0
  1  7  1  0  0  0  0
  1  2  2  0  0  0  0
 42 43  1  0  0  0  0
 43 51  1  0  0  0  0
 43 44  2  0  0  0  0
  8  9  1  0  0  0  0
  9 17  1  0  0  0  0
  9 10  2  0  0  0  0
 18 19  1  0  0  0  0
 19 41  1  0  0  0  0
 19 20  2  0  0  0  0
 25 26  1  0  0  0  0
 25 27  1  0  0  0  0
 24 25  2  0  0  0  0
 42 45  1  0  0  0  0
  8 11  1  0  0  0  0
 51 52  1  0  0  0  0
 21 22  1  0  0  0  0
 22 23  1  0  0  0  0
 18 21  1  0  0  0  0
 23 24  1  0  0  0  0
 41 42  1  0  0  0  0
  7  8  1  0  0  0  0
 17 18  1  0  0  0  0
  3  4  1  0  0  0  0
  3  5  1  0  0  0  0
  3  6  1  0  0  0  0
 45 48  1  0  0  0  0
 45 49  1  0  0  0  0
 45 50  1  0  0  0  0
 11 14  1  0  0  0  0
 11 15  1  0  0  0  0
 11 16  1  0  0  0  0
 52 54  1  0  0  0  0
 52 55  1  0  0  0  0
 52 56  1  0  0  0  0
 22 32  1  0  0  0  0
 22 33  1  0  0  0  0
 21 30  1  0  0  0  0
 21 31  1  0  0  0  0
 23 34  1  0  0  0  0
 23 35  1  0  0  0  0
 42 47  1  0  0  0  0
  8 13  1  0  0  0  0
 18 29  1  0  0  0  0
 26 37  1  0  0  0  0
 26 38  1  0  0  0  0
 27 39  1  0  0  0  0
 27 40  1  0  0  0  0
 51 53  1  0  0  0  0
  7 12  1  0  0  0  0
 41 46  1  0  0  0  0
 17 28  1  0  0  0  0
 24 36  1  0  0  0  0
M  CHG  1  24   1
M  END
$$$$

  -OEChem-05262214473D

 56 55  0     1  0  0  0  0  0999 V2000
    0.7735   -5.8042   -2.0022 C   0  0  0  0  0  0  0  0  0  0  0  0
   -0.2086   -6.3825   -1.5519 O   0  0  0  0  0  0  0  0  0  0  0  0
    1.4751   -6.3646   -3.1946 C   0  0  0  0  0  0  0  0  0  0  0  0
    2.2765   -7.0687   -2.9186 H   0  0  0  0  0  0  0  0  0  0  0  0
    0.7988   -6.9360   -3.8504 H   0  0  0  0  0  0  0  0  0  0  0  0
    1.9556   -5.6216   -3.8511 H   0  0  0  0  0  0  0  0  0  0  0  0
    1.3322   -4.6359   -1.5106 N   0  0  0  0  0  0  0  0  0  0  0  0
    0.8124   -3.9290   -0.3698 C   0  0  2  0  0  0  0  0  0  0  0  0
    1.0666   -2.4424   -0.5818 C   0  0  0  0  0  0  0  0  0  0  0  0
    2.0598   -2.0076   -1.1610 O   0  0  0  0  0  0  0  0  0  0  0  0
    1.4560   -4.4118    0.9207 C   0  0  0  0  0  0  0  0  0  0  0  0
    2.1528   -4.2578   -1.9805 H   0  0  0  0  0  0  0  0  0  0  0  0
   -0.2667   -4.1160   -0.3467 H   0  0  0  0  0  0  0  0  0  0  0  0
    2.5374   -4.2329    0.9160 H   0  0  0  0  0  0  0  0  0  0  0  0
    1.0390   -3.8932    1.7903 H   0  0  0  0  0  0  0  0  0  0  0  0
    1.2976   -5.4871    1.0566 H   0  0  0  0  0  0  0  0  0  0  0  0
    0.0755   -1.6529   -0.0105 N   0  0  0  0  0  0  0  0  0  0  0  0
    0.1113   -0.2132   -0.0391 C   0  0  2  0  0  0  0  0  0  0  0  0
   -0.2574    0.2263   -1.4521 C   0  0  0  0  0  0  0  0  0  0  0  0
    0.2395   -0.2736   -2.4592 O   0  0  0  0  0  0  0  0  0  0  0  0
    1.4873    0.3364    0.3505 C   0  0  0  0  0  0  0  0  0  0  0  0
    1.8308    0.0631    1.8198 C   0  0  0  0  0  0  0  0  0  0  0  0
    3.2014    0.6123    2.2020 C   0  0  0  0  0  0  0  0  0  0  0  0
    3.5349    0.3295    3.5963 N   0  3  0  0  0  0  0  0  0  0  0  0
    4.7642    0.6810    4.1568 C   0  0  0  0  0  0  0  0  0  0  0  0
    5.0129    0.3800    5.4917 N   0  0  0  0  0  0  0  0  0  0  0  0
    5.7469    1.3256    3.4126 N   0  0  0  0  0  0  0  0  0  0  0  0
   -0.7323   -2.1024    0.4149 H   0  0  0  0  0  0  0  0  0  0  0  0
   -0.6591    0.1376    0.6569 H   0  0  0  0  0  0  0  0  0  0  0  0
    1.5141    1.4172    0.1669 H   0  0  0  0  0  0  0  0  0  0  0  0
    2.2598   -0.1060   -0.2924 H   0  0  0  0  0  0  0  0  0  0  0  0
    1.0646    0.5087    2.4654 H   0  0  0  0  0  0  0  0  0  0  0  0
    1.8267   -1.0174    2.0038 H   0  0  0  0  0  0  0  0  0  0  0  0
    3.9718    0.1434    1.5822 H   0  0  0  0  0  0  0  0  0  0  0  0
    3.2431    1.6960    2.0556 H   0  0  0  0  0  0  0  0  0  0  0  0
    2.8547   -0.1407    4.1909 H   0  0  0  0  0  0  0  0  0  0  0  0
    5.8980    0.6225    5.9304 H   0  0  0  0  0  0  0  0  0  0  0  0
    4.3166   -0.0909    6.0644 H   0  0  0  0  0  0  0  0  0  0  0  0
    6.6437    1.5837    3.8159 H   0  0  0  0  0  0  0  0  0  0  0  0
    5.5932    1.5580    2.4342 H   0  0  0  0  0  0  0  0  0  0  0  0
   -1.1681    1.2737   -1.4524 N   0  0  0  0  0  0  0  0  0  0  0  0
   -1.6412    1.9039   -2.6633 C   0  0  2  0  0  0  0  0  0  0  0  0
   -1.9088    3.3714   -2.3562 C   0  0  0  0  0  0  0  0  0  0  0  0
   -2.3252    3.7639   -1.2683 O   0  0  0  0  0  0  0  0  0  0  0  0
   -2.8943    1.2214   -3.1892 C   0  0  0  0  0  0  0  0  0  0  0  0
   -1.5504    1.6018   -0.5704 H   0  0  0  0  0  0  0  0  0  0  0  0
   -0.8320    1.8256   -3.3976 H   0  0  0  0  0  0  0  0  0  0  0  0
   -3.7161    1.2896   -2.4671 H   0  0  0  0  0  0  0  0  0  0  0  0
   -3.2351    1.6820   -4.1223 H   0  0  0  0  0  0  0  0  0  0  0  0
   -2.7080    0.1592   -3.3814 H   0  0  0  0  0  0  0  0  0  0  0  0
   -1.6690    4.1865   -3.4536 N   0  0  0  0  0  0  0  0  0  0  0  0
   -1.8899    5.6136   -3.4280 C   0  0  0  0  0  0  0  0  0  0  0  0
   -1.2867    3.7813   -4.3030 H   0  0  0  0  0  0  0  0  0  0  0  0
   -2.9063    5.8343   -3.7859 H   0  0  0  0  0  0  0  0  0  0  0  0
   -1.7753    5.9838   -2.3985 H   0  0  0  0  0  0  0  0  0  0  0  0
   -1.1559    6.1098   -4.0799 H   0  0  0  0  0  0  0  0  0  0  0  0
  1  3  1  0  0  0  0
  1  7  1  0  0  0  0
  1  2  2  0  0  0  0
 42 43  1  0  0  0  0
 43 51  1  0  0  0  0
 43 44  2  0  0  0  0
  8  9  1  0  0  0  0
  9 17  1  0  0  0  0
  9 10  2  0  0  0  0
 18 19  1  0  0  0  0
 19 41  1  0  0  0  0
 19 20  2  0  0  0  0
 25 26  1  0  0  0  0
 25 27  1  0  0  0  0
 24 25  2  0  0  0  0
 42 45  1  0  0  0  0
  8 11  1  0  0  0  0
 51 52  1  0  0  0  0
 21 22  1  0  0  0  0
 22 23  1  0  0  0  0
 18 21  1  0  0  0  0
 23 24  1  0  0  0  0
 41 42  1  0  0  0  0
  7  8  1  0  0  0  0
 17 18  1  0  0  0  0
  3  4  1  0  0  0  0
  3  5  1  0  0  0  0
  3  6  1  0  0  0  0
 45 48  1  0  0  0  0
 45 49  1  0  0  0  0
 45 50  1  0  0  0  0
 11 14  1  0  0  0  0
 11 15  1  0  0  0  0
 11 16  1  0  0  0  0
 52 54  1  0  0  0  0
 52 55  1  0  0  0  0
 52 56  1  0  0  0  0
 22 32  1  0  0  0  0
 22 33  1  0  0  0  0
 21 30  1  0  0  0  0
 21 31  1  0  0  0  0
 23 34  1  0  0  0  0
 23 35  1  0  0  0  0
 42 47  1  0  0  0  0
  8 13  1  0  0  0  0
 18 29  1  0  0  0  0
 26 37  1  0  0  0  0
 26 38  1  0  0  0  0
 27 39  1  0  0  0  0
 27 40  1  0  0  0  0
 51 53  1  0  0  0  0
  7 12  1  0  0  0  0
 41 46  1  0  0  0  0
 17 28  1  0  0  0  0
 24 36  1  0  0  0  0
M  CHG  1  24   1
M  END
$$$$

  -OEChem-05262214473D

 56 55  0     1  0  0  0  0  0999 V2000
    0.7735   -5.8042   -2.0022 C   0  0  0  0  0  0  0  0  0  0  0  0
   -0.2086   -6.3825   -1.5519 O   0  0  0  0  0  0  0  0  0  0  0  0
    1.4751   -6.3646   -3.1946 C   0  0  0  0  0  0  0  0  0  0  0  0
    2.2765   -7.0687   -2.9186 H   0  0  0  0  0  0  0  0  0  0  0  0
    0.7988   -6.9360   -3.8504 H   0  0  0  0  0  0  0  0  0  0  0  0
    1.9556   -5.6216   -3.8511 H   0  0  0  0  0  0  0  0  0  0  0  0
    1.3322   -4.6359   -1.5106 N   0  0  0  0  0  0  0  0  0  0  0  0
    0.8124   -3.9290   -0.3698 C   0  0  2  0  0  0  0  0  0  0  0  0
    1.0666   -2.4424   -0.5818 C   0  0  0  0  0  0  0  0  0  0  0  0
    2.0598   -2.0076   -1.1610 O   0  0  0  0  0  0  0  0  0  0  0  0
    1.4560   -4.4118    0.9207 C   0  0  0  0  0  0  0  0  0  0  0  0
    2.1528   -4.2578   -1.9805 H   0  0  0  0  0  0  0  0  0  0  0  0
   -0.2667   -4.1160   -0.3467 H   0  0  0  0  0  0  0  0  0  0  0  0
    2.5374   -4.2329    0.9160 H   0  0  0  0  0  0  0  0  0  0  0  0
    1.0390   -3.8932    1.7903 H   0  0  0  0  0  0  0  0  0  0  0  0
    1.2976   -5.4871    1.0566 H   0  0  0  0  0  0  0  0  0  0  0  0
    0.0755   -1.6529   -0.0105 N   0  0  0  0  0  0  0  0  0  0  0  0
    0.1113   -0.2132   -0.0391 C   0  0  2  0  0  0  0  0  0  0  0  0
   -0.2574    0.2263   -1.4521 C   0  0  0  0  0  0  0  0  0  0  0  0
    0.0220   -0.4322   -2.4518 O   0  0  0  0  0  0  0  0  0  0  0  0
    1.4873    0.3364    0.3505 C   0  0  0  0  0  0  0  0  0  0  0  0
    1.8308    0.0631    1.8198 C   0  0  0  0  0  0  0  0  0  0  0  0
    3.2014    0.6123    2.2020 C   0  0  0  0  0  0  0  0  0  0  0  0
    3.5349    0.3295    3.5963 N   0  3  0  0  0  0  0  0  0  0  0  0
    4.7642    0.6810    4.1568 C   0  0  0  0  0  0  0  0  0  0  0  0
    5.0129    0.3800    5.4917 N   0  0  0  0  0  0  0  0  0  0  0  0
    5.7469    1.3256    3.4126 N   0  0  0  0  0  0  0  0  0  0  0  0
   -0.7323   -2.1024    0.4149 H   0  0  0  0  0  0  0  0  0  0  0  0
   -0.6591    0.1376    0.6569 H   0  0  0  0  0  0  0  0  0  0  0  0
    1.5141    1.4172    0.1669 H   0  0  0  0  0  0  0  0  0  0  0  0
    2.2598   -0.1060   -0.2924 H   0  0  0  0  0  0  0  0  0  0  0  0
    1.0646    0.5087    2.4654 H   0  0  0  0  0  0  0  0  0  0  0  0
    1.8267   -1.0174    2.0038 H   0  0  0  0  0  0  0  0  0  0  0  0
    3.9718    0.1434    1.5822 H   0  0  0  0  0  0  0  0  0  0  0  0
    3.2431    1.6960    2.0556 H   0  0  0  0  0  0  0  0  0  0  0  0
    2.8547   -0.1407    4.1909 H   0  0  0  0  0  0  0  0  0  0  0  0
    5.8980    0.6225    5.9304 H   0  0  0  0  0  0  0  0  0  0  0  0
    4.3166   -0.0909    6.0644 H   0  0  0  0  0  0  0  0  0  0  0  0
    6.6437    1.5837    3.8159 H   0  0  0  0  0  0  0  0  0  0  0  0
    5.5932    1.5580    2.4342 H   0  0  0  0  0  0  0  0  0  0  0  0
   -0.8902    1.4615   -1.4665 N   0  0  0  0  0  0  0  0  0  0  0  0
   -1.2981    2.1218   -2.6851 C   0  0  2  0  0  0  0  0  0  0  0  0
   -1.1834    3.6247   -2.4667 C   0  0  0  0  0  0  0  0  0  0  0  0
   -1.4038    4.1640   -1.3843 O   0  0  0  0  0  0  0  0  0  0  0  0
   -2.7163    1.7360   -3.0756 C   0  0  0  0  0  0  0  0  0  0  0  0
   -1.1099    1.9192   -0.5867 H   0  0  0  0  0  0  0  0  0  0  0  0
   -0.5938    1.8107   -3.4644 H   0  0  0  0  0  0  0  0  0  0  0  0
   -3.4361    2.0397   -2.3068 H   0  0  0  0  0  0  0  0  0  0  0  0
   -3.0136    2.2148   -4.0143 H   0  0  0  0  0  0  0  0  0  0  0  0
   -2.8040    0.6516   -3.2032 H   0  0  0  0  0  0  0  0  0  0  0  0
   -0.8480    4.2975   -3.6333 N   0  0  0  0  0  0  0  0  0  0  0  0
   -0.7209    5.7349   -3.6953 C   0  0  0  0  0  0  0  0  0  0  0  0
   -0.6441    3.7670   -4.4751 H   0  0  0  0  0  0  0  0  0  0  0  0
   -1.6818    6.1757   -3.9992 H   0  0  0  0  0  0  0  0  0  0  0  0
   -0.4375    6.1208   -2.7050 H   0  0  0  0  0  0  0  0  0  0  0  0
    0.0537    6.0030   -4.4288 H   0  0  0  0  0  0  0  0  0  0  0  0
  1  3  1  0  0  0  0
  1  7  1  0  0  0  0
  1  2  2  0  0  0  0
 42 43  1  0  0  0  0
 43 51  1  0  0  0  0
 43 44  2  0  0  0  0
  8  9  1  0  0  0  0
  9 17  1  0  0  0  0
  9 10  2  0  0  0  0
 18 19  1  0  0  0  0
 19 41  1  0  0  0  0
 19 20  2  0  0  0  0
 25 26  1  0  0  0  0
 25 27  1  0  0  0  0
 24 25  2  0  0  0  0
 42 45  1  0  0  0  0
  8 11  1  0  0  0  0
 51 52  1  0  0  0  0
 21 22  1  0  0  0  0
 22 23  1  0  0  0  0
 18 21  1  0  0  0  0
 23 24  1  0  0  0  0
 41 42  1  0  0  0  0
  7  8  1  0  0  0  0
 17 18  1  0  0  0  0
  3  4  1  0  0  0  0
  3  5  1  0  0  0  0
  3  6  1  0  0  0  0
 45 48  1  0  0  0  0
 45 49  1  0  0  0  0
 45 50  1  0  0  0  0
 11 14  1  0  0  0  0
 11 15  1  0  0  0  0
 11 16  1  0  0  0  0
 52 54  1  0  0  0  0
 52 55  1  0  0  0  0
 52 56  1  0  0  0  0
 22 32  1  0  0  0  0
 22 33  1  0  0  0  0
 21 30  1  0  0  0  0
 21 31  1  0  0  0  0
 23 34  1  0  0  0  0
 23 35  1  0  0  0  0
 42 47  1  0  0  0  0
  8 13  1  0  0  0  0
 18 29  1  0  0  0  0
 26 37  1  0  0  0  0
 26 38  1  0  0  0  0
 27 39  1  0  0  0  0
 27 40  1  0  0  0  0
 51 53  1  0  0  0  0
  7 12  1  0  0  0  0
 41 46  1  0  0  0  0
 17 28  1  0  0  0  0
 24 36  1  0  0  0  0
M  CHG  1  24   1
M  END
$$$$

  -OEChem-05262214473D

 56 55  0     1  0  0  0  0  0999 V2000
    0.7735   -5.8042   -2.0022 C   0  0  0  0  0  0  0  0  0  0  0  0
   -0.2086   -6.3825   -1.5519 O   0  0  0  0  0  0  0  0  0  0  0  0
    1.4751   -6.3646   -3.1946 C   0  0  0  0  0  0  0  0  0  0  0  0
    2.2765   -7.0687   -2.9186 H   0  0  0  0  0  0  0  0  0  0  0  0
    0.7988   -6.9360   -3.8504 H   0  0  0  0  0  0  0  0  0  0  0  0
    1.9556   -5.6216   -3.8511 H   0  0  0  0  0  0  0  0  0  0  0  0
    1.3322   -4.6359   -1.5106 N   0  0  0  0  0  0  0  0  0  0  0  0
    0.8124   -3.9290   -0.3698 C   0  0  2  0  0  0  0  0  0  0  0  0
    1.0666   -2.4424   -0.5818 C   0  0  0  0  0  0  0  0  0  0  0  0
    2.0598   -2.0076   -1.1610 O   0  0  0  0  0  0  0  0  0  0  0  0
    1.4560   -4.4118    0.9207 C   0  0  0  0  0  0  0  0  0  0  0  0
    2.1528   -4.2578   -1.9805 H   0  0  0  0  0  0  0  0  0  0  0  0
   -0.2667   -4.1160   -0.3467 H   0  0  0  0  0  0  0  0  0  0  0  0
    2.5374   -4.2329    0.9160 H   0  0  0  0  0  0  0  0  0  0  0  0
    1.0390   -3.8932    1.7903 H   0  0  0  0  0  0  0  0  0  0  0  0
    1.2976   -5.4871    1.0566 H   0  0  0  0  0  0  0  0  0  0  0  0
    0.0755   -1.6529   -0.0105 N   0  0  0  0  0  0  0  0  0  0  0  0
    0.1113   -0.2132   -0.0391 C   0  0  2  0  0  0  0  0  0  0  0  0
   -0.2574    0.2263   -1.4521 C   0  0  0  0  0  0  0  0  0  0  0  0
   -0.2255   -0.5328   -2.4185 O   0  0  0  0  0  0  0  0  0  0  0  0
    1.4873    0.3364    0.3505 C   0  0  0  0  0  0  0  0  0  0  0  0
    1.8308    0.0631    1.8198 C   0  0  0  0  0  0  0  0  0  0  0  0
    3.2014    0.6123    2.2020 C   0  0  0  0  0  0  0  0  0  0  0  0
    3.5349    0.3295    3.5963 N   0  3  0  0  0  0  0  0  0  0  0  0
    4.7642    0.6810    4.1568 C   0  0  0  0  0  0  0  0  0  0  0  0
    5.0129    0.3800    5.4917 N   0  0  0  0  0  0  0  0  0  0  0  0
    5.7469    1.3256    3.4126 N   0  0  0  0  0  0  0  0  0  0  0  0
   -0.7323   -2.1024    0.4149 H   0  0  0  0  0  0  0  0  0  0  0  0
   -0.6591    0.1376    0.6569 H   0  0  0  0  0  0  0  0  0  0  0  0
    1.5141    1.4172    0.1669 H   0  0  0  0  0  0  0  0  0  0  0  0
    2.2598   -0.1060   -0.2924 H   0  0  0  0  0  0  0  0  0  0  0  0
    1.0646    0.5087    2.4654 H   0  0  0  0  0  0  0  0  0  0  0  0
    1.8267   -1.0174    2.0038 H   0  0  0  0  0  0  0  0  0  0  0  0
    3.9718    0.1434    1.5822 H   0  0  0  0  0  0  0  0  0  0  0  0
    3.2431    1.6960    2.0556 H   0  0  0  0  0  0  0  0  0  0  0  0
    2.8547   -0.1407    4.1909 H   0  0  0  0  0  0  0  0  0  0  0  0
    5.8980    0.6225    5.9304 H   0  0  0  0  0  0  0  0  0  0  0  0
    4.3166   -0.0909    6.0644 H   0  0  0  0  0  0  0  0  0  0  0  0
    6.6437    1.5837    3.8159 H   0  0  0  0  0  0  0  0  0  0  0  0
    5.5932    1.5580    2.4342 H   0  0  0  0  0  0  0  0  0  0  0  0
   -0.5778    1.5754   -1.5126 N   0  0  0  0  0  0  0  0  0  0  0  0
   -0.9160    2.2487   -2.7454 C   0  0  2  0  0  0  0  0  0  0  0  0
   -0.4303    3.6885   -2.6434 C   0  0  0  0  0  0  0  0  0  0  0  0
   -0.4266    4.3222   -1.5901 O   0  0  0  0  0  0  0  0  0  0  0  0
   -2.4125    2.1974   -3.0113 C   0  0  0  0  0  0  0  0  0  0  0  0
   -0.6094    2.1190   -0.6551 H   0  0  0  0  0  0  0  0  0  0  0  0
   -0.3724    1.7350   -3.5457 H   0  0  0  0  0  0  0  0  0  0  0  0
   -2.9739    2.7071   -2.2198 H   0  0  0  0  0  0  0  0  0  0  0  0
   -2.6637    2.6831   -3.9600 H   0  0  0  0  0  0  0  0  0  0  0  0
   -2.7653    1.1614   -3.0547 H   0  0  0  0  0  0  0  0  0  0  0  0
   -0.0419    4.1967   -3.8751 N   0  0  0  0  0  0  0  0  0  0  0  0
    0.4174    5.5550   -4.0484 C   0  0  0  0  0  0  0  0  0  0  0  0
   -0.0397    3.5883   -4.6885 H   0  0  0  0  0  0  0  0  0  0  0  0
   -0.4330    6.1986   -4.3181 H   0  0  0  0  0  0  0  0  0  0  0  0
    0.8648    5.9133   -3.1095 H   0  0  0  0  0  0  0  0  0  0  0  0
    1.1705    5.5880   -4.8494 H   0  0  0  0  0  0  0  0  0  0  0  0
  1  3  1  0  0  0  0
  1  7  1  0  0  0  0
  1  2  2  0  0  0  0
 42 43  1  0  0  0  0
 43 51  1  0  0  0  0
 43 44  2  0  0  0  0
  8  9  1  0  0  0  0
  9 17  1  0  0  0  0
  9 10  2  0  0  0  0
 18 19  1  0  0  0  0
 19 41  1  0  0  0  0
 19 20  2  0  0  0  0
 25 26  1  0  0  0  0
 25 27  1  0  0  0  0
 24 25  2  0  0  0  0
 42 45  1  0  0  0  0
  8 11  1  0  0  0  0
 51 52  1  0  0  0  0
 21 22  1  0  0  0  0
 22 23  1  0  0  0  0
 18 21  1  0  0  0  0
 23 24  1  0  0  0  0
 41 42  1  0  0  0  0
  7  8  1  0  0  0  0
 17 18  1  0  0  0  0
  3  4  1  0  0  0  0
  3  5  1  0  0  0  0
  3  6  1  0  0  0  0
 45 48  1  0  0  0  0
 45 49  1  0  0  0  0
 45 50  1  0  0  0  0
 11 14  1  0  0  0  0
 11 15  1  0  0  0  0
 11 16  1  0  0  0  0
 52 54  1  0  0  0  0
 52 55  1  0  0  0  0
 52 56  1  0  0  0  0
 22 32  1  0  0  0  0
 22 33  1  0  0  0  0
 21 30  1  0  0  0  0
 21 31  1  0  0  0  0
 23 34  1  0  0  0  0
 23 35  1  0  0  0  0
 42 47  1  0  0  0  0
  8 13  1  0  0  0  0
 18 29  1  0  0  0  0
 26 37  1  0  0  0  0
 26 38  1  0  0  0  0
 27 39  1  0  0  0  0
 27 40  1  0  0  0  0
 51 53  1  0  0  0  0
  7 12  1  0  0  0  0
 41 46  1  0  0  0  0
 17 28  1  0  0  0  0
 24 36  1  0  0  0  0
M  CHG  1  24   1
M  END
$$$$

  -OEChem-05262214473D

 56 55  0     1  0  0  0  0  0999 V2000
    0.7735   -5.8042   -2.0022 C   0  0  0  0  0  0  0  0  0  0  0  0
   -0.2086   -6.3825   -1.5519 O   0  0  0  0  0  0  0  0  0  0  0  0
    1.4751   -6.3646   -3.1946 C   0  0  0  0  0  0  0  0  0  0  0  0
    2.2765   -7.0687   -2.9186 H   0  0  0  0  0  0  0  0  0  0  0  0
    0.7988   -6.9360   -3.8504 H   0  0  0  0  0  0  0  0  0  0  0  0
    1.9556   -5.6216   -3.8511 H   0  0  0  0  0  0  0  0  0  0  0  0
    1.3322   -4.6359   -1.5106 N   0  0  0  0  0  0  0  0  0  0  0  0
    0.8124   -3.9290   -0.3698 C   0  0  2  0  0  0  0  0  0  0  0  0
    1.0666   -2.4424   -0.5818 C   0  0  0  0  0  0  0  0  0  0  0  0
    2.0598   -2.0076   -1.1610 O   0  0  0  0  0  0  0  0  0  0  0  0
    1.4560   -4.4118    0.9207 C   0  0  0  0  0  0  0  0  0  0  0  0
    2.1528   -4.2578   -1.9805 H   0  0  0  0  0  0  0  0  0  0  0  0
   -0.2667   -4.1160   -0.3467 H   0  0  0  0  0  0  0  0  0  0  0  0
    2.5374   -4.2329    0.9160 H   0  0  0  0  0  0  0  0  0  0  0  0
    1.0390   -3.8932    1.7903 H   0  0  0  0  0  0  0  0  0  0  0  0
    1.2976   -5.4871    1.0566 H   0  0  0  0  0  0  0  0  0  0  0  0
    0.0755   -1.6529   -0.0105 N   0  0  0  0  0  0  0  0  0  0  0  0
    0.1113   -0.2132   -0.0391 C   0  0  2  0  0  0  0  0  0  0  0  0
   -0.6077    0.2380   -1.3060 C   0  0  0  0  0  0  0  0  0  0  0  0
   -1.0687   -0.5494   -2.1299 O   0  0  0  0  0  0  0  0  0  0  0  0
    1.5446    0.3277   -0.0155 C   0  0  0  0  0  0  0  0  0  0  0  0
    2.2548    0.0425    1.3132 C   0  0  0  0  0  0  0  0  0  0  0  0
    3.6808    0.5831    1.3311 C   0  0  0  0  0  0  0  0  0  0  0  0
    4.3619    0.2889    2.5899 N   0  3  0  0  0  0  0  0  0  0  0  0
    5.6965    0.6310    2.8153 C   0  0  0  0  0  0  0  0  0  0  0  0
    6.2802    0.3195    4.0387 N   0  0  0  0  0  0  0  0  0  0  0  0
    6.4571    1.2768    1.8460 N   0  0  0  0  0  0  0  0  0  0  0  0
   -0.7323   -2.1024    0.4149 H   0  0  0  0  0  0  0  0  0  0  0  0
   -0.4508    0.1359    0.8345 H   0  0  0  0  0  0  0  0  0  0  0  0
    1.5294    1.4097   -0.1936 H   0  0  0  0  0  0  0  0  0  0  0  0
    2.1218   -0.1134   -0.8390 H   0  0  0  0  0  0  0  0  0  0  0  0
    1.6843    0.4868    2.1376 H   0  0  0  0  0  0  0  0  0  0  0  0
    2.2919   -1.0393    1.4858 H   0  0  0  0  0  0  0  0  0  0  0  0
    4.2619    0.1153    0.5304 H   0  0  0  0  0  0  0  0  0  0  0  0
    3.6897    1.6675    1.1851 H   0  0  0  0  0  0  0  0  0  0  0  0
    3.8559   -0.1826    3.3375 H   0  0  0  0  0  0  0  0  0  0  0  0
    7.2501    0.5551    4.2349 H   0  0  0  0  0  0  0  0  0  0  0  0
    5.7529   -0.1524    4.7693 H   0  0  0  0  0  0  0  0  0  0  0  0
    7.4293    1.5281    2.0050 H   0  0  0  0  0  0  0  0  0  0  0  0
    6.0569    1.5167    0.9419 H   0  0  0  0  0  0  0  0  0  0  0  0
   -0.6294    1.6201   -1.4302 N   0  0  0  0  0  0  0  0  0  0  0  0
   -1.2091    2.2984   -2.5666 C   0  0  2  0  0  0  0  0  0  0  0  0
   -0.4179    3.5777   -2.8046 C   0  0  0  0  0  0  0  0  0  0  0  0
    0.0780    4.2389   -1.8946 O   0  0  0  0  0  0  0  0  0  0  0  0
   -2.6809    2.6044   -2.3367 C   0  0  0  0  0  0  0  0  0  0  0  0
   -0.2515    2.1937   -0.6820 H   0  0  0  0  0  0  0  0  0  0  0  0
   -1.0922    1.6305   -3.4270 H   0  0  0  0  0  0  0  0  0  0  0  0
   -2.8180    3.2724   -1.4785 H   0  0  0  0  0  0  0  0  0  0  0  0
   -3.1258    3.0928   -3.2099 H   0  0  0  0  0  0  0  0  0  0  0  0
   -3.2433    1.6861   -2.1362 H   0  0  0  0  0  0  0  0  0  0  0  0
   -0.3672    3.9176   -4.1493 N   0  0  0  0  0  0  0  0  0  0  0  0
    0.2893    5.1118   -4.6274 C   0  0  0  0  0  0  0  0  0  0  0  0
   -0.7713    3.2905   -4.8387 H   0  0  0  0  0  0  0  0  0  0  0  0
   -0.4413    5.9316   -4.6924 H   0  0  0  0  0  0  0  0  0  0  0  0
    1.0934    5.3919   -3.9310 H   0  0  0  0  0  0  0  0  0  0  0  0
    0.7164    4.9217   -5.6231 H   0  0  0  0  0  0  0  0  0  0  0  0
  1  3  1  0  0  0  0
  1  7  1  0  0  0  0
  1  2  2  0  0  0  0
 42 43  1  0  0  0  0
 43 51  1  0  0  0  0
 43 44  2  0  0  0  0
  8  9  1  0  0  0  0
  9 17  1  0  0  0  0
  9 10  2  0  0  0  0
 18 19  1  0  0  0  0
 19 41  1  0  0  0  0
 19 20  2  0  0  0  0
 25 26  1  0  0  0  0
 25 27  1  0  0  0  0
 24 25  2  0  0  0  0
 42 45  1  0  0  0  0
  8 11  1  0  0  0  0
 51 52  1  0  0  0  0
 21 22  1  0  0  0  0
 22 23  1  0  0  0  0
 18 21  1  0  0  0  0
 23 24  1  0  0  0  0
 41 42  1  0  0  0  0
  7  8  1  0  0  0  0
 17 18  1  0  0  0  0
  3  4  1  0  0  0  0
  3  5  1  0  0  0  0
  3  6  1  0  0  0  0
 45 48  1  0  0  0  0
 45 49  1  0  0  0  0
 45 50  1  0  0  0  0
 11 14  1  0  0  0  0
 11 15  1  0  0  0  0
 11 16  1  0  0  0  0
 52 54  1  0  0  0  0
 52 55  1  0  0  0  0
 52 56  1  0  0  0  0
 22 32  1  0  0  0  0
 22 33  1  0  0  0  0
 21 30  1  0  0  0  0
 21 31  1  0  0  0  0
 23 34  1  0  0  0  0
 23 35  1  0  0  0  0
 42 47  1  0  0  0  0
  8 13  1  0  0  0  0
 18 29  1  0  0  0  0
 26 37  1  0  0  0  0
 26 38  1  0  0  0  0
 27 39  1  0  0  0  0
 27 40  1  0  0  0  0
 51 53  1  0  0  0  0
  7 12  1  0  0  0  0
 41 46  1  0  0  0  0
 17 28  1  0  0  0  0
 24 36  1  0  0  0  0
M  CHG  1  24   1
M  END
$$$$

  -OEChem-05262214473D

 56 55  0     1  0  0  0  0  0999 V2000
    0.7735   -5.8042   -2.0022 C   0  0  0  0  0  0  0  0  0  0  0  0
   -0.2086   -6.3825   -1.5519 O   0  0  0  0  0  0  0  0  0  0  0  0
    1.4751   -6.3646   -3.1946 C   0  0  0  0  0  0  0  0  0  0  0  0
    2.2765   -7.0687   -2.9186 H   0  0  0  0  0  0  0  0  0  0  0  0
    0.7988   -6.9360   -3.8504 H   0  0  0  0  0  0  0  0  0  0  0  0
    1.9556   -5.6216   -3.8511 H   0  0  0  0  0  0  0  0  0  0  0  0
    1.3322   -4.6359   -1.5106 N   0  0  0  0  0  0  0  0  0  0  0  0
    0.8124   -3.9290   -0.3698 C   0  0  2  0  0  0  0  0  0  0  0  0
    1.0666   -2.4424   -0.5818 C   0  0  0  0  0  0  0  0  0  0  0  0
    2.0598   -2.0076   -1.1610 O   0  0  0  0  0  0  0  0  0  0  0  0
    1.4560   -4.4118    0.9207 C   0  0  0  0  0  0  0  0  0  0  0  0
    2.1528   -4.2578   -1.9805 H   0  0  0  0  0  0  0  0  0  0  0  0
   -0.2667   -4.1160   -0.3467 H   0  0  0  0  0  0  0  0  0  0  0  0
    2.5374   -4.2329    0.9160 H   0  0  0  0  0  0  0  0  0  0  0  0
    1.0390   -3.8932    1.7903 H   0  0  0  0  0  0  0  0  0  0  0  0
    1.2976   -5.4871    1.0566 H   0  0  0  0  0  0  0  0  0  0  0  0
    0.0755   -1.6529   -0.0105 N   0  0  0  0  0  0  0  0  0  0  0  0
    0.1113   -0.2132   -0.0391 C   0  0  2  0  0  0  0  0  0  0  0  0
   -0.6077    0.2380   -1.3060 C   0  0  0  0  0  0  0  0  0  0  0  0
   -1.2962   -0.5172   -1.9894 O   0  0  0  0  0  0  0  0  0  0  0  0
    1.5446    0.3277   -0.0155 C   0  0  0  0  0  0  0  0  0  0  0  0
    2.2548    0.0425    1.3132 C   0  0  0  0  0  0  0  0  0  0  0  0
    3.6808    0.5831    1.3311 C   0  0  0  0  0  0  0  0  0  0  0  0
    4.3619    0.2889    2.5899 N   0  3  0  0  0  0  0  0  0  0  0  0
    5.6965    0.6310    2.8153 C   0  0  0  0  0  0  0  0  0  0  0  0
    6.2802    0.3195    4.0387 N   0  0  0  0  0  0  0  0  0  0  0  0
    6.4571    1.2768    1.8460 N   0  0  0  0  0  0  0  0  0  0  0  0
   -0.7323   -2.1024    0.4149 H   0  0  0  0  0  0  0  0  0  0  0  0
   -0.4508    0.1359    0.8345 H   0  0  0  0  0  0  0  0  0  0  0  0
    1.5294    1.4097   -0.1936 H   0  0  0  0  0  0  0  0  0  0  0  0
    2.1218   -0.1134   -0.8390 H   0  0  0  0  0  0  0  0  0  0  0  0
    1.6843    0.4868    2.1376 H   0  0  0  0  0  0  0  0  0  0  0  0
    2.2919   -1.0393    1.4858 H   0  0  0  0  0  0  0  0  0  0  0  0
    4.2619    0.1153    0.5304 H   0  0  0  0  0  0  0  0  0  0  0  0
    3.6897    1.6675    1.1851 H   0  0  0  0  0  0  0  0  0  0  0  0
    3.8559   -0.1826    3.3375 H   0  0  0  0  0  0  0  0  0  0  0  0
    7.2501    0.5551    4.2349 H   0  0  0  0  0  0  0  0  0  0  0  0
    5.7529   -0.1524    4.7693 H   0  0  0  0  0  0  0  0  0  0  0  0
    7.4293    1.5281    2.0050 H   0  0  0  0  0  0  0  0  0  0  0  0
    6.0569    1.5167    0.9419 H   0  0  0  0  0  0  0  0  0  0  0  0
   -0.3494    1.5678   -1.6078 N   0  0  0  0  0  0  0  0  0  0  0  0
   -0.8733    2.2232   -2.7840 C   0  0  2  0  0  0  0  0  0  0  0  0
    0.1446    3.2618   -3.2363 C   0  0  0  0  0  0  0  0  0  0  0  0
    0.8481    3.8969   -2.4535 O   0  0  0  0  0  0  0  0  0  0  0  0
   -2.2211    2.8693   -2.5033 C   0  0  0  0  0  0  0  0  0  0  0  0
    0.2063    2.1256   -0.9661 H   0  0  0  0  0  0  0  0  0  0  0  0
   -0.9772    1.4526   -3.5556 H   0  0  0  0  0  0  0  0  0  0  0  0
   -2.1369    3.6442   -1.7326 H   0  0  0  0  0  0  0  0  0  0  0  0
   -2.6300    3.3410   -3.4029 H   0  0  0  0  0  0  0  0  0  0  0  0
   -2.9436    2.1259   -2.1496 H   0  0  0  0  0  0  0  0  0  0  0  0
    0.1444    3.4271   -4.6143 N   0  0  0  0  0  0  0  0  0  0  0  0
    0.9916    4.3856   -5.2847 C   0  0  0  0  0  0  0  0  0  0  0  0
   -0.4428    2.8300   -5.1891 H   0  0  0  0  0  0  0  0  0  0  0  0
    0.4469    5.3331   -5.4097 H   0  0  0  0  0  0  0  0  0  0  0  0
    1.8959    4.5594   -4.6830 H   0  0  0  0  0  0  0  0  0  0  0  0
    1.2778    3.9944   -6.2721 H   0  0  0  0  0  0  0  0  0  0  0  0
  1  3  1  0  0  0  0
  1  7  1  0  0  0  0
  1  2  2  0  0  0  0
 42 43  1  0  0  0  0
 43 51  1  0  0  0  0
 43 44  2  0  0  0  0
  8  9  1  0  0  0  0
  9 17  1  0  0  0  0
  9 10  2  0  0  0  0
 18 19  1  0  0  0  0
 19 41  1  0  0  0  0
 19 20  2  0  0  0  0
 25 26  1  0  0  0  0
 25 27  1  0  0  0  0
 24 25  2  0  0  0  0
 42 45  1  0  0  0  0
  8 11  1  0  0  0  0
 51 52  1  0  0  0  0
 21 22  1  0  0  0  0
 22 23  1  0  0  0  0
 18 21  1  0  0  0  0
 23 24  1  0  0  0  0
 41 42  1  0  0  0  0
  7  8  1  0  0  0  0
 17 18  1  0  0  0  0
  3  4  1  0  0  0  0
  3  5  1  0  0  0  0
  3  6  1  0  0  0  0
 45 48  1  0  0  0  0
 45 49  1  0  0  0  0
 45 50  1  0  0  0  0
 11 14  1  0  0  0  0
 11 15  1  0  0  0  0
 11 16  1  0  0  0  0
 52 54  1  0  0  0  0
 52 55  1  0  0  0  0
 52 56  1  0  0  0  0
 22 32  1  0  0  0  0
 22 33  1  0  0  0  0
 21 30  1  0  0  0  0
 21 31  1  0  0  0  0
 23 34  1  0  0  0  0
 23 35  1  0  0  0  0
 42 47  1  0  0  0  0
  8 13  1  0  0  0  0
 18 29  1  0  0  0  0
 26 37  1  0  0  0  0
 26 38  1  0  0  0  0
 27 39  1  0  0  0  0
 27 40  1  0  0  0  0
 51 53  1  0  0  0  0
  7 12  1  0  0  0  0
 41 46  1  0  0  0  0
 17 28  1  0  0  0  0
 24 36  1  0  0  0  0
M  CHG  1  24   1
M  END
$$$$

  -OEChem-05262214473D

 56 55  0     1  0  0  0  0  0999 V2000
    0.7735   -5.8042   -2.0022 C   0  0  0  0  0  0  0  0  0  0  0  0
   -0.2086   -6.3825   -1.5519 O   0  0  0  0  0  0  0  0  0  0  0  0
    1.4751   -6.3646   -3.1946 C   0  0  0  0  0  0  0  0  0  0  0  0
    2.2765   -7.0687   -2.9186 H   0  0  0  0  0  0  0  0  0  0  0  0
    0.7988   -6.9360   -3.8504 H   0  0  0  0  0  0  0  0  0  0  0  0
    1.9556   -5.6216   -3.8511 H   0  0  0  0  0  0  0  0  0  0  0  0
    1.3322   -4.6359   -1.5106 N   0  0  0  0  0  0  0  0  0  0  0  0
    0.8124   -3.9290   -0.3698 C   0  0  2  0  0  0  0  0  0  0  0  0
    1.0666   -2.4424   -0.5818 C   0  0  0  0  0  0  0  0  0  0  0  0
    2.0598   -2.0076   -1.1610 O   0  0  0  0  0  0  0  0  0  0  0  0
    1.4560   -4.4118    0.9207 C   0  0  0  0  0  0  0  0  0  0  0  0
    2.1528   -4.2578   -1.9805 H   0  0  0  0  0  0  0  0  0  0  0  0
   -0.2667   -4.1160   -0.3467 H   0  0  0  0  0  0  0  0  0  0  0  0
    2.5374   -4.2329    0.9160 H   0  0  0  0  0  0  0  0  0  0  0  0
    1.0390   -3.8932    1.7903 H   0  0  0  0  0  0  0  0  0  0  0  0
    1.2976   -5.4871    1.0566 H   0  0  0  0  0  0  0  0  0  0  0  0
    0.0755   -1.6529   -0.0105 N   0  0  0  0  0  0  0  0  0  0  0  0
    0.1113   -0.2132   -0.0391 C   0  0  2  0  0  0  0  0  0  0  0  0
   -0.6077    0.2380   -1.3060 C   0  0  0  0  0  0  0  0  0  0  0  0
   -1.4981   -0.4201   -1.8401 O   0  0  0  0  0  0  0  0  0  0  0  0
    1.5446    0.3277   -0.0155 C   0  0  0  0  0  0  0  0  0  0  0  0
    2.2548    0.0425    1.3132 C   0  0  0  0  0  0  0  0  0  0  0  0
    3.6808    0.5831    1.3311 C   0  0  0  0  0  0  0  0  0  0  0  0
    4.3619    0.2889    2.5899 N   0  3  0  0  0  0  0  0  0  0  0  0
    5.6965    0.6310    2.8153 C   0  0  0  0  0  0  0  0  0  0  0  0
    6.2802    0.3195    4.0387 N   0  0  0  0  0  0  0  0  0  0  0  0
    6.4571    1.2768    1.8460 N   0  0  0  0  0  0  0  0  0  0  0  0
   -0.7323   -2.1024    0.4149 H   0  0  0  0  0  0  0  0  0  0  0  0
   -0.4508    0.1359    0.8345 H   0  0  0  0  0  0  0  0  0  0  0  0
    1.5294    1.4097   -0.1936 H   0  0  0  0  0  0  0  0  0  0  0  0
    2.1218   -0.1134   -0.8390 H   0  0  0  0  0  0  0  0  0  0  0  0
    1.6843    0.4868    2.1376 H   0  0  0  0  0  0  0  0  0  0  0  0
    2.2919   -1.0393    1.4858 H   0  0  0  0  0  0  0  0  0  0  0  0
    4.2619    0.1153    0.5304 H   0  0  0  0  0  0  0  0  0  0  0  0
    3.6897    1.6675    1.1851 H   0  0  0  0  0  0  0  0  0  0  0  0
    3.8559   -0.1826    3.3375 H   0  0  0  0  0  0  0  0  0  0  0  0
    7.2501    0.5551    4.2349 H   0  0  0  0  0  0  0  0  0  0  0  0
    5.7529   -0.1524    4.7693 H   0  0  0  0  0  0  0  0  0  0  0  0
    7.4293    1.5281    2.0050 H   0  0  0  0  0  0  0  0  0  0  0  0
    6.0569    1.5167    0.9419 H   0  0  0  0  0  0  0  0  0  0  0  0
   -0.1038    1.4354   -1.7944 N   0  0  0  0  0  0  0  0  0  0  0  0
   -0.5818    2.0519   -3.0105 C   0  0  2  0  0  0  0  0  0  0  0  0
    0.5868    2.7831   -3.6579 C   0  0  0  0  0  0  0  0  0  0  0  0
    1.4756    3.3328   -3.0106 O   0  0  0  0  0  0  0  0  0  0  0  0
   -1.7328    3.0060   -2.7318 C   0  0  0  0  0  0  0  0  0  0  0  0
    0.6122    1.9266   -1.2674 H   0  0  0  0  0  0  0  0  0  0  0  0
   -0.9144    1.2404   -3.6669 H   0  0  0  0  0  0  0  0  0  0  0  0
   -1.4186    3.8259   -2.0756 H   0  0  0  0  0  0  0  0  0  0  0  0
   -2.1126    3.4506   -3.6576 H   0  0  0  0  0  0  0  0  0  0  0  0
   -2.5606    2.4846   -2.2392 H   0  0  0  0  0  0  0  0  0  0  0  0
    0.4975    2.7866   -5.0429 N   0  0  0  0  0  0  0  0  0  0  0  0
    1.4636    3.4530   -5.8847 C   0  0  0  0  0  0  0  0  0  0  0  0
   -0.2513    2.2718   -5.4966 H   0  0  0  0  0  0  0  0  0  0  0  0
    1.1212    4.4764   -6.0975 H   0  0  0  0  0  0  0  0  0  0  0  0
    2.4345    3.4910   -5.3692 H   0  0  0  0  0  0  0  0  0  0  0  0
    1.5711    2.8987   -6.8288 H   0  0  0  0  0  0  0  0  0  0  0  0
  1  3  1  0  0  0  0
  1  7  1  0  0  0  0
  1  2  2  0  0  0  0
 42 43  1  0  0  0  0
 43 51  1  0  0  0  0
 43 44  2  0  0  0  0
  8  9  1  0  0  0  0
  9 17  1  0  0  0  0
  9 10  2  0  0  0  0
 18 19  1  0  0  0  0
 19 41  1  0  0  0  0
 19 20  2  0  0  0  0
 25 26  1  0  0  0  0
 25 27  1  0  0  0  0
 24 25  2  0  0  0  0
 42 45  1  0  0  0  0
  8 11  1  0  0  0  0
 51 52  1  0  0  0  0
 21 22  1  0  0  0  0
 22 23  1  0  0  0  0
 18 21  1  0  0  0  0
 23 24  1  0  0  0  0
 41 42  1  0  0  0  0
  7  8  1  0  0  0  0
 17 18  1  0  0  0  0
  3  4  1  0  0  0  0
  3  5  1  0  0  0  0
  3  6  1  0  0  0  0
 45 48  1  0  0  0  0
 45 49  1  0  0  0  0
 45 50  1  0  0  0  0
 11 14  1  0  0  0  0
 11 15  1  0  0  0  0
 11 16  1  0  0  0  0
 52 54  1  0  0  0  0
 52 55  1  0  0  0  0
 52 56  1  0  0  0  0
 22 32  1  0  0  0  0
 22 33  1  0  0  0  0
 21 30  1  0  0  0  0
 21 31  1  0  0  0  0
 23 34  1  0  0  0  0
 23 35  1  0  0  0  0
 42 47  1  0  0  0  0
  8 13  1  0  0  0  0
 18 29  1  0  0  0  0
 26 37  1  0  0  0  0
 26 38  1  0  0  0  0
 27 39  1  0  0  0  0
 27 40  1  0  0  0  0
 51 53  1  0  0  0  0
  7 12  1  0  0  0  0
 41 46  1  0  0  0  0
 17 28  1  0  0  0  0
 24 36  1  0  0  0  0
M  CHG  1  24   1
M  END
$$$$

  -OEChem-05262214473D

 56 55  0     1  0  0  0  0  0999 V2000
    0.7735   -5.8042   -2.0022 C   0  0  0  0  0  0  0  0  0  0  0  0
   -0.2086   -6.3825   -1.5519 O   0  0  0  0  0  0  0  0  0  0  0  0
    1.4751   -6.3646   -3.1946 C   0  0  0  0  0  0  0  0  0  0  0  0
    2.2765   -7.0687   -2.9186 H   0  0  0  0  0  0  0  0  0  0  0  0
    0.7988   -6.9360   -3.8504 H   0  0  0  0  0  0  0  0  0  0  0  0
    1.9556   -5.6216   -3.8511 H   0  0  0  0  0  0  0  0  0  0  0  0
    1.3322   -4.6359   -1.5106 N   0  0  0  0  0  0  0  0  0  0  0  0
    0.8124   -3.9290   -0.3698 C   0  0  2  0  0  0  0  0  0  0  0  0
    1.0666   -2.4424   -0.5818 C   0  0  0  0  0  0  0  0  0  0  0  0
    2.0598   -2.0076   -1.1610 O   0  0  0  0  0  0  0  0  0  0  0  0
    1.4560   -4.4118    0.9207 C   0  0  0  0  0  0  0  0  0  0  0  0
    2.1528   -4.2578   -1.9805 H   0  0  0  0  0  0  0  0  0  0  0  0
   -0.2667   -4.1160   -0.3467 H   0  0  0  0  0  0  0  0  0  0  0  0
    2.5374   -4.2329    0.9160 H   0  0  0  0  0  0  0  0  0  0  0  0
    1.0390   -3.8932    1.7903 H   0  0  0  0  0  0  0  0  0  0  0  0
    1.2976   -5.4871    1.0566 H   0  0  0  0  0  0  0  0  0  0  0  0
    0.0755   -1.6529   -0.0105 N   0  0  0  0  0  0  0  0  0  0  0  0
    0.1113   -0.2132   -0.0391 C   0  0  2  0  0  0  0  0  0  0  0  0
   -0.6077    0.2380   -1.3060 C   0  0  0  0  0  0  0  0  0  0  0  0
   -1.6609   -0.2647   -1.6924 O   0  0  0  0  0  0  0  0  0  0  0  0
    1.5446    0.3277   -0.0155 C   0  0  0  0  0  0  0  0  0  0  0  0
    2.2548    0.0425    1.3132 C   0  0  0  0  0  0  0  0  0  0  0  0
    3.6808    0.5831    1.3311 C   0  0  0  0  0  0  0  0  0  0  0  0
    4.3619    0.2889    2.5899 N   0  3  0  0  0  0  0  0  0  0  0  0
    5.6965    0.6310    2.8153 C   0  0  0  0  0  0  0  0  0  0  0  0
    6.2802    0.3195    4.0387 N   0  0  0  0  0  0  0  0  0  0  0  0
    6.4571    1.2768    1.8460 N   0  0  0  0  0  0  0  0  0  0  0  0
   -0.7323   -2.1024    0.4149 H   0  0  0  0  0  0  0  0  0  0  0  0
   -0.4508    0.1359    0.8345 H   0  0  0  0  0  0  0  0  0  0  0  0
    1.5294    1.4097   -0.1936 H   0  0  0  0  0  0  0  0  0  0  0  0
    2.1218   -0.1134   -0.8390 H   0  0  0  0  0  0  0  0  0  0  0  0
    1.6843    0.4868    2.1376 H   0  0  0  0  0  0  0  0  0  0  0  0
    2.2919   -1.0393    1.4858 H   0  0  0  0  0  0  0  0  0  0  0  0
    4.2619    0.1153    0.5304 H   0  0  0  0  0  0  0  0  0  0  0  0
    3.6897    1.6675    1.1851 H   0  0  0  0  0  0  0  0  0  0  0  0
    3.8559   -0.1826    3.3375 H   0  0  0  0  0  0  0  0  0  0  0  0
    7.2501    0.5551    4.2349 H   0  0  0  0  0  0  0  0  0  0  0  0
    5.7529   -0.1524    4.7693 H   0  0  0  0  0  0  0  0  0  0  0  0
    7.4293    1.5281    2.0050 H   0  0  0  0  0  0  0  0  0  0  0  0
    6.0569    1.5167    0.9419 H   0  0  0  0  0  0  0  0  0  0  0  0
    0.0907    1.2319   -1.9773 N   0  0  0  0  0  0  0  0  0  0  0  0
   -0.3544    1.7960   -3.2307 C   0  0  2  0  0  0  0  0  0  0  0  0
    0.8788    2.1741   -4.0405 C   0  0  0  0  0  0  0  0  0  0  0  0
    1.9179    2.5850   -3.5280 O   0  0  0  0  0  0  0  0  0  0  0  0
   -1.2492    3.0051   -3.0066 C   0  0  0  0  0  0  0  0  0  0  0  0
    0.9384    1.6104   -1.5651 H   0  0  0  0  0  0  0  0  0  0  0  0
   -0.9078    1.0082   -3.7533 H   0  0  0  0  0  0  0  0  0  0  0  0
   -0.7119    3.8050   -2.4842 H   0  0  0  0  0  0  0  0  0  0  0  0
   -1.6087    3.4142   -3.9566 H   0  0  0  0  0  0  0  0  0  0  0  0
   -2.1204    2.7379   -2.3989 H   0  0  0  0  0  0  0  0  0  0  0  0
    0.6681    2.0398   -5.4057 N   0  0  0  0  0  0  0  0  0  0  0  0
    1.6729    2.3774   -6.3866 C   0  0  0  0  0  0  0  0  0  0  0  0
   -0.2100    1.6539   -5.7401 H   0  0  0  0  0  0  0  0  0  0  0  0
    1.5357    3.4201   -6.7090 H   0  0  0  0  0  0  0  0  0  0  0  0
    2.6725    2.2595   -5.9429 H   0  0  0  0  0  0  0  0  0  0  0  0
    1.5762    1.7094   -7.2552 H   0  0  0  0  0  0  0  0  0  0  0  0
  1  3  1  0  0  0  0
  1  7  1  0  0  0  0
  1  2  2  0  0  0  0
 42 43  1  0  0  0  0
 43 51  1  0  0  0  0
 43 44  2  0  0  0  0
  8  9  1  0  0  0  0
  9 17  1  0  0  0  0
  9 10  2  0  0  0  0
 18 19  1  0  0  0  0
 19 41  1  0  0  0  0
 19 20  2  0  0  0  0
 25 26  1  0  0  0  0
 25 27  1  0  0  0  0
 24 25  2  0  0  0  0
 42 45  1  0  0  0  0
  8 11  1  0  0  0  0
 51 52  1  0  0  0  0
 21 22  1  0  0  0  0
 22 23  1  0  0  0  0
 18 21  1  0  0  0  0
 23 24  1  0  0  0  0
 41 42  1  0  0  0  0
  7  8  1  0  0  0  0
 17 18  1  0  0  0  0
  3  4  1  0  0  0  0
  3  5  1  0  0  0  0
  3  6  1  0  0  0  0
 45 48  1  0  0  0  0
 45 49  1  0  0  0  0
 45 50  1  0  0  0  0
 11 14  1  0  0  0  0
 11 15  1  0  0  0  0
 11 16  1  0  0  0  0
 52 54  1  0  0  0  0
 52 55  1  0  0  0  0
 52 56  1  0  0  0  0
 22 32  1  0  0  0  0
 22 33  1  0  0  0  0
 21 30  1  0  0  0  0
 21 31  1  0  0  0  0
 23 34  1  0  0  0  0
 23 35  1  0  0  0  0
 42 47  1  0  0  0  0
  8 13  1  0  0  0  0
 18 29  1  0  0  0  0
 26 37  1  0  0  0  0
 26 38  1  0  0  0  0
 27 39  1  0  0  0  0
 27 40  1  0  0  0  0
 51 53  1  0  0  0  0
  7 12  1  0  0  0  0
 41 46  1  0  0  0  0
 17 28  1  0  0  0  0
 24 36  1  0  0  0  0
M  CHG  1  24   1
M  END
$$$$

  -OEChem-05262214473D

 56 55  0     1  0  0  0  0  0999 V2000
    0.7735   -5.8042   -2.0022 C   0  0  0  0  0  0  0  0  0  0  0  0
   -0.2086   -6.3825   -1.5519 O   0  0  0  0  0  0  0  0  0  0  0  0
    1.4751   -6.3646   -3.1946 C   0  0  0  0  0  0  0  0  0  0  0  0
    2.2765   -7.0687   -2.9186 H   0  0  0  0  0  0  0  0  0  0  0  0
    0.7988   -6.9360   -3.8504 H   0  0  0  0  0  0  0  0  0  0  0  0
    1.9556   -5.6216   -3.8511 H   0  0  0  0  0  0  0  0  0  0  0  0
    1.3322   -4.6359   -1.5106 N   0  0  0  0  0  0  0  0  0  0  0  0
    0.8124   -3.9290   -0.3698 C   0  0  2  0  0  0  0  0  0  0  0  0
    1.0666   -2.4424   -0.5818 C   0  0  0  0  0  0  0  0  0  0  0  0
    2.0598   -2.0076   -1.1610 O   0  0  0  0  0  0  0  0  0  0  0  0
    1.4560   -4.4118    0.9207 C   0  0  0  0  0  0  0  0  0  0  0  0
    2.1528   -4.2578   -1.9805 H   0  0  0  0  0  0  0  0  0  0  0  0
   -0.2667   -4.1160   -0.3467 H   0  0  0  0  0  0  0  0  0  0  0  0
    2.5374   -4.2329    0.9160 H   0  0  0  0  0  0  0  0  0  0  0  0
    1.0390   -3.8932    1.7903 H   0  0  0  0  0  0  0  0  0  0  0  0
    1.2976   -5.4871    1.0566 H   0  0  0  0  0  0  0  0  0  0  0  0
    0.0755   -1.6529   -0.0105 N   0  0  0  0  0  0  0  0  0  0  0  0
    0.1113   -0.2132   -0.0391 C   0  0  2  0  0  0  0  0  0  0  0  0
   -0.6077    0.2380   -1.3060 C   0  0  0  0  0  0  0  0  0  0  0  0
   -1.7735   -0.0615   -1.5561 O   0  0  0  0  0  0  0  0  0  0  0  0
    1.5446    0.3277   -0.0155 C   0  0  0  0  0  0  0  0  0  0  0  0
    2.2548    0.0425    1.3132 C   0  0  0  0  0  0  0  0  0  0  0  0
    3.6808    0.5831    1.3311 C   0  0  0  0  0  0  0  0  0  0  0  0
    4.3619    0.2889    2.5899 N   0  3  0  0  0  0  0  0  0  0  0  0
    5.6965    0.6310    2.8153 C   0  0  0  0  0  0  0  0  0  0  0  0
    6.2802    0.3195    4.0387 N   0  0  0  0  0  0  0  0  0  0  0  0
    6.4571    1.2768    1.8460 N   0  0  0  0  0  0  0  0  0  0  0  0
   -0.7323   -2.1024    0.4149 H   0  0  0  0  0  0  0  0  0  0  0  0
   -0.4508    0.1359    0.8345 H   0  0  0  0  0  0  0  0  0  0  0  0
    1.5294    1.4097   -0.1936 H   0  0  0  0  0  0  0  0  0  0  0  0
    2.1218   -0.1134   -0.8390 H   0  0  0  0  0  0  0  0  0  0  0  0
    1.6843    0.4868    2.1376 H   0  0  0  0  0  0  0  0  0  0  0  0
    2.2919   -1.0393    1.4858 H   0  0  0  0  0  0  0  0  0  0  0  0
    4.2619    0.1153    0.5304 H   0  0  0  0  0  0  0  0  0  0  0  0
    3.6897    1.6675    1.1851 H   0  0  0  0  0  0  0  0  0  0  0  0
    3.8559   -0.1826    3.3375 H   0  0  0  0  0  0  0  0  0  0  0  0
    7.2501    0.5551    4.2349 H   0  0  0  0  0  0  0  0  0  0  0  0
    5.7529   -0.1524    4.7693 H   0  0  0  0  0  0  0  0  0  0  0  0
    7.4293    1.5281    2.0050 H   0  0  0  0  0  0  0  0  0  0  0  0
    6.0569    1.5167    0.9419 H   0  0  0  0  0  0  0  0  0  0  0  0
    0.2208    0.9712   -2.1440 N   0  0  0  0  0  0  0  0  0  0  0  0
   -0.2066    1.4731   -3.4296 C   0  0  2  0  0  0  0  0  0  0  0  0
    1.0006    1.4764   -4.3581 C   0  0  0  0  0  0  0  0  0  0  0  0
    2.1446    1.7044   -3.9703 O   0  0  0  0  0  0  0  0  0  0  0  0
   -0.8033    2.8667   -3.3090 C   0  0  0  0  0  0  0  0  0  0  0  0
    1.1627    1.1985   -1.8391 H   0  0  0  0  0  0  0  0  0  0  0  0
   -0.9579    0.7721   -3.8090 H   0  0  0  0  0  0  0  0  0  0  0  0
   -0.0651    3.5831   -2.9303 H   0  0  0  0  0  0  0  0  0  0  0  0
   -1.1527    3.2341   -4.2795 H   0  0  0  0  0  0  0  0  0  0  0  0
   -1.6530    2.8684   -2.6177 H   0  0  0  0  0  0  0  0  0  0  0  0
    0.6444    1.2374   -5.6780 N   0  0  0  0  0  0  0  0  0  0  0  0
    1.6054    1.2322   -6.7562 C   0  0  0  0  0  0  0  0  0  0  0  0
   -0.3216    1.0185   -5.9031 H   0  0  0  0  0  0  0  0  0  0  0  0
    1.6621    2.2360   -7.2025 H   0  0  0  0  0  0  0  0  0  0  0  0
    2.5937    0.9487   -6.3650 H   0  0  0  0  0  0  0  0  0  0  0  0
    1.2927    0.5075   -7.5224 H   0  0  0  0  0  0  0  0  0  0  0  0
  1  3  1  0  0  0  0
  1  7  1  0  0  0  0
  1  2  2  0  0  0  0
 42 43  1  0  0  0  0
 43 51  1  0  0  0  0
 43 44  2  0  0  0  0
  8  9  1  0  0  0  0
  9 17  1  0  0  0  0
  9 10  2  0  0  0  0
 18 19  1  0  0  0  0
 19 41  1  0  0  0  0
 19 20  2  0  0  0  0
 25 26  1  0  0  0  0
 25 27  1  0  0  0  0
 24 25  2  0  0  0  0
 42 45  1  0  0  0  0
  8 11  1  0  0  0  0
 51 52  1  0  0  0  0
 21 22  1  0  0  0  0
 22 23  1  0  0  0  0
 18 21  1  0  0  0  0
 23 24  1  0  0  0  0
 41 42  1  0  0  0  0
  7  8  1  0  0  0  0
 17 18  1  0  0  0  0
  3  4  1  0  0  0  0
  3  5  1  0  0  0  0
  3  6  1  0  0  0  0
 45 48  1  0  0  0  0
 45 49  1  0  0  0  0
 45 50  1  0  0  0  0
 11 14  1  0  0  0  0
 11 15  1  0  0  0  0
 11 16  1  0  0  0  0
 52 54  1  0  0  0  0
 52 55  1  0  0  0  0
 52 56  1  0  0  0  0
 22 32  1  0  0  0  0
 22 33  1  0  0  0  0
 21 30  1  0  0  0  0
 21 31  1  0  0  0  0
 23 34  1  0  0  0  0
 23 35  1  0  0  0  0
 42 47  1  0  0  0  0
  8 13  1  0  0  0  0
 18 29  1  0  0  0  0
 26 37  1  0  0  0  0
 26 38  1  0  0  0  0
 27 39  1  0  0  0  0
 27 40  1  0  0  0  0
 51 53  1  0  0  0  0
  7 12  1  0  0  0  0
 41 46  1  0  0  0  0
 17 28  1  0  0  0  0
 24 36  1  0  0  0  0
M  CHG  1  24   1
M  END
$$$$

  -OEChem-05262214473D

 56 55  0     1  0  0  0  0  0999 V2000
    0.7735   -5.8042   -2.0022 C   0  0  0  0  0  0  0  0  0  0  0  0
   -0.2086   -6.3825   -1.5519 O   0  0  0  0  0  0  0  0  0  0  0  0
    1.4751   -6.3646   -3.1946 C   0  0  0  0  0  0  0  0  0  0  0  0
    2.2765   -7.0687   -2.9186 H   0  0  0  0  0  0  0  0  0  0  0  0
    0.7988   -6.9360   -3.8504 H   0  0  0  0  0  0  0  0  0  0  0  0
    1.9556   -5.6216   -3.8511 H   0  0  0  0  0  0  0  0  0  0  0  0
    1.3322   -4.6359   -1.5106 N   0  0  0  0  0  0  0  0  0  0  0  0
    0.8124   -3.9290   -0.3698 C   0  0  2  0  0  0  0  0  0  0  0  0
    1.0666   -2.4424   -0.5818 C   0  0  0  0  0  0  0  0  0  0  0  0
    2.0598   -2.0076   -1.1610 O   0  0  0  0  0  0  0  0  0  0  0  0
    1.4560   -4.4118    0.9207 C   0  0  0  0  0  0  0  0  0  0  0  0
    2.1528   -4.2578   -1.9805 H   0  0  0  0  0  0  0  0  0  0  0  0
   -0.2667   -4.1160   -0.3467 H   0  0  0  0  0  0  0  0  0  0  0  0
    2.5374   -4.2329    0.9160 H   0  0  0  0  0  0  0  0  0  0  0  0
    1.0390   -3.8932    1.7903 H   0  0  0  0  0  0  0  0  0  0  0  0
    1.2976   -5.4871    1.0566 H   0  0  0  0  0  0  0  0  0  0  0  0
    0.0755   -1.6529   -0.0105 N   0  0  0  0  0  0  0  0  0  0  0  0
    0.1113   -0.2132   -0.0391 C   0  0  2  0  0  0  0  0  0  0  0  0
   -0.6077    0.2380   -1.3060 C   0  0  0  0  0  0  0  0  0  0  0  0
   -1.8280    0.1756   -1.4407 O   0  0  0  0  0  0  0  0  0  0  0  0
    1.5446    0.3277   -0.0155 C   0  0  0  0  0  0  0  0  0  0  0  0
    2.2548    0.0425    1.3132 C   0  0  0  0  0  0  0  0  0  0  0  0
    3.6808    0.5831    1.3311 C   0  0  0  0  0  0  0  0  0  0  0  0
    4.3619    0.2889    2.5899 N   0  3  0  0  0  0  0  0  0  0  0  0
    5.6965    0.6310    2.8153 C   0  0  0  0  0  0  0  0  0  0  0  0
    6.2802    0.3195    4.0387 N   0  0  0  0  0  0  0  0  0  0  0  0
    6.4571    1.2768    1.8460 N   0  0  0  0  0  0  0  0  0  0  0  0
   -0.7323   -2.1024    0.4149 H   0  0  0  0  0  0  0  0  0  0  0  0
   -0.4508    0.1359    0.8345 H   0  0  0  0  0  0  0  0  0  0  0  0
    1.5294    1.4097   -0.1936 H   0  0  0  0  0  0  0  0  0  0  0  0
    2.1218   -0.1134   -0.8390 H   0  0  0  0  0  0  0  0  0  0  0  0
    1.6843    0.4868    2.1376 H   0  0  0  0  0  0  0  0  0  0  0  0
    2.2919   -1.0393    1.4858 H   0  0  0  0  0  0  0  0  0  0  0  0
    4.2619    0.1153    0.5304 H   0  0  0  0  0  0  0  0  0  0  0  0
    3.6897    1.6675    1.1851 H   0  0  0  0  0  0  0  0  0  0  0  0
    3.8559   -0.1826    3.3375 H   0  0  0  0  0  0  0  0  0  0  0  0
    7.2501    0.5551    4.2349 H   0  0  0  0  0  0  0  0  0  0  0  0
    5.7529   -0.1524    4.7693 H   0  0  0  0  0  0  0  0  0  0  0  0
    7.4293    1.5281    2.0050 H   0  0  0  0  0  0  0  0  0  0  0  0
    6.0569    1.5167    0.9419 H   0  0  0  0  0  0  0  0  0  0  0  0
    0.2777    0.6711   -2.2831 N   0  0  0  0  0  0  0  0  0  0  0  0
   -0.1484    1.1052   -3.5936 C   0  0  2  0  0  0  0  0  0  0  0  0
    0.9439    0.7375   -4.5891 C   0  0  0  0  0  0  0  0  0  0  0  0
    2.1404    0.7511   -4.3074 O   0  0  0  0  0  0  0  0  0  0  0  0
   -0.4255    2.6003   -3.6183 C   0  0  0  0  0  0  0  0  0  0  0  0
    1.2698    0.7189   -2.0707 H   0  0  0  0  0  0  0  0  0  0  0  0
   -1.0614    0.5479   -3.8300 H   0  0  0  0  0  0  0  0  0  0  0  0
    0.4778    3.1752   -3.3837 H   0  0  0  0  0  0  0  0  0  0  0  0
   -0.7757    2.9227   -4.6044 H   0  0  0  0  0  0  0  0  0  0  0  0
   -1.1902    2.8672   -2.8808 H   0  0  0  0  0  0  0  0  0  0  0  0
    0.4282    0.4342   -5.8414 N   0  0  0  0  0  0  0  0  0  0  0  0
    1.2657    0.0954   -6.9683 C   0  0  0  0  0  0  0  0  0  0  0  0
   -0.5784    0.4088   -5.9745 H   0  0  0  0  0  0  0  0  0  0  0  0
    1.4918    1.0048   -7.5443 H   0  0  0  0  0  0  0  0  0  0  0  0
    2.2033   -0.3520   -6.6067 H   0  0  0  0  0  0  0  0  0  0  0  0
    0.7401   -0.6251   -7.6121 H   0  0  0  0  0  0  0  0  0  0  0  0
  1  3  1  0  0  0  0
  1  7  1  0  0  0  0
  1  2  2  0  0  0  0
 42 43  1  0  0  0  0
 43 51  1  0  0  0  0
 43 44  2  0  0  0  0
  8  9  1  0  0  0  0
  9 17  1  0  0  0  0
  9 10  2  0  0  0  0
 18 19  1  0  0  0  0
 19 41  1  0  0  0  0
 19 20  2  0  0  0  0
 25 26  1  0  0  0  0
 25 27  1  0  0  0  0
 24 25  2  0  0  0  0
 42 45  1  0  0  0  0
  8 11  1  0  0  0  0
 51 52  1  0  0  0  0
 21 22  1  0  0  0  0
 22 23  1  0  0  0  0
 18 21  1  0  0  0  0
 23 24  1  0  0  0  0
 41 42  1  0  0  0  0
  7  8  1  0  0  0  0
 17 18  1  0  0  0  0
  3  4  1  0  0  0  0
  3  5  1  0  0  0  0
  3  6  1  0  0  0  0
 45 48  1  0  0  0  0
 45 49  1  0  0  0  0
 45 50  1  0  0  0  0
 11 14  1  0  0  0  0
 11 15  1  0  0  0  0
 11 16  1  0  0  0  0
 52 54  1  0  0  0  0
 52 55  1  0  0  0  0
 52 56  1  0  0  0  0
 22 32  1  0  0  0  0
 22 33  1  0  0  0  0
 21 30  1  0  0  0  0
 21 31  1  0  0  0  0
 23 34  1  0  0  0  0
 23 35  1  0  0  0  0
 42 47  1  0  0  0  0
  8 13  1  0  0  0  0
 18 29  1  0  0  0  0
 26 37  1  0  0  0  0
 26 38  1  0  0  0  0
 27 39  1  0  0  0  0
 27 40  1  0  0  0  0
 51 53  1  0  0  0  0
  7 12  1  0  0  0  0
 41 46  1  0  0  0  0
 17 28  1  0  0  0  0
 24 36  1  0  0  0  0
M  CHG  1  24   1
M  END
$$$$

  -OEChem-05262214473D

 56 55  0     1  0  0  0  0  0999 V2000
    0.7735   -5.8042   -2.0022 C   0  0  0  0  0  0  0  0  0  0  0  0
   -0.2086   -6.3825   -1.5519 O   0  0  0  0  0  0  0  0  0  0  0  0
    1.4751   -6.3646   -3.1946 C   0  0  0  0  0  0  0  0  0  0  0  0
    2.2765   -7.0687   -2.9186 H   0  0  0  0  0  0  0  0  0  0  0  0
    0.7988   -6.9360   -3.8504 H   0  0  0  0  0  0  0  0  0  0  0  0
    1.9556   -5.6216   -3.8511 H   0  0  0  0  0  0  0  0  0  0  0  0
    1.3322   -4.6359   -1.5106 N   0  0  0  0  0  0  0  0  0  0  0  0
    0.8124   -3.9290   -0.3698 C   0  0  2  0  0  0  0  0  0  0  0  0
    1.0666   -2.4424   -0.5818 C   0  0  0  0  0  0  0  0  0  0  0  0
    2.0598   -2.0076   -1.1610 O   0  0  0  0  0  0  0  0  0  0  0  0
    1.4560   -4.4118    0.9207 C   0  0  0  0  0  0  0  0  0  0  0  0
    2.1528   -4.2578   -1.9805 H   0  0  0  0  0  0  0  0  0  0  0  0
   -0.2667   -4.1160   -0.3467 H   0  0  0  0  0  0  0  0  0  0  0  0
    2.5374   -4.2329    0.9160 H   0  0  0  0  0  0  0  0  0  0  0  0
    1.0390   -3.8932    1.7903 H   0  0  0  0  0  0  0  0  0  0  0  0
    1.2976   -5.4871    1.0566 H   0  0  0  0  0  0  0  0  0  0  0  0
    0.0755   -1.6529   -0.0105 N   0  0  0  0  0  0  0  0  0  0  0  0
    0.1113   -0.2132   -0.0391 C   0  0  2  0  0  0  0  0  0  0  0  0
   -0.6077    0.2380   -1.3060 C   0  0  0  0  0  0  0  0  0  0  0  0
   -1.8209    0.4304   -1.3540 O   0  0  0  0  0  0  0  0  0  0  0  0
    1.5446    0.3277   -0.0155 C   0  0  0  0  0  0  0  0  0  0  0  0
    2.2548    0.0425    1.3132 C   0  0  0  0  0  0  0  0  0  0  0  0
    3.6808    0.5831    1.3311 C   0  0  0  0  0  0  0  0  0  0  0  0
    4.3619    0.2889    2.5899 N   0  3  0  0  0  0  0  0  0  0  0  0
    5.6965    0.6310    2.8153 C   0  0  0  0  0  0  0  0  0  0  0  0
    6.2802    0.3195    4.0387 N   0  0  0  0  0  0  0  0  0  0  0  0
    6.4571    1.2768    1.8460 N   0  0  0  0  0  0  0  0  0  0  0  0
   -0.7323   -2.1024    0.4149 H   0  0  0  0  0  0  0  0  0  0  0  0
   -0.4508    0.1359    0.8345 H   0  0  0  0  0  0  0  0  0  0  0  0
    1.5294    1.4097   -0.1936 H   0  0  0  0  0  0  0  0  0  0  0  0
    2.1218   -0.1134   -0.8390 H   0  0  0  0  0  0  0  0  0  0  0  0
    1.6843    0.4868    2.1376 H   0  0  0  0  0  0  0  0  0  0  0  0
    2.2919   -1.0393    1.4858 H   0  0  0  0  0  0  0  0  0  0  0  0
    4.2619    0.1153    0.5304 H   0  0  0  0  0  0  0  0  0  0  0  0
    3.6897    1.6675    1.1851 H   0  0  0  0  0  0  0  0  0  0  0  0
    3.8559   -0.1826    3.3375 H   0  0  0  0  0  0  0  0  0  0  0  0
    7.2501    0.5551    4.2349 H   0  0  0  0  0  0  0  0  0  0  0  0
    5.7529   -0.1524    4.7693 H   0  0  0  0  0  0  0  0  0  0  0  0
    7.4293    1.5281    2.0050 H   0  0  0  0  0  0  0  0  0  0  0  0
    6.0569    1.5167    0.9419 H   0  0  0  0  0  0  0  0  0  0  0  0
    0.2574    0.3520   -2.3853 N   0  0  0  0  0  0  0  0  0  0  0  0
   -0.1840    0.7173   -3.7116 C   0  0  2  0  0  0  0  0  0  0  0  0
    0.7126    0.0078   -4.7177 C   0  0  0  0  0  0  0  0  0  0  0  0
    1.9056   -0.2100   -4.5164 O   0  0  0  0  0  0  0  0  0  0  0  0
   -0.1416    2.2240   -3.9135 C   0  0  0  0  0  0  0  0  0  0  0  0
    1.2524    0.2045   -2.2441 H   0  0  0  0  0  0  0  0  0  0  0  0
   -1.2112    0.3511   -3.8151 H   0  0  0  0  0  0  0  0  0  0  0  0
    0.8798    2.6092   -3.8135 H   0  0  0  0  0  0  0  0  0  0  0  0
   -0.5034    2.5012   -4.9091 H   0  0  0  0  0  0  0  0  0  0  0  0
   -0.7635    2.7345   -3.1703 H   0  0  0  0  0  0  0  0  0  0  0  0
    0.0342   -0.3151   -5.8846 N   0  0  0  0  0  0  0  0  0  0  0  0
    0.6769   -0.9555   -7.0083 C   0  0  0  0  0  0  0  0  0  0  0  0
   -0.9631   -0.1336   -5.9493 H   0  0  0  0  0  0  0  0  0  0  0  0
    1.0364   -0.1895   -7.7112 H   0  0  0  0  0  0  0  0  0  0  0  0
    1.5281   -1.5539   -6.6515 H   0  0  0  0  0  0  0  0  0  0  0  0
   -0.0442   -1.6112   -7.5182 H   0  0  0  0  0  0  0  0  0  0  0  0
  1  3  1  0  0  0  0
  1  7  1  0  0  0  0
  1  2  2  0  0  0  0
 42 43  1  0  0  0  0
 43 51  1  0  0  0  0
 43 44  2  0  0  0  0
  8  9  1  0  0  0  0
  9 17  1  0  0  0  0
  9 10  2  0  0  0  0
 18 19  1  0  0  0  0
 19 41  1  0  0  0  0
 19 20  2  0  0  0  0
 25 26  1  0  0  0  0
 25 27  1  0  0  0  0
 24 25  2  0  0  0  0
 42 45  1  0  0  0  0
  8 11  1  0  0  0  0
 51 52  1  0  0  0  0
 21 22  1  0  0  0  0
 22 23  1  0  0  0  0
 18 21  1  0  0  0  0
 23 24  1  0  0  0  0
 41 42  1  0  0  0  0
  7  8  1  0  0  0  0
 17 18  1  0  0  0  0
  3  4  1  0  0  0  0
  3  5  1  0  0  0  0
  3  6  1  0  0  0  0
 45 48  1  0  0  0  0
 45 49  1  0  0  0  0
 45 50  1  0  0  0  0
 11 14  1  0  0  0  0
 11 15  1  0  0  0  0
 11 16  1  0  0  0  0
 52 54  1  0  0  0  0
 52 55  1  0  0  0  0
 52 56  1  0  0  0  0
 22 32  1  0  0  0  0
 22 33  1  0  0  0  0
 21 30  1  0  0  0  0
 21 31  1  0  0  0  0
 23 34  1  0  0  0  0
 23 35  1  0  0  0  0
 42 47  1  0  0  0  0
  8 13  1  0  0  0  0
 18 29  1  0  0  0  0
 26 37  1  0  0  0  0
 26 38  1  0  0  0  0
 27 39  1  0  0  0  0
 27 40  1  0  0  0  0
 51 53  1  0  0  0  0
  7 12  1  0  0  0  0
 41 46  1  0  0  0  0
 17 28  1  0  0  0  0
 24 36  1  0  0  0  0
M  CHG  1  24   1
M  END
$$$$

  -OEChem-05262214473D

 56 55  0     1  0  0  0  0  0999 V2000
    0.7735   -5.8042   -2.0022 C   0  0  0  0  0  0  0  0  0  0  0  0
   -0.2086   -6.3825   -1.5519 O   0  0  0  0  0  0  0  0  0  0  0  0
    1.4751   -6.3646   -3.1946 C   0  0  0  0  0  0  0  0  0  0  0  0
    2.2765   -7.0687   -2.9186 H   0  0  0  0  0  0  0  0  0  0  0  0
    0.7988   -6.9360   -3.8504 H   0  0  0  0  0  0  0  0  0  0  0  0
    1.9556   -5.6216   -3.8511 H   0  0  0  0  0  0  0  0  0  0  0  0
    1.3322   -4.6359   -1.5106 N   0  0  0  0  0  0  0  0  0  0  0  0
    0.8124   -3.9290   -0.3698 C   0  0  2  0  0  0  0  0  0  0  0  0
    1.0666   -2.4424   -0.5818 C   0  0  0  0  0  0  0  0  0  0  0  0
    2.0598   -2.0076   -1.1610 O   0  0  0  0  0  0  0  0  0  0  0  0
    1.4560   -4.4118    0.9207 C   0  0  0  0  0  0  0  0  0  0  0  0
    2.1528   -4.2578   -1.9805 H   0  0  0  0  0  0  0  0  0  0  0  0
   -0.2667   -4.1160   -0.3467 H   0  0  0  0  0  0  0  0  0  0  0  0
    2.5374   -4.2329    0.9160 H   0  0  0  0  0  0  0  0  0  0  0  0
    1.0390   -3.8932    1.7903 H   0  0  0  0  0  0  0  0  0  0  0  0
    1.2976   -5.4871    1.0566 H   0  0  0  0  0  0  0  0  0  0  0  0
    0.0755   -1.6529   -0.0105 N   0  0  0  0  0  0  0  0  0  0  0  0
    0.1113   -0.2132   -0.0391 C   0  0  2  0  0  0  0  0  0  0  0  0
   -0.6077    0.2380   -1.3060 C   0  0  0  0  0  0  0  0  0  0  0  0
   -1.7526    0.6855   -1.3019 O   0  0  0  0  0  0  0  0  0  0  0  0
    1.5446    0.3277   -0.0155 C   0  0  0  0  0  0  0  0  0  0  0  0
    2.2548    0.0425    1.3132 C   0  0  0  0  0  0  0  0  0  0  0  0
    3.6808    0.5831    1.3311 C   0  0  0  0  0  0  0  0  0  0  0  0
    4.3619    0.2889    2.5899 N   0  3  0  0  0  0  0  0  0  0  0  0
    5.6965    0.6310    2.8153 C   0  0  0  0  0  0  0  0  0  0  0  0
    6.2802    0.3195    4.0387 N   0  0  0  0  0  0  0  0  0  0  0  0
    6.4571    1.2768    1.8460 N   0  0  0  0  0  0  0  0  0  0  0  0
   -0.7323   -2.1024    0.4149 H   0  0  0  0  0  0  0  0  0  0  0  0
   -0.4508    0.1359    0.8345 H   0  0  0  0  0  0  0  0  0  0  0  0
    1.5294    1.4097   -0.1936 H   0  0  0  0  0  0  0  0  0  0  0  0
    2.1218   -0.1134   -0.8390 H   0  0  0  0  0  0  0  0  0  0  0  0
    1.6843    0.4868    2.1376 H   0  0  0  0  0  0  0  0  0  0  0  0
    2.2919   -1.0393    1.4858 H   0  0  0  0  0  0  0  0  0  0  0  0
    4.2619    0.1153    0.5304 H   0  0  0  0  0  0  0  0  0  0  0  0
    3.6897    1.6675    1.1851 H   0  0  0  0  0  0  0  0  0  0  0  0
    3.8559   -0.1826    3.3375 H   0  0  0  0  0  0  0  0  0  0  0  0
    7.2501    0.5551    4.2349 H   0  0  0  0  0  0  0  0  0  0  0  0
    5.7529   -0.1524    4.7693 H   0  0  0  0  0  0  0  0  0  0  0  0
    7.4293    1.5281    2.0050 H   0  0  0  0  0  0  0  0  0  0  0  0
    6.0569    1.5167    0.9419 H   0  0  0  0  0  0  0  0  0  0  0  0
    0.1614    0.0356   -2.4435 N   0  0  0  0  0  0  0  0  0  0  0  0
   -0.3108    0.3358   -3.7755 C   0  0  2  0  0  0  0  0  0  0  0  0
    0.3225   -0.6630   -4.7352 C   0  0  0  0  0  0  0  0  0  0  0  0
    1.4561   -1.1133   -4.5830 O   0  0  0  0  0  0  0  0  0  0  0  0
    0.0292    1.7634   -4.1744 C   0  0  0  0  0  0  0  0  0  0  0  0
    1.1117   -0.3099   -2.3474 H   0  0  0  0  0  0  0  0  0  0  0  0
   -1.3971    0.1950   -3.7652 H   0  0  0  0  0  0  0  0  0  0  0  0
    1.1134    1.9236   -4.1903 H   0  0  0  0  0  0  0  0  0  0  0  0
   -0.3543    1.9984   -5.1728 H   0  0  0  0  0  0  0  0  0  0  0  0
   -0.4021    2.4792   -3.4663 H   0  0  0  0  0  0  0  0  0  0  0  0
   -0.5108   -0.9594   -5.8047 N   0  0  0  0  0  0  0  0  0  0  0  0
   -0.1208   -1.8489   -6.8737 C   0  0  0  0  0  0  0  0  0  0  0  0
   -1.4493   -0.5717   -5.8293 H   0  0  0  0  0  0  0  0  0  0  0  0
    0.3270   -1.2656   -7.6918 H   0  0  0  0  0  0  0  0  0  0  0  0
    0.6141   -2.5752   -6.4965 H   0  0  0  0  0  0  0  0  0  0  0  0
   -1.0066   -2.3837   -7.2471 H   0  0  0  0  0  0  0  0  0  0  0  0
  1  3  1  0  0  0  0
  1  7  1  0  0  0  0
  1  2  2  0  0  0  0
 42 43  1  0  0  0  0
 43 51  1  0  0  0  0
 43 44  2  0  0  0  0
  8  9  1  0  0  0  0
  9 17  1  0  0  0  0
  9 10  2  0  0  0  0
 18 19  1  0  0  0  0
 19 41  1  0  0  0  0
 19 20  2  0  0  0  0
 25 26  1  0  0  0  0
 25 27  1  0  0  0  0
 24 25  2  0  0  0  0
 42 45  1  0  0  0  0
  8 11  1  0  0  0  0
 51 52  1  0  0  0  0
 21 22  1  0  0  0  0
 22 23  1  0  0  0  0
 18 21  1  0  0  0  0
 23 24  1  0  0  0  0
 41 42  1  0  0  0  0
  7  8  1  0  0  0  0
 17 18  1  0  0  0  0
  3  4  1  0  0  0  0
  3  5  1  0  0  0  0
  3  6  1  0  0  0  0
 45 48  1  0  0  0  0
 45 49  1  0  0  0  0
 45 50  1  0  0  0  0
 11 14  1  0  0  0  0
 11 15  1  0  0  0  0
 11 16  1  0  0  0  0
 52 54  1  0  0  0  0
 52 55  1  0  0  0  0
 52 56  1  0  0  0  0
 22 32  1  0  0  0  0
 22 33  1  0  0  0  0
 21 30  1  0  0  0  0
 21 31  1  0  0  0  0
 23 34  1  0  0  0  0
 23 35  1  0  0  0  0
 42 47  1  0  0  0  0
  8 13  1  0  0  0  0
 18 29  1  0  0  0  0
 26 37  1  0  0  0  0
 26 38  1  0  0  0  0
 27 39  1  0  0  0  0
 27 40  1  0  0  0  0
 51 53  1  0  0  0  0
  7 12  1  0  0  0  0
 41 46  1  0  0  0  0
 17 28  1  0  0  0  0
 24 36  1  0  0  0  0
M  CHG  1  24   1
M  END
$$$$

  -OEChem-05262214473D

 56 55  0     1  0  0  0  0  0999 V2000
    0.7735   -5.8042   -2.0022 C   0  0  0  0  0  0  0  0  0  0  0  0
   -0.2086   -6.3825   -1.5519 O   0  0  0  0  0  0  0  0  0  0  0  0
    1.4751   -6.3646   -3.1946 C   0  0  0  0  0  0  0  0  0  0  0  0
    2.2765   -7.0687   -2.9186 H   0  0  0  0  0  0  0  0  0  0  0  0
    0.7988   -6.9360   -3.8504 H   0  0  0  0  0  0  0  0  0  0  0  0
    1.9556   -5.6216   -3.8511 H   0  0  0  0  0  0  0  0  0  0  0  0
    1.3322   -4.6359   -1.5106 N   0  0  0  0  0  0  0  0  0  0  0  0
    0.8124   -3.9290   -0.3698 C   0  0  2  0  0  0  0  0  0  0  0  0
    1.0666   -2.4424   -0.5818 C   0  0  0  0  0  0  0  0  0  0  0  0
    2.0598   -2.0076   -1.1610 O   0  0  0  0  0  0  0  0  0  0  0  0
    1.4560   -4.4118    0.9207 C   0  0  0  0  0  0  0  0  0  0  0  0
    2.1528   -4.2578   -1.9805 H   0  0  0  0  0  0  0  0  0  0  0  0
   -0.2667   -4.1160   -0.3467 H   0  0  0  0  0  0  0  0  0  0  0  0
    2.5374   -4.2329    0.9160 H   0  0  0  0  0  0  0  0  0  0  0  0
    1.0390   -3.8932    1.7903 H   0  0  0  0  0  0  0  0  0  0  0  0
    1.2976   -5.4871    1.0566 H   0  0  0  0  0  0  0  0  0  0  0  0
    0.0755   -1.6529   -0.0105 N   0  0  0  0  0  0  0  0  0  0  0  0
    0.1113   -0.2132   -0.0391 C   0  0  2  0  0  0  0  0  0  0  0  0
   -0.6077    0.2380   -1.3060 C   0  0  0  0  0  0  0  0  0  0  0  0
   -1.6278    0.9237   -1.2879 O   0  0  0  0  0  0  0  0  0  0  0  0
    1.5446    0.3277   -0.0155 C   0  0  0  0  0  0  0  0  0  0  0  0
    2.2548    0.0425    1.3132 C   0  0  0  0  0  0  0  0  0  0  0  0
    3.6808    0.5831    1.3311 C   0  0  0  0  0  0  0  0  0  0  0  0
    4.3619    0.2889    2.5899 N   0  3  0  0  0  0  0  0  0  0  0  0
    5.6965    0.6310    2.8153 C   0  0  0  0  0  0  0  0  0  0  0  0
    6.2802    0.3195    4.0387 N   0  0  0  0  0  0  0  0  0  0  0  0
    6.4571    1.2768    1.8460 N   0  0  0  0  0  0  0  0  0  0  0  0
   -0.7323   -2.1024    0.4149 H   0  0  0  0  0  0  0  0  0  0  0  0
   -0.4508    0.1359    0.8345 H   0  0  0  0  0  0  0  0  0  0  0  0
    1.5294    1.4097   -0.1936 H   0  0  0  0  0  0  0  0  0  0  0  0
    2.1218   -0.1134   -0.8390 H   0  0  0  0  0  0  0  0  0  0  0  0
    1.6843    0.4868    2.1376 H   0  0  0  0  0  0  0  0  0  0  0  0
    2.2919   -1.0393    1.4858 H   0  0  0  0  0  0  0  0  0  0  0  0
    4.2619    0.1153    0.5304 H   0  0  0  0  0  0  0  0  0  0  0  0
    3.6897    1.6675    1.1851 H   0  0  0  0  0  0  0  0  0  0  0  0
    3.8559   -0.1826    3.3375 H   0  0  0  0  0  0  0  0  0  0  0  0
    7.2501    0.5551    4.2349 H   0  0  0  0  0  0  0  0  0  0  0  0
    5.7529   -0.1524    4.7693 H   0  0  0  0  0  0  0  0  0  0  0  0
    7.4293    1.5281    2.0050 H   0  0  0  0  0  0  0  0  0  0  0  0
    6.0569    1.5167    0.9419 H   0  0  0  0  0  0  0  0  0  0  0  0
   -0.0038   -0.2564   -2.4537 N   0  0  0  0  0  0  0  0  0  0  0  0
   -0.5201   -0.0132   -3.7810 C   0  0  2  0  0  0  0  0  0  0  0  0
   -0.2000   -1.2292   -4.6403 C   0  0  0  0  0  0  0  0  0  0  0  0
    0.8226   -1.8973   -4.5027 O   0  0  0  0  0  0  0  0  0  0  0  0
    0.0751    1.2500   -4.3834 C   0  0  0  0  0  0  0  0  0  0  0  0
    0.8573   -0.7891   -2.3737 H   0  0  0  0  0  0  0  0  0  0  0  0
   -1.6063    0.0903   -3.6837 H   0  0  0  0  0  0  0  0  0  0  0  0
    1.1629    1.1651   -4.4885 H   0  0  0  0  0  0  0  0  0  0  0  0
   -0.3385    1.4484   -5.3776 H   0  0  0  0  0  0  0  0  0  0  0  0
   -0.1306    2.1188   -3.7488 H   0  0  0  0  0  0  0  0  0  0  0  0
   -1.1697   -1.4548   -5.6072 N   0  0  0  0  0  0  0  0  0  0  0  0
   -1.0732   -2.5238   -6.5736 C   0  0  0  0  0  0  0  0  0  0  0  0
   -2.0040   -0.8757   -5.6228 H   0  0  0  0  0  0  0  0  0  0  0  0
   -0.5881   -2.1501   -7.4874 H   0  0  0  0  0  0  0  0  0  0  0  0
   -0.4765   -3.3462   -6.1520 H   0  0  0  0  0  0  0  0  0  0  0  0
   -2.0815   -2.8898   -6.8172 H   0  0  0  0  0  0  0  0  0  0  0  0
  1  3  1  0  0  0  0
  1  7  1  0  0  0  0
  1  2  2  0  0  0  0
 42 43  1  0  0  0  0
 43 51  1  0  0  0  0
 43 44  2  0  0  0  0
  8  9  1  0  0  0  0
  9 17  1  0  0  0  0
  9 10  2  0  0  0  0
 18 19  1  0  0  0  0
 19 41  1  0  0  0  0
 19 20  2  0  0  0  0
 25 26  1  0  0  0  0
 25 27  1  0  0  0  0
 24 25  2  0  0  0  0
 42 45  1  0  0  0  0
  8 11  1  0  0  0  0
 51 52  1  0  0  0  0
 21 22  1  0  0  0  0
 22 23  1  0  0  0  0
 18 21  1  0  0  0  0
 23 24  1  0  0  0  0
 41 42  1  0  0  0  0
  7  8  1  0  0  0  0
 17 18  1  0  0  0  0
  3  4  1  0  0  0  0
  3  5  1  0  0  0  0
  3  6  1  0  0  0  0
 45 48  1  0  0  0  0
 45 49  1  0  0  0  0
 45 50  1  0  0  0  0
 11 14  1  0  0  0  0
 11 15  1  0  0  0  0
 11 16  1  0  0  0  0
 52 54  1  0  0  0  0
 52 55  1  0  0  0  0
 52 56  1  0  0  0  0
 22 32  1  0  0  0  0
 22 33  1  0  0  0  0
 21 30  1  0  0  0  0
 21 31  1  0  0  0  0
 23 34  1  0  0  0  0
 23 35  1  0  0  0  0
 42 47  1  0  0  0  0
  8 13  1  0  0  0  0
 18 29  1  0  0  0  0
 26 37  1  0  0  0  0
 26 38  1  0  0  0  0
 27 39  1  0  0  0  0
 27 40  1  0  0  0  0
 51 53  1  0  0  0  0
  7 12  1  0  0  0  0
 41 46  1  0  0  0  0
 17 28  1  0  0  0  0
 24 36  1  0  0  0  0
M  CHG  1  24   1
M  END
$$$$

  -OEChem-05262214473D

 56 55  0     1  0  0  0  0  0999 V2000
    0.7735   -5.8042   -2.0022 C   0  0  0  0  0  0  0  0  0  0  0  0
   -0.2086   -6.3825   -1.5519 O   0  0  0  0  0  0  0  0  0  0  0  0
    1.4751   -6.3646   -3.1946 C   0  0  0  0  0  0  0  0  0  0  0  0
    2.2765   -7.0687   -2.9186 H   0  0  0  0  0  0  0  0  0  0  0  0
    0.7988   -6.9360   -3.8504 H   0  0  0  0  0  0  0  0  0  0  0  0
    1.9556   -5.6216   -3.8511 H   0  0  0  0  0  0  0  0  0  0  0  0
    1.3322   -4.6359   -1.5106 N   0  0  0  0  0  0  0  0  0  0  0  0
    0.8124   -3.9290   -0.3698 C   0  0  2  0  0  0  0  0  0  0  0  0
    1.0666   -2.4424   -0.5818 C   0  0  0  0  0  0  0  0  0  0  0  0
    2.0598   -2.0076   -1.1610 O   0  0  0  0  0  0  0  0  0  0  0  0
    1.4560   -4.4118    0.9207 C   0  0  0  0  0  0  0  0  0  0  0  0
    2.1528   -4.2578   -1.9805 H   0  0  0  0  0  0  0  0  0  0  0  0
   -0.2667   -4.1160   -0.3467 H   0  0  0  0  0  0  0  0  0  0  0  0
    2.5374   -4.2329    0.9160 H   0  0  0  0  0  0  0  0  0  0  0  0
    1.0390   -3.8932    1.7903 H   0  0  0  0  0  0  0  0  0  0  0  0
    1.2976   -5.4871    1.0566 H   0  0  0  0  0  0  0  0  0  0  0  0
    0.0755   -1.6529   -0.0105 N   0  0  0  0  0  0  0  0  0  0  0  0
    0.1113   -0.2132   -0.0391 C   0  0  2  0  0  0  0  0  0  0  0  0
   -0.6077    0.2380   -1.3060 C   0  0  0  0  0  0  0  0  0  0  0  0
   -1.4550    1.1286   -1.3130 O   0  0  0  0  0  0  0  0  0  0  0  0
    1.5446    0.3277   -0.0155 C   0  0  0  0  0  0  0  0  0  0  0  0
    2.2548    0.0425    1.3132 C   0  0  0  0  0  0  0  0  0  0  0  0
    3.6808    0.5831    1.3311 C   0  0  0  0  0  0  0  0  0  0  0  0
    4.3619    0.2889    2.5899 N   0  3  0  0  0  0  0  0  0  0  0  0
    5.6965    0.6310    2.8153 C   0  0  0  0  0  0  0  0  0  0  0  0
    6.2802    0.3195    4.0387 N   0  0  0  0  0  0  0  0  0  0  0  0
    6.4571    1.2768    1.8460 N   0  0  0  0  0  0  0  0  0  0  0  0
   -0.7323   -2.1024    0.4149 H   0  0  0  0  0  0  0  0  0  0  0  0
   -0.4508    0.1359    0.8345 H   0  0  0  0  0  0  0  0  0  0  0  0
    1.5294    1.4097   -0.1936 H   0  0  0  0  0  0  0  0  0  0  0  0
    2.1218   -0.1134   -0.8390 H   0  0  0  0  0  0  0  0  0  0  0  0
    1.6843    0.4868    2.1376 H   0  0  0  0  0  0  0  0  0  0  0  0
    2.2919   -1.0393    1.4858 H   0  0  0  0  0  0  0  0  0  0  0  0
    4.2619    0.1153    0.5304 H   0  0  0  0  0  0  0  0  0  0  0  0
    3.6897    1.6675    1.1851 H   0  0  0  0  0  0  0  0  0  0  0  0
    3.8559   -0.1826    3.3375 H   0  0  0  0  0  0  0  0  0  0  0  0
    7.2501    0.5551    4.2349 H   0  0  0  0  0  0  0  0  0  0  0  0
    5.7529   -0.1524    4.7693 H   0  0  0  0  0  0  0  0  0  0  0  0
    7.4293    1.5281    2.0050 H   0  0  0  0  0  0  0  0  0  0  0  0
    6.0569    1.5167    0.9419 H   0  0  0  0  0  0  0  0  0  0  0  0
   -0.2269   -0.5042   -2.4153 N   0  0  0  0  0  0  0  0  0  0  0  0
   -0.7978   -0.3059   -3.7276 C   0  0  2  0  0  0  0  0  0  0  0  0
   -0.8191   -1.6521   -4.4395 C   0  0  0  0  0  0  0  0  0  0  0  0
    0.0483   -2.5086   -4.2809 O   0  0  0  0  0  0  0  0  0  0  0  0
   -0.0069    0.7187   -4.5260 C   0  0  0  0  0  0  0  0  0  0  0  0
    0.5065   -1.2005   -2.3211 H   0  0  0  0  0  0  0  0  0  0  0  0
   -1.8247    0.0441   -3.5762 H   0  0  0  0  0  0  0  0  0  0  0  0
    1.0247    0.3854   -4.6878 H   0  0  0  0  0  0  0  0  0  0  0  0
   -0.4573    0.8888   -5.5095 H   0  0  0  0  0  0  0  0  0  0  0  0
    0.0325    1.6778   -3.9984 H   0  0  0  0  0  0  0  0  0  0  0  0
   -1.8975   -1.7676   -5.3055 N   0  0  0  0  0  0  0  0  0  0  0  0
   -2.1152   -2.9344   -6.1283 C   0  0  0  0  0  0  0  0  0  0  0  0
   -2.5894   -1.0249   -5.3437 H   0  0  0  0  0  0  0  0  0  0  0  0
   -1.6466   -2.7827   -7.1119 H   0  0  0  0  0  0  0  0  0  0  0  0
   -1.6694   -3.8144   -5.6417 H   0  0  0  0  0  0  0  0  0  0  0  0
   -3.1956   -3.0951   -6.2579 H   0  0  0  0  0  0  0  0  0  0  0  0
  1  3  1  0  0  0  0
  1  7  1  0  0  0  0
  1  2  2  0  0  0  0
 42 43  1  0  0  0  0
 43 51  1  0  0  0  0
 43 44  2  0  0  0  0
  8  9  1  0  0  0  0
  9 17  1  0  0  0  0
  9 10  2  0  0  0  0
 18 19  1  0  0  0  0
 19 41  1  0  0  0  0
 19 20  2  0  0  0  0
 25 26  1  0  0  0  0
 25 27  1  0  0  0  0
 24 25  2  0  0  0  0
 42 45  1  0  0  0  0
  8 11  1  0  0  0  0
 51 52  1  0  0  0  0
 21 22  1  0  0  0  0
 22 23  1  0  0  0  0
 18 21  1  0  0  0  0
 23 24  1  0  0  0  0
 41 42  1  0  0  0  0
  7  8  1  0  0  0  0
 17 18  1  0  0  0  0
  3  4  1  0  0  0  0
  3  5  1  0  0  0  0
  3  6  1  0  0  0  0
 45 48  1  0  0  0  0
 45 49  1  0  0  0  0
 45 50  1  0  0  0  0
 11 14  1  0  0  0  0
 11 15  1  0  0  0  0
 11 16  1  0  0  0  0
 52 54  1  0  0  0  0
 52 55  1  0  0  0  0
 52 56  1  0  0  0  0
 22 32  1  0  0  0  0
 22 33  1  0  0  0  0
 21 30  1  0  0  0  0
 21 31  1  0  0  0  0
 23 34  1  0  0  0  0
 23 35  1  0  0  0  0
 42 47  1  0  0  0  0
  8 13  1  0  0  0  0
 18 29  1  0  0  0  0
 26 37  1  0  0  0  0
 26 38  1  0  0  0  0
 27 39  1  0  0  0  0
 27 40  1  0  0  0  0
 51 53  1  0  0  0  0
  7 12  1  0  0  0  0
 41 46  1  0  0  0  0
 17 28  1  0  0  0  0
 24 36  1  0  0  0  0
M  CHG  1  24   1
M  END
$$$$

  -OEChem-05262214473D

 56 55  0     1  0  0  0  0  0999 V2000
    0.7735   -5.8042   -2.0022 C   0  0  0  0  0  0  0  0  0  0  0  0
   -0.2086   -6.3825   -1.5519 O   0  0  0  0  0  0  0  0  0  0  0  0
    1.4751   -6.3646   -3.1946 C   0  0  0  0  0  0  0  0  0  0  0  0
    2.2765   -7.0687   -2.9186 H   0  0  0  0  0  0  0  0  0  0  0  0
    0.7988   -6.9360   -3.8504 H   0  0  0  0  0  0  0  0  0  0  0  0
    1.9556   -5.6216   -3.8511 H   0  0  0  0  0  0  0  0  0  0  0  0
    1.3322   -4.6359   -1.5106 N   0  0  0  0  0  0  0  0  0  0  0  0
    0.8124   -3.9290   -0.3698 C   0  0  2  0  0  0  0  0  0  0  0  0
    1.0666   -2.4424   -0.5818 C   0  0  0  0  0  0  0  0  0  0  0  0
    2.0598   -2.0076   -1.1610 O   0  0  0  0  0  0  0  0  0  0  0  0
    1.4560   -4.4118    0.9207 C   0  0  0  0  0  0  0  0  0  0  0  0
    2.1528   -4.2578   -1.9805 H   0  0  0  0  0  0  0  0  0  0  0  0
   -0.2667   -4.1160   -0.3467 H   0  0  0  0  0  0  0  0  0  0  0  0
    2.5374   -4.2329    0.9160 H   0  0  0  0  0  0  0  0  0  0  0  0
    1.0390   -3.8932    1.7903 H   0  0  0  0  0  0  0  0  0  0  0  0
    1.2976   -5.4871    1.0566 H   0  0  0  0  0  0  0  0  0  0  0  0
    0.0755   -1.6529   -0.0105 N   0  0  0  0  0  0  0  0  0  0  0  0
    0.1113   -0.2132   -0.0391 C   0  0  2  0  0  0  0  0  0  0  0  0
   -0.6077    0.2380   -1.3060 C   0  0  0  0  0  0  0  0  0  0  0  0
   -1.2459    1.2863   -1.3755 O   0  0  0  0  0  0  0  0  0  0  0  0
    1.5446    0.3277   -0.0155 C   0  0  0  0  0  0  0  0  0  0  0  0
    2.2548    0.0425    1.3132 C   0  0  0  0  0  0  0  0  0  0  0  0
    3.6808    0.5831    1.3311 C   0  0  0  0  0  0  0  0  0  0  0  0
    4.3619    0.2889    2.5899 N   0  3  0  0  0  0  0  0  0  0  0  0
    5.6965    0.6310    2.8153 C   0  0  0  0  0  0  0  0  0  0  0  0
    6.2802    0.3195    4.0387 N   0  0  0  0  0  0  0  0  0  0  0  0
    6.4571    1.2768    1.8460 N   0  0  0  0  0  0  0  0  0  0  0  0
   -0.7323   -2.1024    0.4149 H   0  0  0  0  0  0  0  0  0  0  0  0
   -0.4508    0.1359    0.8345 H   0  0  0  0  0  0  0  0  0  0  0  0
    1.5294    1.4097   -0.1936 H   0  0  0  0  0  0  0  0  0  0  0  0
    2.1218   -0.1134   -0.8390 H   0  0  0  0  0  0  0  0  0  0  0  0
    1.6843    0.4868    2.1376 H   0  0  0  0  0  0  0  0  0  0  0  0
    2.2919   -1.0393    1.4858 H   0  0  0  0  0  0  0  0  0  0  0  0
    4.2619    0.1153    0.5304 H   0  0  0  0  0  0  0  0  0  0  0  0
    3.6897    1.6675    1.1851 H   0  0  0  0  0  0  0  0  0  0  0  0
    3.8559   -0.1826    3.3375 H   0  0  0  0  0  0  0  0  0  0  0  0
    7.2501    0.5551    4.2349 H   0  0  0  0  0  0  0  0  0  0  0  0
    5.7529   -0.1524    4.7693 H   0  0  0  0  0  0  0  0  0  0  0  0
    7.4293    1.5281    2.0050 H   0  0  0  0  0  0  0  0  0  0  0  0
    6.0569    1.5167    0.9419 H   0  0  0  0  0  0  0  0  0  0  0  0
   -0.4928   -0.6909   -2.3309 N   0  0  0  0  0  0  0  0  0  0  0  0
   -1.1249   -0.5225   -3.6191 C   0  0  2  0  0  0  0  0  0  0  0  0
   -1.4927   -1.9031   -4.1466 C   0  0  0  0  0  0  0  0  0  0  0  0
   -0.8141   -2.9055   -3.9328 O   0  0  0  0  0  0  0  0  0  0  0  0
   -0.2113    0.2057   -4.5927 C   0  0  0  0  0  0  0  0  0  0  0  0
    0.0833   -1.5161   -2.1933 H   0  0  0  0  0  0  0  0  0  0  0  0
   -2.0374    0.0595   -3.4500 H   0  0  0  0  0  0  0  0  0  0  0  0
    0.7083   -0.3623   -4.7745 H   0  0  0  0  0  0  0  0  0  0  0  0
   -0.7024    0.3578   -5.5595 H   0  0  0  0  0  0  0  0  0  0  0  0
    0.0762    1.1863   -4.1983 H   0  0  0  0  0  0  0  0  0  0  0  0
   -2.6446   -1.8764   -4.9202 N   0  0  0  0  0  0  0  0  0  0  0  0
   -3.1759   -3.0526   -5.5684 C   0  0  0  0  0  0  0  0  0  0  0  0
   -3.1655   -1.0091   -5.0110 H   0  0  0  0  0  0  0  0  0  0  0  0
   -2.7763   -3.1204   -6.5910 H   0  0  0  0  0  0  0  0  0  0  0  0
   -2.8832   -3.9480   -5.0003 H   0  0  0  0  0  0  0  0  0  0  0  0
   -4.2732   -2.9856   -5.6073 H   0  0  0  0  0  0  0  0  0  0  0  0
  1  3  1  0  0  0  0
  1  7  1  0  0  0  0
  1  2  2  0  0  0  0
 42 43  1  0  0  0  0
 43 51  1  0  0  0  0
 43 44  2  0  0  0  0
  8  9  1  0  0  0  0
  9 17  1  0  0  0  0
  9 10  2  0  0  0  0
 18 19  1  0  0  0  0
 19 41  1  0  0  0  0
 19 20  2  0  0  0  0
 25 26  1  0  0  0  0
 25 27  1  0  0  0  0
 24 25  2  0  0  0  0
 42 45  1  0  0  0  0
  8 11  1  0  0  0  0
 51 52  1  0  0  0  0
 21 22  1  0  0  0  0
 22 23  1  0  0  0  0
 18 21  1  0  0  0  0
 23 24  1  0  0  0  0
 41 42  1  0  0  0  0
  7  8  1  0  0  0  0
 17 18  1  0  0  0  0
  3  4  1  0  0  0  0
  3  5  1  0  0  0  0
  3  6  1  0  0  0  0
 45 48  1  0  0  0  0
 45 49  1  0  0  0  0
 45 50  1  0  0  0  0
 11 14  1  0  0  0  0
 11 15  1  0  0  0  0
 11 16  1  0  0  0  0
 52 54  1  0  0  0  0
 52 55  1  0  0  0  0
 52 56  1  0  0  0  0
 22 32  1  0  0  0  0
 22 33  1  0  0  0  0
 21 30  1  0  0  0  0
 21 31  1  0  0  0  0
 23 34  1  0  0  0  0
 23 35  1  0  0  0  0
 42 47  1  0  0  0  0
  8 13  1  0  0  0  0
 18 29  1  0  0  0  0
 26 37  1  0  0  0  0
 26 38  1  0  0  0  0
 27 39  1  0  0  0  0
 27 40  1  0  0  0  0
 51 53  1  0  0  0  0
  7 12  1  0  0  0  0
 41 46  1  0  0  0  0
 17 28  1  0  0  0  0
 24 36  1  0  0  0  0
M  CHG  1  24   1
M  END
$$$$

  -OEChem-05262214473D

 56 55  0     1  0  0  0  0  0999 V2000
    0.7735   -5.8042   -2.0022 C   0  0  0  0  0  0  0  0  0  0  0  0
   -0.2086   -6.3825   -1.5519 O   0  0  0  0  0  0  0  0  0  0  0  0
    1.4751   -6.3646   -3.1946 C   0  0  0  0  0  0  0  0  0  0  0  0
    2.2765   -7.0687   -2.9186 H   0  0  0  0  0  0  0  0  0  0  0  0
    0.7988   -6.9360   -3.8504 H   0  0  0  0  0  0  0  0  0  0  0  0
    1.9556   -5.6216   -3.8511 H   0  0  0  0  0  0  0  0  0  0  0  0
    1.3322   -4.6359   -1.5106 N   0  0  0  0  0  0  0  0  0  0  0  0
    0.8124   -3.9290   -0.3698 C   0  0  2  0  0  0  0  0  0  0  0  0
    1.0666   -2.4424   -0.5818 C   0  0  0  0  0  0  0  0  0  0  0  0
    2.0598   -2.0076   -1.1610 O   0  0  0  0  0  0  0  0  0  0  0  0
    1.4560   -4.4118    0.9207 C   0  0  0  0  0  0  0  0  0  0  0  0
    2.1528   -4.2578   -1.9805 H   0  0  0  0  0  0  0  0  0  0  0  0
   -0.2667   -4.1160   -0.3467 H   0  0  0  0  0  0  0  0  0  0  0  0
    2.5374   -4.2329    0.9160 H   0  0  0  0  0  0  0  0  0  0  0  0
    1.0390   -3.8932    1.7903 H   0  0  0  0  0  0  0  0  0  0  0  0
    1.2976   -5.4871    1.0566 H   0  0  0  0  0  0  0  0  0  0  0  0
    0.0755   -1.6529   -0.0105 N   0  0  0  0  0  0  0  0  0  0  0  0
    0.1113   -0.2132   -0.0391 C   0  0  2  0  0  0  0  0  0  0  0  0
   -0.6077    0.2380   -1.3060 C   0  0  0  0  0  0  0  0  0  0  0  0
   -1.0148    1.3861   -1.4712 O   0  0  0  0  0  0  0  0  0  0  0  0
    1.5446    0.3277   -0.0155 C   0  0  0  0  0  0  0  0  0  0  0  0
    2.2548    0.0425    1.3132 C   0  0  0  0  0  0  0  0  0  0  0  0
    3.6808    0.5831    1.3311 C   0  0  0  0  0  0  0  0  0  0  0  0
    4.3619    0.2889    2.5899 N   0  3  0  0  0  0  0  0  0  0  0  0
    5.6965    0.6310    2.8153 C   0  0  0  0  0  0  0  0  0  0  0  0
    6.2802    0.3195    4.0387 N   0  0  0  0  0  0  0  0  0  0  0  0
    6.4571    1.2768    1.8460 N   0  0  0  0  0  0  0  0  0  0  0  0
   -0.7323   -2.1024    0.4149 H   0  0  0  0  0  0  0  0  0  0  0  0
   -0.4508    0.1359    0.8345 H   0  0  0  0  0  0  0  0  0  0  0  0
    1.5294    1.4097   -0.1936 H   0  0  0  0  0  0  0  0  0  0  0  0
    2.1218   -0.1134   -0.8390 H   0  0  0  0  0  0  0  0  0  0  0  0
    1.6843    0.4868    2.1376 H   0  0  0  0  0  0  0  0  0  0  0  0
    2.2919   -1.0393    1.4858 H   0  0  0  0  0  0  0  0  0  0  0  0
    4.2619    0.1153    0.5304 H   0  0  0  0  0  0  0  0  0  0  0  0
    3.6897    1.6675    1.1851 H   0  0  0  0  0  0  0  0  0  0  0  0
    3.8559   -0.1826    3.3375 H   0  0  0  0  0  0  0  0  0  0  0  0
    7.2501    0.5551    4.2349 H   0  0  0  0  0  0  0  0  0  0  0  0
    5.7529   -0.1524    4.7693 H   0  0  0  0  0  0  0  0  0  0  0  0
    7.4293    1.5281    2.0050 H   0  0  0  0  0  0  0  0  0  0  0  0
    6.0569    1.5167    0.9419 H   0  0  0  0  0  0  0  0  0  0  0  0
   -0.7833   -0.8038   -2.2062 N   0  0  0  0  0  0  0  0  0  0  0  0
   -1.4791   -0.6481   -3.4628 C   0  0  2  0  0  0  0  0  0  0  0  0
   -2.1748   -1.9649   -3.7814 C   0  0  0  0  0  0  0  0  0  0  0  0
   -1.7058   -3.0610   -3.4821 O   0  0  0  0  0  0  0  0  0  0  0  0
   -0.5242   -0.2540   -4.5789 C   0  0  0  0  0  0  0  0  0  0  0  0
   -0.3836   -1.7142   -1.9988 H   0  0  0  0  0  0  0  0  0  0  0  0
   -2.2298    0.1356   -3.3137 H   0  0  0  0  0  0  0  0  0  0  0  0
    0.2353   -1.0271   -4.7428 H   0  0  0  0  0  0  0  0  0  0  0  0
   -1.0572   -0.1086   -5.5243 H   0  0  0  0  0  0  0  0  0  0  0  0
   -0.0027    0.6777   -4.3347 H   0  0  0  0  0  0  0  0  0  0  0  0
   -3.3602   -1.7738   -4.4775 N   0  0  0  0  0  0  0  0  0  0  0  0
   -4.1830   -2.8704   -4.9318 C   0  0  0  0  0  0  0  0  0  0  0  0
   -3.6931   -0.8293   -4.6476 H   0  0  0  0  0  0  0  0  0  0  0  0
   -3.9002   -3.1402   -5.9601 H   0  0  0  0  0  0  0  0  0  0  0  0
   -4.0352   -3.7377   -4.2715 H   0  0  0  0  0  0  0  0  0  0  0  0
   -5.2406   -2.5688   -4.9097 H   0  0  0  0  0  0  0  0  0  0  0  0
  1  3  1  0  0  0  0
  1  7  1  0  0  0  0
  1  2  2  0  0  0  0
 42 43  1  0  0  0  0
 43 51  1  0  0  0  0
 43 44  2  0  0  0  0
  8  9  1  0  0  0  0
  9 17  1  0  0  0  0
  9 10  2  0  0  0  0
 18 19  1  0  0  0  0
 19 41  1  0  0  0  0
 19 20  2  0  0  0  0
 25 26  1  0  0  0  0
 25 27  1  0  0  0  0
 24 25  2  0  0  0  0
 42 45  1  0  0  0  0
  8 11  1  0  0  0  0
 51 52  1  0  0  0  0
 21 22  1  0  0  0  0
 22 23  1  0  0  0  0
 18 21  1  0  0  0  0
 23 24  1  0  0  0  0
 41 42  1  0  0  0  0
  7  8  1  0  0  0  0
 17 18  1  0  0  0  0
  3  4  1  0  0  0  0
  3  5  1  0  0  0  0
  3  6  1  0  0  0  0
 45 48  1  0  0  0  0
 45 49  1  0  0  0  0
 45 50  1  0  0  0  0
 11 14  1  0  0  0  0
 11 15  1  0  0  0  0
 11 16  1  0  0  0  0
 52 54  1  0  0  0  0
 52 55  1  0  0  0  0
 52 56  1  0  0  0  0
 22 32  1  0  0  0  0
 22 33  1  0  0  0  0
 21 30  1  0  0  0  0
 21 31  1  0  0  0  0
 23 34  1  0  0  0  0
 23 35  1  0  0  0  0
 42 47  1  0  0  0  0
  8 13  1  0  0  0  0
 18 29  1  0  0  0  0
 26 37  1  0  0  0  0
 26 38  1  0  0  0  0
 27 39  1  0  0  0  0
 27 40  1  0  0  0  0
 51 53  1  0  0  0  0
  7 12  1  0  0  0  0
 41 46  1  0  0  0  0
 17 28  1  0  0  0  0
 24 36  1  0  0  0  0
M  CHG  1  24   1
M  END
$$$$

  -OEChem-05262214473D

 56 55  0     1  0  0  0  0  0999 V2000
    0.7735   -5.8042   -2.0022 C   0  0  0  0  0  0  0  0  0  0  0  0
   -0.2086   -6.3825   -1.5519 O   0  0  0  0  0  0  0  0  0  0  0  0
    1.4751   -6.3646   -3.1946 C   0  0  0  0  0  0  0  0  0  0  0  0
    2.2765   -7.0687   -2.9186 H   0  0  0  0  0  0  0  0  0  0  0  0
    0.7988   -6.9360   -3.8504 H   0  0  0  0  0  0  0  0  0  0  0  0
    1.9556   -5.6216   -3.8511 H   0  0  0  0  0  0  0  0  0  0  0  0
    1.3322   -4.6359   -1.5106 N   0  0  0  0  0  0  0  0  0  0  0  0
    0.8124   -3.9290   -0.3698 C   0  0  2  0  0  0  0  0  0  0  0  0
    1.0666   -2.4424   -0.5818 C   0  0  0  0  0  0  0  0  0  0  0  0
    2.0598   -2.0076   -1.1610 O   0  0  0  0  0  0  0  0  0  0  0  0
    1.4560   -4.4118    0.9207 C   0  0  0  0  0  0  0  0  0  0  0  0
    2.1528   -4.2578   -1.9805 H   0  0  0  0  0  0  0  0  0  0  0  0
   -0.2667   -4.1160   -0.3467 H   0  0  0  0  0  0  0  0  0  0  0  0
    2.5374   -4.2329    0.9160 H   0  0  0  0  0  0  0  0  0  0  0  0
    1.0390   -3.8932    1.7903 H   0  0  0  0  0  0  0  0  0  0  0  0
    1.2976   -5.4871    1.0566 H   0  0  0  0  0  0  0  0  0  0  0  0
    0.0755   -1.6529   -0.0105 N   0  0  0  0  0  0  0  0  0  0  0  0
    0.1113   -0.2132   -0.0391 C   0  0  2  0  0  0  0  0  0  0  0  0
   -0.6077    0.2380   -1.3060 C   0  0  0  0  0  0  0  0  0  0  0  0
   -0.7775    1.4211   -1.5934 O   0  0  0  0  0  0  0  0  0  0  0  0
    1.5446    0.3277   -0.0155 C   0  0  0  0  0  0  0  0  0  0  0  0
    2.2548    0.0425    1.3132 C   0  0  0  0  0  0  0  0  0  0  0  0
    3.6808    0.5831    1.3311 C   0  0  0  0  0  0  0  0  0  0  0  0
    4.3619    0.2889    2.5899 N   0  3  0  0  0  0  0  0  0  0  0  0
    5.6965    0.6310    2.8153 C   0  0  0  0  0  0  0  0  0  0  0  0
    6.2802    0.3195    4.0387 N   0  0  0  0  0  0  0  0  0  0  0  0
    6.4571    1.2768    1.8460 N   0  0  0  0  0  0  0  0  0  0  0  0
   -0.7323   -2.1024    0.4149 H   0  0  0  0  0  0  0  0  0  0  0  0
   -0.4508    0.1359    0.8345 H   0  0  0  0  0  0  0  0  0  0  0  0
    1.5294    1.4097   -0.1936 H   0  0  0  0  0  0  0  0  0  0  0  0
    2.1218   -0.1134   -0.8390 H   0  0  0  0  0  0  0  0  0  0  0  0
    1.6843    0.4868    2.1376 H   0  0  0  0  0  0  0  0  0  0  0  0
    2.2919   -1.0393    1.4858 H   0  0  0  0  0  0  0  0  0  0  0  0
    4.2619    0.1153    0.5304 H   0  0  0  0  0  0  0  0  0  0  0  0
    3.6897    1.6675    1.1851 H   0  0  0  0  0  0  0  0  0  0  0  0
    3.8559   -0.1826    3.3375 H   0  0  0  0  0  0  0  0  0  0  0  0
    7.2501    0.5551    4.2349 H   0  0  0  0  0  0  0  0  0  0  0  0
    5.7529   -0.1524    4.7693 H   0  0  0  0  0  0  0  0  0  0  0  0
    7.4293    1.5281    2.0050 H   0  0  0  0  0  0  0  0  0  0  0  0
    6.0569    1.5167    0.9419 H   0  0  0  0  0  0  0  0  0  0  0  0
   -1.0786   -0.8351   -2.0497 N   0  0  0  0  0  0  0  0  0  0  0  0
   -1.8362   -0.6742   -3.2694 C   0  0  2  0  0  0  0  0  0  0  0  0
   -2.8191   -1.8334   -3.3689 C   0  0  0  0  0  0  0  0  0  0  0  0
   -2.5660   -2.9645   -2.9594 O   0  0  0  0  0  0  0  0  0  0  0  0
   -0.9242   -0.6291   -4.4854 C   0  0  0  0  0  0  0  0  0  0  0  0
   -0.8623   -1.7815   -1.7511 H   0  0  0  0  0  0  0  0  0  0  0  0
   -2.3889    0.2670   -3.1766 H   0  0  0  0  0  0  0  0  0  0  0  0
   -0.3621   -1.5637   -4.5949 H   0  0  0  0  0  0  0  0  0  0  0  0
   -1.4975   -0.4785   -5.4061 H   0  0  0  0  0  0  0  0  0  0  0  0
   -0.1986    0.1869   -4.3983 H   0  0  0  0  0  0  0  0  0  0  0  0
   -3.9955   -1.4668   -4.0076 N   0  0  0  0  0  0  0  0  0  0  0  0
   -5.0679   -2.4002   -4.2621 C   0  0  0  0  0  0  0  0  0  0  0  0
   -4.1362   -0.4979   -4.2780 H   0  0  0  0  0  0  0  0  0  0  0  0
   -4.9417   -2.8406   -5.2622 H   0  0  0  0  0  0  0  0  0  0  0  0
   -5.0470   -3.1979   -3.5050 H   0  0  0  0  0  0  0  0  0  0  0  0
   -6.0320   -1.8730   -4.2127 H   0  0  0  0  0  0  0  0  0  0  0  0
  1  3  1  0  0  0  0
  1  7  1  0  0  0  0
  1  2  2  0  0  0  0
 42 43  1  0  0  0  0
 43 51  1  0  0  0  0
 43 44  2  0  0  0  0
  8  9  1  0  0  0  0
  9 17  1  0  0  0  0
  9 10  2  0  0  0  0
 18 19  1  0  0  0  0
 19 41  1  0  0  0  0
 19 20  2  0  0  0  0
 25 26  1  0  0  0  0
 25 27  1  0  0  0  0
 24 25  2  0  0  0  0
 42 45  1  0  0  0  0
  8 11  1  0  0  0  0
 51 52  1  0  0  0  0
 21 22  1  0  0  0  0
 22 23  1  0  0  0  0
 18 21  1  0  0  0  0
 23 24  1  0  0  0  0
 41 42  1  0  0  0  0
  7  8  1  0  0  0  0
 17 18  1  0  0  0  0
  3  4  1  0  0  0  0
  3  5  1  0  0  0  0
  3  6  1  0  0  0  0
 45 48  1  0  0  0  0
 45 49  1  0  0  0  0
 45 50  1  0  0  0  0
 11 14  1  0  0  0  0
 11 15  1  0  0  0  0
 11 16  1  0  0  0  0
 52 54  1  0  0  0  0
 52 55  1  0  0  0  0
 52 56  1  0  0  0  0
 22 32  1  0  0  0  0
 22 33  1  0  0  0  0
 21 30  1  0  0  0  0
 21 31  1  0  0  0  0
 23 34  1  0  0  0  0
 23 35  1  0  0  0  0
 42 47  1  0  0  0  0
  8 13  1  0  0  0  0
 18 29  1  0  0  0  0
 26 37  1  0  0  0  0
 26 38  1  0  0  0  0
 27 39  1  0  0  0  0
 27 40  1  0  0  0  0
 51 53  1  0  0  0  0
  7 12  1  0  0  0  0
 41 46  1  0  0  0  0
 17 28  1  0  0  0  0
 24 36  1  0  0  0  0
M  CHG  1  24   1
M  END
$$$$

  -OEChem-05262214473D

 56 55  0     1  0  0  0  0  0999 V2000
    0.7735   -5.8042   -2.0022 C   0  0  0  0  0  0  0  0  0  0  0  0
   -0.2086   -6.3825   -1.5519 O   0  0  0  0  0  0  0  0  0  0  0  0
    1.4751   -6.3646   -3.1946 C   0  0  0  0  0  0  0  0  0  0  0  0
    2.2765   -7.0687   -2.9186 H   0  0  0  0  0  0  0  0  0  0  0  0
    0.7988   -6.9360   -3.8504 H   0  0  0  0  0  0  0  0  0  0  0  0
    1.9556   -5.6216   -3.8511 H   0  0  0  0  0  0  0  0  0  0  0  0
    1.3322   -4.6359   -1.5106 N   0  0  0  0  0  0  0  0  0  0  0  0
    0.8124   -3.9290   -0.3698 C   0  0  2  0  0  0  0  0  0  0  0  0
    1.0666   -2.4424   -0.5818 C   0  0  0  0  0  0  0  0  0  0  0  0
    2.0598   -2.0076   -1.1610 O   0  0  0  0  0  0  0  0  0  0  0  0
    1.4560   -4.4118    0.9207 C   0  0  0  0  0  0  0  0  0  0  0  0
    2.1528   -4.2578   -1.9805 H   0  0  0  0  0  0  0  0  0  0  0  0
   -0.2667   -4.1160   -0.3467 H   0  0  0  0  0  0  0  0  0  0  0  0
    2.5374   -4.2329    0.9160 H   0  0  0  0  0  0  0  0  0  0  0  0
    1.0390   -3.8932    1.7903 H   0  0  0  0  0  0  0  0  0  0  0  0
    1.2976   -5.4871    1.0566 H   0  0  0  0  0  0  0  0  0  0  0  0
    0.0755   -1.6529   -0.0105 N   0  0  0  0  0  0  0  0  0  0  0  0
    0.1113   -0.2132   -0.0391 C   0  0  2  0  0  0  0  0  0  0  0  0
   -0.6077    0.2380   -1.3060 C   0  0  0  0  0  0  0  0  0  0  0  0
   -0.5501    1.3889   -1.7340 O   0  0  0  0  0  0  0  0  0  0  0  0
    1.5446    0.3277   -0.0155 C   0  0  0  0  0  0  0  0  0  0  0  0
    2.2548    0.0425    1.3132 C   0  0  0  0  0  0  0  0  0  0  0  0
    3.6808    0.5831    1.3311 C   0  0  0  0  0  0  0  0  0  0  0  0
    4.3619    0.2889    2.5899 N   0  3  0  0  0  0  0  0  0  0  0  0
    5.6965    0.6310    2.8153 C   0  0  0  0  0  0  0  0  0  0  0  0
    6.2802    0.3195    4.0387 N   0  0  0  0  0  0  0  0  0  0  0  0
    6.4571    1.2768    1.8460 N   0  0  0  0  0  0  0  0  0  0  0  0
   -0.7323   -2.1024    0.4149 H   0  0  0  0  0  0  0  0  0  0  0  0
   -0.4508    0.1359    0.8345 H   0  0  0  0  0  0  0  0  0  0  0  0
    1.5294    1.4097   -0.1936 H   0  0  0  0  0  0  0  0  0  0  0  0
    2.1218   -0.1134   -0.8390 H   0  0  0  0  0  0  0  0  0  0  0  0
    1.6843    0.4868    2.1376 H   0  0  0  0  0  0  0  0  0  0  0  0
    2.2919   -1.0393    1.4858 H   0  0  0  0  0  0  0  0  0  0  0  0
    4.2619    0.1153    0.5304 H   0  0  0  0  0  0  0  0  0  0  0  0
    3.6897    1.6675    1.1851 H   0  0  0  0  0  0  0  0  0  0  0  0
    3.8559   -0.1826    3.3375 H   0  0  0  0  0  0  0  0  0  0  0  0
    7.2501    0.5551    4.2349 H   0  0  0  0  0  0  0  0  0  0  0  0
    5.7529   -0.1524    4.7693 H   0  0  0  0  0  0  0  0  0  0  0  0
    7.4293    1.5281    2.0050 H   0  0  0  0  0  0  0  0  0  0  0  0
    6.0569    1.5167    0.9419 H   0  0  0  0  0  0  0  0  0  0  0  0
   -1.3587   -0.7828   -1.8721 N   0  0  0  0  0  0  0  0  0  0  0  0
   -2.1720   -0.5991   -3.0520 C   0  0  2  0  0  0  0  0  0  0  0  0
   -3.3815   -1.5175   -2.9371 C   0  0  0  0  0  0  0  0  0  0  0  0
   -3.3361   -2.6225   -2.4005 O   0  0  0  0  0  0  0  0  0  0  0  0
   -1.3840   -0.8940   -4.3188 C   0  0  0  0  0  0  0  0  0  0  0  0
   -1.3202   -1.7134   -1.4669 H   0  0  0  0  0  0  0  0  0  0  0  0
   -2.5038    0.4449   -3.0480 H   0  0  0  0  0  0  0  0  0  0  0  0
   -1.0431   -1.9355   -4.3407 H   0  0  0  0  0  0  0  0  0  0  0  0
   -1.9933   -0.7267   -5.2131 H   0  0  0  0  0  0  0  0  0  0  0  0
   -0.4982   -0.2530   -4.3848 H   0  0  0  0  0  0  0  0  0  0  0  0
   -4.5071   -0.9764   -3.5425 N   0  0  0  0  0  0  0  0  0  0  0  0
   -5.7702   -1.6740   -3.6048 C   0  0  0  0  0  0  0  0  0  0  0  0
   -4.4647   -0.0374   -3.9275 H   0  0  0  0  0  0  0  0  0  0  0  0
   -5.8299   -2.2421   -4.5449 H   0  0  0  0  0  0  0  0  0  0  0  0
   -5.8495   -2.3654   -2.7530 H   0  0  0  0  0  0  0  0  0  0  0  0
   -6.5935   -0.9457   -3.5637 H   0  0  0  0  0  0  0  0  0  0  0  0
  1  3  1  0  0  0  0
  1  7  1  0  0  0  0
  1  2  2  0  0  0  0
 42 43  1  0  0  0  0
 43 51  1  0  0  0  0
 43 44  2  0  0  0  0
  8  9  1  0  0  0  0
  9 17  1  0  0  0  0
  9 10  2  0  0  0  0
 18 19  1  0  0  0  0
 19 41  1  0  0  0  0
 19 20  2  0  0  0  0
 25 26  1  0  0  0  0
 25 27  1  0  0  0  0
 24 25  2  0  0  0  0
 42 45  1  0  0  0  0
  8 11  1  0  0  0  0
 51 52  1  0  0  0  0
 21 22  1  0  0  0  0
 22 23  1  0  0  0  0
 18 21  1  0  0  0  0
 23 24  1  0  0  0  0
 41 42  1  0  0  0  0
  7  8  1  0  0  0  0
 17 18  1  0  0  0  0
  3  4  1  0  0  0  0
  3  5  1  0  0  0  0
  3  6  1  0  0  0  0
 45 48  1  0  0  0  0
 45 49  1  0  0  0  0
 45 50  1  0  0  0  0
 11 14  1  0  0  0  0
 11 15  1  0  0  0  0
 11 16  1  0  0  0  0
 52 54  1  0  0  0  0
 52 55  1  0  0  0  0
 52 56  1  0  0  0  0
 22 32  1  0  0  0  0
 22 33  1  0  0  0  0
 21 30  1  0  0  0  0
 21 31  1  0  0  0  0
 23 34  1  0  0  0  0
 23 35  1  0  0  0  0
 42 47  1  0  0  0  0
  8 13  1  0  0  0  0
 18 29  1  0  0  0  0
 26 37  1  0  0  0  0
 26 38  1  0  0  0  0
 27 39  1  0  0  0  0
 27 40  1  0  0  0  0
 51 53  1  0  0  0  0
  7 12  1  0  0  0  0
 41 46  1  0  0  0  0
 17 28  1  0  0  0  0
 24 36  1  0  0  0  0
M  CHG  1  24   1
M  END
$$$$

  -OEChem-05262214473D

 56 55  0     1  0  0  0  0  0999 V2000
    0.7735   -5.8042   -2.0022 C   0  0  0  0  0  0  0  0  0  0  0  0
   -0.2086   -6.3825   -1.5519 O   0  0  0  0  0  0  0  0  0  0  0  0
    1.4751   -6.3646   -3.1946 C   0  0  0  0  0  0  0  0  0  0  0  0
    2.2765   -7.0687   -2.9186 H   0  0  0  0  0  0  0  0  0  0  0  0
    0.7988   -6.9360   -3.8504 H   0  0  0  0  0  0  0  0  0  0  0  0
    1.9556   -5.6216   -3.8511 H   0  0  0  0  0  0  0  0  0  0  0  0
    1.3322   -4.6359   -1.5106 N   0  0  0  0  0  0  0  0  0  0  0  0
    0.8124   -3.9290   -0.3698 C   0  0  2  0  0  0  0  0  0  0  0  0
    1.0666   -2.4424   -0.5818 C   0  0  0  0  0  0  0  0  0  0  0  0
    2.0598   -2.0076   -1.1610 O   0  0  0  0  0  0  0  0  0  0  0  0
    1.4560   -4.4118    0.9207 C   0  0  0  0  0  0  0  0  0  0  0  0
    2.1528   -4.2578   -1.9805 H   0  0  0  0  0  0  0  0  0  0  0  0
   -0.2667   -4.1160   -0.3467 H   0  0  0  0  0  0  0  0  0  0  0  0
    2.5374   -4.2329    0.9160 H   0  0  0  0  0  0  0  0  0  0  0  0
    1.0390   -3.8932    1.7903 H   0  0  0  0  0  0  0  0  0  0  0  0
    1.2976   -5.4871    1.0566 H   0  0  0  0  0  0  0  0  0  0  0  0
    0.0755   -1.6529   -0.0105 N   0  0  0  0  0  0  0  0  0  0  0  0
    0.1113   -0.2132   -0.0391 C   0  0  2  0  0  0  0  0  0  0  0  0
   -0.6077    0.2380   -1.3060 C   0  0  0  0  0  0  0  0  0  0  0  0
   -0.3481    1.2918   -1.8832 O   0  0  0  0  0  0  0  0  0  0  0  0
    1.5446    0.3277   -0.0155 C   0  0  0  0  0  0  0  0  0  0  0  0
    2.2548    0.0425    1.3132 C   0  0  0  0  0  0  0  0  0  0  0  0
    3.6808    0.5831    1.3311 C   0  0  0  0  0  0  0  0  0  0  0  0
    4.3619    0.2889    2.5899 N   0  3  0  0  0  0  0  0  0  0  0  0
    5.6965    0.6310    2.8153 C   0  0  0  0  0  0  0  0  0  0  0  0
    6.2802    0.3195    4.0387 N   0  0  0  0  0  0  0  0  0  0  0  0
    6.4571    1.2768    1.8460 N   0  0  0  0  0  0  0  0  0  0  0  0
   -0.7323   -2.1024    0.4149 H   0  0  0  0  0  0  0  0  0  0  0  0
   -0.4508    0.1359    0.8345 H   0  0  0  0  0  0  0  0  0  0  0  0
    1.5294    1.4097   -0.1936 H   0  0  0  0  0  0  0  0  0  0  0  0
    2.1218   -0.1134   -0.8390 H   0  0  0  0  0  0  0  0  0  0  0  0
    1.6843    0.4868    2.1376 H   0  0  0  0  0  0  0  0  0  0  0  0
    2.2919   -1.0393    1.4858 H   0  0  0  0  0  0  0  0  0  0  0  0
    4.2619    0.1153    0.5304 H   0  0  0  0  0  0  0  0  0  0  0  0
    3.6897    1.6675    1.1851 H   0  0  0  0  0  0  0  0  0  0  0  0
    3.8559   -0.1826    3.3375 H   0  0  0  0  0  0  0  0  0  0  0  0
    7.2501    0.5551    4.2349 H   0  0  0  0  0  0  0  0  0  0  0  0
    5.7529   -0.1524    4.7693 H   0  0  0  0  0  0  0  0  0  0  0  0
    7.4293    1.5281    2.0050 H   0  0  0  0  0  0  0  0  0  0  0  0
    6.0569    1.5167    0.9419 H   0  0  0  0  0  0  0  0  0  0  0  0
   -1.6043   -0.6504   -1.6856 N   0  0  0  0  0  0  0  0  0  0  0  0
   -2.4636   -0.4277   -2.8255 C   0  0  2  0  0  0  0  0  0  0  0  0
   -3.8238   -1.0387   -2.5156 C   0  0  0  0  0  0  0  0  0  0  0  0
   -3.9636   -2.0584   -1.8434 O   0  0  0  0  0  0  0  0  0  0  0  0
   -1.8723   -1.0306   -4.0903 C   0  0  0  0  0  0  0  0  0  0  0  0
   -1.7261   -1.5144   -1.1657 H   0  0  0  0  0  0  0  0  0  0  0  0
   -2.5667    0.6572   -2.9367 H   0  0  0  0  0  0  0  0  0  0  0  0
   -1.7615   -2.1172   -3.9977 H   0  0  0  0  0  0  0  0  0  0  0  0
   -2.5107   -0.8363   -4.9584 H   0  0  0  0  0  0  0  0  0  0  0  0
   -0.8812   -0.6117   -4.2952 H   0  0  0  0  0  0  0  0  0  0  0  0
   -4.8602   -0.3359   -3.1140 N   0  0  0  0  0  0  0  0  0  0  0  0
   -6.2421   -0.7413   -3.0048 C   0  0  0  0  0  0  0  0  0  0  0  0
   -4.6561    0.5208   -3.6201 H   0  0  0  0  0  0  0  0  0  0  0  0
   -6.5043   -1.3854   -3.8571 H   0  0  0  0  0  0  0  0  0  0  0  0
   -6.3881   -1.2970   -2.0668 H   0  0  0  0  0  0  0  0  0  0  0  0
   -6.8868    0.1500   -3.0071 H   0  0  0  0  0  0  0  0  0  0  0  0
  1  3  1  0  0  0  0
  1  7  1  0  0  0  0
  1  2  2  0  0  0  0
 42 43  1  0  0  0  0
 43 51  1  0  0  0  0
 43 44  2  0  0  0  0
  8  9  1  0  0  0  0
  9 17  1  0  0  0  0
  9 10  2  0  0  0  0
 18 19  1  0  0  0  0
 19 41  1  0  0  0  0
 19 20  2  0  0  0  0
 25 26  1  0  0  0  0
 25 27  1  0  0  0  0
 24 25  2  0  0  0  0
 42 45  1  0  0  0  0
  8 11  1  0  0  0  0
 51 52  1  0  0  0  0
 21 22  1  0  0  0  0
 22 23  1  0  0  0  0
 18 21  1  0  0  0  0
 23 24  1  0  0  0  0
 41 42  1  0  0  0  0
  7  8  1  0  0  0  0
 17 18  1  0  0  0  0
  3  4  1  0  0  0  0
  3  5  1  0  0  0  0
  3  6  1  0  0  0  0
 45 48  1  0  0  0  0
 45 49  1  0  0  0  0
 45 50  1  0  0  0  0
 11 14  1  0  0  0  0
 11 15  1  0  0  0  0
 11 16  1  0  0  0  0
 52 54  1  0  0  0  0
 52 55  1  0  0  0  0
 52 56  1  0  0  0  0
 22 32  1  0  0  0  0
 22 33  1  0  0  0  0
 21 30  1  0  0  0  0
 21 31  1  0  0  0  0
 23 34  1  0  0  0  0
 23 35  1  0  0  0  0
 42 47  1  0  0  0  0
  8 13  1  0  0  0  0
 18 29  1  0  0  0  0
 26 37  1  0  0  0  0
 26 38  1  0  0  0  0
 27 39  1  0  0  0  0
 27 40  1  0  0  0  0
 51 53  1  0  0  0  0
  7 12  1  0  0  0  0
 41 46  1  0  0  0  0
 17 28  1  0  0  0  0
 24 36  1  0  0  0  0
M  CHG  1  24   1
M  END
$$$$

  -OEChem-05262214473D

 56 55  0     1  0  0  0  0  0999 V2000
    0.7735   -5.8042   -2.0022 C   0  0  0  0  0  0  0  0  0  0  0  0
   -0.2086   -6.3825   -1.5519 O   0  0  0  0  0  0  0  0  0  0  0  0
    1.4751   -6.3646   -3.1946 C   0  0  0  0  0  0  0  0  0  0  0  0
    2.2765   -7.0687   -2.9186 H   0  0  0  0  0  0  0  0  0  0  0  0
    0.7988   -6.9360   -3.8504 H   0  0  0  0  0  0  0  0  0  0  0  0
    1.9556   -5.6216   -3.8511 H   0  0  0  0  0  0  0  0  0  0  0  0
    1.3322   -4.6359   -1.5106 N   0  0  0  0  0  0  0  0  0  0  0  0
    0.8124   -3.9290   -0.3698 C   0  0  2  0  0  0  0  0  0  0  0  0
    1.0666   -2.4424   -0.5818 C   0  0  0  0  0  0  0  0  0  0  0  0
    2.0598   -2.0076   -1.1610 O   0  0  0  0  0  0  0  0  0  0  0  0
    1.4560   -4.4118    0.9207 C   0  0  0  0  0  0  0  0  0  0  0  0
    2.1528   -4.2578   -1.9805 H   0  0  0  0  0  0  0  0  0  0  0  0
   -0.2667   -4.1160   -0.3467 H   0  0  0  0  0  0  0  0  0  0  0  0
    2.5374   -4.2329    0.9160 H   0  0  0  0  0  0  0  0  0  0  0  0
    1.0390   -3.8932    1.7903 H   0  0  0  0  0  0  0  0  0  0  0  0
    1.2976   -5.4871    1.0566 H   0  0  0  0  0  0  0  0  0  0  0  0
    0.0755   -1.6529   -0.0105 N   0  0  0  0  0  0  0  0  0  0  0  0
    0.1113   -0.2132   -0.0391 C   0  0  2  0  0  0  0  0  0  0  0  0
   -0.6077    0.2380   -1.3060 C   0  0  0  0  0  0  0  0  0  0  0  0
   -0.1853    1.1364   -2.0309 O   0  0  0  0  0  0  0  0  0  0  0  0
    1.5446    0.3277   -0.0155 C   0  0  0  0  0  0  0  0  0  0  0  0
    2.2548    0.0425    1.3132 C   0  0  0  0  0  0  0  0  0  0  0  0
    3.6808    0.5831    1.3311 C   0  0  0  0  0  0  0  0  0  0  0  0
    4.3619    0.2889    2.5899 N   0  3  0  0  0  0  0  0  0  0  0  0
    5.6965    0.6310    2.8153 C   0  0  0  0  0  0  0  0  0  0  0  0
    6.2802    0.3195    4.0387 N   0  0  0  0  0  0  0  0  0  0  0  0
    6.4571    1.2768    1.8460 N   0  0  0  0  0  0  0  0  0  0  0  0
   -0.7323   -2.1024    0.4149 H   0  0  0  0  0  0  0  0  0  0  0  0
   -0.4508    0.1359    0.8345 H   0  0  0  0  0  0  0  0  0  0  0  0
    1.5294    1.4097   -0.1936 H   0  0  0  0  0  0  0  0  0  0  0  0
    2.1218   -0.1134   -0.8390 H   0  0  0  0  0  0  0  0  0  0  0  0
    1.6843    0.4868    2.1376 H   0  0  0  0  0  0  0  0  0  0  0  0
    2.2919   -1.0393    1.4858 H   0  0  0  0  0  0  0  0  0  0  0  0
    4.2619    0.1153    0.5304 H   0  0  0  0  0  0  0  0  0  0  0  0
    3.6897    1.6675    1.1851 H   0  0  0  0  0  0  0  0  0  0  0  0
    3.8559   -0.1826    3.3375 H   0  0  0  0  0  0  0  0  0  0  0  0
    7.2501    0.5551    4.2349 H   0  0  0  0  0  0  0  0  0  0  0  0
    5.7529   -0.1524    4.7693 H   0  0  0  0  0  0  0  0  0  0  0  0
    7.4293    1.5281    2.0050 H   0  0  0  0  0  0  0  0  0  0  0  0
    6.0569    1.5167    0.9419 H   0  0  0  0  0  0  0  0  0  0  0  0
   -1.7988   -0.4469   -1.5027 N   0  0  0  0  0  0  0  0  0  0  0  0
   -2.6910   -0.1719   -2.6053 C   0  0  2  0  0  0  0  0  0  0  0  0
   -4.1158   -0.4298   -2.1330 C   0  0  0  0  0  0  0  0  0  0  0  0
   -4.4059   -1.3105   -1.3260 O   0  0  0  0  0  0  0  0  0  0  0  0
   -2.3559   -1.0297   -3.8155 C   0  0  0  0  0  0  0  0  0  0  0  0
   -2.0523   -1.1982   -0.8679 H   0  0  0  0  0  0  0  0  0  0  0  0
   -2.5733    0.8893   -2.8503 H   0  0  0  0  0  0  0  0  0  0  0  0
   -2.4681   -2.0964   -3.5892 H   0  0  0  0  0  0  0  0  0  0  0  0
   -3.0146   -0.7999   -4.6594 H   0  0  0  0  0  0  0  0  0  0  0  0
   -1.3214   -0.8650   -4.1356 H   0  0  0  0  0  0  0  0  0  0  0  0
   -5.0307    0.4110   -2.7512 N   0  0  0  0  0  0  0  0  0  0  0  0
   -6.4515    0.3343   -2.5029 C   0  0  0  0  0  0  0  0  0  0  0  0
   -4.6975    1.1387   -3.3765 H   0  0  0  0  0  0  0  0  0  0  0  0
   -6.9187   -0.3291   -3.2456 H   0  0  0  0  0  0  0  0  0  0  0  0
   -6.6261   -0.0654   -1.4931 H   0  0  0  0  0  0  0  0  0  0  0  0
   -6.8919    1.3393   -2.5806 H   0  0  0  0  0  0  0  0  0  0  0  0
  1  3  1  0  0  0  0
  1  7  1  0  0  0  0
  1  2  2  0  0  0  0
 42 43  1  0  0  0  0
 43 51  1  0  0  0  0
 43 44  2  0  0  0  0
  8  9  1  0  0  0  0
  9 17  1  0  0  0  0
  9 10  2  0  0  0  0
 18 19  1  0  0  0  0
 19 41  1  0  0  0  0
 19 20  2  0  0  0  0
 25 26  1  0  0  0  0
 25 27  1  0  0  0  0
 24 25  2  0  0  0  0
 42 45  1  0  0  0  0
  8 11  1  0  0  0  0
 51 52  1  0  0  0  0
 21 22  1  0  0  0  0
 22 23  1  0  0  0  0
 18 21  1  0  0  0  0
 23 24  1  0  0  0  0
 41 42  1  0  0  0  0
  7  8  1  0  0  0  0
 17 18  1  0  0  0  0
  3  4  1  0  0  0  0
  3  5  1  0  0  0  0
  3  6  1  0  0  0  0
 45 48  1  0  0  0  0
 45 49  1  0  0  0  0
 45 50  1  0  0  0  0
 11 14  1  0  0  0  0
 11 15  1  0  0  0  0
 11 16  1  0  0  0  0
 52 54  1  0  0  0  0
 52 55  1  0  0  0  0
 52 56  1  0  0  0  0
 22 32  1  0  0  0  0
 22 33  1  0  0  0  0
 21 30  1  0  0  0  0
 21 31  1  0  0  0  0
 23 34  1  0  0  0  0
 23 35  1  0  0  0  0
 42 47  1  0  0  0  0
  8 13  1  0  0  0  0
 18 29  1  0  0  0  0
 26 37  1  0  0  0  0
 26 38  1  0  0  0  0
 27 39  1  0  0  0  0
 27 40  1  0  0  0  0
 51 53  1  0  0  0  0
  7 12  1  0  0  0  0
 41 46  1  0  0  0  0
 17 28  1  0  0  0  0
 24 36  1  0  0  0  0
M  CHG  1  24   1
M  END
$$$$

  -OEChem-05262214473D

 56 55  0     1  0  0  0  0  0999 V2000
    0.7735   -5.8042   -2.0022 C   0  0  0  0  0  0  0  0  0  0  0  0
   -0.2086   -6.3825   -1.5519 O   0  0  0  0  0  0  0  0  0  0  0  0
    1.4751   -6.3646   -3.1946 C   0  0  0  0  0  0  0  0  0  0  0  0
    2.2765   -7.0687   -2.9186 H   0  0  0  0  0  0  0  0  0  0  0  0
    0.7988   -6.9360   -3.8504 H   0  0  0  0  0  0  0  0  0  0  0  0
    1.9556   -5.6216   -3.8511 H   0  0  0  0  0  0  0  0  0  0  0  0
    1.3322   -4.6359   -1.5106 N   0  0  0  0  0  0  0  0  0  0  0  0
    0.8124   -3.9290   -0.3698 C   0  0  2  0  0  0  0  0  0  0  0  0
    1.0666   -2.4424   -0.5818 C   0  0  0  0  0  0  0  0  0  0  0  0
    2.0598   -2.0076   -1.1610 O   0  0  0  0  0  0  0  0  0  0  0  0
    1.4560   -4.4118    0.9207 C   0  0  0  0  0  0  0  0  0  0  0  0
    2.1528   -4.2578   -1.9805 H   0  0  0  0  0  0  0  0  0  0  0  0
   -0.2667   -4.1160   -0.3467 H   0  0  0  0  0  0  0  0  0  0  0  0
    2.5374   -4.2329    0.9160 H   0  0  0  0  0  0  0  0  0  0  0  0
    1.0390   -3.8932    1.7903 H   0  0  0  0  0  0  0  0  0  0  0  0
    1.2976   -5.4871    1.0566 H   0  0  0  0  0  0  0  0  0  0  0  0
    0.0755   -1.6529   -0.0105 N   0  0  0  0  0  0  0  0  0  0  0  0
    0.1113   -0.2132   -0.0391 C   0  0  2  0  0  0  0  0  0  0  0  0
   -0.6077    0.2380   -1.3060 C   0  0  0  0  0  0  0  0  0  0  0  0
   -0.0728    0.9332   -2.1672 O   0  0  0  0  0  0  0  0  0  0  0  0
    1.5446    0.3277   -0.0155 C   0  0  0  0  0  0  0  0  0  0  0  0
    2.2548    0.0425    1.3132 C   0  0  0  0  0  0  0  0  0  0  0  0
    3.6808    0.5831    1.3311 C   0  0  0  0  0  0  0  0  0  0  0  0
    4.3619    0.2889    2.5899 N   0  3  0  0  0  0  0  0  0  0  0  0
    5.6965    0.6310    2.8153 C   0  0  0  0  0  0  0  0  0  0  0  0
    6.2802    0.3195    4.0387 N   0  0  0  0  0  0  0  0  0  0  0  0
    6.4571    1.2768    1.8460 N   0  0  0  0  0  0  0  0  0  0  0  0
   -0.7323   -2.1024    0.4149 H   0  0  0  0  0  0  0  0  0  0  0  0
   -0.4508    0.1359    0.8345 H   0  0  0  0  0  0  0  0  0  0  0  0
    1.5294    1.4097   -0.1936 H   0  0  0  0  0  0  0  0  0  0  0  0
    2.1218   -0.1134   -0.8390 H   0  0  0  0  0  0  0  0  0  0  0  0
    1.6843    0.4868    2.1376 H   0  0  0  0  0  0  0  0  0  0  0  0
    2.2919   -1.0393    1.4858 H   0  0  0  0  0  0  0  0  0  0  0  0
    4.2619    0.1153    0.5304 H   0  0  0  0  0  0  0  0  0  0  0  0
    3.6897    1.6675    1.1851 H   0  0  0  0  0  0  0  0  0  0  0  0
    3.8559   -0.1826    3.3375 H   0  0  0  0  0  0  0  0  0  0  0  0
    7.2501    0.5551    4.2349 H   0  0  0  0  0  0  0  0  0  0  0  0
    5.7529   -0.1524    4.7693 H   0  0  0  0  0  0  0  0  0  0  0  0
    7.4293    1.5281    2.0050 H   0  0  0  0  0  0  0  0  0  0  0  0
    6.0569    1.5167    0.9419 H   0  0  0  0  0  0  0  0  0  0  0  0
   -1.9289   -0.1862   -1.3360 N   0  0  0  0  0  0  0  0  0  0  0  0
   -2.8388    0.1510   -2.4064 C   0  0  2  0  0  0  0  0  0  0  0  0
   -4.2376    0.2679   -1.8154 C   0  0  0  0  0  0  0  0  0  0  0  0
   -4.6326   -0.4300   -0.8837 O   0  0  0  0  0  0  0  0  0  0  0  0
   -2.8018   -0.8914   -3.5131 C   0  0  0  0  0  0  0  0  0  0  0  0
   -2.2766   -0.7863   -0.5939 H   0  0  0  0  0  0  0  0  0  0  0  0
   -2.5231    1.1255   -2.7947 H   0  0  0  0  0  0  0  0  0  0  0  0
   -3.1149   -1.8744   -3.1430 H   0  0  0  0  0  0  0  0  0  0  0  0
   -3.4706   -0.6198   -4.3365 H   0  0  0  0  0  0  0  0  0  0  0  0
   -1.7888   -0.9955   -3.9167 H   0  0  0  0  0  0  0  0  0  0  0  0
   -5.0071    1.2133   -2.4788 N   0  0  0  0  0  0  0  0  0  0  0  0
   -6.3840    1.4795   -2.1333 C   0  0  0  0  0  0  0  0  0  0  0  0
   -4.5859    1.7741   -3.2136 H   0  0  0  0  0  0  0  0  0  0  0  0
   -7.0451    0.8550   -2.7521 H   0  0  0  0  0  0  0  0  0  0  0  0
   -6.5472    1.2453   -1.0710 H   0  0  0  0  0  0  0  0  0  0  0  0
   -6.6084    2.5412   -2.3134 H   0  0  0  0  0  0  0  0  0  0  0  0
  1  3  1  0  0  0  0
  1  7  1  0  0  0  0
  1  2  2  0  0  0  0
 42 43  1  0  0  0  0
 43 51  1  0  0  0  0
 43 44  2  0  0  0  0
  8  9  1  0  0  0  0
  9 17  1  0  0  0  0
  9 10  2  0  0  0  0
 18 19  1  0  0  0  0
 19 41  1  0  0  0  0
 19 20  2  0  0  0  0
 25 26  1  0  0  0  0
 25 27  1  0  0  0  0
 24 25  2  0  0  0  0
 42 45  1  0  0  0  0
  8 11  1  0  0  0  0
 51 52  1  0  0  0  0
 21 22  1  0  0  0  0
 22 23  1  0  0  0  0
 18 21  1  0  0  0  0
 23 24  1  0  0  0  0
 41 42  1  0  0  0  0
  7  8  1  0  0  0  0
 17 18  1  0  0  0  0
  3  4  1  0  0  0  0
  3  5  1  0  0  0  0
  3  6  1  0  0  0  0
 45 48  1  0  0  0  0
 45 49  1  0  0  0  0
 45 50  1  0  0  0  0
 11 14  1  0  0  0  0
 11 15  1  0  0  0  0
 11 16  1  0  0  0  0
 52 54  1  0  0  0  0
 52 55  1  0  0  0  0
 52 56  1  0  0  0  0
 22 32  1  0  0  0  0
 22 33  1  0  0  0  0
 21 30  1  0  0  0  0
 21 31  1  0  0  0  0
 23 34  1  0  0  0  0
 23 35  1  0  0  0  0
 42 47  1  0  0  0  0
  8 13  1  0  0  0  0
 18 29  1  0  0  0  0
 26 37  1  0  0  0  0
 26 38  1  0  0  0  0
 27 39  1  0  0  0  0
 27 40  1  0  0  0  0
 51 53  1  0  0  0  0
  7 12  1  0  0  0  0
 41 46  1  0  0  0  0
 17 28  1  0  0  0  0
 24 36  1  0  0  0  0
M  CHG  1  24   1
M  END
$$$$

  -OEChem-05262214473D

 56 55  0     1  0  0  0  0  0999 V2000
    0.7735   -5.8042   -2.0022 C   0  0  0  0  0  0  0  0  0  0  0  0
   -0.2086   -6.3825   -1.5519 O   0  0  0  0  0  0  0  0  0  0  0  0
    1.4751   -6.3646   -3.1946 C   0  0  0  0  0  0  0  0  0  0  0  0
    2.2765   -7.0687   -2.9186 H   0  0  0  0  0  0  0  0  0  0  0  0
    0.7988   -6.9360   -3.8504 H   0  0  0  0  0  0  0  0  0  0  0  0
    1.9556   -5.6216   -3.8511 H   0  0  0  0  0  0  0  0  0  0  0  0
    1.3322   -4.6359   -1.5106 N   0  0  0  0  0  0  0  0  0  0  0  0
    0.8124   -3.9290   -0.3698 C   0  0  2  0  0  0  0  0  0  0  0  0
    1.0666   -2.4424   -0.5818 C   0  0  0  0  0  0  0  0  0  0  0  0
    2.0598   -2.0076   -1.1610 O   0  0  0  0  0  0  0  0  0  0  0  0
    1.4560   -4.4118    0.9207 C   0  0  0  0  0  0  0  0  0  0  0  0
    2.1528   -4.2578   -1.9805 H   0  0  0  0  0  0  0  0  0  0  0  0
   -0.2667   -4.1160   -0.3467 H   0  0  0  0  0  0  0  0  0  0  0  0
    2.5374   -4.2329    0.9160 H   0  0  0  0  0  0  0  0  0  0  0  0
    1.0390   -3.8932    1.7903 H   0  0  0  0  0  0  0  0  0  0  0  0
    1.2976   -5.4871    1.0566 H   0  0  0  0  0  0  0  0  0  0  0  0
    0.0755   -1.6529   -0.0105 N   0  0  0  0  0  0  0  0  0  0  0  0
    0.1113   -0.2132   -0.0391 C   0  0  2  0  0  0  0  0  0  0  0  0
   -0.6077    0.2380   -1.3060 C   0  0  0  0  0  0  0  0  0  0  0  0
   -0.0182    0.6962   -2.2826 O   0  0  0  0  0  0  0  0  0  0  0  0
    1.5446    0.3277   -0.0155 C   0  0  0  0  0  0  0  0  0  0  0  0
    2.2548    0.0425    1.3132 C   0  0  0  0  0  0  0  0  0  0  0  0
    3.6808    0.5831    1.3311 C   0  0  0  0  0  0  0  0  0  0  0  0
    4.3619    0.2889    2.5899 N   0  3  0  0  0  0  0  0  0  0  0  0
    5.6965    0.6310    2.8153 C   0  0  0  0  0  0  0  0  0  0  0  0
    6.2802    0.3195    4.0387 N   0  0  0  0  0  0  0  0  0  0  0  0
    6.4571    1.2768    1.8460 N   0  0  0  0  0  0  0  0  0  0  0  0
   -0.7323   -2.1024    0.4149 H   0  0  0  0  0  0  0  0  0  0  0  0
   -0.4508    0.1359    0.8345 H   0  0  0  0  0  0  0  0  0  0  0  0
    1.5294    1.4097   -0.1936 H   0  0  0  0  0  0  0  0  0  0  0  0
    2.1218   -0.1134   -0.8390 H   0  0  0  0  0  0  0  0  0  0  0  0
    1.6843    0.4868    2.1376 H   0  0  0  0  0  0  0  0  0  0  0  0
    2.2919   -1.0393    1.4858 H   0  0  0  0  0  0  0  0  0  0  0  0
    4.2619    0.1153    0.5304 H   0  0  0  0  0  0  0  0  0  0  0  0
    3.6897    1.6675    1.1851 H   0  0  0  0  0  0  0  0  0  0  0  0
    3.8559   -0.1826    3.3375 H   0  0  0  0  0  0  0  0  0  0  0  0
    7.2501    0.5551    4.2349 H   0  0  0  0  0  0  0  0  0  0  0  0
    5.7529   -0.1524    4.7693 H   0  0  0  0  0  0  0  0  0  0  0  0
    7.4293    1.5281    2.0050 H   0  0  0  0  0  0  0  0  0  0  0  0
    6.0569    1.5167    0.9419 H   0  0  0  0  0  0  0  0  0  0  0  0
   -1.9858    0.1139   -1.1968 N   0  0  0  0  0  0  0  0  0  0  0  0
   -2.8969    0.5190   -2.2424 C   0  0  2  0  0  0  0  0  0  0  0  0
   -4.1809    1.0068   -1.5844 C   0  0  0  0  0  0  0  0  0  0  0  0
   -4.6284    0.5233   -0.5466 O   0  0  0  0  0  0  0  0  0  0  0  0
   -3.1796   -0.6250   -3.2038 C   0  0  0  0  0  0  0  0  0  0  0  0
   -2.3837   -0.3068   -0.3623 H   0  0  0  0  0  0  0  0  0  0  0  0
   -2.4196    1.3496   -2.7736 H   0  0  0  0  0  0  0  0  0  0  0  0
   -3.6578   -1.4666   -2.6896 H   0  0  0  0  0  0  0  0  0  0  0  0
   -3.8476   -0.3084   -4.0116 H   0  0  0  0  0  0  0  0  0  0  0  0
   -2.2517   -0.9943   -3.6536 H   0  0  0  0  0  0  0  0  0  0  0  0
   -4.7909    2.0165   -2.3154 N   0  0  0  0  0  0  0  0  0  0  0  0
   -6.0443    2.6163   -1.9213 C   0  0  0  0  0  0  0  0  0  0  0  0
   -4.3291    2.3838   -3.1422 H   0  0  0  0  0  0  0  0  0  0  0  0
   -6.8749    2.0862   -2.4103 H   0  0  0  0  0  0  0  0  0  0  0  0
   -6.1569    2.5460   -0.8293 H   0  0  0  0  0  0  0  0  0  0  0  0
   -6.0557    3.6738   -2.2238 H   0  0  0  0  0  0  0  0  0  0  0  0
  1  3  1  0  0  0  0
  1  7  1  0  0  0  0
  1  2  2  0  0  0  0
 42 43  1  0  0  0  0
 43 51  1  0  0  0  0
 43 44  2  0  0  0  0
  8  9  1  0  0  0  0
  9 17  1  0  0  0  0
  9 10  2  0  0  0  0
 18 19  1  0  0  0  0
 19 41  1  0  0  0  0
 19 20  2  0  0  0  0
 25 26  1  0  0  0  0
 25 27  1  0  0  0  0
 24 25  2  0  0  0  0
 42 45  1  0  0  0  0
  8 11  1  0  0  0  0
 51 52  1  0  0  0  0
 21 22  1  0  0  0  0
 22 23  1  0  0  0  0
 18 21  1  0  0  0  0
 23 24  1  0  0  0  0
 41 42  1  0  0  0  0
  7  8  1  0  0  0  0
 17 18  1  0  0  0  0
  3  4  1  0  0  0  0
  3  5  1  0  0  0  0
  3  6  1  0  0  0  0
 45 48  1  0  0  0  0
 45 49  1  0  0  0  0
 45 50  1  0  0  0  0
 11 14  1  0  0  0  0
 11 15  1  0  0  0  0
 11 16  1  0  0  0  0
 52 54  1  0  0  0  0
 52 55  1  0  0  0  0
 52 56  1  0  0  0  0
 22 32  1  0  0  0  0
 22 33  1  0  0  0  0
 21 30  1  0  0  0  0
 21 31  1  0  0  0  0
 23 34  1  0  0  0  0
 23 35  1  0  0  0  0
 42 47  1  0  0  0  0
  8 13  1  0  0  0  0
 18 29  1  0  0  0  0
 26 37  1  0  0  0  0
 26 38  1  0  0  0  0
 27 39  1  0  0  0  0
 27 40  1  0  0  0  0
 51 53  1  0  0  0  0
  7 12  1  0  0  0  0
 41 46  1  0  0  0  0
 17 28  1  0  0  0  0
 24 36  1  0  0  0  0
M  CHG  1  24   1
M  END
$$$$

  -OEChem-05262214473D

 56 55  0     1  0  0  0  0  0999 V2000
    0.7735   -5.8042   -2.0022 C   0  0  0  0  0  0  0  0  0  0  0  0
   -0.2086   -6.3825   -1.5519 O   0  0  0  0  0  0  0  0  0  0  0  0
    1.4751   -6.3646   -3.1946 C   0  0  0  0  0  0  0  0  0  0  0  0
    2.2765   -7.0687   -2.9186 H   0  0  0  0  0  0  0  0  0  0  0  0
    0.7988   -6.9360   -3.8504 H   0  0  0  0  0  0  0  0  0  0  0  0
    1.9556   -5.6216   -3.8511 H   0  0  0  0  0  0  0  0  0  0  0  0
    1.3322   -4.6359   -1.5106 N   0  0  0  0  0  0  0  0  0  0  0  0
    0.8124   -3.9290   -0.3698 C   0  0  2  0  0  0  0  0  0  0  0  0
    1.0666   -2.4424   -0.5818 C   0  0  0  0  0  0  0  0  0  0  0  0
    2.0598   -2.0076   -1.1610 O   0  0  0  0  0  0  0  0  0  0  0  0
    1.4560   -4.4118    0.9207 C   0  0  0  0  0  0  0  0  0  0  0  0
    2.1528   -4.2578   -1.9805 H   0  0  0  0  0  0  0  0  0  0  0  0
   -0.2667   -4.1160   -0.3467 H   0  0  0  0  0  0  0  0  0  0  0  0
    2.5374   -4.2329    0.9160 H   0  0  0  0  0  0  0  0  0  0  0  0
    1.0390   -3.8932    1.7903 H   0  0  0  0  0  0  0  0  0  0  0  0
    1.2976   -5.4871    1.0566 H   0  0  0  0  0  0  0  0  0  0  0  0
    0.0755   -1.6529   -0.0105 N   0  0  0  0  0  0  0  0  0  0  0  0
    0.1113   -0.2132   -0.0391 C   0  0  2  0  0  0  0  0  0  0  0  0
   -0.6077    0.2380   -1.3060 C   0  0  0  0  0  0  0  0  0  0  0  0
   -0.0253    0.4413   -2.3693 O   0  0  0  0  0  0  0  0  0  0  0  0
    1.5446    0.3277   -0.0155 C   0  0  0  0  0  0  0  0  0  0  0  0
    2.2548    0.0425    1.3132 C   0  0  0  0  0  0  0  0  0  0  0  0
    3.6808    0.5831    1.3311 C   0  0  0  0  0  0  0  0  0  0  0  0
    4.3619    0.2889    2.5899 N   0  3  0  0  0  0  0  0  0  0  0  0
    5.6965    0.6310    2.8153 C   0  0  0  0  0  0  0  0  0  0  0  0
    6.2802    0.3195    4.0387 N   0  0  0  0  0  0  0  0  0  0  0  0
    6.4571    1.2768    1.8460 N   0  0  0  0  0  0  0  0  0  0  0  0
   -0.7323   -2.1024    0.4149 H   0  0  0  0  0  0  0  0  0  0  0  0
   -0.4508    0.1359    0.8345 H   0  0  0  0  0  0  0  0  0  0  0  0
    1.5294    1.4097   -0.1936 H   0  0  0  0  0  0  0  0  0  0  0  0
    2.1218   -0.1134   -0.8390 H   0  0  0  0  0  0  0  0  0  0  0  0
    1.6843    0.4868    2.1376 H   0  0  0  0  0  0  0  0  0  0  0  0
    2.2919   -1.0393    1.4858 H   0  0  0  0  0  0  0  0  0  0  0  0
    4.2619    0.1153    0.5304 H   0  0  0  0  0  0  0  0  0  0  0  0
    3.6897    1.6675    1.1851 H   0  0  0  0  0  0  0  0  0  0  0  0
    3.8559   -0.1826    3.3375 H   0  0  0  0  0  0  0  0  0  0  0  0
    7.2501    0.5551    4.2349 H   0  0  0  0  0  0  0  0  0  0  0  0
    5.7529   -0.1524    4.7693 H   0  0  0  0  0  0  0  0  0  0  0  0
    7.4293    1.5281    2.0050 H   0  0  0  0  0  0  0  0  0  0  0  0
    6.0569    1.5167    0.9419 H   0  0  0  0  0  0  0  0  0  0  0  0
   -1.9655    0.4331   -1.0947 N   0  0  0  0  0  0  0  0  0  0  0  0
   -2.8614    0.9069   -2.1244 C   0  0  2  0  0  0  0  0  0  0  0  0
   -3.9496    1.7365   -1.4558 C   0  0  0  0  0  0  0  0  0  0  0  0
   -4.3936    1.4844   -0.3376 O   0  0  0  0  0  0  0  0  0  0  0  0
   -3.4635   -0.2486   -2.9086 C   0  0  0  0  0  0  0  0  0  0  0  0
   -2.3663    0.2077   -0.1890 H   0  0  0  0  0  0  0  0  0  0  0  0
   -2.2699    1.5465   -2.7885 H   0  0  0  0  0  0  0  0  0  0  0  0
   -4.0598   -0.9005   -2.2598 H   0  0  0  0  0  0  0  0  0  0  0  0
   -4.1200    0.1130   -3.7069 H   0  0  0  0  0  0  0  0  0  0  0  0
   -2.6783   -0.8615   -3.3642 H   0  0  0  0  0  0  0  0  0  0  0  0
   -4.3969    2.7658   -2.2722 N   0  0  0  0  0  0  0  0  0  0  0  0
   -5.4555    3.6672   -1.8812 C   0  0  0  0  0  0  0  0  0  0  0  0
   -3.9444    2.9262   -3.1674 H   0  0  0  0  0  0  0  0  0  0  0  0
   -6.4195    3.2805   -2.2434 H   0  0  0  0  0  0  0  0  0  0  0  0
   -5.4817    3.7479   -0.7845 H   0  0  0  0  0  0  0  0  0  0  0  0
   -5.2715    4.6600   -2.3177 H   0  0  0  0  0  0  0  0  0  0  0  0
  1  3  1  0  0  0  0
  1  7  1  0  0  0  0
  1  2  2  0  0  0  0
 42 43  1  0  0  0  0
 43 51  1  0  0  0  0
 43 44  2  0  0  0  0
  8  9  1  0  0  0  0
  9 17  1  0  0  0  0
  9 10  2  0  0  0  0
 18 19  1  0  0  0  0
 19 41  1  0  0  0  0
 19 20  2  0  0  0  0
 25 26  1  0  0  0  0
 25 27  1  0  0  0  0
 24 25  2  0  0  0  0
 42 45  1  0  0  0  0
  8 11  1  0  0  0  0
 51 52  1  0  0  0  0
 21 22  1  0  0  0  0
 22 23  1  0  0  0  0
 18 21  1  0  0  0  0
 23 24  1  0  0  0  0
 41 42  1  0  0  0  0
  7  8  1  0  0  0  0
 17 18  1  0  0  0  0
  3  4  1  0  0  0  0
  3  5  1  0  0  0  0
  3  6  1  0  0  0  0
 45 48  1  0  0  0  0
 45 49  1  0  0  0  0
 45 50  1  0  0  0  0
 11 14  1  0  0  0  0
 11 15  1  0  0  0  0
 11 16  1  0  0  0  0
 52 54  1  0  0  0  0
 52 55  1  0  0  0  0
 52 56  1  0  0  0  0
 22 32  1  0  0  0  0
 22 33  1  0  0  0  0
 21 30  1  0  0  0  0
 21 31  1  0  0  0  0
 23 34  1  0  0  0  0
 23 35  1  0  0  0  0
 42 47  1  0  0  0  0
  8 13  1  0  0  0  0
 18 29  1  0  0  0  0
 26 37  1  0  0  0  0
 26 38  1  0  0  0  0
 27 39  1  0  0  0  0
 27 40  1  0  0  0  0
 51 53  1  0  0  0  0
  7 12  1  0  0  0  0
 41 46  1  0  0  0  0
 17 28  1  0  0  0  0
 24 36  1  0  0  0  0
M  CHG  1  24   1
M  END
$$$$

  -OEChem-05262214473D

 56 55  0     1  0  0  0  0  0999 V2000
    0.7735   -5.8042   -2.0022 C   0  0  0  0  0  0  0  0  0  0  0  0
   -0.2086   -6.3825   -1.5519 O   0  0  0  0  0  0  0  0  0  0  0  0
    1.4751   -6.3646   -3.1946 C   0  0  0  0  0  0  0  0  0  0  0  0
    2.2765   -7.0687   -2.9186 H   0  0  0  0  0  0  0  0  0  0  0  0
    0.7988   -6.9360   -3.8504 H   0  0  0  0  0  0  0  0  0  0  0  0
    1.9556   -5.6216   -3.8511 H   0  0  0  0  0  0  0  0  0  0  0  0
    1.3322   -4.6359   -1.5106 N   0  0  0  0  0  0  0  0  0  0  0  0
    0.8124   -3.9290   -0.3698 C   0  0  2  0  0  0  0  0  0  0  0  0
    1.0666   -2.4424   -0.5818 C   0  0  0  0  0  0  0  0  0  0  0  0
    2.0598   -2.0076   -1.1610 O   0  0  0  0  0  0  0  0  0  0  0  0
    1.4560   -4.4118    0.9207 C   0  0  0  0  0  0  0  0  0  0  0  0
    2.1528   -4.2578   -1.9805 H   0  0  0  0  0  0  0  0  0  0  0  0
   -0.2667   -4.1160   -0.3467 H   0  0  0  0  0  0  0  0  0  0  0  0
    2.5374   -4.2329    0.9160 H   0  0  0  0  0  0  0  0  0  0  0  0
    1.0390   -3.8932    1.7903 H   0  0  0  0  0  0  0  0  0  0  0  0
    1.2976   -5.4871    1.0566 H   0  0  0  0  0  0  0  0  0  0  0  0
    0.0755   -1.6529   -0.0105 N   0  0  0  0  0  0  0  0  0  0  0  0
    0.1113   -0.2132   -0.0391 C   0  0  2  0  0  0  0  0  0  0  0  0
   -0.6077    0.2380   -1.3060 C   0  0  0  0  0  0  0  0  0  0  0  0
   -0.0936    0.1862   -2.4214 O   0  0  0  0  0  0  0  0  0  0  0  0
    1.5446    0.3277   -0.0155 C   0  0  0  0  0  0  0  0  0  0  0  0
    2.2548    0.0425    1.3132 C   0  0  0  0  0  0  0  0  0  0  0  0
    3.6808    0.5831    1.3311 C   0  0  0  0  0  0  0  0  0  0  0  0
    4.3619    0.2889    2.5899 N   0  3  0  0  0  0  0  0  0  0  0  0
    5.6965    0.6310    2.8153 C   0  0  0  0  0  0  0  0  0  0  0  0
    6.2802    0.3195    4.0387 N   0  0  0  0  0  0  0  0  0  0  0  0
    6.4571    1.2768    1.8460 N   0  0  0  0  0  0  0  0  0  0  0  0
   -0.7323   -2.1024    0.4149 H   0  0  0  0  0  0  0  0  0  0  0  0
   -0.4508    0.1359    0.8345 H   0  0  0  0  0  0  0  0  0  0  0  0
    1.5294    1.4097   -0.1936 H   0  0  0  0  0  0  0  0  0  0  0  0
    2.1218   -0.1134   -0.8390 H   0  0  0  0  0  0  0  0  0  0  0  0
    1.6843    0.4868    2.1376 H   0  0  0  0  0  0  0  0  0  0  0  0
    2.2919   -1.0393    1.4858 H   0  0  0  0  0  0  0  0  0  0  0  0
    4.2619    0.1153    0.5304 H   0  0  0  0  0  0  0  0  0  0  0  0
    3.6897    1.6675    1.1851 H   0  0  0  0  0  0  0  0  0  0  0  0
    3.8559   -0.1826    3.3375 H   0  0  0  0  0  0  0  0  0  0  0  0
    7.2501    0.5551    4.2349 H   0  0  0  0  0  0  0  0  0  0  0  0
    5.7529   -0.1524    4.7693 H   0  0  0  0  0  0  0  0  0  0  0  0
    7.4293    1.5281    2.0050 H   0  0  0  0  0  0  0  0  0  0  0  0
    6.0569    1.5167    0.9419 H   0  0  0  0  0  0  0  0  0  0  0  0
   -1.8695    0.7494   -1.0365 N   0  0  0  0  0  0  0  0  0  0  0  0
   -2.7346    1.2883   -2.0605 C   0  0  2  0  0  0  0  0  0  0  0  0
   -3.5594    2.4073   -1.4383 C   0  0  0  0  0  0  0  0  0  0  0  0
   -3.9441    2.3877   -0.2710 O   0  0  0  0  0  0  0  0  0  0  0  0
   -3.6343    0.2119   -2.6476 C   0  0  0  0  0  0  0  0  0  0  0  0
   -2.2256    0.7221   -0.0856 H   0  0  0  0  0  0  0  0  0  0  0  0
   -2.0840    1.7025   -2.8384 H   0  0  0  0  0  0  0  0  0  0  0  0
   -4.2935   -0.2149   -1.8830 H   0  0  0  0  0  0  0  0  0  0  0  0
   -4.2691    0.6159   -3.4432 H   0  0  0  0  0  0  0  0  0  0  0  0
   -3.0397   -0.6063   -3.0681 H   0  0  0  0  0  0  0  0  0  0  0  0
   -3.8519    3.4101   -2.3521 N   0  0  0  0  0  0  0  0  0  0  0  0
   -4.6577    4.5606   -2.0158 C   0  0  0  0  0  0  0  0  0  0  0  0
   -3.4581    3.3643   -3.2873 H   0  0  0  0  0  0  0  0  0  0  0  0
   -5.7101    4.3566   -2.2628 H   0  0  0  0  0  0  0  0  0  0  0  0
   -4.5676    4.7692   -0.9396 H   0  0  0  0  0  0  0  0  0  0  0  0
   -4.3091    5.4324   -2.5888 H   0  0  0  0  0  0  0  0  0  0  0  0
  1  3  1  0  0  0  0
  1  7  1  0  0  0  0
  1  2  2  0  0  0  0
 42 43  1  0  0  0  0
 43 51  1  0  0  0  0
 43 44  2  0  0  0  0
  8  9  1  0  0  0  0
  9 17  1  0  0  0  0
  9 10  2  0  0  0  0
 18 19  1  0  0  0  0
 19 41  1  0  0  0  0
 19 20  2  0  0  0  0
 25 26  1  0  0  0  0
 25 27  1  0  0  0  0
 24 25  2  0  0  0  0
 42 45  1  0  0  0  0
  8 11  1  0  0  0  0
 51 52  1  0  0  0  0
 21 22  1  0  0  0  0
 22 23  1  0  0  0  0
 18 21  1  0  0  0  0
 23 24  1  0  0  0  0
 41 42  1  0  0  0  0
  7  8  1  0  0  0  0
 17 18  1  0  0  0  0
  3  4  1  0  0  0  0
  3  5  1  0  0  0  0
  3  6  1  0  0  0  0
 45 48  1  0  0  0  0
 45 49  1  0  0  0  0
 45 50  1  0  0  0  0
 11 14  1  0  0  0  0
 11 15  1  0  0  0  0
 11 16  1  0  0  0  0
 52 54  1  0  0  0  0
 52 55  1  0  0  0  0
 52 56  1  0  0  0  0
 22 32  1  0  0  0  0
 22 33  1  0  0  0  0
 21 30  1  0  0  0  0
 21 31  1  0  0  0  0
 23 34  1  0  0  0  0
 23 35  1  0  0  0  0
 42 47  1  0  0  0  0
  8 13  1  0  0  0  0
 18 29  1  0  0  0  0
 26 37  1  0  0  0  0
 26 38  1  0  0  0  0
 27 39  1  0  0  0  0
 27 40  1  0  0  0  0
 51 53  1  0  0  0  0
  7 12  1  0  0  0  0
 41 46  1  0  0  0  0
 17 28  1  0  0  0  0
 24 36  1  0  0  0  0
M  CHG  1  24   1
M  END
$$$$

  -OEChem-05262214473D

 56 55  0     1  0  0  0  0  0999 V2000
    0.7735   -5.8042   -2.0022 C   0  0  0  0  0  0  0  0  0  0  0  0
   -0.2086   -6.3825   -1.5519 O   0  0  0  0  0  0  0  0  0  0  0  0
    1.4751   -6.3646   -3.1946 C   0  0  0  0  0  0  0  0  0  0  0  0
    2.2765   -7.0687   -2.9186 H   0  0  0  0  0  0  0  0  0  0  0  0
    0.7988   -6.9360   -3.8504 H   0  0  0  0  0  0  0  0  0  0  0  0
    1.9556   -5.6216   -3.8511 H   0  0  0  0  0  0  0  0  0  0  0  0
    1.3322   -4.6359   -1.5106 N   0  0  0  0  0  0  0  0  0  0  0  0
    0.8124   -3.9290   -0.3698 C   0  0  2  0  0  0  0  0  0  0  0  0
    1.0666   -2.4424   -0.5818 C   0  0  0  0  0  0  0  0  0  0  0  0
    2.0598   -2.0076   -1.1610 O   0  0  0  0  0  0  0  0  0  0  0  0
    1.4560   -4.4118    0.9207 C   0  0  0  0  0  0  0  0  0  0  0  0
    2.1528   -4.2578   -1.9805 H   0  0  0  0  0  0  0  0  0  0  0  0
   -0.2667   -4.1160   -0.3467 H   0  0  0  0  0  0  0  0  0  0  0  0
    2.5374   -4.2329    0.9160 H   0  0  0  0  0  0  0  0  0  0  0  0
    1.0390   -3.8932    1.7903 H   0  0  0  0  0  0  0  0  0  0  0  0
    1.2976   -5.4871    1.0566 H   0  0  0  0  0  0  0  0  0  0  0  0
    0.0755   -1.6529   -0.0105 N   0  0  0  0  0  0  0  0  0  0  0  0
    0.1113   -0.2132   -0.0391 C   0  0  2  0  0  0  0  0  0  0  0  0
   -0.6077    0.2380   -1.3060 C   0  0  0  0  0  0  0  0  0  0  0  0
   -0.2184   -0.0520   -2.4354 O   0  0  0  0  0  0  0  0  0  0  0  0
    1.5446    0.3277   -0.0155 C   0  0  0  0  0  0  0  0  0  0  0  0
    2.2548    0.0425    1.3132 C   0  0  0  0  0  0  0  0  0  0  0  0
    3.6808    0.5831    1.3311 C   0  0  0  0  0  0  0  0  0  0  0  0
    4.3619    0.2889    2.5899 N   0  3  0  0  0  0  0  0  0  0  0  0
    5.6965    0.6310    2.8153 C   0  0  0  0  0  0  0  0  0  0  0  0
    6.2802    0.3195    4.0387 N   0  0  0  0  0  0  0  0  0  0  0  0
    6.4571    1.2768    1.8460 N   0  0  0  0  0  0  0  0  0  0  0  0
   -0.7323   -2.1024    0.4149 H   0  0  0  0  0  0  0  0  0  0  0  0
   -0.4508    0.1359    0.8345 H   0  0  0  0  0  0  0  0  0  0  0  0
    1.5294    1.4097   -0.1936 H   0  0  0  0  0  0  0  0  0  0  0  0
    2.1218   -0.1134   -0.8390 H   0  0  0  0  0  0  0  0  0  0  0  0
    1.6843    0.4868    2.1376 H   0  0  0  0  0  0  0  0  0  0  0  0
    2.2919   -1.0393    1.4858 H   0  0  0  0  0  0  0  0  0  0  0  0
    4.2619    0.1153    0.5304 H   0  0  0  0  0  0  0  0  0  0  0  0
    3.6897    1.6675    1.1851 H   0  0  0  0  0  0  0  0  0  0  0  0
    3.8559   -0.1826    3.3375 H   0  0  0  0  0  0  0  0  0  0  0  0
    7.2501    0.5551    4.2349 H   0  0  0  0  0  0  0  0  0  0  0  0
    5.7529   -0.1524    4.7693 H   0  0  0  0  0  0  0  0  0  0  0  0
    7.4293    1.5281    2.0050 H   0  0  0  0  0  0  0  0  0  0  0  0
    6.0569    1.5167    0.9419 H   0  0  0  0  0  0  0  0  0  0  0  0
   -1.7043    1.0414   -1.0263 N   0  0  0  0  0  0  0  0  0  0  0  0
   -2.5253    1.6373   -2.0550 C   0  0  2  0  0  0  0  0  0  0  0  0
   -3.0369    2.9735   -1.5332 C   0  0  0  0  0  0  0  0  0  0  0  0
   -3.3106    3.1717   -0.3513 O   0  0  0  0  0  0  0  0  0  0  0  0
   -3.6802    0.7254   -2.4387 C   0  0  0  0  0  0  0  0  0  0  0  0
   -1.9712    1.2013   -0.0594 H   0  0  0  0  0  0  0  0  0  0  0  0
   -1.8748    1.8073   -2.9199 H   0  0  0  0  0  0  0  0  0  0  0  0
   -4.3429    0.5436   -1.5848 H   0  0  0  0  0  0  0  0  0  0  0  0
   -4.2848    1.1658   -3.2384 H   0  0  0  0  0  0  0  0  0  0  0  0
   -3.3112   -0.2458   -2.7857 H   0  0  0  0  0  0  0  0  0  0  0  0
   -3.1930    3.9055   -2.5496 N   0  0  0  0  0  0  0  0  0  0  0  0
   -3.7054    5.2355   -2.3160 C   0  0  0  0  0  0  0  0  0  0  0  0
   -2.9034    3.6683   -3.4939 H   0  0  0  0  0  0  0  0  0  0  0  0
   -4.7949    5.2411   -2.4672 H   0  0  0  0  0  0  0  0  0  0  0  0
   -3.4770    5.5402   -1.2840 H   0  0  0  0  0  0  0  0  0  0  0  0
   -3.2342    5.9385   -3.0186 H   0  0  0  0  0  0  0  0  0  0  0  0
  1  3  1  0  0  0  0
  1  7  1  0  0  0  0
  1  2  2  0  0  0  0
 42 43  1  0  0  0  0
 43 51  1  0  0  0  0
 43 44  2  0  0  0  0
  8  9  1  0  0  0  0
  9 17  1  0  0  0  0
  9 10  2  0  0  0  0
 18 19  1  0  0  0  0
 19 41  1  0  0  0  0
 19 20  2  0  0  0  0
 25 26  1  0  0  0  0
 25 27  1  0  0  0  0
 24 25  2  0  0  0  0
 42 45  1  0  0  0  0
  8 11  1  0  0  0  0
 51 52  1  0  0  0  0
 21 22  1  0  0  0  0
 22 23  1  0  0  0  0
 18 21  1  0  0  0  0
 23 24  1  0  0  0  0
 41 42  1  0  0  0  0
  7  8  1  0  0  0  0
 17 18  1  0  0  0  0
  3  4  1  0  0  0  0
  3  5  1  0  0  0  0
  3  6  1  0  0  0  0
 45 48  1  0  0  0  0
 45 49  1  0  0  0  0
 45 50  1  0  0  0  0
 11 14  1  0  0  0  0
 11 15  1  0  0  0  0
 11 16  1  0  0  0  0
 52 54  1  0  0  0  0
 52 55  1  0  0  0  0
 52 56  1  0  0  0  0
 22 32  1  0  0  0  0
 22 33  1  0  0  0  0
 21 30  1  0  0  0  0
 21 31  1  0  0  0  0
 23 34  1  0  0  0  0
 23 35  1  0  0  0  0
 42 47  1  0  0  0  0
  8 13  1  0  0  0  0
 18 29  1  0  0  0  0
 26 37  1  0  0  0  0
 26 38  1  0  0  0  0
 27 39  1  0  0  0  0
 27 40  1  0  0  0  0
 51 53  1  0  0  0  0
  7 12  1  0  0  0  0
 41 46  1  0  0  0  0
 17 28  1  0  0  0  0
 24 36  1  0  0  0  0
M  CHG  1  24   1
M  END
$$$$

  -OEChem-05262214473D

 56 55  0     1  0  0  0  0  0999 V2000
    0.7735   -5.8042   -2.0022 C   0  0  0  0  0  0  0  0  0  0  0  0
   -0.2086   -6.3825   -1.5519 O   0  0  0  0  0  0  0  0  0  0  0  0
    1.4751   -6.3646   -3.1946 C   0  0  0  0  0  0  0  0  0  0  0  0
    2.2765   -7.0687   -2.9186 H   0  0  0  0  0  0  0  0  0  0  0  0
    0.7988   -6.9360   -3.8504 H   0  0  0  0  0  0  0  0  0  0  0  0
    1.9556   -5.6216   -3.8511 H   0  0  0  0  0  0  0  0  0  0  0  0
    1.3322   -4.6359   -1.5106 N   0  0  0  0  0  0  0  0  0  0  0  0
    0.8124   -3.9290   -0.3698 C   0  0  2  0  0  0  0  0  0  0  0  0
    1.0666   -2.4424   -0.5818 C   0  0  0  0  0  0  0  0  0  0  0  0
    2.0598   -2.0076   -1.1610 O   0  0  0  0  0  0  0  0  0  0  0  0
    1.4560   -4.4118    0.9207 C   0  0  0  0  0  0  0  0  0  0  0  0
    2.1528   -4.2578   -1.9805 H   0  0  0  0  0  0  0  0  0  0  0  0
   -0.2667   -4.1160   -0.3467 H   0  0  0  0  0  0  0  0  0  0  0  0
    2.5374   -4.2329    0.9160 H   0  0  0  0  0  0  0  0  0  0  0  0
    1.0390   -3.8932    1.7903 H   0  0  0  0  0  0  0  0  0  0  0  0
    1.2976   -5.4871    1.0566 H   0  0  0  0  0  0  0  0  0  0  0  0
    0.0755   -1.6529   -0.0105 N   0  0  0  0  0  0  0  0  0  0  0  0
    0.1113   -0.2132   -0.0391 C   0  0  2  0  0  0  0  0  0  0  0  0
   -0.6077    0.2380   -1.3060 C   0  0  0  0  0  0  0  0  0  0  0  0
   -0.3912   -0.2569   -2.4103 O   0  0  0  0  0  0  0  0  0  0  0  0
    1.5446    0.3277   -0.0155 C   0  0  0  0  0  0  0  0  0  0  0  0
    2.2548    0.0425    1.3132 C   0  0  0  0  0  0  0  0  0  0  0  0
    3.6808    0.5831    1.3311 C   0  0  0  0  0  0  0  0  0  0  0  0
    4.3619    0.2889    2.5899 N   0  3  0  0  0  0  0  0  0  0  0  0
    5.6965    0.6310    2.8153 C   0  0  0  0  0  0  0  0  0  0  0  0
    6.2802    0.3195    4.0387 N   0  0  0  0  0  0  0  0  0  0  0  0
    6.4571    1.2768    1.8460 N   0  0  0  0  0  0  0  0  0  0  0  0
   -0.7323   -2.1024    0.4149 H   0  0  0  0  0  0  0  0  0  0  0  0
   -0.4508    0.1359    0.8345 H   0  0  0  0  0  0  0  0  0  0  0  0
    1.5294    1.4097   -0.1936 H   0  0  0  0  0  0  0  0  0  0  0  0
    2.1218   -0.1134   -0.8390 H   0  0  0  0  0  0  0  0  0  0  0  0
    1.6843    0.4868    2.1376 H   0  0  0  0  0  0  0  0  0  0  0  0
    2.2919   -1.0393    1.4858 H   0  0  0  0  0  0  0  0  0  0  0  0
    4.2619    0.1153    0.5304 H   0  0  0  0  0  0  0  0  0  0  0  0
    3.6897    1.6675    1.1851 H   0  0  0  0  0  0  0  0  0  0  0  0
    3.8559   -0.1826    3.3375 H   0  0  0  0  0  0  0  0  0  0  0  0
    7.2501    0.5551    4.2349 H   0  0  0  0  0  0  0  0  0  0  0  0
    5.7529   -0.1524    4.7693 H   0  0  0  0  0  0  0  0  0  0  0  0
    7.4293    1.5281    2.0050 H   0  0  0  0  0  0  0  0  0  0  0  0
    6.0569    1.5167    0.9419 H   0  0  0  0  0  0  0  0  0  0  0  0
   -1.4812    1.2892   -1.0647 N   0  0  0  0  0  0  0  0  0  0  0  0
   -2.2476    1.9301   -2.1084 C   0  0  2  0  0  0  0  0  0  0  0  0
   -2.4178    3.3965   -1.7340 C   0  0  0  0  0  0  0  0  0  0  0  0
   -2.5363    3.7830   -0.5731 O   0  0  0  0  0  0  0  0  0  0  0  0
   -3.5981    1.2567   -2.2961 C   0  0  0  0  0  0  0  0  0  0  0  0
   -1.6204    1.6127   -0.1119 H   0  0  0  0  0  0  0  0  0  0  0  0
   -1.6564    1.8535   -3.0274 H   0  0  0  0  0  0  0  0  0  0  0  0
   -4.2048    1.3233   -1.3855 H   0  0  0  0  0  0  0  0  0  0  0  0
   -4.1660    1.7254   -3.1065 H   0  0  0  0  0  0  0  0  0  0  0  0
   -3.4743    0.1951   -2.5360 H   0  0  0  0  0  0  0  0  0  0  0  0
   -2.4652    4.2183   -2.8514 N   0  0  0  0  0  0  0  0  0  0  0  0
   -2.6634    5.6461   -2.7612 C   0  0  0  0  0  0  0  0  0  0  0  0
   -2.3181    3.8175   -3.7730 H   0  0  0  0  0  0  0  0  0  0  0  0
   -3.7365    5.8737   -2.8427 H   0  0  0  0  0  0  0  0  0  0  0  0
   -2.2842    6.0085   -1.7943 H   0  0  0  0  0  0  0  0  0  0  0  0
   -2.1200    6.1439   -3.5779 H   0  0  0  0  0  0  0  0  0  0  0  0
  1  3  1  0  0  0  0
  1  7  1  0  0  0  0
  1  2  2  0  0  0  0
 42 43  1  0  0  0  0
 43 51  1  0  0  0  0
 43 44  2  0  0  0  0
  8  9  1  0  0  0  0
  9 17  1  0  0  0  0
  9 10  2  0  0  0  0
 18 19  1  0  0  0  0
 19 41  1  0  0  0  0
 19 20  2  0  0  0  0
 25 26  1  0  0  0  0
 25 27  1  0  0  0  0
 24 25  2  0  0  0  0
 42 45  1  0  0  0  0
  8 11  1  0  0  0  0
 51 52  1  0  0  0  0
 21 22  1  0  0  0  0
 22 23  1  0  0  0  0
 18 21  1  0  0  0  0
 23 24  1  0  0  0  0
 41 42  1  0  0  0  0
  7  8  1  0  0  0  0
 17 18  1  0  0  0  0
  3  4  1  0  0  0  0
  3  5  1  0  0  0  0
  3  6  1  0  0  0  0
 45 48  1  0  0  0  0
 45 49  1  0  0  0  0
 45 50  1  0  0  0  0
 11 14  1  0  0  0  0
 11 15  1  0  0  0  0
 11 16  1  0  0  0  0
 52 54  1  0  0  0  0
 52 55  1  0  0  0  0
 52 56  1  0  0  0  0
 22 32  1  0  0  0  0
 22 33  1  0  0  0  0
 21 30  1  0  0  0  0
 21 31  1  0  0  0  0
 23 34  1  0  0  0  0
 23 35  1  0  0  0  0
 42 47  1  0  0  0  0
  8 13  1  0  0  0  0
 18 29  1  0  0  0  0
 26 37  1  0  0  0  0
 26 38  1  0  0  0  0
 27 39  1  0  0  0  0
 27 40  1  0  0  0  0
 51 53  1  0  0  0  0
  7 12  1  0  0  0  0
 41 46  1  0  0  0  0
 17 28  1  0  0  0  0
 24 36  1  0  0  0  0
M  CHG  1  24   1
M  END
$$$$

  -OEChem-05262214473D

 56 55  0     1  0  0  0  0  0999 V2000
    0.7735   -5.8042   -2.0022 C   0  0  0  0  0  0  0  0  0  0  0  0
   -0.2086   -6.3825   -1.5519 O   0  0  0  0  0  0  0  0  0  0  0  0
    1.4751   -6.3646   -3.1946 C   0  0  0  0  0  0  0  0  0  0  0  0
    2.2765   -7.0687   -2.9186 H   0  0  0  0  0  0  0  0  0  0  0  0
    0.7988   -6.9360   -3.8504 H   0  0  0  0  0  0  0  0  0  0  0  0
    1.9556   -5.6216   -3.8511 H   0  0  0  0  0  0  0  0  0  0  0  0
    1.3322   -4.6359   -1.5106 N   0  0  0  0  0  0  0  0  0  0  0  0
    0.8124   -3.9290   -0.3698 C   0  0  2  0  0  0  0  0  0  0  0  0
    1.0666   -2.4424   -0.5818 C   0  0  0  0  0  0  0  0  0  0  0  0
    2.0598   -2.0076   -1.1610 O   0  0  0  0  0  0  0  0  0  0  0  0
    1.4560   -4.4118    0.9207 C   0  0  0  0  0  0  0  0  0  0  0  0
    2.1528   -4.2578   -1.9805 H   0  0  0  0  0  0  0  0  0  0  0  0
   -0.2667   -4.1160   -0.3467 H   0  0  0  0  0  0  0  0  0  0  0  0
    2.5374   -4.2329    0.9160 H   0  0  0  0  0  0  0  0  0  0  0  0
    1.0390   -3.8932    1.7903 H   0  0  0  0  0  0  0  0  0  0  0  0
    1.2976   -5.4871    1.0566 H   0  0  0  0  0  0  0  0  0  0  0  0
    0.0755   -1.6529   -0.0105 N   0  0  0  0  0  0  0  0  0  0  0  0
    0.1113   -0.2132   -0.0391 C   0  0  2  0  0  0  0  0  0  0  0  0
   -0.6077    0.2380   -1.3060 C   0  0  0  0  0  0  0  0  0  0  0  0
   -0.6003   -0.4146   -2.3478 O   0  0  0  0  0  0  0  0  0  0  0  0
    1.5446    0.3277   -0.0155 C   0  0  0  0  0  0  0  0  0  0  0  0
    2.2548    0.0425    1.3132 C   0  0  0  0  0  0  0  0  0  0  0  0
    3.6808    0.5831    1.3311 C   0  0  0  0  0  0  0  0  0  0  0  0
    4.3619    0.2889    2.5899 N   0  3  0  0  0  0  0  0  0  0  0  0
    5.6965    0.6310    2.8153 C   0  0  0  0  0  0  0  0  0  0  0  0
    6.2802    0.3195    4.0387 N   0  0  0  0  0  0  0  0  0  0  0  0
    6.4571    1.2768    1.8460 N   0  0  0  0  0  0  0  0  0  0  0  0
   -0.7323   -2.1024    0.4149 H   0  0  0  0  0  0  0  0  0  0  0  0
   -0.4508    0.1359    0.8345 H   0  0  0  0  0  0  0  0  0  0  0  0
    1.5294    1.4097   -0.1936 H   0  0  0  0  0  0  0  0  0  0  0  0
    2.1218   -0.1134   -0.8390 H   0  0  0  0  0  0  0  0  0  0  0  0
    1.6843    0.4868    2.1376 H   0  0  0  0  0  0  0  0  0  0  0  0
    2.2919   -1.0393    1.4858 H   0  0  0  0  0  0  0  0  0  0  0  0
    4.2619    0.1153    0.5304 H   0  0  0  0  0  0  0  0  0  0  0  0
    3.6897    1.6675    1.1851 H   0  0  0  0  0  0  0  0  0  0  0  0
    3.8559   -0.1826    3.3375 H   0  0  0  0  0  0  0  0  0  0  0  0
    7.2501    0.5551    4.2349 H   0  0  0  0  0  0  0  0  0  0  0  0
    5.7529   -0.1524    4.7693 H   0  0  0  0  0  0  0  0  0  0  0  0
    7.4293    1.5281    2.0050 H   0  0  0  0  0  0  0  0  0  0  0  0
    6.0569    1.5167    0.9419 H   0  0  0  0  0  0  0  0  0  0  0  0
   -1.2153    1.4759   -1.1491 N   0  0  0  0  0  0  0  0  0  0  0  0
   -1.9205    2.1467   -2.2169 C   0  0  2  0  0  0  0  0  0  0  0  0
   -1.7443    3.6474   -2.0269 C   0  0  0  0  0  0  0  0  0  0  0  0
   -1.6739    4.1799   -0.9212 O   0  0  0  0  0  0  0  0  0  0  0  0
   -3.3937    1.7697   -2.2294 C   0  0  0  0  0  0  0  0  0  0  0  0
   -1.1971    1.9282   -0.2398 H   0  0  0  0  0  0  0  0  0  0  0  0
   -1.4437    1.8380   -3.1536 H   0  0  0  0  0  0  0  0  0  0  0  0
   -3.8884    2.0710   -1.2988 H   0  0  0  0  0  0  0  0  0  0  0  0
   -3.9209    2.2565   -3.0565 H   0  0  0  0  0  0  0  0  0  0  0  0
   -3.5180    0.6866   -2.3362 H   0  0  0  0  0  0  0  0  0  0  0  0
   -1.7180    4.3271   -3.2367 N   0  0  0  0  0  0  0  0  0  0  0  0
   -1.6026    5.7643   -3.3212 C   0  0  0  0  0  0  0  0  0  0  0  0
   -1.7420    3.8017   -4.1056 H   0  0  0  0  0  0  0  0  0  0  0  0
   -2.6068    6.2114   -3.3636 H   0  0  0  0  0  0  0  0  0  0  0  0
   -1.0704    6.1420   -2.4357 H   0  0  0  0  0  0  0  0  0  0  0  0
   -1.0425    6.0343   -4.2285 H   0  0  0  0  0  0  0  0  0  0  0  0
  1  3  1  0  0  0  0
  1  7  1  0  0  0  0
  1  2  2  0  0  0  0
 42 43  1  0  0  0  0
 43 51  1  0  0  0  0
 43 44  2  0  0  0  0
  8  9  1  0  0  0  0
  9 17  1  0  0  0  0
  9 10  2  0  0  0  0
 18 19  1  0  0  0  0
 19 41  1  0  0  0  0
 19 20  2  0  0  0  0
 25 26  1  0  0  0  0
 25 27  1  0  0  0  0
 24 25  2  0  0  0  0
 42 45  1  0  0  0  0
  8 11  1  0  0  0  0
 51 52  1  0  0  0  0
 21 22  1  0  0  0  0
 22 23  1  0  0  0  0
 18 21  1  0  0  0  0
 23 24  1  0  0  0  0
 41 42  1  0  0  0  0
  7  8  1  0  0  0  0
 17 18  1  0  0  0  0
  3  4  1  0  0  0  0
  3  5  1  0  0  0  0
  3  6  1  0  0  0  0
 45 48  1  0  0  0  0
 45 49  1  0  0  0  0
 45 50  1  0  0  0  0
 11 14  1  0  0  0  0
 11 15  1  0  0  0  0
 11 16  1  0  0  0  0
 52 54  1  0  0  0  0
 52 55  1  0  0  0  0
 52 56  1  0  0  0  0
 22 32  1  0  0  0  0
 22 33  1  0  0  0  0
 21 30  1  0  0  0  0
 21 31  1  0  0  0  0
 23 34  1  0  0  0  0
 23 35  1  0  0  0  0
 42 47  1  0  0  0  0
  8 13  1  0  0  0  0
 18 29  1  0  0  0  0
 26 37  1  0  0  0  0
 26 38  1  0  0  0  0
 27 39  1  0  0  0  0
 27 40  1  0  0  0  0
 51 53  1  0  0  0  0
  7 12  1  0  0  0  0
 41 46  1  0  0  0  0
 17 28  1  0  0  0  0
 24 36  1  0  0  0  0
M  CHG  1  24   1
M  END
$$$$

  -OEChem-05262214473D

 56 55  0     1  0  0  0  0  0999 V2000
    0.7735   -5.8042   -2.0022 C   0  0  0  0  0  0  0  0  0  0  0  0
   -0.2086   -6.3825   -1.5519 O   0  0  0  0  0  0  0  0  0  0  0  0
    1.4751   -6.3646   -3.1946 C   0  0  0  0  0  0  0  0  0  0  0  0
    2.2765   -7.0687   -2.9186 H   0  0  0  0  0  0  0  0  0  0  0  0
    0.7988   -6.9360   -3.8504 H   0  0  0  0  0  0  0  0  0  0  0  0
    1.9556   -5.6216   -3.8511 H   0  0  0  0  0  0  0  0  0  0  0  0
    1.3322   -4.6359   -1.5106 N   0  0  0  0  0  0  0  0  0  0  0  0
    0.8124   -3.9290   -0.3698 C   0  0  2  0  0  0  0  0  0  0  0  0
    1.0666   -2.4424   -0.5818 C   0  0  0  0  0  0  0  0  0  0  0  0
    2.0598   -2.0076   -1.1610 O   0  0  0  0  0  0  0  0  0  0  0  0
    1.4560   -4.4118    0.9207 C   0  0  0  0  0  0  0  0  0  0  0  0
    2.1528   -4.2578   -1.9805 H   0  0  0  0  0  0  0  0  0  0  0  0
   -0.2667   -4.1160   -0.3467 H   0  0  0  0  0  0  0  0  0  0  0  0
    2.5374   -4.2329    0.9160 H   0  0  0  0  0  0  0  0  0  0  0  0
    1.0390   -3.8932    1.7903 H   0  0  0  0  0  0  0  0  0  0  0  0
    1.2976   -5.4871    1.0566 H   0  0  0  0  0  0  0  0  0  0  0  0
    0.0755   -1.6529   -0.0105 N   0  0  0  0  0  0  0  0  0  0  0  0
    0.1113   -0.2132   -0.0391 C   0  0  2  0  0  0  0  0  0  0  0  0
   -0.6077    0.2380   -1.3060 C   0  0  0  0  0  0  0  0  0  0  0  0
   -0.8314   -0.5144   -2.2521 O   0  0  0  0  0  0  0  0  0  0  0  0
    1.5446    0.3277   -0.0155 C   0  0  0  0  0  0  0  0  0  0  0  0
    2.2548    0.0425    1.3132 C   0  0  0  0  0  0  0  0  0  0  0  0
    3.6808    0.5831    1.3311 C   0  0  0  0  0  0  0  0  0  0  0  0
    4.3619    0.2889    2.5899 N   0  3  0  0  0  0  0  0  0  0  0  0
    5.6965    0.6310    2.8153 C   0  0  0  0  0  0  0  0  0  0  0  0
    6.2802    0.3195    4.0387 N   0  0  0  0  0  0  0  0  0  0  0  0
    6.4571    1.2768    1.8460 N   0  0  0  0  0  0  0  0  0  0  0  0
   -0.7323   -2.1024    0.4149 H   0  0  0  0  0  0  0  0  0  0  0  0
   -0.4508    0.1359    0.8345 H   0  0  0  0  0  0  0  0  0  0  0  0
    1.5294    1.4097   -0.1936 H   0  0  0  0  0  0  0  0  0  0  0  0
    2.1218   -0.1134   -0.8390 H   0  0  0  0  0  0  0  0  0  0  0  0
    1.6843    0.4868    2.1376 H   0  0  0  0  0  0  0  0  0  0  0  0
    2.2919   -1.0393    1.4858 H   0  0  0  0  0  0  0  0  0  0  0  0
    4.2619    0.1153    0.5304 H   0  0  0  0  0  0  0  0  0  0  0  0
    3.6897    1.6675    1.1851 H   0  0  0  0  0  0  0  0  0  0  0  0
    3.8559   -0.1826    3.3375 H   0  0  0  0  0  0  0  0  0  0  0  0
    7.2501    0.5551    4.2349 H   0  0  0  0  0  0  0  0  0  0  0  0
    5.7529   -0.1524    4.7693 H   0  0  0  0  0  0  0  0  0  0  0  0
    7.4293    1.5281    2.0050 H   0  0  0  0  0  0  0  0  0  0  0  0
    6.0569    1.5167    0.9419 H   0  0  0  0  0  0  0  0  0  0  0  0
   -0.9248    1.5888   -1.2738 N   0  0  0  0  0  0  0  0  0  0  0  0
   -1.5663    2.2723   -2.3732 C   0  0  2  0  0  0  0  0  0  0  0  0
   -1.0621    3.7093   -2.3921 C   0  0  0  0  0  0  0  0  0  0  0  0
   -0.7823    4.3354   -1.3720 O   0  0  0  0  0  0  0  0  0  0  0  0
   -3.0809    2.2294   -2.2432 C   0  0  0  0  0  0  0  0  0  0  0  0
   -0.7302    2.1264   -0.4342 H   0  0  0  0  0  0  0  0  0  0  0  0
   -1.2512    1.7620   -3.2899 H   0  0  0  0  0  0  0  0  0  0  0  0
   -3.4154    2.7358   -1.3305 H   0  0  0  0  0  0  0  0  0  0  0  0
   -3.5661    2.7229   -3.0918 H   0  0  0  0  0  0  0  0  0  0  0  0
   -3.4392    1.1952   -2.1998 H   0  0  0  0  0  0  0  0  0  0  0  0
   -1.0025    4.2245   -3.6794 N   0  0  0  0  0  0  0  0  0  0  0  0
   -0.5955    5.5821   -3.9577 C   0  0  0  0  0  0  0  0  0  0  0  0
   -1.2144    3.6219   -4.4691 H   0  0  0  0  0  0  0  0  0  0  0  0
   -1.4829    6.2312   -3.9945 H   0  0  0  0  0  0  0  0  0  0  0  0
    0.0817    5.9317   -3.1645 H   0  0  0  0  0  0  0  0  0  0  0  0
   -0.0751    5.6175   -4.9261 H   0  0  0  0  0  0  0  0  0  0  0  0
  1  3  1  0  0  0  0
  1  7  1  0  0  0  0
  1  2  2  0  0  0  0
 42 43  1  0  0  0  0
 43 51  1  0  0  0  0
 43 44  2  0  0  0  0
  8  9  1  0  0  0  0
  9 17  1  0  0  0  0
  9 10  2  0  0  0  0
 18 19  1  0  0  0  0
 19 41  1  0  0  0  0
 19 20  2  0  0  0  0
 25 26  1  0  0  0  0
 25 27  1  0  0  0  0
 24 25  2  0  0  0  0
 42 45  1  0  0  0  0
  8 11  1  0  0  0  0
 51 52  1  0  0  0  0
 21 22  1  0  0  0  0
 22 23  1  0  0  0  0
 18 21  1  0  0  0  0
 23 24  1  0  0  0  0
 41 42  1  0  0  0  0
  7  8  1  0  0  0  0
 17 18  1  0  0  0  0
  3  4  1  0  0  0  0
  3  5  1  0  0  0  0
  3  6  1  0  0  0  0
 45 48  1  0  0  0  0
 45 49  1  0  0  0  0
 45 50  1  0  0  0  0
 11 14  1  0  0  0  0
 11 15  1  0  0  0  0
 11 16  1  0  0  0  0
 52 54  1  0  0  0  0
 52 55  1  0  0  0  0
 52 56  1  0  0  0  0
 22 32  1  0  0  0  0
 22 33  1  0  0  0  0
 21 30  1  0  0  0  0
 21 31  1  0  0  0  0
 23 34  1  0  0  0  0
 23 35  1  0  0  0  0
 42 47  1  0  0  0  0
  8 13  1  0  0  0  0
 18 29  1  0  0  0  0
 26 37  1  0  0  0  0
 26 38  1  0  0  0  0
 27 39  1  0  0  0  0
 27 40  1  0  0  0  0
 51 53  1  0  0  0  0
  7 12  1  0  0  0  0
 41 46  1  0  0  0  0
 17 28  1  0  0  0  0
 24 36  1  0  0  0  0
M  CHG  1  24   1
M  END
$$$$

  -OEChem-05262214473D

 56 55  0     1  0  0  0  0  0999 V2000
    0.7735   -5.8042   -2.0022 C   0  0  0  0  0  0  0  0  0  0  0  0
   -0.2086   -6.3825   -1.5519 O   0  0  0  0  0  0  0  0  0  0  0  0
    1.4751   -6.3646   -3.1946 C   0  0  0  0  0  0  0  0  0  0  0  0
    2.2765   -7.0687   -2.9186 H   0  0  0  0  0  0  0  0  0  0  0  0
    0.7988   -6.9360   -3.8504 H   0  0  0  0  0  0  0  0  0  0  0  0
    1.9556   -5.6216   -3.8511 H   0  0  0  0  0  0  0  0  0  0  0  0
    1.3322   -4.6359   -1.5106 N   0  0  0  0  0  0  0  0  0  0  0  0
    0.8124   -3.9290   -0.3698 C   0  0  2  0  0  0  0  0  0  0  0  0
    1.0666   -2.4424   -0.5818 C   0  0  0  0  0  0  0  0  0  0  0  0
    2.0598   -2.0076   -1.1610 O   0  0  0  0  0  0  0  0  0  0  0  0
    1.4560   -4.4118    0.9207 C   0  0  0  0  0  0  0  0  0  0  0  0
    2.1528   -4.2578   -1.9805 H   0  0  0  0  0  0  0  0  0  0  0  0
   -0.2667   -4.1160   -0.3467 H   0  0  0  0  0  0  0  0  0  0  0  0
    2.5374   -4.2329    0.9160 H   0  0  0  0  0  0  0  0  0  0  0  0
    1.0390   -3.8932    1.7903 H   0  0  0  0  0  0  0  0  0  0  0  0
    1.2976   -5.4871    1.0566 H   0  0  0  0  0  0  0  0  0  0  0  0
    0.0755   -1.6529   -0.0105 N   0  0  0  0  0  0  0  0  0  0  0  0
    0.1113   -0.2132   -0.0391 C   0  0  2  0  0  0  0  0  0  0  0  0
   -0.9082    0.2501   -1.0742 C   0  0  0  0  0  0  0  0  0  0  0  0
   -1.5714   -0.5294   -1.7553 O   0  0  0  0  0  0  0  0  0  0  0  0
    1.5051    0.3213   -0.3840 C   0  0  0  0  0  0  0  0  0  0  0  0
    2.5331    0.0236    0.7141 C   0  0  0  0  0  0  0  0  0  0  0  0
    3.9185    0.5579    0.3656 C   0  0  0  0  0  0  0  0  0  0  0  0
    4.9002    0.2518    1.4036 N   0  3  0  0  0  0  0  0  0  0  0  0
    6.2497    0.5867    1.2780 C   0  0  0  0  0  0  0  0  0  0  0  0
    7.1281    0.2639    2.3070 N   0  0  0  0  0  0  0  0  0  0  0  0
    6.7375    1.2360    0.1487 N   0  0  0  0  0  0  0  0  0  0  0  0
   -0.7323   -2.1024    0.4149 H   0  0  0  0  0  0  0  0  0  0  0  0
   -0.2035    0.1321    0.9522 H   0  0  0  0  0  0  0  0  0  0  0  0
    1.4509    1.4046   -0.5458 H   0  0  0  0  0  0  0  0  0  0  0  0
    1.8470   -0.1163   -1.3312 H   0  0  0  0  0  0  0  0  0  0  0  0
    2.1980    0.4645    1.6606 H   0  0  0  0  0  0  0  0  0  0  0  0
    2.6071   -1.0595    0.8649 H   0  0  0  0  0  0  0  0  0  0  0  0
    4.2698    0.0934   -0.5609 H   0  0  0  0  0  0  0  0  0  0  0  0
    3.8958    1.6433    0.2285 H   0  0  0  0  0  0  0  0  0  0  0  0
    4.6020   -0.2228    2.2539 H   0  0  0  0  0  0  0  0  0  0  0  0
    8.1172    0.4940    2.2469 H   0  0  0  0  0  0  0  0  0  0  0  0
    6.8049   -0.2110    3.1464 H   0  0  0  0  0  0  0  0  0  0  0  0
    7.7193    1.4821    0.0523 H   0  0  0  0  0  0  0  0  0  0  0  0
    6.1186    1.4841   -0.6196 H   0  0  0  0  0  0  0  0  0  0  0  0
   -0.9531    1.6332   -1.1806 N   0  0  0  0  0  0  0  0  0  0  0  0
   -1.8029    2.3220   -2.1244 C   0  0  2  0  0  0  0  0  0  0  0  0
   -1.0925    3.5996   -2.5516 C   0  0  0  0  0  0  0  0  0  0  0  0
   -0.3742    4.2521   -1.7971 O   0  0  0  0  0  0  0  0  0  0  0  0
   -3.1633    2.6327   -1.5198 C   0  0  0  0  0  0  0  0  0  0  0  0
   -0.3910    2.1998   -0.5523 H   0  0  0  0  0  0  0  0  0  0  0  0
   -1.9165    1.6598   -2.9896 H   0  0  0  0  0  0  0  0  0  0  0  0
   -3.0697    3.2951   -0.6515 H   0  0  0  0  0  0  0  0  0  0  0  0
   -3.8159    3.1292   -2.2454 H   0  0  0  0  0  0  0  0  0  0  0  0
   -3.6601    1.7154   -1.1859 H   0  0  0  0  0  0  0  0  0  0  0  0
   -1.3893    3.9488   -3.8616 N   0  0  0  0  0  0  0  0  0  0  0  0
   -0.8717    5.1436   -4.4865 C   0  0  0  0  0  0  0  0  0  0  0  0
   -1.9617    3.3284   -4.4267 H   0  0  0  0  0  0  0  0  0  0  0  0
   -1.5893    5.9669   -4.3555 H   0  0  0  0  0  0  0  0  0  0  0  0
    0.0869    5.4152   -4.0202 H   0  0  0  0  0  0  0  0  0  0  0  0
   -0.7179    4.9587   -5.5598 H   0  0  0  0  0  0  0  0  0  0  0  0
  1  3  1  0  0  0  0
  1  7  1  0  0  0  0
  1  2  2  0  0  0  0
 42 43  1  0  0  0  0
 43 51  1  0  0  0  0
 43 44  2  0  0  0  0
  8  9  1  0  0  0  0
  9 17  1  0  0  0  0
  9 10  2  0  0  0  0
 18 19  1  0  0  0  0
 19 41  1  0  0  0  0
 19 20  2  0  0  0  0
 25 26  1  0  0  0  0
 25 27  1  0  0  0  0
 24 25  2  0  0  0  0
 42 45  1  0  0  0  0
  8 11  1  0  0  0  0
 51 52  1  0  0  0  0
 21 22  1  0  0  0  0
 22 23  1  0  0  0  0
 18 21  1  0  0  0  0
 23 24  1  0  0  0  0
 41 42  1  0  0  0  0
  7  8  1  0  0  0  0
 17 18  1  0  0  0  0
  3  4  1  0  0  0  0
  3  5  1  0  0  0  0
  3  6  1  0  0  0  0
 45 48  1  0  0  0  0
 45 49  1  0  0  0  0
 45 50  1  0  0  0  0
 11 14  1  0  0  0  0
 11 15  1  0  0  0  0
 11 16  1  0  0  0  0
 52 54  1  0  0  0  0
 52 55  1  0  0  0  0
 52 56  1  0  0  0  0
 22 32  1  0  0  0  0
 22 33  1  0  0  0  0
 21 30  1  0  0  0  0
 21 31  1  0  0  0  0
 23 34  1  0  0  0  0
 23 35  1  0  0  0  0
 42 47  1  0  0  0  0
  8 13  1  0  0  0  0
 18 29  1  0  0  0  0
 26 37  1  0  0  0  0
 26 38  1  0  0  0  0
 27 39  1  0  0  0  0
 27 40  1  0  0  0  0
 51 53  1  0  0  0  0
  7 12  1  0  0  0  0
 41 46  1  0  0  0  0
 17 28  1  0  0  0  0
 24 36  1  0  0  0  0
M  CHG  1  24   1
M  END
$$$$

  -OEChem-05262214473D

 56 55  0     1  0  0  0  0  0999 V2000
    0.7735   -5.8042   -2.0022 C   0  0  0  0  0  0  0  0  0  0  0  0
   -0.2086   -6.3825   -1.5519 O   0  0  0  0  0  0  0  0  0  0  0  0
    1.4751   -6.3646   -3.1946 C   0  0  0  0  0  0  0  0  0  0  0  0
    2.2765   -7.0687   -2.9186 H   0  0  0  0  0  0  0  0  0  0  0  0
    0.7988   -6.9360   -3.8504 H   0  0  0  0  0  0  0  0  0  0  0  0
    1.9556   -5.6216   -3.8511 H   0  0  0  0  0  0  0  0  0  0  0  0
    1.3322   -4.6359   -1.5106 N   0  0  0  0  0  0  0  0  0  0  0  0
    0.8124   -3.9290   -0.3698 C   0  0  2  0  0  0  0  0  0  0  0  0
    1.0666   -2.4424   -0.5818 C   0  0  0  0  0  0  0  0  0  0  0  0
    2.0598   -2.0076   -1.1610 O   0  0  0  0  0  0  0  0  0  0  0  0
    1.4560   -4.4118    0.9207 C   0  0  0  0  0  0  0  0  0  0  0  0
    2.1528   -4.2578   -1.9805 H   0  0  0  0  0  0  0  0  0  0  0  0
   -0.2667   -4.1160   -0.3467 H   0  0  0  0  0  0  0  0  0  0  0  0
    2.5374   -4.2329    0.9160 H   0  0  0  0  0  0  0  0  0  0  0  0
    1.0390   -3.8932    1.7903 H   0  0  0  0  0  0  0  0  0  0  0  0
    1.2976   -5.4871    1.0566 H   0  0  0  0  0  0  0  0  0  0  0  0
    0.0755   -1.6529   -0.0105 N   0  0  0  0  0  0  0  0  0  0  0  0
    0.1113   -0.2132   -0.0391 C   0  0  2  0  0  0  0  0  0  0  0  0
   -0.9082    0.2501   -1.0742 C   0  0  0  0  0  0  0  0  0  0  0  0
   -1.7545   -0.4973   -1.5606 O   0  0  0  0  0  0  0  0  0  0  0  0
    1.5051    0.3213   -0.3840 C   0  0  0  0  0  0  0  0  0  0  0  0
    2.5331    0.0236    0.7141 C   0  0  0  0  0  0  0  0  0  0  0  0
    3.9185    0.5579    0.3656 C   0  0  0  0  0  0  0  0  0  0  0  0
    4.9002    0.2518    1.4036 N   0  3  0  0  0  0  0  0  0  0  0  0
    6.2497    0.5867    1.2780 C   0  0  0  0  0  0  0  0  0  0  0  0
    7.1281    0.2639    2.3070 N   0  0  0  0  0  0  0  0  0  0  0  0
    6.7375    1.2360    0.1487 N   0  0  0  0  0  0  0  0  0  0  0  0
   -0.7323   -2.1024    0.4149 H   0  0  0  0  0  0  0  0  0  0  0  0
   -0.2035    0.1321    0.9522 H   0  0  0  0  0  0  0  0  0  0  0  0
    1.4509    1.4046   -0.5458 H   0  0  0  0  0  0  0  0  0  0  0  0
    1.8470   -0.1163   -1.3312 H   0  0  0  0  0  0  0  0  0  0  0  0
    2.1980    0.4645    1.6606 H   0  0  0  0  0  0  0  0  0  0  0  0
    2.6071   -1.0595    0.8649 H   0  0  0  0  0  0  0  0  0  0  0  0
    4.2698    0.0934   -0.5609 H   0  0  0  0  0  0  0  0  0  0  0  0
    3.8958    1.6433    0.2285 H   0  0  0  0  0  0  0  0  0  0  0  0
    4.6020   -0.2228    2.2539 H   0  0  0  0  0  0  0  0  0  0  0  0
    8.1172    0.4940    2.2469 H   0  0  0  0  0  0  0  0  0  0  0  0
    6.8049   -0.2110    3.1464 H   0  0  0  0  0  0  0  0  0  0  0  0
    7.7193    1.4821    0.0523 H   0  0  0  0  0  0  0  0  0  0  0  0
    6.1186    1.4841   -0.6196 H   0  0  0  0  0  0  0  0  0  0  0  0
   -0.7288    1.5809   -1.4249 N   0  0  0  0  0  0  0  0  0  0  0  0
   -1.5352    2.2469   -2.4217 C   0  0  2  0  0  0  0  0  0  0  0  0
   -0.6628    3.2844   -3.1160 C   0  0  0  0  0  0  0  0  0  0  0  0
    0.2231    3.9108   -2.5382 O   0  0  0  0  0  0  0  0  0  0  0  0
   -2.7606    2.8968   -1.7982 C   0  0  0  0  0  0  0  0  0  0  0  0
   -0.0227    2.1317   -0.9456 H   0  0  0  0  0  0  0  0  0  0  0  0
   -1.8398    1.4823   -3.1446 H   0  0  0  0  0  0  0  0  0  0  0  0
   -2.4753    3.6658   -1.0710 H   0  0  0  0  0  0  0  0  0  0  0  0
   -3.3855    3.3766   -2.5586 H   0  0  0  0  0  0  0  0  0  0  0  0
   -3.3715    2.1540   -1.2739 H   0  0  0  0  0  0  0  0  0  0  0  0
   -1.0184    3.4595   -4.4460 N   0  0  0  0  0  0  0  0  0  0  0  0
   -0.3676    4.4191   -5.3072 C   0  0  0  0  0  0  0  0  0  0  0  0
   -1.7378    2.8690   -4.8528 H   0  0  0  0  0  0  0  0  0  0  0  0
   -0.9205    5.3697   -5.2816 H   0  0  0  0  0  0  0  0  0  0  0  0
    0.6626    4.5847   -4.9590 H   0  0  0  0  0  0  0  0  0  0  0  0
   -0.3489    4.0336   -6.3373 H   0  0  0  0  0  0  0  0  0  0  0  0
  1  3  1  0  0  0  0
  1  7  1  0  0  0  0
  1  2  2  0  0  0  0
 42 43  1  0  0  0  0
 43 51  1  0  0  0  0
 43 44  2  0  0  0  0
  8  9  1  0  0  0  0
  9 17  1  0  0  0  0
  9 10  2  0  0  0  0
 18 19  1  0  0  0  0
 19 41  1  0  0  0  0
 19 20  2  0  0  0  0
 25 26  1  0  0  0  0
 25 27  1  0  0  0  0
 24 25  2  0  0  0  0
 42 45  1  0  0  0  0
  8 11  1  0  0  0  0
 51 52  1  0  0  0  0
 21 22  1  0  0  0  0
 22 23  1  0  0  0  0
 18 21  1  0  0  0  0
 23 24  1  0  0  0  0
 41 42  1  0  0  0  0
  7  8  1  0  0  0  0
 17 18  1  0  0  0  0
  3  4  1  0  0  0  0
  3  5  1  0  0  0  0
  3  6  1  0  0  0  0
 45 48  1  0  0  0  0
 45 49  1  0  0  0  0
 45 50  1  0  0  0  0
 11 14  1  0  0  0  0
 11 15  1  0  0  0  0
 11 16  1  0  0  0  0
 52 54  1  0  0  0  0
 52 55  1  0  0  0  0
 52 56  1  0  0  0  0
 22 32  1  0  0  0  0
 22 33  1  0  0  0  0
 21 30  1  0  0  0  0
 21 31  1  0  0  0  0
 23 34  1  0  0  0  0
 23 35  1  0  0  0  0
 42 47  1  0  0  0  0
  8 13  1  0  0  0  0
 18 29  1  0  0  0  0
 26 37  1  0  0  0  0
 26 38  1  0  0  0  0
 27 39  1  0  0  0  0
 27 40  1  0  0  0  0
 51 53  1  0  0  0  0
  7 12  1  0  0  0  0
 41 46  1  0  0  0  0
 17 28  1  0  0  0  0
 24 36  1  0  0  0  0
M  CHG  1  24   1
M  END
$$$$

  -OEChem-05262214473D

 56 55  0     1  0  0  0  0  0999 V2000
    0.7735   -5.8042   -2.0022 C   0  0  0  0  0  0  0  0  0  0  0  0
   -0.2086   -6.3825   -1.5519 O   0  0  0  0  0  0  0  0  0  0  0  0
    1.4751   -6.3646   -3.1946 C   0  0  0  0  0  0  0  0  0  0  0  0
    2.2765   -7.0687   -2.9186 H   0  0  0  0  0  0  0  0  0  0  0  0
    0.7988   -6.9360   -3.8504 H   0  0  0  0  0  0  0  0  0  0  0  0
    1.9556   -5.6216   -3.8511 H   0  0  0  0  0  0  0  0  0  0  0  0
    1.3322   -4.6359   -1.5106 N   0  0  0  0  0  0  0  0  0  0  0  0
    0.8124   -3.9290   -0.3698 C   0  0  2  0  0  0  0  0  0  0  0  0
    1.0666   -2.4424   -0.5818 C   0  0  0  0  0  0  0  0  0  0  0  0
    2.0598   -2.0076   -1.1610 O   0  0  0  0  0  0  0  0  0  0  0  0
    1.4560   -4.4118    0.9207 C   0  0  0  0  0  0  0  0  0  0  0  0
    2.1528   -4.2578   -1.9805 H   0  0  0  0  0  0  0  0  0  0  0  0
   -0.2667   -4.1160   -0.3467 H   0  0  0  0  0  0  0  0  0  0  0  0
    2.5374   -4.2329    0.9160 H   0  0  0  0  0  0  0  0  0  0  0  0
    1.0390   -3.8932    1.7903 H   0  0  0  0  0  0  0  0  0  0  0  0
    1.2976   -5.4871    1.0566 H   0  0  0  0  0  0  0  0  0  0  0  0
    0.0755   -1.6529   -0.0105 N   0  0  0  0  0  0  0  0  0  0  0  0
    0.1113   -0.2132   -0.0391 C   0  0  2  0  0  0  0  0  0  0  0  0
   -0.9082    0.2501   -1.0742 C   0  0  0  0  0  0  0  0  0  0  0  0
   -1.9104   -0.4004   -1.3636 O   0  0  0  0  0  0  0  0  0  0  0  0
    1.5051    0.3213   -0.3840 C   0  0  0  0  0  0  0  0  0  0  0  0
    2.5331    0.0236    0.7141 C   0  0  0  0  0  0  0  0  0  0  0  0
    3.9185    0.5579    0.3656 C   0  0  0  0  0  0  0  0  0  0  0  0
    4.9002    0.2518    1.4036 N   0  3  0  0  0  0  0  0  0  0  0  0
    6.2497    0.5867    1.2780 C   0  0  0  0  0  0  0  0  0  0  0  0
    7.1281    0.2639    2.3070 N   0  0  0  0  0  0  0  0  0  0  0  0
    6.7375    1.2360    0.1487 N   0  0  0  0  0  0  0  0  0  0  0  0
   -0.7323   -2.1024    0.4149 H   0  0  0  0  0  0  0  0  0  0  0  0
   -0.2035    0.1321    0.9522 H   0  0  0  0  0  0  0  0  0  0  0  0
    1.4509    1.4046   -0.5458 H   0  0  0  0  0  0  0  0  0  0  0  0
    1.8470   -0.1163   -1.3312 H   0  0  0  0  0  0  0  0  0  0  0  0
    2.1980    0.4645    1.6606 H   0  0  0  0  0  0  0  0  0  0  0  0
    2.6071   -1.0595    0.8649 H   0  0  0  0  0  0  0  0  0  0  0  0
    4.2698    0.0934   -0.5609 H   0  0  0  0  0  0  0  0  0  0  0  0
    3.8958    1.6433    0.2285 H   0  0  0  0  0  0  0  0  0  0  0  0
    4.6020   -0.2228    2.2539 H   0  0  0  0  0  0  0  0  0  0  0  0
    8.1172    0.4940    2.2469 H   0  0  0  0  0  0  0  0  0  0  0  0
    6.8049   -0.2110    3.1464 H   0  0  0  0  0  0  0  0  0  0  0  0
    7.7193    1.4821    0.0523 H   0  0  0  0  0  0  0  0  0  0  0  0
    6.1186    1.4841   -0.6196 H   0  0  0  0  0  0  0  0  0  0  0  0
   -0.5406    1.4488   -1.6694 N   0  0  0  0  0  0  0  0  0  0  0  0
   -1.3132    2.0759   -2.7169 C   0  0  2  0  0  0  0  0  0  0  0  0
   -0.3475    2.8067   -3.6404 C   0  0  0  0  0  0  0  0  0  0  0  0
    0.6818    3.3480   -3.2419 O   0  0  0  0  0  0  0  0  0  0  0  0
   -2.3472    3.0330   -2.1445 C   0  0  0  0  0  0  0  0  0  0  0  0
    0.2903    1.9331   -1.3428 H   0  0  0  0  0  0  0  0  0  0  0  0
   -1.8091    1.2706   -3.2696 H   0  0  0  0  0  0  0  0  0  0  0  0
   -1.8691    3.8468   -1.5872 H   0  0  0  0  0  0  0  0  0  0  0  0
   -2.9509    3.4858   -2.9379 H   0  0  0  0  0  0  0  0  0  0  0  0
   -3.0226    2.5117   -1.4575 H   0  0  0  0  0  0  0  0  0  0  0  0
   -0.7920    2.8205   -4.9550 N   0  0  0  0  0  0  0  0  0  0  0  0
   -0.0726    3.4887   -6.0143 C   0  0  0  0  0  0  0  0  0  0  0  0
   -1.6358    2.3121   -5.2026 H   0  0  0  0  0  0  0  0  0  0  0  0
   -0.4522    4.5151   -6.1253 H   0  0  0  0  0  0  0  0  0  0  0  0
    0.9989    3.5189   -5.7673 H   0  0  0  0  0  0  0  0  0  0  0  0
   -0.2162    2.9407   -6.9572 H   0  0  0  0  0  0  0  0  0  0  0  0
  1  3  1  0  0  0  0
  1  7  1  0  0  0  0
  1  2  2  0  0  0  0
 42 43  1  0  0  0  0
 43 51  1  0  0  0  0
 43 44  2  0  0  0  0
  8  9  1  0  0  0  0
  9 17  1  0  0  0  0
  9 10  2  0  0  0  0
 18 19  1  0  0  0  0
 19 41  1  0  0  0  0
 19 20  2  0  0  0  0
 25 26  1  0  0  0  0
 25 27  1  0  0  0  0
 24 25  2  0  0  0  0
 42 45  1  0  0  0  0
  8 11  1  0  0  0  0
 51 52  1  0  0  0  0
 21 22  1  0  0  0  0
 22 23  1  0  0  0  0
 18 21  1  0  0  0  0
 23 24  1  0  0  0  0
 41 42  1  0  0  0  0
  7  8  1  0  0  0  0
 17 18  1  0  0  0  0
  3  4  1  0  0  0  0
  3  5  1  0  0  0  0
  3  6  1  0  0  0  0
 45 48  1  0  0  0  0
 45 49  1  0  0  0  0
 45 50  1  0  0  0  0
 11 14  1  0  0  0  0
 11 15  1  0  0  0  0
 11 16  1  0  0  0  0
 52 54  1  0  0  0  0
 52 55  1  0  0  0  0
 52 56  1  0  0  0  0
 22 32  1  0  0  0  0
 22 33  1  0  0  0  0
 21 30  1  0  0  0  0
 21 31  1  0  0  0  0
 23 34  1  0  0  0  0
 23 35  1  0  0  0  0
 42 47  1  0  0  0  0
  8 13  1  0  0  0  0
 18 29  1  0  0  0  0
 26 37  1  0  0  0  0
 26 38  1  0  0  0  0
 27 39  1  0  0  0  0
 27 40  1  0  0  0  0
 51 53  1  0  0  0  0
  7 12  1  0  0  0  0
 41 46  1  0  0  0  0
 17 28  1  0  0  0  0
 24 36  1  0  0  0  0
M  CHG  1  24   1
M  END
$$$$

  -OEChem-05262214473D

 56 55  0     1  0  0  0  0  0999 V2000
    0.7735   -5.8042   -2.0022 C   0  0  0  0  0  0  0  0  0  0  0  0
   -0.2086   -6.3825   -1.5519 O   0  0  0  0  0  0  0  0  0  0  0  0
    1.4751   -6.3646   -3.1946 C   0  0  0  0  0  0  0  0  0  0  0  0
    2.2765   -7.0687   -2.9186 H   0  0  0  0  0  0  0  0  0  0  0  0
    0.7988   -6.9360   -3.8504 H   0  0  0  0  0  0  0  0  0  0  0  0
    1.9556   -5.6216   -3.8511 H   0  0  0  0  0  0  0  0  0  0  0  0
    1.3322   -4.6359   -1.5106 N   0  0  0  0  0  0  0  0  0  0  0  0
    0.8124   -3.9290   -0.3698 C   0  0  2  0  0  0  0  0  0  0  0  0
    1.0666   -2.4424   -0.5818 C   0  0  0  0  0  0  0  0  0  0  0  0
    2.0598   -2.0076   -1.1610 O   0  0  0  0  0  0  0  0  0  0  0  0
    1.4560   -4.4118    0.9207 C   0  0  0  0  0  0  0  0  0  0  0  0
    2.1528   -4.2578   -1.9805 H   0  0  0  0  0  0  0  0  0  0  0  0
   -0.2667   -4.1160   -0.3467 H   0  0  0  0  0  0  0  0  0  0  0  0
    2.5374   -4.2329    0.9160 H   0  0  0  0  0  0  0  0  0  0  0  0
    1.0390   -3.8932    1.7903 H   0  0  0  0  0  0  0  0  0  0  0  0
    1.2976   -5.4871    1.0566 H   0  0  0  0  0  0  0  0  0  0  0  0
    0.0755   -1.6529   -0.0105 N   0  0  0  0  0  0  0  0  0  0  0  0
    0.1113   -0.2132   -0.0391 C   0  0  2  0  0  0  0  0  0  0  0  0
   -0.9082    0.2501   -1.0742 C   0  0  0  0  0  0  0  0  0  0  0  0
   -2.0285   -0.2453   -1.1778 O   0  0  0  0  0  0  0  0  0  0  0  0
    1.5051    0.3213   -0.3840 C   0  0  0  0  0  0  0  0  0  0  0  0
    2.5331    0.0236    0.7141 C   0  0  0  0  0  0  0  0  0  0  0  0
    3.9185    0.5579    0.3656 C   0  0  0  0  0  0  0  0  0  0  0  0
    4.9002    0.2518    1.4036 N   0  3  0  0  0  0  0  0  0  0  0  0
    6.2497    0.5867    1.2780 C   0  0  0  0  0  0  0  0  0  0  0  0
    7.1281    0.2639    2.3070 N   0  0  0  0  0  0  0  0  0  0  0  0
    6.7375    1.2360    0.1487 N   0  0  0  0  0  0  0  0  0  0  0  0
   -0.7323   -2.1024    0.4149 H   0  0  0  0  0  0  0  0  0  0  0  0
   -0.2035    0.1321    0.9522 H   0  0  0  0  0  0  0  0  0  0  0  0
    1.4509    1.4046   -0.5458 H   0  0  0  0  0  0  0  0  0  0  0  0
    1.8470   -0.1163   -1.3312 H   0  0  0  0  0  0  0  0  0  0  0  0
    2.1980    0.4645    1.6606 H   0  0  0  0  0  0  0  0  0  0  0  0
    2.6071   -1.0595    0.8649 H   0  0  0  0  0  0  0  0  0  0  0  0
    4.2698    0.0934   -0.5609 H   0  0  0  0  0  0  0  0  0  0  0  0
    3.8958    1.6433    0.2285 H   0  0  0  0  0  0  0  0  0  0  0  0
    4.6020   -0.2228    2.2539 H   0  0  0  0  0  0  0  0  0  0  0  0
    8.1172    0.4940    2.2469 H   0  0  0  0  0  0  0  0  0  0  0  0
    6.8049   -0.2110    3.1464 H   0  0  0  0  0  0  0  0  0  0  0  0
    7.7193    1.4821    0.0523 H   0  0  0  0  0  0  0  0  0  0  0  0
    6.1186    1.4841   -0.6196 H   0  0  0  0  0  0  0  0  0  0  0  0
   -0.4013    1.2458   -1.8976 N   0  0  0  0  0  0  0  0  0  0  0  0
   -1.1520    1.8207   -2.9899 C   0  0  2  0  0  0  0  0  0  0  0  0
   -0.1680    2.1992   -4.0890 C   0  0  0  0  0  0  0  0  0  0  0  0
    0.9707    2.6019   -3.8603 O   0  0  0  0  0  0  0  0  0  0  0  0
   -1.9511    3.0320   -2.5350 C   0  0  0  0  0  0  0  0  0  0  0  0
    0.5264    1.6176   -1.7166 H   0  0  0  0  0  0  0  0  0  0  0  0
   -1.8265    1.0390   -3.3561 H   0  0  0  0  0  0  0  0  0  0  0  0
   -1.2923    3.8258   -2.1647 H   0  0  0  0  0  0  0  0  0  0  0  0
   -2.5417    3.4493   -3.3573 H   0  0  0  0  0  0  0  0  0  0  0  0
   -2.6371    2.7642   -1.7241 H   0  0  0  0  0  0  0  0  0  0  0  0
   -0.7255    2.0755   -5.3539 N   0  0  0  0  0  0  0  0  0  0  0  0
   -0.0066    2.4158   -6.5595 C   0  0  0  0  0  0  0  0  0  0  0  0
   -1.6625    1.6958   -5.4520 H   0  0  0  0  0  0  0  0  0  0  0  0
   -0.2163    3.4614   -6.8293 H   0  0  0  0  0  0  0  0  0  0  0  0
    1.0730    2.2904   -6.3902 H   0  0  0  0  0  0  0  0  0  0  0  0
   -0.3287    1.7545   -7.3773 H   0  0  0  0  0  0  0  0  0  0  0  0
  1  3  1  0  0  0  0
  1  7  1  0  0  0  0
  1  2  2  0  0  0  0
 42 43  1  0  0  0  0
 43 51  1  0  0  0  0
 43 44  2  0  0  0  0
  8  9  1  0  0  0  0
  9 17  1  0  0  0  0
  9 10  2  0  0  0  0
 18 19  1  0  0  0  0
 19 41  1  0  0  0  0
 19 20  2  0  0  0  0
 25 26  1  0  0  0  0
 25 27  1  0  0  0  0
 24 25  2  0  0  0  0
 42 45  1  0  0  0  0
  8 11  1  0  0  0  0
 51 52  1  0  0  0  0
 21 22  1  0  0  0  0
 22 23  1  0  0  0  0
 18 21  1  0  0  0  0
 23 24  1  0  0  0  0
 41 42  1  0  0  0  0
  7  8  1  0  0  0  0
 17 18  1  0  0  0  0
  3  4  1  0  0  0  0
  3  5  1  0  0  0  0
  3  6  1  0  0  0  0
 45 48  1  0  0  0  0
 45 49  1  0  0  0  0
 45 50  1  0  0  0  0
 11 14  1  0  0  0  0
 11 15  1  0  0  0  0
 11 16  1  0  0  0  0
 52 54  1  0  0  0  0
 52 55  1  0  0  0  0
 52 56  1  0  0  0  0
 22 32  1  0  0  0  0
 22 33  1  0  0  0  0
 21 30  1  0  0  0  0
 21 31  1  0  0  0  0
 23 34  1  0  0  0  0
 23 35  1  0  0  0  0
 42 47  1  0  0  0  0
  8 13  1  0  0  0  0
 18 29  1  0  0  0  0
 26 37  1  0  0  0  0
 26 38  1  0  0  0  0
 27 39  1  0  0  0  0
 27 40  1  0  0  0  0
 51 53  1  0  0  0  0
  7 12  1  0  0  0  0
 41 46  1  0  0  0  0
 17 28  1  0  0  0  0
 24 36  1  0  0  0  0
M  CHG  1  24   1
M  END
$$$$

  -OEChem-05262214473D

 56 55  0     1  0  0  0  0  0999 V2000
    0.7735   -5.8042   -2.0022 C   0  0  0  0  0  0  0  0  0  0  0  0
   -0.2086   -6.3825   -1.5519 O   0  0  0  0  0  0  0  0  0  0  0  0
    1.4751   -6.3646   -3.1946 C   0  0  0  0  0  0  0  0  0  0  0  0
    2.2765   -7.0687   -2.9186 H   0  0  0  0  0  0  0  0  0  0  0  0
    0.7988   -6.9360   -3.8504 H   0  0  0  0  0  0  0  0  0  0  0  0
    1.9556   -5.6216   -3.8511 H   0  0  0  0  0  0  0  0  0  0  0  0
    1.3322   -4.6359   -1.5106 N   0  0  0  0  0  0  0  0  0  0  0  0
    0.8124   -3.9290   -0.3698 C   0  0  2  0  0  0  0  0  0  0  0  0
    1.0666   -2.4424   -0.5818 C   0  0  0  0  0  0  0  0  0  0  0  0
    2.0598   -2.0076   -1.1610 O   0  0  0  0  0  0  0  0  0  0  0  0
    1.4560   -4.4118    0.9207 C   0  0  0  0  0  0  0  0  0  0  0  0
    2.1528   -4.2578   -1.9805 H   0  0  0  0  0  0  0  0  0  0  0  0
   -0.2667   -4.1160   -0.3467 H   0  0  0  0  0  0  0  0  0  0  0  0
    2.5374   -4.2329    0.9160 H   0  0  0  0  0  0  0  0  0  0  0  0
    1.0390   -3.8932    1.7903 H   0  0  0  0  0  0  0  0  0  0  0  0
    1.2976   -5.4871    1.0566 H   0  0  0  0  0  0  0  0  0  0  0  0
    0.0755   -1.6529   -0.0105 N   0  0  0  0  0  0  0  0  0  0  0  0
    0.1113   -0.2132   -0.0391 C   0  0  2  0  0  0  0  0  0  0  0  0
   -0.9082    0.2501   -1.0742 C   0  0  0  0  0  0  0  0  0  0  0  0
   -2.1008   -0.0426   -1.0160 O   0  0  0  0  0  0  0  0  0  0  0  0
    1.5051    0.3213   -0.3840 C   0  0  0  0  0  0  0  0  0  0  0  0
    2.5331    0.0236    0.7141 C   0  0  0  0  0  0  0  0  0  0  0  0
    3.9185    0.5579    0.3656 C   0  0  0  0  0  0  0  0  0  0  0  0
    4.9002    0.2518    1.4036 N   0  3  0  0  0  0  0  0  0  0  0  0
    6.2497    0.5867    1.2780 C   0  0  0  0  0  0  0  0  0  0  0  0
    7.1281    0.2639    2.3070 N   0  0  0  0  0  0  0  0  0  0  0  0
    6.7375    1.2360    0.1487 N   0  0  0  0  0  0  0  0  0  0  0  0
   -0.7323   -2.1024    0.4149 H   0  0  0  0  0  0  0  0  0  0  0  0
   -0.2035    0.1321    0.9522 H   0  0  0  0  0  0  0  0  0  0  0  0
    1.4509    1.4046   -0.5458 H   0  0  0  0  0  0  0  0  0  0  0  0
    1.8470   -0.1163   -1.3312 H   0  0  0  0  0  0  0  0  0  0  0  0
    2.1980    0.4645    1.6606 H   0  0  0  0  0  0  0  0  0  0  0  0
    2.6071   -1.0595    0.8649 H   0  0  0  0  0  0  0  0  0  0  0  0
    4.2698    0.0934   -0.5609 H   0  0  0  0  0  0  0  0  0  0  0  0
    3.8958    1.6433    0.2285 H   0  0  0  0  0  0  0  0  0  0  0  0
    4.6020   -0.2228    2.2539 H   0  0  0  0  0  0  0  0  0  0  0  0
    8.1172    0.4940    2.2469 H   0  0  0  0  0  0  0  0  0  0  0  0
    6.8049   -0.2110    3.1464 H   0  0  0  0  0  0  0  0  0  0  0  0
    7.7193    1.4821    0.0523 H   0  0  0  0  0  0  0  0  0  0  0  0
    6.1186    1.4841   -0.6196 H   0  0  0  0  0  0  0  0  0  0  0  0
   -0.3203    0.9857   -2.0938 N   0  0  0  0  0  0  0  0  0  0  0  0
   -1.0626    1.4986   -3.2221 C   0  0  2  0  0  0  0  0  0  0  0  0
   -0.1367    1.5033   -4.4313 C   0  0  0  0  0  0  0  0  0  0  0  0
    1.0700    1.7236   -4.3513 O   0  0  0  0  0  0  0  0  0  0  0  0
   -1.5995    2.8939   -2.9432 C   0  0  0  0  0  0  0  0  0  0  0  0
    0.6698    1.2067   -2.0417 H   0  0  0  0  0  0  0  0  0  0  0  0
   -1.8908    0.8035   -3.3982 H   0  0  0  0  0  0  0  0  0  0  0  0
   -0.7842    3.6043   -2.7643 H   0  0  0  0  0  0  0  0  0  0  0  0
   -2.1858    3.2696   -3.7882 H   0  0  0  0  0  0  0  0  0  0  0  0
   -2.2414    2.8942   -2.0557 H   0  0  0  0  0  0  0  0  0  0  0  0
   -0.8236    1.2752   -5.6155 N   0  0  0  0  0  0  0  0  0  0  0  0
   -0.1743    1.2735   -6.9056 C   0  0  0  0  0  0  0  0  0  0  0  0
   -1.8163    1.0621   -5.5843 H   0  0  0  0  0  0  0  0  0  0  0  0
   -0.2290    2.2803   -7.3455 H   0  0  0  0  0  0  0  0  0  0  0  0
    0.8798    0.9830   -6.7850 H   0  0  0  0  0  0  0  0  0  0  0  0
   -0.6789    0.5557   -7.5690 H   0  0  0  0  0  0  0  0  0  0  0  0
  1  3  1  0  0  0  0
  1  7  1  0  0  0  0
  1  2  2  0  0  0  0
 42 43  1  0  0  0  0
 43 51  1  0  0  0  0
 43 44  2  0  0  0  0
  8  9  1  0  0  0  0
  9 17  1  0  0  0  0
  9 10  2  0  0  0  0
 18 19  1  0  0  0  0
 19 41  1  0  0  0  0
 19 20  2  0  0  0  0
 25 26  1  0  0  0  0
 25 27  1  0  0  0  0
 24 25  2  0  0  0  0
 42 45  1  0  0  0  0
  8 11  1  0  0  0  0
 51 52  1  0  0  0  0
 21 22  1  0  0  0  0
 22 23  1  0  0  0  0
 18 21  1  0  0  0  0
 23 24  1  0  0  0  0
 41 42  1  0  0  0  0
  7  8  1  0  0  0  0
 17 18  1  0  0  0  0
  3  4  1  0  0  0  0
  3  5  1  0  0  0  0
  3  6  1  0  0  0  0
 45 48  1  0  0  0  0
 45 49  1  0  0  0  0
 45 50  1  0  0  0  0
 11 14  1  0  0  0  0
 11 15  1  0  0  0  0
 11 16  1  0  0  0  0
 52 54  1  0  0  0  0
 52 55  1  0  0  0  0
 52 56  1  0  0  0  0
 22 32  1  0  0  0  0
 22 33  1  0  0  0  0
 21 30  1  0  0  0  0
 21 31  1  0  0  0  0
 23 34  1  0  0  0  0
 23 35  1  0  0  0  0
 42 47  1  0  0  0  0
  8 13  1  0  0  0  0
 18 29  1  0  0  0  0
 26 37  1  0  0  0  0
 26 38  1  0  0  0  0
 27 39  1  0  0  0  0
 27 40  1  0  0  0  0
 51 53  1  0  0  0  0
  7 12  1  0  0  0  0
 41 46  1  0  0  0  0
 17 28  1  0  0  0  0
 24 36  1  0  0  0  0
M  CHG  1  24   1
M  END
$$$$

  -OEChem-05262214473D

 56 55  0     1  0  0  0  0  0999 V2000
    0.7735   -5.8042   -2.0022 C   0  0  0  0  0  0  0  0  0  0  0  0
   -0.2086   -6.3825   -1.5519 O   0  0  0  0  0  0  0  0  0  0  0  0
    1.4751   -6.3646   -3.1946 C   0  0  0  0  0  0  0  0  0  0  0  0
    2.2765   -7.0687   -2.9186 H   0  0  0  0  0  0  0  0  0  0  0  0
    0.7988   -6.9360   -3.8504 H   0  0  0  0  0  0  0  0  0  0  0  0
    1.9556   -5.6216   -3.8511 H   0  0  0  0  0  0  0  0  0  0  0  0
    1.3322   -4.6359   -1.5106 N   0  0  0  0  0  0  0  0  0  0  0  0
    0.8124   -3.9290   -0.3698 C   0  0  2  0  0  0  0  0  0  0  0  0
    1.0666   -2.4424   -0.5818 C   0  0  0  0  0  0  0  0  0  0  0  0
    2.0598   -2.0076   -1.1610 O   0  0  0  0  0  0  0  0  0  0  0  0
    1.4560   -4.4118    0.9207 C   0  0  0  0  0  0  0  0  0  0  0  0
    2.1528   -4.2578   -1.9805 H   0  0  0  0  0  0  0  0  0  0  0  0
   -0.2667   -4.1160   -0.3467 H   0  0  0  0  0  0  0  0  0  0  0  0
    2.5374   -4.2329    0.9160 H   0  0  0  0  0  0  0  0  0  0  0  0
    1.0390   -3.8932    1.7903 H   0  0  0  0  0  0  0  0  0  0  0  0
    1.2976   -5.4871    1.0566 H   0  0  0  0  0  0  0  0  0  0  0  0
    0.0755   -1.6529   -0.0105 N   0  0  0  0  0  0  0  0  0  0  0  0
    0.1113   -0.2132   -0.0391 C   0  0  2  0  0  0  0  0  0  0  0  0
   -0.9082    0.2501   -1.0742 C   0  0  0  0  0  0  0  0  0  0  0  0
   -2.1222    0.1939   -0.8890 O   0  0  0  0  0  0  0  0  0  0  0  0
    1.5051    0.3213   -0.3840 C   0  0  0  0  0  0  0  0  0  0  0  0
    2.5331    0.0236    0.7141 C   0  0  0  0  0  0  0  0  0  0  0  0
    3.9185    0.5579    0.3656 C   0  0  0  0  0  0  0  0  0  0  0  0
    4.9002    0.2518    1.4036 N   0  3  0  0  0  0  0  0  0  0  0  0
    6.2497    0.5867    1.2780 C   0  0  0  0  0  0  0  0  0  0  0  0
    7.1281    0.2639    2.3070 N   0  0  0  0  0  0  0  0  0  0  0  0
    6.7375    1.2360    0.1487 N   0  0  0  0  0  0  0  0  0  0  0  0
   -0.7323   -2.1024    0.4149 H   0  0  0  0  0  0  0  0  0  0  0  0
   -0.2035    0.1321    0.9522 H   0  0  0  0  0  0  0  0  0  0  0  0
    1.4509    1.4046   -0.5458 H   0  0  0  0  0  0  0  0  0  0  0  0
    1.8470   -0.1163   -1.3312 H   0  0  0  0  0  0  0  0  0  0  0  0
    2.1980    0.4645    1.6606 H   0  0  0  0  0  0  0  0  0  0  0  0
    2.6071   -1.0595    0.8649 H   0  0  0  0  0  0  0  0  0  0  0  0
    4.2698    0.0934   -0.5609 H   0  0  0  0  0  0  0  0  0  0  0  0
    3.8958    1.6433    0.2285 H   0  0  0  0  0  0  0  0  0  0  0  0
    4.6020   -0.2228    2.2539 H   0  0  0  0  0  0  0  0  0  0  0  0
    8.1172    0.4940    2.2469 H   0  0  0  0  0  0  0  0  0  0  0  0
    6.8049   -0.2110    3.1464 H   0  0  0  0  0  0  0  0  0  0  0  0
    7.7193    1.4821    0.0523 H   0  0  0  0  0  0  0  0  0  0  0  0
    6.1186    1.4841   -0.6196 H   0  0  0  0  0  0  0  0  0  0  0  0
   -0.3031    0.6863   -2.2446 N   0  0  0  0  0  0  0  0  0  0  0  0
   -1.0511    1.1316   -3.3977 C   0  0  2  0  0  0  0  0  0  0  0  0
   -0.2557    0.7663   -4.6441 C   0  0  0  0  0  0  0  0  0  0  0  0
    0.9730    0.7727   -4.6814 O   0  0  0  0  0  0  0  0  0  0  0  0
   -1.3162    2.6280   -3.3413 C   0  0  0  0  0  0  0  0  0  0  0  0
    0.7104    0.7284   -2.2959 H   0  0  0  0  0  0  0  0  0  0  0  0
   -1.9975    0.5799   -3.3931 H   0  0  0  0  0  0  0  0  0  0  0  0
   -0.3795    3.1974   -3.3451 H   0  0  0  0  0  0  0  0  0  0  0  0
   -1.9076    2.9589   -4.2014 H   0  0  0  0  0  0  0  0  0  0  0  0
   -1.8624    2.8929   -2.4296 H   0  0  0  0  0  0  0  0  0  0  0  0
   -1.0795    0.4741   -5.7220 N   0  0  0  0  0  0  0  0  0  0  0  0
   -0.5641    0.1398   -7.0291 C   0  0  0  0  0  0  0  0  0  0  0  0
   -2.0865    0.4540   -5.5903 H   0  0  0  0  0  0  0  0  0  0  0  0
   -0.4893    1.0523   -7.6388 H   0  0  0  0  0  0  0  0  0  0  0  0
    0.4324   -0.3142   -6.9250 H   0  0  0  0  0  0  0  0  0  0  0  0
   -1.2427   -0.5738   -7.5192 H   0  0  0  0  0  0  0  0  0  0  0  0
  1  3  1  0  0  0  0
  1  7  1  0  0  0  0
  1  2  2  0  0  0  0
 42 43  1  0  0  0  0
 43 51  1  0  0  0  0
 43 44  2  0  0  0  0
  8  9  1  0  0  0  0
  9 17  1  0  0  0  0
  9 10  2  0  0  0  0
 18 19  1  0  0  0  0
 19 41  1  0  0  0  0
 19 20  2  0  0  0  0
 25 26  1  0  0  0  0
 25 27  1  0  0  0  0
 24 25  2  0  0  0  0
 42 45  1  0  0  0  0
  8 11  1  0  0  0  0
 51 52  1  0  0  0  0
 21 22  1  0  0  0  0
 22 23  1  0  0  0  0
 18 21  1  0  0  0  0
 23 24  1  0  0  0  0
 41 42  1  0  0  0  0
  7  8  1  0  0  0  0
 17 18  1  0  0  0  0
  3  4  1  0  0  0  0
  3  5  1  0  0  0  0
  3  6  1  0  0  0  0
 45 48  1  0  0  0  0
 45 49  1  0  0  0  0
 45 50  1  0  0  0  0
 11 14  1  0  0  0  0
 11 15  1  0  0  0  0
 11 16  1  0  0  0  0
 52 54  1  0  0  0  0
 52 55  1  0  0  0  0
 52 56  1  0  0  0  0
 22 32  1  0  0  0  0
 22 33  1  0  0  0  0
 21 30  1  0  0  0  0
 21 31  1  0  0  0  0
 23 34  1  0  0  0  0
 23 35  1  0  0  0  0
 42 47  1  0  0  0  0
  8 13  1  0  0  0  0
 18 29  1  0  0  0  0
 26 37  1  0  0  0  0
 26 38  1  0  0  0  0
 27 39  1  0  0  0  0
 27 40  1  0  0  0  0
 51 53  1  0  0  0  0
  7 12  1  0  0  0  0
 41 46  1  0  0  0  0
 17 28  1  0  0  0  0
 24 36  1  0  0  0  0
M  CHG  1  24   1
M  END
$$$$

  -OEChem-05262214473D

 56 55  0     1  0  0  0  0  0999 V2000
    0.7735   -5.8042   -2.0022 C   0  0  0  0  0  0  0  0  0  0  0  0
   -0.2086   -6.3825   -1.5519 O   0  0  0  0  0  0  0  0  0  0  0  0
    1.4751   -6.3646   -3.1946 C   0  0  0  0  0  0  0  0  0  0  0  0
    2.2765   -7.0687   -2.9186 H   0  0  0  0  0  0  0  0  0  0  0  0
    0.7988   -6.9360   -3.8504 H   0  0  0  0  0  0  0  0  0  0  0  0
    1.9556   -5.6216   -3.8511 H   0  0  0  0  0  0  0  0  0  0  0  0
    1.3322   -4.6359   -1.5106 N   0  0  0  0  0  0  0  0  0  0  0  0
    0.8124   -3.9290   -0.3698 C   0  0  2  0  0  0  0  0  0  0  0  0
    1.0666   -2.4424   -0.5818 C   0  0  0  0  0  0  0  0  0  0  0  0
    2.0598   -2.0076   -1.1610 O   0  0  0  0  0  0  0  0  0  0  0  0
    1.4560   -4.4118    0.9207 C   0  0  0  0  0  0  0  0  0  0  0  0
    2.1528   -4.2578   -1.9805 H   0  0  0  0  0  0  0  0  0  0  0  0
   -0.2667   -4.1160   -0.3467 H   0  0  0  0  0  0  0  0  0  0  0  0
    2.5374   -4.2329    0.9160 H   0  0  0  0  0  0  0  0  0  0  0  0
    1.0390   -3.8932    1.7903 H   0  0  0  0  0  0  0  0  0  0  0  0
    1.2976   -5.4871    1.0566 H   0  0  0  0  0  0  0  0  0  0  0  0
    0.0755   -1.6529   -0.0105 N   0  0  0  0  0  0  0  0  0  0  0  0
    0.1113   -0.2132   -0.0391 C   0  0  2  0  0  0  0  0  0  0  0  0
   -0.9082    0.2501   -1.0742 C   0  0  0  0  0  0  0  0  0  0  0  0
   -2.0914    0.4480   -0.8056 O   0  0  0  0  0  0  0  0  0  0  0  0
    1.5051    0.3213   -0.3840 C   0  0  0  0  0  0  0  0  0  0  0  0
    2.5331    0.0236    0.7141 C   0  0  0  0  0  0  0  0  0  0  0  0
    3.9185    0.5579    0.3656 C   0  0  0  0  0  0  0  0  0  0  0  0
    4.9002    0.2518    1.4036 N   0  3  0  0  0  0  0  0  0  0  0  0
    6.2497    0.5867    1.2780 C   0  0  0  0  0  0  0  0  0  0  0  0
    7.1281    0.2639    2.3070 N   0  0  0  0  0  0  0  0  0  0  0  0
    6.7375    1.2360    0.1487 N   0  0  0  0  0  0  0  0  0  0  0  0
   -0.7323   -2.1024    0.4149 H   0  0  0  0  0  0  0  0  0  0  0  0
   -0.2035    0.1321    0.9522 H   0  0  0  0  0  0  0  0  0  0  0  0
    1.4509    1.4046   -0.5458 H   0  0  0  0  0  0  0  0  0  0  0  0
    1.8470   -0.1163   -1.3312 H   0  0  0  0  0  0  0  0  0  0  0  0
    2.1980    0.4645    1.6606 H   0  0  0  0  0  0  0  0  0  0  0  0
    2.6071   -1.0595    0.8649 H   0  0  0  0  0  0  0  0  0  0  0  0
    4.2698    0.0934   -0.5609 H   0  0  0  0  0  0  0  0  0  0  0  0
    3.8958    1.6433    0.2285 H   0  0  0  0  0  0  0  0  0  0  0  0
    4.6020   -0.2228    2.2539 H   0  0  0  0  0  0  0  0  0  0  0  0
    8.1172    0.4940    2.2469 H   0  0  0  0  0  0  0  0  0  0  0  0
    6.8049   -0.2110    3.1464 H   0  0  0  0  0  0  0  0  0  0  0  0
    7.7193    1.4821    0.0523 H   0  0  0  0  0  0  0  0  0  0  0  0
    6.1186    1.4841   -0.6196 H   0  0  0  0  0  0  0  0  0  0  0  0
   -0.3510    0.3680   -2.3399 N   0  0  0  0  0  0  0  0  0  0  0  0
   -1.1183    0.7447   -3.5048 C   0  0  2  0  0  0  0  0  0  0  0  0
   -0.5167    0.0386   -4.7126 C   0  0  0  0  0  0  0  0  0  0  0  0
    0.6864   -0.1858   -4.8281 O   0  0  0  0  0  0  0  0  0  0  0  0
   -1.1205    2.2526   -3.7020 C   0  0  0  0  0  0  0  0  0  0  0  0
    0.6457    0.2152   -2.4618 H   0  0  0  0  0  0  0  0  0  0  0  0
   -2.1395    0.3837   -3.3411 H   0  0  0  0  0  0  0  0  0  0  0  0
   -0.1058    2.6327   -3.8674 H   0  0  0  0  0  0  0  0  0  0  0  0
   -1.7259    2.5385   -4.5686 H   0  0  0  0  0  0  0  0  0  0  0  0
   -1.5260    2.7604   -2.8203 H   0  0  0  0  0  0  0  0  0  0  0  0
   -1.4758   -0.2731   -5.6661 N   0  0  0  0  0  0  0  0  0  0  0  0
   -1.1495   -0.9083   -6.9216 C   0  0  0  0  0  0  0  0  0  0  0  0
   -2.4548   -0.0869   -5.4696 H   0  0  0  0  0  0  0  0  0  0  0  0
   -0.9795   -0.1388   -7.6891 H   0  0  0  0  0  0  0  0  0  0  0  0
   -0.2386   -1.5129   -6.8006 H   0  0  0  0  0  0  0  0  0  0  0  0
   -1.9819   -1.5572   -7.2313 H   0  0  0  0  0  0  0  0  0  0  0  0
  1  3  1  0  0  0  0
  1  7  1  0  0  0  0
  1  2  2  0  0  0  0
 42 43  1  0  0  0  0
 43 51  1  0  0  0  0
 43 44  2  0  0  0  0
  8  9  1  0  0  0  0
  9 17  1  0  0  0  0
  9 10  2  0  0  0  0
 18 19  1  0  0  0  0
 19 41  1  0  0  0  0
 19 20  2  0  0  0  0
 25 26  1  0  0  0  0
 25 27  1  0  0  0  0
 24 25  2  0  0  0  0
 42 45  1  0  0  0  0
  8 11  1  0  0  0  0
 51 52  1  0  0  0  0
 21 22  1  0  0  0  0
 22 23  1  0  0  0  0
 18 21  1  0  0  0  0
 23 24  1  0  0  0  0
 41 42  1  0  0  0  0
  7  8  1  0  0  0  0
 17 18  1  0  0  0  0
  3  4  1  0  0  0  0
  3  5  1  0  0  0  0
  3  6  1  0  0  0  0
 45 48  1  0  0  0  0
 45 49  1  0  0  0  0
 45 50  1  0  0  0  0
 11 14  1  0  0  0  0
 11 15  1  0  0  0  0
 11 16  1  0  0  0  0
 52 54  1  0  0  0  0
 52 55  1  0  0  0  0
 52 56  1  0  0  0  0
 22 32  1  0  0  0  0
 22 33  1  0  0  0  0
 21 30  1  0  0  0  0
 21 31  1  0  0  0  0
 23 34  1  0  0  0  0
 23 35  1  0  0  0  0
 42 47  1  0  0  0  0
  8 13  1  0  0  0  0
 18 29  1  0  0  0  0
 26 37  1  0  0  0  0
 26 38  1  0  0  0  0
 27 39  1  0  0  0  0
 27 40  1  0  0  0  0
 51 53  1  0  0  0  0
  7 12  1  0  0  0  0
 41 46  1  0  0  0  0
 17 28  1  0  0  0  0
 24 36  1  0  0  0  0
M  CHG  1  24   1
M  END
$$$$

  -OEChem-05262214473D

 56 55  0     1  0  0  0  0  0999 V2000
    0.7735   -5.8042   -2.0022 C   0  0  0  0  0  0  0  0  0  0  0  0
   -0.2086   -6.3825   -1.5519 O   0  0  0  0  0  0  0  0  0  0  0  0
    1.4751   -6.3646   -3.1946 C   0  0  0  0  0  0  0  0  0  0  0  0
    2.2765   -7.0687   -2.9186 H   0  0  0  0  0  0  0  0  0  0  0  0
    0.7988   -6.9360   -3.8504 H   0  0  0  0  0  0  0  0  0  0  0  0
    1.9556   -5.6216   -3.8511 H   0  0  0  0  0  0  0  0  0  0  0  0
    1.3322   -4.6359   -1.5106 N   0  0  0  0  0  0  0  0  0  0  0  0
    0.8124   -3.9290   -0.3698 C   0  0  2  0  0  0  0  0  0  0  0  0
    1.0666   -2.4424   -0.5818 C   0  0  0  0  0  0  0  0  0  0  0  0
    2.0598   -2.0076   -1.1610 O   0  0  0  0  0  0  0  0  0  0  0  0
    1.4560   -4.4118    0.9207 C   0  0  0  0  0  0  0  0  0  0  0  0
    2.1528   -4.2578   -1.9805 H   0  0  0  0  0  0  0  0  0  0  0  0
   -0.2667   -4.1160   -0.3467 H   0  0  0  0  0  0  0  0  0  0  0  0
    2.5374   -4.2329    0.9160 H   0  0  0  0  0  0  0  0  0  0  0  0
    1.0390   -3.8932    1.7903 H   0  0  0  0  0  0  0  0  0  0  0  0
    1.2976   -5.4871    1.0566 H   0  0  0  0  0  0  0  0  0  0  0  0
    0.0755   -1.6529   -0.0105 N   0  0  0  0  0  0  0  0  0  0  0  0
    0.1113   -0.2132   -0.0391 C   0  0  2  0  0  0  0  0  0  0  0  0
   -0.9082    0.2501   -1.0742 C   0  0  0  0  0  0  0  0  0  0  0  0
   -2.0104    0.7025   -0.7715 O   0  0  0  0  0  0  0  0  0  0  0  0
    1.5051    0.3213   -0.3840 C   0  0  0  0  0  0  0  0  0  0  0  0
    2.5331    0.0236    0.7141 C   0  0  0  0  0  0  0  0  0  0  0  0
    3.9185    0.5579    0.3656 C   0  0  0  0  0  0  0  0  0  0  0  0
    4.9002    0.2518    1.4036 N   0  3  0  0  0  0  0  0  0  0  0  0
    6.2497    0.5867    1.2780 C   0  0  0  0  0  0  0  0  0  0  0  0
    7.1281    0.2639    2.3070 N   0  0  0  0  0  0  0  0  0  0  0  0
    6.7375    1.2360    0.1487 N   0  0  0  0  0  0  0  0  0  0  0  0
   -0.7323   -2.1024    0.4149 H   0  0  0  0  0  0  0  0  0  0  0  0
   -0.2035    0.1321    0.9522 H   0  0  0  0  0  0  0  0  0  0  0  0
    1.4509    1.4046   -0.5458 H   0  0  0  0  0  0  0  0  0  0  0  0
    1.8470   -0.1163   -1.3312 H   0  0  0  0  0  0  0  0  0  0  0  0
    2.1980    0.4645    1.6606 H   0  0  0  0  0  0  0  0  0  0  0  0
    2.6071   -1.0595    0.8649 H   0  0  0  0  0  0  0  0  0  0  0  0
    4.2698    0.0934   -0.5609 H   0  0  0  0  0  0  0  0  0  0  0  0
    3.8958    1.6433    0.2285 H   0  0  0  0  0  0  0  0  0  0  0  0
    4.6020   -0.2228    2.2539 H   0  0  0  0  0  0  0  0  0  0  0  0
    8.1172    0.4940    2.2469 H   0  0  0  0  0  0  0  0  0  0  0  0
    6.8049   -0.2110    3.1464 H   0  0  0  0  0  0  0  0  0  0  0  0
    7.7193    1.4821    0.0523 H   0  0  0  0  0  0  0  0  0  0  0  0
    6.1186    1.4841   -0.6196 H   0  0  0  0  0  0  0  0  0  0  0  0
   -0.4607    0.0525   -2.3731 N   0  0  0  0  0  0  0  0  0  0  0  0
   -1.2596    0.3642   -3.5359 C   0  0  2  0  0  0  0  0  0  0  0  0
   -0.9022   -0.6304   -4.6324 C   0  0  0  0  0  0  0  0  0  0  0  0
    0.2296   -1.0867   -4.7813 O   0  0  0  0  0  0  0  0  0  0  0  0
   -1.0259    1.7932   -4.0009 C   0  0  0  0  0  0  0  0  0  0  0  0
    0.4800   -0.2978   -2.5282 H   0  0  0  0  0  0  0  0  0  0  0  0
   -2.3071    0.2280   -3.2457 H   0  0  0  0  0  0  0  0  0  0  0  0
    0.0183    1.9488   -4.2958 H   0  0  0  0  0  0  0  0  0  0  0  0
   -1.6531    2.0369   -4.8648 H   0  0  0  0  0  0  0  0  0  0  0  0
   -1.2550    2.5057   -3.2012 H   0  0  0  0  0  0  0  0  0  0  0  0
   -1.9855   -0.9156   -5.4517 N   0  0  0  0  0  0  0  0  0  0  0  0
   -1.8906   -1.7991   -6.5903 C   0  0  0  0  0  0  0  0  0  0  0  0
   -2.8961   -0.5238   -5.2304 H   0  0  0  0  0  0  0  0  0  0  0  0
   -1.6662   -1.2119   -7.4930 H   0  0  0  0  0  0  0  0  0  0  0  0
   -1.0875   -2.5313   -6.4202 H   0  0  0  0  0  0  0  0  0  0  0  0
   -2.8460   -2.3275   -6.7249 H   0  0  0  0  0  0  0  0  0  0  0  0
  1  3  1  0  0  0  0
  1  7  1  0  0  0  0
  1  2  2  0  0  0  0
 42 43  1  0  0  0  0
 43 51  1  0  0  0  0
 43 44  2  0  0  0  0
  8  9  1  0  0  0  0
  9 17  1  0  0  0  0
  9 10  2  0  0  0  0
 18 19  1  0  0  0  0
 19 41  1  0  0  0  0
 19 20  2  0  0  0  0
 25 26  1  0  0  0  0
 25 27  1  0  0  0  0
 24 25  2  0  0  0  0
 42 45  1  0  0  0  0
  8 11  1  0  0  0  0
 51 52  1  0  0  0  0
 21 22  1  0  0  0  0
 22 23  1  0  0  0  0
 18 21  1  0  0  0  0
 23 24  1  0  0  0  0
 41 42  1  0  0  0  0
  7  8  1  0  0  0  0
 17 18  1  0  0  0  0
  3  4  1  0  0  0  0
  3  5  1  0  0  0  0
  3  6  1  0  0  0  0
 45 48  1  0  0  0  0
 45 49  1  0  0  0  0
 45 50  1  0  0  0  0
 11 14  1  0  0  0  0
 11 15  1  0  0  0  0
 11 16  1  0  0  0  0
 52 54  1  0  0  0  0
 52 55  1  0  0  0  0
 52 56  1  0  0  0  0
 22 32  1  0  0  0  0
 22 33  1  0  0  0  0
 21 30  1  0  0  0  0
 21 31  1  0  0  0  0
 23 34  1  0  0  0  0
 23 35  1  0  0  0  0
 42 47  1  0  0  0  0
  8 13  1  0  0  0  0
 18 29  1  0  0  0  0
 26 37  1  0  0  0  0
 26 38  1  0  0  0  0
 27 39  1  0  0  0  0
 27 40  1  0  0  0  0
 51 53  1  0  0  0  0
  7 12  1  0  0  0  0
 41 46  1  0  0  0  0
 17 28  1  0  0  0  0
 24 36  1  0  0  0  0
M  CHG  1  24   1
M  END
$$$$

  -OEChem-05262214473D

 56 55  0     1  0  0  0  0  0999 V2000
    0.7735   -5.8042   -2.0022 C   0  0  0  0  0  0  0  0  0  0  0  0
   -0.2086   -6.3825   -1.5519 O   0  0  0  0  0  0  0  0  0  0  0  0
    1.4751   -6.3646   -3.1946 C   0  0  0  0  0  0  0  0  0  0  0  0
    2.2765   -7.0687   -2.9186 H   0  0  0  0  0  0  0  0  0  0  0  0
    0.7988   -6.9360   -3.8504 H   0  0  0  0  0  0  0  0  0  0  0  0
    1.9556   -5.6216   -3.8511 H   0  0  0  0  0  0  0  0  0  0  0  0
    1.3322   -4.6359   -1.5106 N   0  0  0  0  0  0  0  0  0  0  0  0
    0.8124   -3.9290   -0.3698 C   0  0  2  0  0  0  0  0  0  0  0  0
    1.0666   -2.4424   -0.5818 C   0  0  0  0  0  0  0  0  0  0  0  0
    2.0598   -2.0076   -1.1610 O   0  0  0  0  0  0  0  0  0  0  0  0
    1.4560   -4.4118    0.9207 C   0  0  0  0  0  0  0  0  0  0  0  0
    2.1528   -4.2578   -1.9805 H   0  0  0  0  0  0  0  0  0  0  0  0
   -0.2667   -4.1160   -0.3467 H   0  0  0  0  0  0  0  0  0  0  0  0
    2.5374   -4.2329    0.9160 H   0  0  0  0  0  0  0  0  0  0  0  0
    1.0390   -3.8932    1.7903 H   0  0  0  0  0  0  0  0  0  0  0  0
    1.2976   -5.4871    1.0566 H   0  0  0  0  0  0  0  0  0  0  0  0
    0.0755   -1.6529   -0.0105 N   0  0  0  0  0  0  0  0  0  0  0  0
    0.1113   -0.2132   -0.0391 C   0  0  2  0  0  0  0  0  0  0  0  0
   -0.9082    0.2501   -1.0742 C   0  0  0  0  0  0  0  0  0  0  0  0
   -1.8848    0.9400   -0.7889 O   0  0  0  0  0  0  0  0  0  0  0  0
    1.5051    0.3213   -0.3840 C   0  0  0  0  0  0  0  0  0  0  0  0
    2.5331    0.0236    0.7141 C   0  0  0  0  0  0  0  0  0  0  0  0
    3.9185    0.5579    0.3656 C   0  0  0  0  0  0  0  0  0  0  0  0
    4.9002    0.2518    1.4036 N   0  3  0  0  0  0  0  0  0  0  0  0
    6.2497    0.5867    1.2780 C   0  0  0  0  0  0  0  0  0  0  0  0
    7.1281    0.2639    2.3070 N   0  0  0  0  0  0  0  0  0  0  0  0
    6.7375    1.2360    0.1487 N   0  0  0  0  0  0  0  0  0  0  0  0
   -0.7323   -2.1024    0.4149 H   0  0  0  0  0  0  0  0  0  0  0  0
   -0.2035    0.1321    0.9522 H   0  0  0  0  0  0  0  0  0  0  0  0
    1.4509    1.4046   -0.5458 H   0  0  0  0  0  0  0  0  0  0  0  0
    1.8470   -0.1163   -1.3312 H   0  0  0  0  0  0  0  0  0  0  0  0
    2.1980    0.4645    1.6606 H   0  0  0  0  0  0  0  0  0  0  0  0
    2.6071   -1.0595    0.8649 H   0  0  0  0  0  0  0  0  0  0  0  0
    4.2698    0.0934   -0.5609 H   0  0  0  0  0  0  0  0  0  0  0  0
    3.8958    1.6433    0.2285 H   0  0  0  0  0  0  0  0  0  0  0  0
    4.6020   -0.2228    2.2539 H   0  0  0  0  0  0  0  0  0  0  0  0
    8.1172    0.4940    2.2469 H   0  0  0  0  0  0  0  0  0  0  0  0
    6.8049   -0.2110    3.1464 H   0  0  0  0  0  0  0  0  0  0  0  0
    7.7193    1.4821    0.0523 H   0  0  0  0  0  0  0  0  0  0  0  0
    6.1186    1.4841   -0.6196 H   0  0  0  0  0  0  0  0  0  0  0  0
   -0.6247   -0.2387   -2.3419 N   0  0  0  0  0  0  0  0  0  0  0  0
   -1.4653    0.0162   -3.4890 C   0  0  2  0  0  0  0  0  0  0  0  0
   -1.3857   -1.1950   -4.4089 C   0  0  0  0  0  0  0  0  0  0  0  0
   -0.3663   -1.8685   -4.5444 O   0  0  0  0  0  0  0  0  0  0  0  0
   -1.0386    1.2810   -4.2176 C   0  0  0  0  0  0  0  0  0  0  0  0
    0.2246   -0.7757   -2.4905 H   0  0  0  0  0  0  0  0  0  0  0  0
   -2.4888    0.1236   -3.1135 H   0  0  0  0  0  0  0  0  0  0  0  0
   -0.0156    1.1922   -4.6010 H   0  0  0  0  0  0  0  0  0  0  0  0
   -1.6942    1.4883   -5.0698 H   0  0  0  0  0  0  0  0  0  0  0  0
   -1.0680    2.1461   -3.5464 H   0  0  0  0  0  0  0  0  0  0  0  0
   -2.5738   -1.4096   -5.0933 N   0  0  0  0  0  0  0  0  0  0  0  0
   -2.7369   -2.4721   -6.0579 C   0  0  0  0  0  0  0  0  0  0  0  0
   -3.3803   -0.8268   -4.8892 H   0  0  0  0  0  0  0  0  0  0  0  0
   -2.5026   -2.0939   -7.0639 H   0  0  0  0  0  0  0  0  0  0  0  0
   -2.0565   -3.3000   -5.8098 H   0  0  0  0  0  0  0  0  0  0  0  0
   -3.7761   -2.8320   -6.0345 H   0  0  0  0  0  0  0  0  0  0  0  0
  1  3  1  0  0  0  0
  1  7  1  0  0  0  0
  1  2  2  0  0  0  0
 42 43  1  0  0  0  0
 43 51  1  0  0  0  0
 43 44  2  0  0  0  0
  8  9  1  0  0  0  0
  9 17  1  0  0  0  0
  9 10  2  0  0  0  0
 18 19  1  0  0  0  0
 19 41  1  0  0  0  0
 19 20  2  0  0  0  0
 25 26  1  0  0  0  0
 25 27  1  0  0  0  0
 24 25  2  0  0  0  0
 42 45  1  0  0  0  0
  8 11  1  0  0  0  0
 51 52  1  0  0  0  0
 21 22  1  0  0  0  0
 22 23  1  0  0  0  0
 18 21  1  0  0  0  0
 23 24  1  0  0  0  0
 41 42  1  0  0  0  0
  7  8  1  0  0  0  0
 17 18  1  0  0  0  0
  3  4  1  0  0  0  0
  3  5  1  0  0  0  0
  3  6  1  0  0  0  0
 45 48  1  0  0  0  0
 45 49  1  0  0  0  0
 45 50  1  0  0  0  0
 11 14  1  0  0  0  0
 11 15  1  0  0  0  0
 11 16  1  0  0  0  0
 52 54  1  0  0  0  0
 52 55  1  0  0  0  0
 52 56  1  0  0  0  0
 22 32  1  0  0  0  0
 22 33  1  0  0  0  0
 21 30  1  0  0  0  0
 21 31  1  0  0  0  0
 23 34  1  0  0  0  0
 23 35  1  0  0  0  0
 42 47  1  0  0  0  0
  8 13  1  0  0  0  0
 18 29  1  0  0  0  0
 26 37  1  0  0  0  0
 26 38  1  0  0  0  0
 27 39  1  0  0  0  0
 27 40  1  0  0  0  0
 51 53  1  0  0  0  0
  7 12  1  0  0  0  0
 41 46  1  0  0  0  0
 17 28  1  0  0  0  0
 24 36  1  0  0  0  0
M  CHG  1  24   1
M  END
$$$$

  -OEChem-05262214473D

 56 55  0     1  0  0  0  0  0999 V2000
    0.7735   -5.8042   -2.0022 C   0  0  0  0  0  0  0  0  0  0  0  0
   -0.2086   -6.3825   -1.5519 O   0  0  0  0  0  0  0  0  0  0  0  0
    1.4751   -6.3646   -3.1946 C   0  0  0  0  0  0  0  0  0  0  0  0
    2.2765   -7.0687   -2.9186 H   0  0  0  0  0  0  0  0  0  0  0  0
    0.7988   -6.9360   -3.8504 H   0  0  0  0  0  0  0  0  0  0  0  0
    1.9556   -5.6216   -3.8511 H   0  0  0  0  0  0  0  0  0  0  0  0
    1.3322   -4.6359   -1.5106 N   0  0  0  0  0  0  0  0  0  0  0  0
    0.8124   -3.9290   -0.3698 C   0  0  2  0  0  0  0  0  0  0  0  0
    1.0666   -2.4424   -0.5818 C   0  0  0  0  0  0  0  0  0  0  0  0
    2.0598   -2.0076   -1.1610 O   0  0  0  0  0  0  0  0  0  0  0  0
    1.4560   -4.4118    0.9207 C   0  0  0  0  0  0  0  0  0  0  0  0
    2.1528   -4.2578   -1.9805 H   0  0  0  0  0  0  0  0  0  0  0  0
   -0.2667   -4.1160   -0.3467 H   0  0  0  0  0  0  0  0  0  0  0  0
    2.5374   -4.2329    0.9160 H   0  0  0  0  0  0  0  0  0  0  0  0
    1.0390   -3.8932    1.7903 H   0  0  0  0  0  0  0  0  0  0  0  0
    1.2976   -5.4871    1.0566 H   0  0  0  0  0  0  0  0  0  0  0  0
    0.0755   -1.6529   -0.0105 N   0  0  0  0  0  0  0  0  0  0  0  0
    0.1113   -0.2132   -0.0391 C   0  0  2  0  0  0  0  0  0  0  0  0
   -0.9082    0.2501   -1.0742 C   0  0  0  0  0  0  0  0  0  0  0  0
   -1.7231    1.1444   -0.8567 O   0  0  0  0  0  0  0  0  0  0  0  0
    1.5051    0.3213   -0.3840 C   0  0  0  0  0  0  0  0  0  0  0  0
    2.5331    0.0236    0.7141 C   0  0  0  0  0  0  0  0  0  0  0  0
    3.9185    0.5579    0.3656 C   0  0  0  0  0  0  0  0  0  0  0  0
    4.9002    0.2518    1.4036 N   0  3  0  0  0  0  0  0  0  0  0  0
    6.2497    0.5867    1.2780 C   0  0  0  0  0  0  0  0  0  0  0  0
    7.1281    0.2639    2.3070 N   0  0  0  0  0  0  0  0  0  0  0  0
    6.7375    1.2360    0.1487 N   0  0  0  0  0  0  0  0  0  0  0  0
   -0.7323   -2.1024    0.4149 H   0  0  0  0  0  0  0  0  0  0  0  0
   -0.2035    0.1321    0.9522 H   0  0  0  0  0  0  0  0  0  0  0  0
    1.4509    1.4046   -0.5458 H   0  0  0  0  0  0  0  0  0  0  0  0
    1.8470   -0.1163   -1.3312 H   0  0  0  0  0  0  0  0  0  0  0  0
    2.1980    0.4645    1.6606 H   0  0  0  0  0  0  0  0  0  0  0  0
    2.6071   -1.0595    0.8649 H   0  0  0  0  0  0  0  0  0  0  0  0
    4.2698    0.0934   -0.5609 H   0  0  0  0  0  0  0  0  0  0  0  0
    3.8958    1.6433    0.2285 H   0  0  0  0  0  0  0  0  0  0  0  0
    4.6020   -0.2228    2.2539 H   0  0  0  0  0  0  0  0  0  0  0  0
    8.1172    0.4940    2.2469 H   0  0  0  0  0  0  0  0  0  0  0  0
    6.8049   -0.2110    3.1464 H   0  0  0  0  0  0  0  0  0  0  0  0
    7.7193    1.4821    0.0523 H   0  0  0  0  0  0  0  0  0  0  0  0
    6.1186    1.4841   -0.6196 H   0  0  0  0  0  0  0  0  0  0  0  0
   -0.8318   -0.4858   -2.2485 N   0  0  0  0  0  0  0  0  0  0  0  0
   -1.7215   -0.2757   -3.3673 C   0  0  2  0  0  0  0  0  0  0  0  0
   -1.9343   -1.6167   -4.0572 C   0  0  0  0  0  0  0  0  0  0  0  0
   -1.0605   -2.4780   -4.1334 O   0  0  0  0  0  0  0  0  0  0  0  0
   -1.1580    0.7511   -4.3372 C   0  0  0  0  0  0  0  0  0  0  0  0
   -0.1031   -1.1859   -2.3513 H   0  0  0  0  0  0  0  0  0  0  0  0
   -2.6722    0.0776   -2.9534 H   0  0  0  0  0  0  0  0  0  0  0  0
   -0.2053    0.4146   -4.7623 H   0  0  0  0  0  0  0  0  0  0  0  0
   -1.8464    0.9302   -5.1697 H   0  0  0  0  0  0  0  0  0  0  0  0
   -0.9776    1.7063   -3.8323 H   0  0  0  0  0  0  0  0  0  0  0  0
   -3.2006   -1.7214   -4.6154 N   0  0  0  0  0  0  0  0  0  0  0  0
   -3.6308   -2.8814   -5.3606 C   0  0  0  0  0  0  0  0  0  0  0  0
   -3.8744   -0.9755   -4.4690 H   0  0  0  0  0  0  0  0  0  0  0  0
   -3.4317   -2.7247   -6.4310 H   0  0  0  0  0  0  0  0  0  0  0  0
   -3.0795   -3.7668   -5.0110 H   0  0  0  0  0  0  0  0  0  0  0  0
   -4.7089   -3.0365   -5.2072 H   0  0  0  0  0  0  0  0  0  0  0  0
  1  3  1  0  0  0  0
  1  7  1  0  0  0  0
  1  2  2  0  0  0  0
 42 43  1  0  0  0  0
 43 51  1  0  0  0  0
 43 44  2  0  0  0  0
  8  9  1  0  0  0  0
  9 17  1  0  0  0  0
  9 10  2  0  0  0  0
 18 19  1  0  0  0  0
 19 41  1  0  0  0  0
 19 20  2  0  0  0  0
 25 26  1  0  0  0  0
 25 27  1  0  0  0  0
 24 25  2  0  0  0  0
 42 45  1  0  0  0  0
  8 11  1  0  0  0  0
 51 52  1  0  0  0  0
 21 22  1  0  0  0  0
 22 23  1  0  0  0  0
 18 21  1  0  0  0  0
 23 24  1  0  0  0  0
 41 42  1  0  0  0  0
  7  8  1  0  0  0  0
 17 18  1  0  0  0  0
  3  4  1  0  0  0  0
  3  5  1  0  0  0  0
  3  6  1  0  0  0  0
 45 48  1  0  0  0  0
 45 49  1  0  0  0  0
 45 50  1  0  0  0  0
 11 14  1  0  0  0  0
 11 15  1  0  0  0  0
 11 16  1  0  0  0  0
 52 54  1  0  0  0  0
 52 55  1  0  0  0  0
 52 56  1  0  0  0  0
 22 32  1  0  0  0  0
 22 33  1  0  0  0  0
 21 30  1  0  0  0  0
 21 31  1  0  0  0  0
 23 34  1  0  0  0  0
 23 35  1  0  0  0  0
 42 47  1  0  0  0  0
  8 13  1  0  0  0  0
 18 29  1  0  0  0  0
 26 37  1  0  0  0  0
 26 38  1  0  0  0  0
 27 39  1  0  0  0  0
 27 40  1  0  0  0  0
 51 53  1  0  0  0  0
  7 12  1  0  0  0  0
 41 46  1  0  0  0  0
 17 28  1  0  0  0  0
 24 36  1  0  0  0  0
M  CHG  1  24   1
M  END
$$$$

  -OEChem-05262214473D

 56 55  0     1  0  0  0  0  0999 V2000
    0.7735   -5.8042   -2.0022 C   0  0  0  0  0  0  0  0  0  0  0  0
   -0.2086   -6.3825   -1.5519 O   0  0  0  0  0  0  0  0  0  0  0  0
    1.4751   -6.3646   -3.1946 C   0  0  0  0  0  0  0  0  0  0  0  0
    2.2765   -7.0687   -2.9186 H   0  0  0  0  0  0  0  0  0  0  0  0
    0.7988   -6.9360   -3.8504 H   0  0  0  0  0  0  0  0  0  0  0  0
    1.9556   -5.6216   -3.8511 H   0  0  0  0  0  0  0  0  0  0  0  0
    1.3322   -4.6359   -1.5106 N   0  0  0  0  0  0  0  0  0  0  0  0
    0.8124   -3.9290   -0.3698 C   0  0  2  0  0  0  0  0  0  0  0  0
    1.0666   -2.4424   -0.5818 C   0  0  0  0  0  0  0  0  0  0  0  0
    2.0598   -2.0076   -1.1610 O   0  0  0  0  0  0  0  0  0  0  0  0
    1.4560   -4.4118    0.9207 C   0  0  0  0  0  0  0  0  0  0  0  0
    2.1528   -4.2578   -1.9805 H   0  0  0  0  0  0  0  0  0  0  0  0
   -0.2667   -4.1160   -0.3467 H   0  0  0  0  0  0  0  0  0  0  0  0
    2.5374   -4.2329    0.9160 H   0  0  0  0  0  0  0  0  0  0  0  0
    1.0390   -3.8932    1.7903 H   0  0  0  0  0  0  0  0  0  0  0  0
    1.2976   -5.4871    1.0566 H   0  0  0  0  0  0  0  0  0  0  0  0
    0.0755   -1.6529   -0.0105 N   0  0  0  0  0  0  0  0  0  0  0  0
    0.1113   -0.2132   -0.0391 C   0  0  2  0  0  0  0  0  0  0  0  0
   -0.9082    0.2501   -1.0742 C   0  0  0  0  0  0  0  0  0  0  0  0
   -1.5364    1.3016   -0.9702 O   0  0  0  0  0  0  0  0  0  0  0  0
    1.5051    0.3213   -0.3840 C   0  0  0  0  0  0  0  0  0  0  0  0
    2.5331    0.0236    0.7141 C   0  0  0  0  0  0  0  0  0  0  0  0
    3.9185    0.5579    0.3656 C   0  0  0  0  0  0  0  0  0  0  0  0
    4.9002    0.2518    1.4036 N   0  3  0  0  0  0  0  0  0  0  0  0
    6.2497    0.5867    1.2780 C   0  0  0  0  0  0  0  0  0  0  0  0
    7.1281    0.2639    2.3070 N   0  0  0  0  0  0  0  0  0  0  0  0
    6.7375    1.2360    0.1487 N   0  0  0  0  0  0  0  0  0  0  0  0
   -0.7323   -2.1024    0.4149 H   0  0  0  0  0  0  0  0  0  0  0  0
   -0.2035    0.1321    0.9522 H   0  0  0  0  0  0  0  0  0  0  0  0
    1.4509    1.4046   -0.5458 H   0  0  0  0  0  0  0  0  0  0  0  0
    1.8470   -0.1163   -1.3312 H   0  0  0  0  0  0  0  0  0  0  0  0
    2.1980    0.4645    1.6606 H   0  0  0  0  0  0  0  0  0  0  0  0
    2.6071   -1.0595    0.8649 H   0  0  0  0  0  0  0  0  0  0  0  0
    4.2698    0.0934   -0.5609 H   0  0  0  0  0  0  0  0  0  0  0  0
    3.8958    1.6433    0.2285 H   0  0  0  0  0  0  0  0  0  0  0  0
    4.6020   -0.2228    2.2539 H   0  0  0  0  0  0  0  0  0  0  0  0
    8.1172    0.4940    2.2469 H   0  0  0  0  0  0  0  0  0  0  0  0
    6.8049   -0.2110    3.1464 H   0  0  0  0  0  0  0  0  0  0  0  0
    7.7193    1.4821    0.0523 H   0  0  0  0  0  0  0  0  0  0  0  0
    6.1186    1.4841   -0.6196 H   0  0  0  0  0  0  0  0  0  0  0  0
   -1.0679   -0.6720   -2.0993 N   0  0  0  0  0  0  0  0  0  0  0  0
   -2.0107   -0.4917   -3.1791 C   0  0  2  0  0  0  0  0  0  0  0  0
   -2.5107   -1.8669   -3.6014 C   0  0  0  0  0  0  0  0  0  0  0  0
   -1.8059   -2.8737   -3.5763 O   0  0  0  0  0  0  0  0  0  0  0  0
   -1.3757    0.2395   -4.3517 C   0  0  0  0  0  0  0  0  0  0  0  0
   -0.4808   -1.5005   -2.1201 H   0  0  0  0  0  0  0  0  0  0  0  0
   -2.8449    0.0930   -2.7764 H   0  0  0  0  0  0  0  0  0  0  0  0
   -0.5378   -0.3312   -4.7685 H   0  0  0  0  0  0  0  0  0  0  0  0
   -2.0993    0.4006   -5.1577 H   0  0  0  0  0  0  0  0  0  0  0  0
   -0.9901    1.2160   -4.0394 H   0  0  0  0  0  0  0  0  0  0  0  0
   -3.8233   -1.8297   -4.0505 N   0  0  0  0  0  0  0  0  0  0  0  0
   -4.5112   -2.9990   -4.5460 C   0  0  0  0  0  0  0  0  0  0  0  0
   -4.3448   -0.9596   -3.9985 H   0  0  0  0  0  0  0  0  0  0  0  0
   -4.3902   -3.0612   -5.6375 H   0  0  0  0  0  0  0  0  0  0  0  0
   -4.0869   -3.8996   -4.0782 H   0  0  0  0  0  0  0  0  0  0  0  0
   -5.5808   -2.9270   -4.2994 H   0  0  0  0  0  0  0  0  0  0  0  0
  1  3  1  0  0  0  0
  1  7  1  0  0  0  0
  1  2  2  0  0  0  0
 42 43  1  0  0  0  0
 43 51  1  0  0  0  0
 43 44  2  0  0  0  0
  8  9  1  0  0  0  0
  9 17  1  0  0  0  0
  9 10  2  0  0  0  0
 18 19  1  0  0  0  0
 19 41  1  0  0  0  0
 19 20  2  0  0  0  0
 25 26  1  0  0  0  0
 25 27  1  0  0  0  0
 24 25  2  0  0  0  0
 42 45  1  0  0  0  0
  8 11  1  0  0  0  0
 51 52  1  0  0  0  0
 21 22  1  0  0  0  0
 22 23  1  0  0  0  0
 18 21  1  0  0  0  0
 23 24  1  0  0  0  0
 41 42  1  0  0  0  0
  7  8  1  0  0  0  0
 17 18  1  0  0  0  0
  3  4  1  0  0  0  0
  3  5  1  0  0  0  0
  3  6  1  0  0  0  0
 45 48  1  0  0  0  0
 45 49  1  0  0  0  0
 45 50  1  0  0  0  0
 11 14  1  0  0  0  0
 11 15  1  0  0  0  0
 11 16  1  0  0  0  0
 52 54  1  0  0  0  0
 52 55  1  0  0  0  0
 52 56  1  0  0  0  0
 22 32  1  0  0  0  0
 22 33  1  0  0  0  0
 21 30  1  0  0  0  0
 21 31  1  0  0  0  0
 23 34  1  0  0  0  0
 23 35  1  0  0  0  0
 42 47  1  0  0  0  0
  8 13  1  0  0  0  0
 18 29  1  0  0  0  0
 26 37  1  0  0  0  0
 26 38  1  0  0  0  0
 27 39  1  0  0  0  0
 27 40  1  0  0  0  0
 51 53  1  0  0  0  0
  7 12  1  0  0  0  0
 41 46  1  0  0  0  0
 17 28  1  0  0  0  0
 24 36  1  0  0  0  0
M  CHG  1  24   1
M  END
$$$$

  -OEChem-05262214473D

 56 55  0     1  0  0  0  0  0999 V2000
    0.7735   -5.8042   -2.0022 C   0  0  0  0  0  0  0  0  0  0  0  0
   -0.2086   -6.3825   -1.5519 O   0  0  0  0  0  0  0  0  0  0  0  0
    1.4751   -6.3646   -3.1946 C   0  0  0  0  0  0  0  0  0  0  0  0
    2.2765   -7.0687   -2.9186 H   0  0  0  0  0  0  0  0  0  0  0  0
    0.7988   -6.9360   -3.8504 H   0  0  0  0  0  0  0  0  0  0  0  0
    1.9556   -5.6216   -3.8511 H   0  0  0  0  0  0  0  0  0  0  0  0
    1.3322   -4.6359   -1.5106 N   0  0  0  0  0  0  0  0  0  0  0  0
    0.8124   -3.9290   -0.3698 C   0  0  2  0  0  0  0  0  0  0  0  0
    1.0666   -2.4424   -0.5818 C   0  0  0  0  0  0  0  0  0  0  0  0
    2.0598   -2.0076   -1.1610 O   0  0  0  0  0  0  0  0  0  0  0  0
    1.4560   -4.4118    0.9207 C   0  0  0  0  0  0  0  0  0  0  0  0
    2.1528   -4.2578   -1.9805 H   0  0  0  0  0  0  0  0  0  0  0  0
   -0.2667   -4.1160   -0.3467 H   0  0  0  0  0  0  0  0  0  0  0  0
    2.5374   -4.2329    0.9160 H   0  0  0  0  0  0  0  0  0  0  0  0
    1.0390   -3.8932    1.7903 H   0  0  0  0  0  0  0  0  0  0  0  0
    1.2976   -5.4871    1.0566 H   0  0  0  0  0  0  0  0  0  0  0  0
    0.0755   -1.6529   -0.0105 N   0  0  0  0  0  0  0  0  0  0  0  0
    0.1113   -0.2132   -0.0391 C   0  0  2  0  0  0  0  0  0  0  0  0
   -0.9082    0.2501   -1.0742 C   0  0  0  0  0  0  0  0  0  0  0  0
   -1.3373    1.4011   -1.1218 O   0  0  0  0  0  0  0  0  0  0  0  0
    1.5051    0.3213   -0.3840 C   0  0  0  0  0  0  0  0  0  0  0  0
    2.5331    0.0236    0.7141 C   0  0  0  0  0  0  0  0  0  0  0  0
    3.9185    0.5579    0.3656 C   0  0  0  0  0  0  0  0  0  0  0  0
    4.9002    0.2518    1.4036 N   0  3  0  0  0  0  0  0  0  0  0  0
    6.2497    0.5867    1.2780 C   0  0  0  0  0  0  0  0  0  0  0  0
    7.1281    0.2639    2.3070 N   0  0  0  0  0  0  0  0  0  0  0  0
    6.7375    1.2360    0.1487 N   0  0  0  0  0  0  0  0  0  0  0  0
   -0.7323   -2.1024    0.4149 H   0  0  0  0  0  0  0  0  0  0  0  0
   -0.2035    0.1321    0.9522 H   0  0  0  0  0  0  0  0  0  0  0  0
    1.4509    1.4046   -0.5458 H   0  0  0  0  0  0  0  0  0  0  0  0
    1.8470   -0.1163   -1.3312 H   0  0  0  0  0  0  0  0  0  0  0  0
    2.1980    0.4645    1.6606 H   0  0  0  0  0  0  0  0  0  0  0  0
    2.6071   -1.0595    0.8649 H   0  0  0  0  0  0  0  0  0  0  0  0
    4.2698    0.0934   -0.5609 H   0  0  0  0  0  0  0  0  0  0  0  0
    3.8958    1.6433    0.2285 H   0  0  0  0  0  0  0  0  0  0  0  0
    4.6020   -0.2228    2.2539 H   0  0  0  0  0  0  0  0  0  0  0  0
    8.1172    0.4940    2.2469 H   0  0  0  0  0  0  0  0  0  0  0  0
    6.8049   -0.2110    3.1464 H   0  0  0  0  0  0  0  0  0  0  0  0
    7.7193    1.4821    0.0523 H   0  0  0  0  0  0  0  0  0  0  0  0
    6.1186    1.4841   -0.6196 H   0  0  0  0  0  0  0  0  0  0  0  0
   -1.3169   -0.7845   -1.9043 N   0  0  0  0  0  0  0  0  0  0  0  0
   -2.3131   -0.6169   -2.9373 C   0  0  2  0  0  0  0  0  0  0  0  0
   -3.0755   -1.9284   -3.0726 C   0  0  0  0  0  0  0  0  0  0  0  0
   -2.5515   -3.0286   -2.9111 O   0  0  0  0  0  0  0  0  0  0  0  0
   -1.6771   -0.2189   -4.2601 C   0  0  0  0  0  0  0  0  0  0  0  0
   -0.8827   -1.6981   -1.8127 H   0  0  0  0  0  0  0  0  0  0  0  0
   -2.9951    0.1689   -2.5945 H   0  0  0  0  0  0  0  0  0  0  0  0
   -0.9905   -0.9941   -4.6194 H   0  0  0  0  0  0  0  0  0  0  0  0
   -2.4357   -0.0645   -5.0345 H   0  0  0  0  0  0  0  0  0  0  0  0
   -1.1046    0.7088   -4.1537 H   0  0  0  0  0  0  0  0  0  0  0  0
   -4.3994   -1.7272   -3.4372 N   0  0  0  0  0  0  0  0  0  0  0  0
   -5.3183   -2.8170   -3.6695 C   0  0  0  0  0  0  0  0  0  0  0  0
   -4.7593   -0.7801   -3.5099 H   0  0  0  0  0  0  0  0  0  0  0  0
   -5.3127   -3.0806   -4.7375 H   0  0  0  0  0  0  0  0  0  0  0  0
   -5.0099   -3.6896   -3.0750 H   0  0  0  0  0  0  0  0  0  0  0  0
   -6.3324   -2.5110   -3.3729 H   0  0  0  0  0  0  0  0  0  0  0  0
  1  3  1  0  0  0  0
  1  7  1  0  0  0  0
  1  2  2  0  0  0  0
 42 43  1  0  0  0  0
 43 51  1  0  0  0  0
 43 44  2  0  0  0  0
  8  9  1  0  0  0  0
  9 17  1  0  0  0  0
  9 10  2  0  0  0  0
 18 19  1  0  0  0  0
 19 41  1  0  0  0  0
 19 20  2  0  0  0  0
 25 26  1  0  0  0  0
 25 27  1  0  0  0  0
 24 25  2  0  0  0  0
 42 45  1  0  0  0  0
  8 11  1  0  0  0  0
 51 52  1  0  0  0  0
 21 22  1  0  0  0  0
 22 23  1  0  0  0  0
 18 21  1  0  0  0  0
 23 24  1  0  0  0  0
 41 42  1  0  0  0  0
  7  8  1  0  0  0  0
 17 18  1  0  0  0  0
  3  4  1  0  0  0  0
  3  5  1  0  0  0  0
  3  6  1  0  0  0  0
 45 48  1  0  0  0  0
 45 49  1  0  0  0  0
 45 50  1  0  0  0  0
 11 14  1  0  0  0  0
 11 15  1  0  0  0  0
 11 16  1  0  0  0  0
 52 54  1  0  0  0  0
 52 55  1  0  0  0  0
 52 56  1  0  0  0  0
 22 32  1  0  0  0  0
 22 33  1  0  0  0  0
 21 30  1  0  0  0  0
 21 31  1  0  0  0  0
 23 34  1  0  0  0  0
 23 35  1  0  0  0  0
 42 47  1  0  0  0  0
  8 13  1  0  0  0  0
 18 29  1  0  0  0  0
 26 37  1  0  0  0  0
 26 38  1  0  0  0  0
 27 39  1  0  0  0  0
 27 40  1  0  0  0  0
 51 53  1  0  0  0  0
  7 12  1  0  0  0  0
 41 46  1  0  0  0  0
 17 28  1  0  0  0  0
 24 36  1  0  0  0  0
M  CHG  1  24   1
M  END
$$$$

  -OEChem-05262214473D

 56 55  0     1  0  0  0  0  0999 V2000
    0.7735   -5.8042   -2.0022 C   0  0  0  0  0  0  0  0  0  0  0  0
   -0.2086   -6.3825   -1.5519 O   0  0  0  0  0  0  0  0  0  0  0  0
    1.4751   -6.3646   -3.1946 C   0  0  0  0  0  0  0  0  0  0  0  0
    2.2765   -7.0687   -2.9186 H   0  0  0  0  0  0  0  0  0  0  0  0
    0.7988   -6.9360   -3.8504 H   0  0  0  0  0  0  0  0  0  0  0  0
    1.9556   -5.6216   -3.8511 H   0  0  0  0  0  0  0  0  0  0  0  0
    1.3322   -4.6359   -1.5106 N   0  0  0  0  0  0  0  0  0  0  0  0
    0.8124   -3.9290   -0.3698 C   0  0  2  0  0  0  0  0  0  0  0  0
    1.0666   -2.4424   -0.5818 C   0  0  0  0  0  0  0  0  0  0  0  0
    2.0598   -2.0076   -1.1610 O   0  0  0  0  0  0  0  0  0  0  0  0
    1.4560   -4.4118    0.9207 C   0  0  0  0  0  0  0  0  0  0  0  0
    2.1528   -4.2578   -1.9805 H   0  0  0  0  0  0  0  0  0  0  0  0
   -0.2667   -4.1160   -0.3467 H   0  0  0  0  0  0  0  0  0  0  0  0
    2.5374   -4.2329    0.9160 H   0  0  0  0  0  0  0  0  0  0  0  0
    1.0390   -3.8932    1.7903 H   0  0  0  0  0  0  0  0  0  0  0  0
    1.2976   -5.4871    1.0566 H   0  0  0  0  0  0  0  0  0  0  0  0
    0.0755   -1.6529   -0.0105 N   0  0  0  0  0  0  0  0  0  0  0  0
    0.1113   -0.2132   -0.0391 C   0  0  2  0  0  0  0  0  0  0  0  0
   -0.9082    0.2501   -1.0742 C   0  0  0  0  0  0  0  0  0  0  0  0
   -1.1395    1.4359   -1.3011 O   0  0  0  0  0  0  0  0  0  0  0  0
    1.5051    0.3213   -0.3840 C   0  0  0  0  0  0  0  0  0  0  0  0
    2.5331    0.0236    0.7141 C   0  0  0  0  0  0  0  0  0  0  0  0
    3.9185    0.5579    0.3656 C   0  0  0  0  0  0  0  0  0  0  0  0
    4.9002    0.2518    1.4036 N   0  3  0  0  0  0  0  0  0  0  0  0
    6.2497    0.5867    1.2780 C   0  0  0  0  0  0  0  0  0  0  0  0
    7.1281    0.2639    2.3070 N   0  0  0  0  0  0  0  0  0  0  0  0
    6.7375    1.2360    0.1487 N   0  0  0  0  0  0  0  0  0  0  0  0
   -0.7323   -2.1024    0.4149 H   0  0  0  0  0  0  0  0  0  0  0  0
   -0.2035    0.1321    0.9522 H   0  0  0  0  0  0  0  0  0  0  0  0
    1.4509    1.4046   -0.5458 H   0  0  0  0  0  0  0  0  0  0  0  0
    1.8470   -0.1163   -1.3312 H   0  0  0  0  0  0  0  0  0  0  0  0
    2.1980    0.4645    1.6606 H   0  0  0  0  0  0  0  0  0  0  0  0
    2.6071   -1.0595    0.8649 H   0  0  0  0  0  0  0  0  0  0  0  0
    4.2698    0.0934   -0.5609 H   0  0  0  0  0  0  0  0  0  0  0  0
    3.8958    1.6433    0.2285 H   0  0  0  0  0  0  0  0  0  0  0  0
    4.6020   -0.2228    2.2539 H   0  0  0  0  0  0  0  0  0  0  0  0
    8.1172    0.4940    2.2469 H   0  0  0  0  0  0  0  0  0  0  0  0
    6.8049   -0.2110    3.1464 H   0  0  0  0  0  0  0  0  0  0  0  0
    7.7193    1.4821    0.0523 H   0  0  0  0  0  0  0  0  0  0  0  0
    6.1186    1.4841   -0.6196 H   0  0  0  0  0  0  0  0  0  0  0  0
   -1.5619   -0.8156   -1.6770 N   0  0  0  0  0  0  0  0  0  0  0  0
   -2.6083   -0.6428   -2.6582 C   0  0  2  0  0  0  0  0  0  0  0  0
   -3.5903   -1.7970   -2.5067 C   0  0  0  0  0  0  0  0  0  0  0  0
   -3.2467   -2.9321   -2.1832 O   0  0  0  0  0  0  0  0  0  0  0  0
   -2.0415   -0.5929   -4.0685 C   0  0  0  0  0  0  0  0  0  0  0  0
   -1.2814   -1.7651   -1.4499 H   0  0  0  0  0  0  0  0  0  0  0  0
   -3.1125    0.3001   -2.4201 H   0  0  0  0  0  0  0  0  0  0  0  0
   -1.5325   -1.5292   -4.3250 H   0  0  0  0  0  0  0  0  0  0  0  0
   -2.8326   -0.4334   -4.8086 H   0  0  0  0  0  0  0  0  0  0  0  0
   -1.3132    0.2192   -4.1673 H   0  0  0  0  0  0  0  0  0  0  0  0
   -4.8896   -1.4209   -2.8172 N   0  0  0  0  0  0  0  0  0  0  0  0
   -5.9970   -2.3477   -2.7910 C   0  0  0  0  0  0  0  0  0  0  0  0
   -5.0898   -0.4494   -3.0364 H   0  0  0  0  0  0  0  0  0  0  0  0
   -6.1365   -2.7815   -3.7922 H   0  0  0  0  0  0  0  0  0  0  0  0
   -5.7857   -3.1509   -2.0697 H   0  0  0  0  0  0  0  0  0  0  0  0
   -6.9124   -1.8168   -2.4908 H   0  0  0  0  0  0  0  0  0  0  0  0
  1  3  1  0  0  0  0
  1  7  1  0  0  0  0
  1  2  2  0  0  0  0
 42 43  1  0  0  0  0
 43 51  1  0  0  0  0
 43 44  2  0  0  0  0
  8  9  1  0  0  0  0
  9 17  1  0  0  0  0
  9 10  2  0  0  0  0
 18 19  1  0  0  0  0
 19 41  1  0  0  0  0
 19 20  2  0  0  0  0
 25 26  1  0  0  0  0
 25 27  1  0  0  0  0
 24 25  2  0  0  0  0
 42 45  1  0  0  0  0
  8 11  1  0  0  0  0
 51 52  1  0  0  0  0
 21 22  1  0  0  0  0
 22 23  1  0  0  0  0
 18 21  1  0  0  0  0
 23 24  1  0  0  0  0
 41 42  1  0  0  0  0
  7  8  1  0  0  0  0
 17 18  1  0  0  0  0
  3  4  1  0  0  0  0
  3  5  1  0  0  0  0
  3  6  1  0  0  0  0
 45 48  1  0  0  0  0
 45 49  1  0  0  0  0
 45 50  1  0  0  0  0
 11 14  1  0  0  0  0
 11 15  1  0  0  0  0
 11 16  1  0  0  0  0
 52 54  1  0  0  0  0
 52 55  1  0  0  0  0
 52 56  1  0  0  0  0
 22 32  1  0  0  0  0
 22 33  1  0  0  0  0
 21 30  1  0  0  0  0
 21 31  1  0  0  0  0
 23 34  1  0  0  0  0
 23 35  1  0  0  0  0
 42 47  1  0  0  0  0
  8 13  1  0  0  0  0
 18 29  1  0  0  0  0
 26 37  1  0  0  0  0
 26 38  1  0  0  0  0
 27 39  1  0  0  0  0
 27 40  1  0  0  0  0
 51 53  1  0  0  0  0
  7 12  1  0  0  0  0
 41 46  1  0  0  0  0
 17 28  1  0  0  0  0
 24 36  1  0  0  0  0
M  CHG  1  24   1
M  END
$$$$

  -OEChem-05262214473D

 56 55  0     1  0  0  0  0  0999 V2000
    0.7735   -5.8042   -2.0022 C   0  0  0  0  0  0  0  0  0  0  0  0
   -0.2086   -6.3825   -1.5519 O   0  0  0  0  0  0  0  0  0  0  0  0
    1.4751   -6.3646   -3.1946 C   0  0  0  0  0  0  0  0  0  0  0  0
    2.2765   -7.0687   -2.9186 H   0  0  0  0  0  0  0  0  0  0  0  0
    0.7988   -6.9360   -3.8504 H   0  0  0  0  0  0  0  0  0  0  0  0
    1.9556   -5.6216   -3.8511 H   0  0  0  0  0  0  0  0  0  0  0  0
    1.3322   -4.6359   -1.5106 N   0  0  0  0  0  0  0  0  0  0  0  0
    0.8124   -3.9290   -0.3698 C   0  0  2  0  0  0  0  0  0  0  0  0
    1.0666   -2.4424   -0.5818 C   0  0  0  0  0  0  0  0  0  0  0  0
    2.0598   -2.0076   -1.1610 O   0  0  0  0  0  0  0  0  0  0  0  0
    1.4560   -4.4118    0.9207 C   0  0  0  0  0  0  0  0  0  0  0  0
    2.1528   -4.2578   -1.9805 H   0  0  0  0  0  0  0  0  0  0  0  0
   -0.2667   -4.1160   -0.3467 H   0  0  0  0  0  0  0  0  0  0  0  0
    2.5374   -4.2329    0.9160 H   0  0  0  0  0  0  0  0  0  0  0  0
    1.0390   -3.8932    1.7903 H   0  0  0  0  0  0  0  0  0  0  0  0
    1.2976   -5.4871    1.0566 H   0  0  0  0  0  0  0  0  0  0  0  0
    0.0755   -1.6529   -0.0105 N   0  0  0  0  0  0  0  0  0  0  0  0
    0.1113   -0.2132   -0.0391 C   0  0  2  0  0  0  0  0  0  0  0  0
   -0.9082    0.2501   -1.0742 C   0  0  0  0  0  0  0  0  0  0  0  0
   -0.9563    1.4038   -1.4959 O   0  0  0  0  0  0  0  0  0  0  0  0
    1.5051    0.3213   -0.3840 C   0  0  0  0  0  0  0  0  0  0  0  0
    2.5331    0.0236    0.7141 C   0  0  0  0  0  0  0  0  0  0  0  0
    3.9185    0.5579    0.3656 C   0  0  0  0  0  0  0  0  0  0  0  0
    4.9002    0.2518    1.4036 N   0  3  0  0  0  0  0  0  0  0  0  0
    6.2497    0.5867    1.2780 C   0  0  0  0  0  0  0  0  0  0  0  0
    7.1281    0.2639    2.3070 N   0  0  0  0  0  0  0  0  0  0  0  0
    6.7375    1.2360    0.1487 N   0  0  0  0  0  0  0  0  0  0  0  0
   -0.7323   -2.1024    0.4149 H   0  0  0  0  0  0  0  0  0  0  0  0
   -0.2035    0.1321    0.9522 H   0  0  0  0  0  0  0  0  0  0  0  0
    1.4509    1.4046   -0.5458 H   0  0  0  0  0  0  0  0  0  0  0  0
    1.8470   -0.1163   -1.3312 H   0  0  0  0  0  0  0  0  0  0  0  0
    2.1980    0.4645    1.6606 H   0  0  0  0  0  0  0  0  0  0  0  0
    2.6071   -1.0595    0.8649 H   0  0  0  0  0  0  0  0  0  0  0  0
    4.2698    0.0934   -0.5609 H   0  0  0  0  0  0  0  0  0  0  0  0
    3.8958    1.6433    0.2285 H   0  0  0  0  0  0  0  0  0  0  0  0
    4.6020   -0.2228    2.2539 H   0  0  0  0  0  0  0  0  0  0  0  0
    8.1172    0.4940    2.2469 H   0  0  0  0  0  0  0  0  0  0  0  0
    6.8049   -0.2110    3.1464 H   0  0  0  0  0  0  0  0  0  0  0  0
    7.7193    1.4821    0.0523 H   0  0  0  0  0  0  0  0  0  0  0  0
    6.1186    1.4841   -0.6196 H   0  0  0  0  0  0  0  0  0  0  0  0
   -1.7862   -0.7634   -1.4327 N   0  0  0  0  0  0  0  0  0  0  0  0
   -2.8759   -0.5678   -2.3609 C   0  0  2  0  0  0  0  0  0  0  0  0
   -4.0200   -1.4818   -1.9423 C   0  0  0  0  0  0  0  0  0  0  0  0
   -3.8440   -2.5908   -1.4421 O   0  0  0  0  0  0  0  0  0  0  0  0
   -2.4442   -0.8570   -3.7901 C   0  0  0  0  0  0  0  0  0  0  0  0
   -1.6498   -1.6970   -1.0566 H   0  0  0  0  0  0  0  0  0  0  0  0
   -3.1891    0.4776   -2.2652 H   0  0  0  0  0  0  0  0  0  0  0  0
   -2.1268   -1.8998   -3.9054 H   0  0  0  0  0  0  0  0  0  0  0  0
   -3.2630   -0.6808   -4.4954 H   0  0  0  0  0  0  0  0  0  0  0  0
   -1.6018   -0.2194   -4.0794 H   0  0  0  0  0  0  0  0  0  0  0  0
   -5.2606   -0.9316   -2.2328 N   0  0  0  0  0  0  0  0  0  0  0  0
   -6.5010   -1.6232   -1.9702 C   0  0  0  0  0  0  0  0  0  0  0  0
   -5.3136    0.0100   -2.6102 H   0  0  0  0  0  0  0  0  0  0  0  0
   -6.8053   -2.1843   -2.8661 H   0  0  0  0  0  0  0  0  0  0  0  0
   -6.3614   -2.3204   -1.1309 H   0  0  0  0  0  0  0  0  0  0  0  0
   -7.2813   -0.8917   -1.7133 H   0  0  0  0  0  0  0  0  0  0  0  0
  1  3  1  0  0  0  0
  1  7  1  0  0  0  0
  1  2  2  0  0  0  0
 42 43  1  0  0  0  0
 43 51  1  0  0  0  0
 43 44  2  0  0  0  0
  8  9  1  0  0  0  0
  9 17  1  0  0  0  0
  9 10  2  0  0  0  0
 18 19  1  0  0  0  0
 19 41  1  0  0  0  0
 19 20  2  0  0  0  0
 25 26  1  0  0  0  0
 25 27  1  0  0  0  0
 24 25  2  0  0  0  0
 42 45  1  0  0  0  0
  8 11  1  0  0  0  0
 51 52  1  0  0  0  0
 21 22  1  0  0  0  0
 22 23  1  0  0  0  0
 18 21  1  0  0  0  0
 23 24  1  0  0  0  0
 41 42  1  0  0  0  0
  7  8  1  0  0  0  0
 17 18  1  0  0  0  0
  3  4  1  0  0  0  0
  3  5  1  0  0  0  0
  3  6  1  0  0  0  0
 45 48  1  0  0  0  0
 45 49  1  0  0  0  0
 45 50  1  0  0  0  0
 11 14  1  0  0  0  0
 11 15  1  0  0  0  0
 11 16  1  0  0  0  0
 52 54  1  0  0  0  0
 52 55  1  0  0  0  0
 52 56  1  0  0  0  0
 22 32  1  0  0  0  0
 22 33  1  0  0  0  0
 21 30  1  0  0  0  0
 21 31  1  0  0  0  0
 23 34  1  0  0  0  0
 23 35  1  0  0  0  0
 42 47  1  0  0  0  0
  8 13  1  0  0  0  0
 18 29  1  0  0  0  0
 26 37  1  0  0  0  0
 26 38  1  0  0  0  0
 27 39  1  0  0  0  0
 27 40  1  0  0  0  0
 51 53  1  0  0  0  0
  7 12  1  0  0  0  0
 41 46  1  0  0  0  0
 17 28  1  0  0  0  0
 24 36  1  0  0  0  0
M  CHG  1  24   1
M  END
$$$$

  -OEChem-05262214473D

 56 55  0     1  0  0  0  0  0999 V2000
    0.7735   -5.8042   -2.0022 C   0  0  0  0  0  0  0  0  0  0  0  0
   -0.2086   -6.3825   -1.5519 O   0  0  0  0  0  0  0  0  0  0  0  0
    1.4751   -6.3646   -3.1946 C   0  0  0  0  0  0  0  0  0  0  0  0
    2.2765   -7.0687   -2.9186 H   0  0  0  0  0  0  0  0  0  0  0  0
    0.7988   -6.9360   -3.8504 H   0  0  0  0  0  0  0  0  0  0  0  0
    1.9556   -5.6216   -3.8511 H   0  0  0  0  0  0  0  0  0  0  0  0
    1.3322   -4.6359   -1.5106 N   0  0  0  0  0  0  0  0  0  0  0  0
    0.8124   -3.9290   -0.3698 C   0  0  2  0  0  0  0  0  0  0  0  0
    1.0666   -2.4424   -0.5818 C   0  0  0  0  0  0  0  0  0  0  0  0
    2.0598   -2.0076   -1.1610 O   0  0  0  0  0  0  0  0  0  0  0  0
    1.4560   -4.4118    0.9207 C   0  0  0  0  0  0  0  0  0  0  0  0
    2.1528   -4.2578   -1.9805 H   0  0  0  0  0  0  0  0  0  0  0  0
   -0.2667   -4.1160   -0.3467 H   0  0  0  0  0  0  0  0  0  0  0  0
    2.5374   -4.2329    0.9160 H   0  0  0  0  0  0  0  0  0  0  0  0
    1.0390   -3.8932    1.7903 H   0  0  0  0  0  0  0  0  0  0  0  0
    1.2976   -5.4871    1.0566 H   0  0  0  0  0  0  0  0  0  0  0  0
    0.0755   -1.6529   -0.0105 N   0  0  0  0  0  0  0  0  0  0  0  0
    0.1113   -0.2132   -0.0391 C   0  0  2  0  0  0  0  0  0  0  0  0
   -0.9082    0.2501   -1.0742 C   0  0  0  0  0  0  0  0  0  0  0  0
   -0.8004    1.3069   -1.6928 O   0  0  0  0  0  0  0  0  0  0  0  0
    1.5051    0.3213   -0.3840 C   0  0  0  0  0  0  0  0  0  0  0  0
    2.5331    0.0236    0.7141 C   0  0  0  0  0  0  0  0  0  0  0  0
    3.9185    0.5579    0.3656 C   0  0  0  0  0  0  0  0  0  0  0  0
    4.9002    0.2518    1.4036 N   0  3  0  0  0  0  0  0  0  0  0  0
    6.2497    0.5867    1.2780 C   0  0  0  0  0  0  0  0  0  0  0  0
    7.1281    0.2639    2.3070 N   0  0  0  0  0  0  0  0  0  0  0  0
    6.7375    1.2360    0.1487 N   0  0  0  0  0  0  0  0  0  0  0  0
   -0.7323   -2.1024    0.4149 H   0  0  0  0  0  0  0  0  0  0  0  0
   -0.2035    0.1321    0.9522 H   0  0  0  0  0  0  0  0  0  0  0  0
    1.4509    1.4046   -0.5458 H   0  0  0  0  0  0  0  0  0  0  0  0
    1.8470   -0.1163   -1.3312 H   0  0  0  0  0  0  0  0  0  0  0  0
    2.1980    0.4645    1.6606 H   0  0  0  0  0  0  0  0  0  0  0  0
    2.6071   -1.0595    0.8649 H   0  0  0  0  0  0  0  0  0  0  0  0
    4.2698    0.0934   -0.5609 H   0  0  0  0  0  0  0  0  0  0  0  0
    3.8958    1.6433    0.2285 H   0  0  0  0  0  0  0  0  0  0  0  0
    4.6020   -0.2228    2.2539 H   0  0  0  0  0  0  0  0  0  0  0  0
    8.1172    0.4940    2.2469 H   0  0  0  0  0  0  0  0  0  0  0  0
    6.8049   -0.2110    3.1464 H   0  0  0  0  0  0  0  0  0  0  0  0
    7.7193    1.4821    0.0523 H   0  0  0  0  0  0  0  0  0  0  0  0
    6.1186    1.4841   -0.6196 H   0  0  0  0  0  0  0  0  0  0  0  0
   -1.9744   -0.6312   -1.1882 N   0  0  0  0  0  0  0  0  0  0  0  0
   -3.0979   -0.3968   -2.0657 C   0  0  2  0  0  0  0  0  0  0  0  0
   -4.3353   -1.0041   -1.4180 C   0  0  0  0  0  0  0  0  0  0  0  0
   -4.3026   -2.0279   -0.7384 O   0  0  0  0  0  0  0  0  0  0  0  0
   -2.8576   -0.9932   -3.4438 C   0  0  0  0  0  0  0  0  0  0  0  0
   -1.9627   -1.4984   -0.6595 H   0  0  0  0  0  0  0  0  0  0  0  0
   -3.2198    0.6893   -2.1402 H   0  0  0  0  0  0  0  0  0  0  0  0
   -2.7331   -2.0809   -3.3893 H   0  0  0  0  0  0  0  0  0  0  0  0
   -3.6977   -0.7900   -4.1161 H   0  0  0  0  0  0  0  0  0  0  0  0
   -1.9507   -0.5771   -3.8958 H   0  0  0  0  0  0  0  0  0  0  0  0
   -5.4870   -0.2926   -1.7238 N   0  0  0  0  0  0  0  0  0  0  0  0
   -6.7961   -0.6928   -1.2632 C   0  0  0  0  0  0  0  0  0  0  0  0
   -5.4157    0.5668   -2.2605 H   0  0  0  0  0  0  0  0  0  0  0  0
   -7.2736   -1.3298   -2.0223 H   0  0  0  0  0  0  0  0  0  0  0  0
   -6.6978   -1.2546   -0.3226 H   0  0  0  0  0  0  0  0  0  0  0  0
   -7.4140    0.2012   -1.0934 H   0  0  0  0  0  0  0  0  0  0  0  0
  1  3  1  0  0  0  0
  1  7  1  0  0  0  0
  1  2  2  0  0  0  0
 42 43  1  0  0  0  0
 43 51  1  0  0  0  0
 43 44  2  0  0  0  0
  8  9  1  0  0  0  0
  9 17  1  0  0  0  0
  9 10  2  0  0  0  0
 18 19  1  0  0  0  0
 19 41  1  0  0  0  0
 19 20  2  0  0  0  0
 25 26  1  0  0  0  0
 25 27  1  0  0  0  0
 24 25  2  0  0  0  0
 42 45  1  0  0  0  0
  8 11  1  0  0  0  0
 51 52  1  0  0  0  0
 21 22  1  0  0  0  0
 22 23  1  0  0  0  0
 18 21  1  0  0  0  0
 23 24  1  0  0  0  0
 41 42  1  0  0  0  0
  7  8  1  0  0  0  0
 17 18  1  0  0  0  0
  3  4  1  0  0  0  0
  3  5  1  0  0  0  0
  3  6  1  0  0  0  0
 45 48  1  0  0  0  0
 45 49  1  0  0  0  0
 45 50  1  0  0  0  0
 11 14  1  0  0  0  0
 11 15  1  0  0  0  0
 11 16  1  0  0  0  0
 52 54  1  0  0  0  0
 52 55  1  0  0  0  0
 52 56  1  0  0  0  0
 22 32  1  0  0  0  0
 22 33  1  0  0  0  0
 21 30  1  0  0  0  0
 21 31  1  0  0  0  0
 23 34  1  0  0  0  0
 23 35  1  0  0  0  0
 42 47  1  0  0  0  0
  8 13  1  0  0  0  0
 18 29  1  0  0  0  0
 26 37  1  0  0  0  0
 26 38  1  0  0  0  0
 27 39  1  0  0  0  0
 27 40  1  0  0  0  0
 51 53  1  0  0  0  0
  7 12  1  0  0  0  0
 41 46  1  0  0  0  0
 17 28  1  0  0  0  0
 24 36  1  0  0  0  0
M  CHG  1  24   1
M  END
$$$$

  -OEChem-05262214473D

 56 55  0     1  0  0  0  0  0999 V2000
    0.7735   -5.8042   -2.0022 C   0  0  0  0  0  0  0  0  0  0  0  0
   -0.2086   -6.3825   -1.5519 O   0  0  0  0  0  0  0  0  0  0  0  0
    1.4751   -6.3646   -3.1946 C   0  0  0  0  0  0  0  0  0  0  0  0
    2.2765   -7.0687   -2.9186 H   0  0  0  0  0  0  0  0  0  0  0  0
    0.7988   -6.9360   -3.8504 H   0  0  0  0  0  0  0  0  0  0  0  0
    1.9556   -5.6216   -3.8511 H   0  0  0  0  0  0  0  0  0  0  0  0
    1.3322   -4.6359   -1.5106 N   0  0  0  0  0  0  0  0  0  0  0  0
    0.8124   -3.9290   -0.3698 C   0  0  2  0  0  0  0  0  0  0  0  0
    1.0666   -2.4424   -0.5818 C   0  0  0  0  0  0  0  0  0  0  0  0
    2.0598   -2.0076   -1.1610 O   0  0  0  0  0  0  0  0  0  0  0  0
    1.4560   -4.4118    0.9207 C   0  0  0  0  0  0  0  0  0  0  0  0
    2.1528   -4.2578   -1.9805 H   0  0  0  0  0  0  0  0  0  0  0  0
   -0.2667   -4.1160   -0.3467 H   0  0  0  0  0  0  0  0  0  0  0  0
    2.5374   -4.2329    0.9160 H   0  0  0  0  0  0  0  0  0  0  0  0
    1.0390   -3.8932    1.7903 H   0  0  0  0  0  0  0  0  0  0  0  0
    1.2976   -5.4871    1.0566 H   0  0  0  0  0  0  0  0  0  0  0  0
    0.0755   -1.6529   -0.0105 N   0  0  0  0  0  0  0  0  0  0  0  0
    0.1113   -0.2132   -0.0391 C   0  0  2  0  0  0  0  0  0  0  0  0
   -0.9082    0.2501   -1.0742 C   0  0  0  0  0  0  0  0  0  0  0  0
   -0.6823    1.1518   -1.8786 O   0  0  0  0  0  0  0  0  0  0  0  0
    1.5051    0.3213   -0.3840 C   0  0  0  0  0  0  0  0  0  0  0  0
    2.5331    0.0236    0.7141 C   0  0  0  0  0  0  0  0  0  0  0  0
    3.9185    0.5579    0.3656 C   0  0  0  0  0  0  0  0  0  0  0  0
    4.9002    0.2518    1.4036 N   0  3  0  0  0  0  0  0  0  0  0  0
    6.2497    0.5867    1.2780 C   0  0  0  0  0  0  0  0  0  0  0  0
    7.1281    0.2639    2.3070 N   0  0  0  0  0  0  0  0  0  0  0  0
    6.7375    1.2360    0.1487 N   0  0  0  0  0  0  0  0  0  0  0  0
   -0.7323   -2.1024    0.4149 H   0  0  0  0  0  0  0  0  0  0  0  0
   -0.2035    0.1321    0.9522 H   0  0  0  0  0  0  0  0  0  0  0  0
    1.4509    1.4046   -0.5458 H   0  0  0  0  0  0  0  0  0  0  0  0
    1.8470   -0.1163   -1.3312 H   0  0  0  0  0  0  0  0  0  0  0  0
    2.1980    0.4645    1.6606 H   0  0  0  0  0  0  0  0  0  0  0  0
    2.6071   -1.0595    0.8649 H   0  0  0  0  0  0  0  0  0  0  0  0
    4.2698    0.0934   -0.5609 H   0  0  0  0  0  0  0  0  0  0  0  0
    3.8958    1.6433    0.2285 H   0  0  0  0  0  0  0  0  0  0  0  0
    4.6020   -0.2228    2.2539 H   0  0  0  0  0  0  0  0  0  0  0  0
    8.1172    0.4940    2.2469 H   0  0  0  0  0  0  0  0  0  0  0  0
    6.8049   -0.2110    3.1464 H   0  0  0  0  0  0  0  0  0  0  0  0
    7.7193    1.4821    0.0523 H   0  0  0  0  0  0  0  0  0  0  0  0
    6.1186    1.4841   -0.6196 H   0  0  0  0  0  0  0  0  0  0  0  0
   -2.1137   -0.4282   -0.9600 N   0  0  0  0  0  0  0  0  0  0  0  0
   -3.2591   -0.1416   -1.7927 C   0  0  2  0  0  0  0  0  0  0  0  0
   -4.5147   -0.3967   -0.9693 C   0  0  0  0  0  0  0  0  0  0  0  0
   -4.5915   -1.2819   -0.1199 O   0  0  0  0  0  0  0  0  0  0  0  0
   -3.2536   -0.9922   -3.0533 C   0  0  0  0  0  0  0  0  0  0  0  0
   -2.1989   -1.1830   -0.2856 H   0  0  0  0  0  0  0  0  0  0  0  0
   -3.2024    0.9208   -2.0537 H   0  0  0  0  0  0  0  0  0  0  0  0
   -3.3099   -2.0599   -2.8118 H   0  0  0  0  0  0  0  0  0  0  0  0
   -4.1068   -0.7535   -3.6967 H   0  0  0  0  0  0  0  0  0  0  0  0
   -2.3362   -0.8296   -3.6291 H   0  0  0  0  0  0  0  0  0  0  0  0
   -5.5534    0.4524   -1.3249 N   0  0  0  0  0  0  0  0  0  0  0  0
   -6.8620    0.3801   -0.7180 C   0  0  0  0  0  0  0  0  0  0  0  0
   -5.3889    1.1831   -2.0110 H   0  0  0  0  0  0  0  0  0  0  0  0
   -7.5094   -0.2760   -1.3183 H   0  0  0  0  0  0  0  0  0  0  0  0
   -6.7719   -0.0261    0.3003 H   0  0  0  0  0  0  0  0  0  0  0  0
   -7.3015    1.3874   -0.6733 H   0  0  0  0  0  0  0  0  0  0  0  0
  1  3  1  0  0  0  0
  1  7  1  0  0  0  0
  1  2  2  0  0  0  0
 42 43  1  0  0  0  0
 43 51  1  0  0  0  0
 43 44  2  0  0  0  0
  8  9  1  0  0  0  0
  9 17  1  0  0  0  0
  9 10  2  0  0  0  0
 18 19  1  0  0  0  0
 19 41  1  0  0  0  0
 19 20  2  0  0  0  0
 25 26  1  0  0  0  0
 25 27  1  0  0  0  0
 24 25  2  0  0  0  0
 42 45  1  0  0  0  0
  8 11  1  0  0  0  0
 51 52  1  0  0  0  0
 21 22  1  0  0  0  0
 22 23  1  0  0  0  0
 18 21  1  0  0  0  0
 23 24  1  0  0  0  0
 41 42  1  0  0  0  0
  7  8  1  0  0  0  0
 17 18  1  0  0  0  0
  3  4  1  0  0  0  0
  3  5  1  0  0  0  0
  3  6  1  0  0  0  0
 45 48  1  0  0  0  0
 45 49  1  0  0  0  0
 45 50  1  0  0  0  0
 11 14  1  0  0  0  0
 11 15  1  0  0  0  0
 11 16  1  0  0  0  0
 52 54  1  0  0  0  0
 52 55  1  0  0  0  0
 52 56  1  0  0  0  0
 22 32  1  0  0  0  0
 22 33  1  0  0  0  0
 21 30  1  0  0  0  0
 21 31  1  0  0  0  0
 23 34  1  0  0  0  0
 23 35  1  0  0  0  0
 42 47  1  0  0  0  0
  8 13  1  0  0  0  0
 18 29  1  0  0  0  0
 26 37  1  0  0  0  0
 26 38  1  0  0  0  0
 27 39  1  0  0  0  0
 27 40  1  0  0  0  0
 51 53  1  0  0  0  0
  7 12  1  0  0  0  0
 41 46  1  0  0  0  0
 17 28  1  0  0  0  0
 24 36  1  0  0  0  0
M  CHG  1  24   1
M  END
$$$$

  -OEChem-05262214473D

 56 55  0     1  0  0  0  0  0999 V2000
    0.7735   -5.8042   -2.0022 C   0  0  0  0  0  0  0  0  0  0  0  0
   -0.2086   -6.3825   -1.5519 O   0  0  0  0  0  0  0  0  0  0  0  0
    1.4751   -6.3646   -3.1946 C   0  0  0  0  0  0  0  0  0  0  0  0
    2.2765   -7.0687   -2.9186 H   0  0  0  0  0  0  0  0  0  0  0  0
    0.7988   -6.9360   -3.8504 H   0  0  0  0  0  0  0  0  0  0  0  0
    1.9556   -5.6216   -3.8511 H   0  0  0  0  0  0  0  0  0  0  0  0
    1.3322   -4.6359   -1.5106 N   0  0  0  0  0  0  0  0  0  0  0  0
    0.8124   -3.9290   -0.3698 C   0  0  2  0  0  0  0  0  0  0  0  0
    1.0666   -2.4424   -0.5818 C   0  0  0  0  0  0  0  0  0  0  0  0
    2.0598   -2.0076   -1.1610 O   0  0  0  0  0  0  0  0  0  0  0  0
    1.4560   -4.4118    0.9207 C   0  0  0  0  0  0  0  0  0  0  0  0
    2.1528   -4.2578   -1.9805 H   0  0  0  0  0  0  0  0  0  0  0  0
   -0.2667   -4.1160   -0.3467 H   0  0  0  0  0  0  0  0  0  0  0  0
    2.5374   -4.2329    0.9160 H   0  0  0  0  0  0  0  0  0  0  0  0
    1.0390   -3.8932    1.7903 H   0  0  0  0  0  0  0  0  0  0  0  0
    1.2976   -5.4871    1.0566 H   0  0  0  0  0  0  0  0  0  0  0  0
    0.0755   -1.6529   -0.0105 N   0  0  0  0  0  0  0  0  0  0  0  0
    0.1113   -0.2132   -0.0391 C   0  0  2  0  0  0  0  0  0  0  0  0
   -0.9082    0.2501   -1.0742 C   0  0  0  0  0  0  0  0  0  0  0  0
   -0.6101    0.9491   -2.0404 O   0  0  0  0  0  0  0  0  0  0  0  0
    1.5051    0.3213   -0.3840 C   0  0  0  0  0  0  0  0  0  0  0  0
    2.5331    0.0236    0.7141 C   0  0  0  0  0  0  0  0  0  0  0  0
    3.9185    0.5579    0.3656 C   0  0  0  0  0  0  0  0  0  0  0  0
    4.9002    0.2518    1.4036 N   0  3  0  0  0  0  0  0  0  0  0  0
    6.2497    0.5867    1.2780 C   0  0  0  0  0  0  0  0  0  0  0  0
    7.1281    0.2639    2.3070 N   0  0  0  0  0  0  0  0  0  0  0  0
    6.7375    1.2360    0.1487 N   0  0  0  0  0  0  0  0  0  0  0  0
   -0.7323   -2.1024    0.4149 H   0  0  0  0  0  0  0  0  0  0  0  0
   -0.2035    0.1321    0.9522 H   0  0  0  0  0  0  0  0  0  0  0  0
    1.4509    1.4046   -0.5458 H   0  0  0  0  0  0  0  0  0  0  0  0
    1.8470   -0.1163   -1.3312 H   0  0  0  0  0  0  0  0  0  0  0  0
    2.1980    0.4645    1.6606 H   0  0  0  0  0  0  0  0  0  0  0  0
    2.6071   -1.0595    0.8649 H   0  0  0  0  0  0  0  0  0  0  0  0
    4.2698    0.0934   -0.5609 H   0  0  0  0  0  0  0  0  0  0  0  0
    3.8958    1.6433    0.2285 H   0  0  0  0  0  0  0  0  0  0  0  0
    4.6020   -0.2228    2.2539 H   0  0  0  0  0  0  0  0  0  0  0  0
    8.1172    0.4940    2.2469 H   0  0  0  0  0  0  0  0  0  0  0  0
    6.8049   -0.2110    3.1464 H   0  0  0  0  0  0  0  0  0  0  0  0
    7.7193    1.4821    0.0523 H   0  0  0  0  0  0  0  0  0  0  0  0
    6.1186    1.4841   -0.6196 H   0  0  0  0  0  0  0  0  0  0  0  0
   -2.1947   -0.1682   -0.7638 N   0  0  0  0  0  0  0  0  0  0  0  0
   -3.3485    0.1805   -1.5605 C   0  0  2  0  0  0  0  0  0  0  0  0
   -4.5460    0.2993   -0.6270 C   0  0  0  0  0  0  0  0  0  0  0  0
   -4.6908   -0.4036    0.3711 O   0  0  0  0  0  0  0  0  0  0  0  0
   -3.6053   -0.8541   -2.6451 C   0  0  0  0  0  0  0  0  0  0  0  0
   -2.3422   -0.7721    0.0394 H   0  0  0  0  0  0  0  0  0  0  0  0
   -3.1382    1.1564   -2.0115 H   0  0  0  0  0  0  0  0  0  0  0  0
   -3.8179   -1.8384   -2.2122 H   0  0  0  0  0  0  0  0  0  0  0  0
   -4.4627   -0.5738   -3.2658 H   0  0  0  0  0  0  0  0  0  0  0  0
   -2.7318   -0.9596   -3.2976 H   0  0  0  0  0  0  0  0  0  0  0  0
   -5.4553    1.2527   -1.0633 N   0  0  0  0  0  0  0  0  0  0  0  0
   -6.6944    1.5223   -0.3719 C   0  0  0  0  0  0  0  0  0  0  0  0
   -5.2352    1.8169   -1.8788 H   0  0  0  0  0  0  0  0  0  0  0  0
   -7.4968    0.9051   -0.8021 H   0  0  0  0  0  0  0  0  0  0  0  0
   -6.5786    1.2813    0.6952 H   0  0  0  0  0  0  0  0  0  0  0  0
   -6.9514    2.5862   -0.4816 H   0  0  0  0  0  0  0  0  0  0  0  0
  1  3  1  0  0  0  0
  1  7  1  0  0  0  0
  1  2  2  0  0  0  0
 42 43  1  0  0  0  0
 43 51  1  0  0  0  0
 43 44  2  0  0  0  0
  8  9  1  0  0  0  0
  9 17  1  0  0  0  0
  9 10  2  0  0  0  0
 18 19  1  0  0  0  0
 19 41  1  0  0  0  0
 19 20  2  0  0  0  0
 25 26  1  0  0  0  0
 25 27  1  0  0  0  0
 24 25  2  0  0  0  0
 42 45  1  0  0  0  0
  8 11  1  0  0  0  0
 51 52  1  0  0  0  0
 21 22  1  0  0  0  0
 22 23  1  0  0  0  0
 18 21  1  0  0  0  0
 23 24  1  0  0  0  0
 41 42  1  0  0  0  0
  7  8  1  0  0  0  0
 17 18  1  0  0  0  0
  3  4  1  0  0  0  0
  3  5  1  0  0  0  0
  3  6  1  0  0  0  0
 45 48  1  0  0  0  0
 45 49  1  0  0  0  0
 45 50  1  0  0  0  0
 11 14  1  0  0  0  0
 11 15  1  0  0  0  0
 11 16  1  0  0  0  0
 52 54  1  0  0  0  0
 52 55  1  0  0  0  0
 52 56  1  0  0  0  0
 22 32  1  0  0  0  0
 22 33  1  0  0  0  0
 21 30  1  0  0  0  0
 21 31  1  0  0  0  0
 23 34  1  0  0  0  0
 23 35  1  0  0  0  0
 42 47  1  0  0  0  0
  8 13  1  0  0  0  0
 18 29  1  0  0  0  0
 26 37  1  0  0  0  0
 26 38  1  0  0  0  0
 27 39  1  0  0  0  0
 27 40  1  0  0  0  0
 51 53  1  0  0  0  0
  7 12  1  0  0  0  0
 41 46  1  0  0  0  0
 17 28  1  0  0  0  0
 24 36  1  0  0  0  0
M  CHG  1  24   1
M  END
$$$$

  -OEChem-05262214473D

 56 55  0     1  0  0  0  0  0999 V2000
    0.7735   -5.8042   -2.0022 C   0  0  0  0  0  0  0  0  0  0  0  0
   -0.2086   -6.3825   -1.5519 O   0  0  0  0  0  0  0  0  0  0  0  0
    1.4751   -6.3646   -3.1946 C   0  0  0  0  0  0  0  0  0  0  0  0
    2.2765   -7.0687   -2.9186 H   0  0  0  0  0  0  0  0  0  0  0  0
    0.7988   -6.9360   -3.8504 H   0  0  0  0  0  0  0  0  0  0  0  0
    1.9556   -5.6216   -3.8511 H   0  0  0  0  0  0  0  0  0  0  0  0
    1.3322   -4.6359   -1.5106 N   0  0  0  0  0  0  0  0  0  0  0  0
    0.8124   -3.9290   -0.3698 C   0  0  2  0  0  0  0  0  0  0  0  0
    1.0666   -2.4424   -0.5818 C   0  0  0  0  0  0  0  0  0  0  0  0
    2.0598   -2.0076   -1.1610 O   0  0  0  0  0  0  0  0  0  0  0  0
    1.4560   -4.4118    0.9207 C   0  0  0  0  0  0  0  0  0  0  0  0
    2.1528   -4.2578   -1.9805 H   0  0  0  0  0  0  0  0  0  0  0  0
   -0.2667   -4.1160   -0.3467 H   0  0  0  0  0  0  0  0  0  0  0  0
    2.5374   -4.2329    0.9160 H   0  0  0  0  0  0  0  0  0  0  0  0
    1.0390   -3.8932    1.7903 H   0  0  0  0  0  0  0  0  0  0  0  0
    1.2976   -5.4871    1.0566 H   0  0  0  0  0  0  0  0  0  0  0  0
    0.0755   -1.6529   -0.0105 N   0  0  0  0  0  0  0  0  0  0  0  0
    0.1113   -0.2132   -0.0391 C   0  0  2  0  0  0  0  0  0  0  0  0
   -0.9082    0.2501   -1.0742 C   0  0  0  0  0  0  0  0  0  0  0  0
   -0.5886    0.7127   -2.1674 O   0  0  0  0  0  0  0  0  0  0  0  0
    1.5051    0.3213   -0.3840 C   0  0  0  0  0  0  0  0  0  0  0  0
    2.5331    0.0236    0.7141 C   0  0  0  0  0  0  0  0  0  0  0  0
    3.9185    0.5579    0.3656 C   0  0  0  0  0  0  0  0  0  0  0  0
    4.9002    0.2518    1.4036 N   0  3  0  0  0  0  0  0  0  0  0  0
    6.2497    0.5867    1.2780 C   0  0  0  0  0  0  0  0  0  0  0  0
    7.1281    0.2639    2.3070 N   0  0  0  0  0  0  0  0  0  0  0  0
    6.7375    1.2360    0.1487 N   0  0  0  0  0  0  0  0  0  0  0  0
   -0.7323   -2.1024    0.4149 H   0  0  0  0  0  0  0  0  0  0  0  0
   -0.2035    0.1321    0.9522 H   0  0  0  0  0  0  0  0  0  0  0  0
    1.4509    1.4046   -0.5458 H   0  0  0  0  0  0  0  0  0  0  0  0
    1.8470   -0.1163   -1.3312 H   0  0  0  0  0  0  0  0  0  0  0  0
    2.1980    0.4645    1.6606 H   0  0  0  0  0  0  0  0  0  0  0  0
    2.6071   -1.0595    0.8649 H   0  0  0  0  0  0  0  0  0  0  0  0
    4.2698    0.0934   -0.5609 H   0  0  0  0  0  0  0  0  0  0  0  0
    3.8958    1.6433    0.2285 H   0  0  0  0  0  0  0  0  0  0  0  0
    4.6020   -0.2228    2.2539 H   0  0  0  0  0  0  0  0  0  0  0  0
    8.1172    0.4940    2.2469 H   0  0  0  0  0  0  0  0  0  0  0  0
    6.8049   -0.2110    3.1464 H   0  0  0  0  0  0  0  0  0  0  0  0
    7.7193    1.4821    0.0523 H   0  0  0  0  0  0  0  0  0  0  0  0
    6.1186    1.4841   -0.6196 H   0  0  0  0  0  0  0  0  0  0  0  0
   -2.2119    0.1312   -0.6130 N   0  0  0  0  0  0  0  0  0  0  0  0
   -3.3600    0.5476   -1.3849 C   0  0  2  0  0  0  0  0  0  0  0  0
   -4.4271    1.0362   -0.4143 C   0  0  0  0  0  0  0  0  0  0  0  0
   -4.5939    0.5473    0.7011 O   0  0  0  0  0  0  0  0  0  0  0  0
   -3.8886   -0.5882   -2.2470 C   0  0  0  0  0  0  0  0  0  0  0  0
   -2.3829   -0.2937    0.2936 H   0  0  0  0  0  0  0  0  0  0  0  0
   -3.0314    1.3799   -2.0167 H   0  0  0  0  0  0  0  0  0  0  0  0
   -4.2226   -1.4314   -1.6314 H   0  0  0  0  0  0  0  0  0  0  0  0
   -4.7409   -0.2631   -2.8526 H   0  0  0  0  0  0  0  0  0  0  0  0
   -3.1108   -0.9583   -2.9237 H   0  0  0  0  0  0  0  0  0  0  0  0
   -5.1994    2.0538   -0.9568 N   0  0  0  0  0  0  0  0  0  0  0  0
   -6.3046    2.6561   -0.2484 C   0  0  0  0  0  0  0  0  0  0  0  0
   -4.9649    2.4249   -1.8728 H   0  0  0  0  0  0  0  0  0  0  0  0
   -7.2365    2.1330   -0.5089 H   0  0  0  0  0  0  0  0  0  0  0  0
   -6.1313    2.5785    0.8351 H   0  0  0  0  0  0  0  0  0  0  0  0
   -6.3875    3.7158   -0.5315 H   0  0  0  0  0  0  0  0  0  0  0  0
  1  3  1  0  0  0  0
  1  7  1  0  0  0  0
  1  2  2  0  0  0  0
 42 43  1  0  0  0  0
 43 51  1  0  0  0  0
 43 44  2  0  0  0  0
  8  9  1  0  0  0  0
  9 17  1  0  0  0  0
  9 10  2  0  0  0  0
 18 19  1  0  0  0  0
 19 41  1  0  0  0  0
 19 20  2  0  0  0  0
 25 26  1  0  0  0  0
 25 27  1  0  0  0  0
 24 25  2  0  0  0  0
 42 45  1  0  0  0  0
  8 11  1  0  0  0  0
 51 52  1  0  0  0  0
 21 22  1  0  0  0  0
 22 23  1  0  0  0  0
 18 21  1  0  0  0  0
 23 24  1  0  0  0  0
 41 42  1  0  0  0  0
  7  8  1  0  0  0  0
 17 18  1  0  0  0  0
  3  4  1  0  0  0  0
  3  5  1  0  0  0  0
  3  6  1  0  0  0  0
 45 48  1  0  0  0  0
 45 49  1  0  0  0  0
 45 50  1  0  0  0  0
 11 14  1  0  0  0  0
 11 15  1  0  0  0  0
 11 16  1  0  0  0  0
 52 54  1  0  0  0  0
 52 55  1  0  0  0  0
 52 56  1  0  0  0  0
 22 32  1  0  0  0  0
 22 33  1  0  0  0  0
 21 30  1  0  0  0  0
 21 31  1  0  0  0  0
 23 34  1  0  0  0  0
 23 35  1  0  0  0  0
 42 47  1  0  0  0  0
  8 13  1  0  0  0  0
 18 29  1  0  0  0  0
 26 37  1  0  0  0  0
 26 38  1  0  0  0  0
 27 39  1  0  0  0  0
 27 40  1  0  0  0  0
 51 53  1  0  0  0  0
  7 12  1  0  0  0  0
 41 46  1  0  0  0  0
 17 28  1  0  0  0  0
 24 36  1  0  0  0  0
M  CHG  1  24   1
M  END
$$$$

  -OEChem-05262214473D

 56 55  0     1  0  0  0  0  0999 V2000
    0.7735   -5.8042   -2.0022 C   0  0  0  0  0  0  0  0  0  0  0  0
   -0.2086   -6.3825   -1.5519 O   0  0  0  0  0  0  0  0  0  0  0  0
    1.4751   -6.3646   -3.1946 C   0  0  0  0  0  0  0  0  0  0  0  0
    2.2765   -7.0687   -2.9186 H   0  0  0  0  0  0  0  0  0  0  0  0
    0.7988   -6.9360   -3.8504 H   0  0  0  0  0  0  0  0  0  0  0  0
    1.9556   -5.6216   -3.8511 H   0  0  0  0  0  0  0  0  0  0  0  0
    1.3322   -4.6359   -1.5106 N   0  0  0  0  0  0  0  0  0  0  0  0
    0.8124   -3.9290   -0.3698 C   0  0  2  0  0  0  0  0  0  0  0  0
    1.0666   -2.4424   -0.5818 C   0  0  0  0  0  0  0  0  0  0  0  0
    2.0598   -2.0076   -1.1610 O   0  0  0  0  0  0  0  0  0  0  0  0
    1.4560   -4.4118    0.9207 C   0  0  0  0  0  0  0  0  0  0  0  0
    2.1528   -4.2578   -1.9805 H   0  0  0  0  0  0  0  0  0  0  0  0
   -0.2667   -4.1160   -0.3467 H   0  0  0  0  0  0  0  0  0  0  0  0
    2.5374   -4.2329    0.9160 H   0  0  0  0  0  0  0  0  0  0  0  0
    1.0390   -3.8932    1.7903 H   0  0  0  0  0  0  0  0  0  0  0  0
    1.2976   -5.4871    1.0566 H   0  0  0  0  0  0  0  0  0  0  0  0
    0.0755   -1.6529   -0.0105 N   0  0  0  0  0  0  0  0  0  0  0  0
    0.1113   -0.2132   -0.0391 C   0  0  2  0  0  0  0  0  0  0  0  0
   -0.9082    0.2501   -1.0742 C   0  0  0  0  0  0  0  0  0  0  0  0
   -0.6195    0.4585   -2.2508 O   0  0  0  0  0  0  0  0  0  0  0  0
    1.5051    0.3213   -0.3840 C   0  0  0  0  0  0  0  0  0  0  0  0
    2.5331    0.0236    0.7141 C   0  0  0  0  0  0  0  0  0  0  0  0
    3.9185    0.5579    0.3656 C   0  0  0  0  0  0  0  0  0  0  0  0
    4.9002    0.2518    1.4036 N   0  3  0  0  0  0  0  0  0  0  0  0
    6.2497    0.5867    1.2780 C   0  0  0  0  0  0  0  0  0  0  0  0
    7.1281    0.2639    2.3070 N   0  0  0  0  0  0  0  0  0  0  0  0
    6.7375    1.2360    0.1487 N   0  0  0  0  0  0  0  0  0  0  0  0
   -0.7323   -2.1024    0.4149 H   0  0  0  0  0  0  0  0  0  0  0  0
   -0.2035    0.1321    0.9522 H   0  0  0  0  0  0  0  0  0  0  0  0
    1.4509    1.4046   -0.5458 H   0  0  0  0  0  0  0  0  0  0  0  0
    1.8470   -0.1163   -1.3312 H   0  0  0  0  0  0  0  0  0  0  0  0
    2.1980    0.4645    1.6606 H   0  0  0  0  0  0  0  0  0  0  0  0
    2.6071   -1.0595    0.8649 H   0  0  0  0  0  0  0  0  0  0  0  0
    4.2698    0.0934   -0.5609 H   0  0  0  0  0  0  0  0  0  0  0  0
    3.8958    1.6433    0.2285 H   0  0  0  0  0  0  0  0  0  0  0  0
    4.6020   -0.2228    2.2539 H   0  0  0  0  0  0  0  0  0  0  0  0
    8.1172    0.4940    2.2469 H   0  0  0  0  0  0  0  0  0  0  0  0
    6.8049   -0.2110    3.1464 H   0  0  0  0  0  0  0  0  0  0  0  0
    7.7193    1.4821    0.0523 H   0  0  0  0  0  0  0  0  0  0  0  0
    6.1186    1.4841   -0.6196 H   0  0  0  0  0  0  0  0  0  0  0  0
   -2.1639    0.4495   -0.5177 N   0  0  0  0  0  0  0  0  0  0  0  0
   -3.2928    0.9345   -1.2778 C   0  0  2  0  0  0  0  0  0  0  0  0
   -4.1660    1.7640   -0.3457 C   0  0  0  0  0  0  0  0  0  0  0  0
   -4.3072    1.5058    0.8478 O   0  0  0  0  0  0  0  0  0  0  0  0
   -4.0842   -0.2128   -1.8862 C   0  0  0  0  0  0  0  0  0  0  0  0
   -2.3182    0.2194    0.4595 H   0  0  0  0  0  0  0  0  0  0  0  0
   -2.8894    1.5762   -2.0687 H   0  0  0  0  0  0  0  0  0  0  0  0
   -4.4963   -0.8667   -1.1090 H   0  0  0  0  0  0  0  0  0  0  0  0
   -4.9227    0.1573   -2.4854 H   0  0  0  0  0  0  0  0  0  0  0  0
   -3.4473   -0.8258   -2.5330 H   0  0  0  0  0  0  0  0  0  0  0  0
   -4.8031    2.8010   -1.0127 N   0  0  0  0  0  0  0  0  0  0  0  0
   -5.7191    3.7041   -0.3559 C   0  0  0  0  0  0  0  0  0  0  0  0
   -4.5966    2.9658   -1.9935 H   0  0  0  0  0  0  0  0  0  0  0  0
   -6.7463    3.3242   -0.4586 H   0  0  0  0  0  0  0  0  0  0  0  0
   -5.4603    3.7772    0.7107 H   0  0  0  0  0  0  0  0  0  0  0  0
   -5.6484    4.6992   -0.8194 H   0  0  0  0  0  0  0  0  0  0  0  0
  1  3  1  0  0  0  0
  1  7  1  0  0  0  0
  1  2  2  0  0  0  0
 42 43  1  0  0  0  0
 43 51  1  0  0  0  0
 43 44  2  0  0  0  0
  8  9  1  0  0  0  0
  9 17  1  0  0  0  0
  9 10  2  0  0  0  0
 18 19  1  0  0  0  0
 19 41  1  0  0  0  0
 19 20  2  0  0  0  0
 25 26  1  0  0  0  0
 25 27  1  0  0  0  0
 24 25  2  0  0  0  0
 42 45  1  0  0  0  0
  8 11  1  0  0  0  0
 51 52  1  0  0  0  0
 21 22  1  0  0  0  0
 22 23  1  0  0  0  0
 18 21  1  0  0  0  0
 23 24  1  0  0  0  0
 41 42  1  0  0  0  0
  7  8  1  0  0  0  0
 17 18  1  0  0  0  0
  3  4  1  0  0  0  0
  3  5  1  0  0  0  0
  3  6  1  0  0  0  0
 45 48  1  0  0  0  0
 45 49  1  0  0  0  0
 45 50  1  0  0  0  0
 11 14  1  0  0  0  0
 11 15  1  0  0  0  0
 11 16  1  0  0  0  0
 52 54  1  0  0  0  0
 52 55  1  0  0  0  0
 52 56  1  0  0  0  0
 22 32  1  0  0  0  0
 22 33  1  0  0  0  0
 21 30  1  0  0  0  0
 21 31  1  0  0  0  0
 23 34  1  0  0  0  0
 23 35  1  0  0  0  0
 42 47  1  0  0  0  0
  8 13  1  0  0  0  0
 18 29  1  0  0  0  0
 26 37  1  0  0  0  0
 26 38  1  0  0  0  0
 27 39  1  0  0  0  0
 27 40  1  0  0  0  0
 51 53  1  0  0  0  0
  7 12  1  0  0  0  0
 41 46  1  0  0  0  0
 17 28  1  0  0  0  0
 24 36  1  0  0  0  0
M  CHG  1  24   1
M  END
$$$$

  -OEChem-05262214473D

 56 55  0     1  0  0  0  0  0999 V2000
    0.7735   -5.8042   -2.0022 C   0  0  0  0  0  0  0  0  0  0  0  0
   -0.2086   -6.3825   -1.5519 O   0  0  0  0  0  0  0  0  0  0  0  0
    1.4751   -6.3646   -3.1946 C   0  0  0  0  0  0  0  0  0  0  0  0
    2.2765   -7.0687   -2.9186 H   0  0  0  0  0  0  0  0  0  0  0  0
    0.7988   -6.9360   -3.8504 H   0  0  0  0  0  0  0  0  0  0  0  0
    1.9556   -5.6216   -3.8511 H   0  0  0  0  0  0  0  0  0  0  0  0
    1.3322   -4.6359   -1.5106 N   0  0  0  0  0  0  0  0  0  0  0  0
    0.8124   -3.9290   -0.3698 C   0  0  2  0  0  0  0  0  0  0  0  0
    1.0666   -2.4424   -0.5818 C   0  0  0  0  0  0  0  0  0  0  0  0
    2.0598   -2.0076   -1.1610 O   0  0  0  0  0  0  0  0  0  0  0  0
    1.4560   -4.4118    0.9207 C   0  0  0  0  0  0  0  0  0  0  0  0
    2.1528   -4.2578   -1.9805 H   0  0  0  0  0  0  0  0  0  0  0  0
   -0.2667   -4.1160   -0.3467 H   0  0  0  0  0  0  0  0  0  0  0  0
    2.5374   -4.2329    0.9160 H   0  0  0  0  0  0  0  0  0  0  0  0
    1.0390   -3.8932    1.7903 H   0  0  0  0  0  0  0  0  0  0  0  0
    1.2976   -5.4871    1.0566 H   0  0  0  0  0  0  0  0  0  0  0  0
    0.0755   -1.6529   -0.0105 N   0  0  0  0  0  0  0  0  0  0  0  0
    0.1113   -0.2132   -0.0391 C   0  0  2  0  0  0  0  0  0  0  0  0
   -0.9082    0.2501   -1.0742 C   0  0  0  0  0  0  0  0  0  0  0  0
   -0.7004    0.2040   -2.2850 O   0  0  0  0  0  0  0  0  0  0  0  0
    1.5051    0.3213   -0.3840 C   0  0  0  0  0  0  0  0  0  0  0  0
    2.5331    0.0236    0.7141 C   0  0  0  0  0  0  0  0  0  0  0  0
    3.9185    0.5579    0.3656 C   0  0  0  0  0  0  0  0  0  0  0  0
    4.9002    0.2518    1.4036 N   0  3  0  0  0  0  0  0  0  0  0  0
    6.2497    0.5867    1.2780 C   0  0  0  0  0  0  0  0  0  0  0  0
    7.1281    0.2639    2.3070 N   0  0  0  0  0  0  0  0  0  0  0  0
    6.7375    1.2360    0.1487 N   0  0  0  0  0  0  0  0  0  0  0  0
   -0.7323   -2.1024    0.4149 H   0  0  0  0  0  0  0  0  0  0  0  0
   -0.2035    0.1321    0.9522 H   0  0  0  0  0  0  0  0  0  0  0  0
    1.4509    1.4046   -0.5458 H   0  0  0  0  0  0  0  0  0  0  0  0
    1.8470   -0.1163   -1.3312 H   0  0  0  0  0  0  0  0  0  0  0  0
    2.1980    0.4645    1.6606 H   0  0  0  0  0  0  0  0  0  0  0  0
    2.6071   -1.0595    0.8649 H   0  0  0  0  0  0  0  0  0  0  0  0
    4.2698    0.0934   -0.5609 H   0  0  0  0  0  0  0  0  0  0  0  0
    3.8958    1.6433    0.2285 H   0  0  0  0  0  0  0  0  0  0  0  0
    4.6020   -0.2228    2.2539 H   0  0  0  0  0  0  0  0  0  0  0  0
    8.1172    0.4940    2.2469 H   0  0  0  0  0  0  0  0  0  0  0  0
    6.8049   -0.2110    3.1464 H   0  0  0  0  0  0  0  0  0  0  0  0
    7.7193    1.4821    0.0523 H   0  0  0  0  0  0  0  0  0  0  0  0
    6.1186    1.4841   -0.6196 H   0  0  0  0  0  0  0  0  0  0  0  0
   -2.0543    0.7650   -0.4845 N   0  0  0  0  0  0  0  0  0  0  0  0
   -3.1516    1.3149   -1.2467 C   0  0  2  0  0  0  0  0  0  0  0  0
   -3.7806    2.4330   -0.4259 C   0  0  0  0  0  0  0  0  0  0  0  0
   -3.8504    2.4067    0.8011 O   0  0  0  0  0  0  0  0  0  0  0  0
   -4.1789    0.2466   -1.5873 C   0  0  0  0  0  0  0  0  0  0  0  0
   -2.1524    0.7325    0.5259 H   0  0  0  0  0  0  0  0  0  0  0  0
   -2.7219    1.7319   -2.1641 H   0  0  0  0  0  0  0  0  0  0  0  0
   -4.6205   -0.1828   -0.6806 H   0  0  0  0  0  0  0  0  0  0  0  0
   -4.9955    0.6589   -2.1892 H   0  0  0  0  0  0  0  0  0  0  0  0
   -3.7182   -0.5711   -2.1521 H   0  0  0  0  0  0  0  0  0  0  0  0
   -4.2935    3.4435   -1.2271 N   0  0  0  0  0  0  0  0  0  0  0  0
   -4.9780    4.5950   -0.6872 C   0  0  0  0  0  0  0  0  0  0  0  0
   -4.1553    3.4027   -2.2326 H   0  0  0  0  0  0  0  0  0  0  0  0
   -6.0596    4.3973   -0.6547 H   0  0  0  0  0  0  0  0  0  0  0  0
   -4.6113    4.7956    0.3303 H   0  0  0  0  0  0  0  0  0  0  0  0
   -4.7843    5.4694   -1.3258 H   0  0  0  0  0  0  0  0  0  0  0  0
  1  3  1  0  0  0  0
  1  7  1  0  0  0  0
  1  2  2  0  0  0  0
 42 43  1  0  0  0  0
 43 51  1  0  0  0  0
 43 44  2  0  0  0  0
  8  9  1  0  0  0  0
  9 17  1  0  0  0  0
  9 10  2  0  0  0  0
 18 19  1  0  0  0  0
 19 41  1  0  0  0  0
 19 20  2  0  0  0  0
 25 26  1  0  0  0  0
 25 27  1  0  0  0  0
 24 25  2  0  0  0  0
 42 45  1  0  0  0  0
  8 11  1  0  0  0  0
 51 52  1  0  0  0  0
 21 22  1  0  0  0  0
 22 23  1  0  0  0  0
 18 21  1  0  0  0  0
 23 24  1  0  0  0  0
 41 42  1  0  0  0  0
  7  8  1  0  0  0  0
 17 18  1  0  0  0  0
  3  4  1  0  0  0  0
  3  5  1  0  0  0  0
  3  6  1  0  0  0  0
 45 48  1  0  0  0  0
 45 49  1  0  0  0  0
 45 50  1  0  0  0  0
 11 14  1  0  0  0  0
 11 15  1  0  0  0  0
 11 16  1  0  0  0  0
 52 54  1  0  0  0  0
 52 55  1  0  0  0  0
 52 56  1  0  0  0  0
 22 32  1  0  0  0  0
 22 33  1  0  0  0  0
 21 30  1  0  0  0  0
 21 31  1  0  0  0  0
 23 34  1  0  0  0  0
 23 35  1  0  0  0  0
 42 47  1  0  0  0  0
  8 13  1  0  0  0  0
 18 29  1  0  0  0  0
 26 37  1  0  0  0  0
 26 38  1  0  0  0  0
 27 39  1  0  0  0  0
 27 40  1  0  0  0  0
 51 53  1  0  0  0  0
  7 12  1  0  0  0  0
 41 46  1  0  0  0  0
 17 28  1  0  0  0  0
 24 36  1  0  0  0  0
M  CHG  1  24   1
M  END
$$$$

  -OEChem-05262214473D

 56 55  0     1  0  0  0  0  0999 V2000
    0.7735   -5.8042   -2.0022 C   0  0  0  0  0  0  0  0  0  0  0  0
   -0.2086   -6.3825   -1.5519 O   0  0  0  0  0  0  0  0  0  0  0  0
    1.4751   -6.3646   -3.1946 C   0  0  0  0  0  0  0  0  0  0  0  0
    2.2765   -7.0687   -2.9186 H   0  0  0  0  0  0  0  0  0  0  0  0
    0.7988   -6.9360   -3.8504 H   0  0  0  0  0  0  0  0  0  0  0  0
    1.9556   -5.6216   -3.8511 H   0  0  0  0  0  0  0  0  0  0  0  0
    1.3322   -4.6359   -1.5106 N   0  0  0  0  0  0  0  0  0  0  0  0
    0.8124   -3.9290   -0.3698 C   0  0  2  0  0  0  0  0  0  0  0  0
    1.0666   -2.4424   -0.5818 C   0  0  0  0  0  0  0  0  0  0  0  0
    2.0598   -2.0076   -1.1610 O   0  0  0  0  0  0  0  0  0  0  0  0
    1.4560   -4.4118    0.9207 C   0  0  0  0  0  0  0  0  0  0  0  0
    2.1528   -4.2578   -1.9805 H   0  0  0  0  0  0  0  0  0  0  0  0
   -0.2667   -4.1160   -0.3467 H   0  0  0  0  0  0  0  0  0  0  0  0
    2.5374   -4.2329    0.9160 H   0  0  0  0  0  0  0  0  0  0  0  0
    1.0390   -3.8932    1.7903 H   0  0  0  0  0  0  0  0  0  0  0  0
    1.2976   -5.4871    1.0566 H   0  0  0  0  0  0  0  0  0  0  0  0
    0.0755   -1.6529   -0.0105 N   0  0  0  0  0  0  0  0  0  0  0  0
    0.1113   -0.2132   -0.0391 C   0  0  2  0  0  0  0  0  0  0  0  0
   -0.9082    0.2501   -1.0742 C   0  0  0  0  0  0  0  0  0  0  0  0
   -0.8260   -0.0335   -2.2675 O   0  0  0  0  0  0  0  0  0  0  0  0
    1.5051    0.3213   -0.3840 C   0  0  0  0  0  0  0  0  0  0  0  0
    2.5331    0.0236    0.7141 C   0  0  0  0  0  0  0  0  0  0  0  0
    3.9185    0.5579    0.3656 C   0  0  0  0  0  0  0  0  0  0  0  0
    4.9002    0.2518    1.4036 N   0  3  0  0  0  0  0  0  0  0  0  0
    6.2497    0.5867    1.2780 C   0  0  0  0  0  0  0  0  0  0  0  0
    7.1281    0.2639    2.3070 N   0  0  0  0  0  0  0  0  0  0  0  0
    6.7375    1.2360    0.1487 N   0  0  0  0  0  0  0  0  0  0  0  0
   -0.7323   -2.1024    0.4149 H   0  0  0  0  0  0  0  0  0  0  0  0
   -0.2035    0.1321    0.9522 H   0  0  0  0  0  0  0  0  0  0  0  0
    1.4509    1.4046   -0.5458 H   0  0  0  0  0  0  0  0  0  0  0  0
    1.8470   -0.1163   -1.3312 H   0  0  0  0  0  0  0  0  0  0  0  0
    2.1980    0.4645    1.6606 H   0  0  0  0  0  0  0  0  0  0  0  0
    2.6071   -1.0595    0.8649 H   0  0  0  0  0  0  0  0  0  0  0  0
    4.2698    0.0934   -0.5609 H   0  0  0  0  0  0  0  0  0  0  0  0
    3.8958    1.6433    0.2285 H   0  0  0  0  0  0  0  0  0  0  0  0
    4.6020   -0.2228    2.2539 H   0  0  0  0  0  0  0  0  0  0  0  0
    8.1172    0.4940    2.2469 H   0  0  0  0  0  0  0  0  0  0  0  0
    6.8049   -0.2110    3.1464 H   0  0  0  0  0  0  0  0  0  0  0  0
    7.7193    1.4821    0.0523 H   0  0  0  0  0  0  0  0  0  0  0  0
    6.1186    1.4841   -0.6196 H   0  0  0  0  0  0  0  0  0  0  0  0
   -1.8903    1.0562   -0.5157 N   0  0  0  0  0  0  0  0  0  0  0  0
   -2.9458    1.6630   -1.2936 C   0  0  2  0  0  0  0  0  0  0  0  0
   -3.2971    2.9976   -0.6495 C   0  0  0  0  0  0  0  0  0  0  0  0
   -3.2546    3.1885    0.5641 O   0  0  0  0  0  0  0  0  0  0  0  0
   -4.1661    0.7587   -1.3707 C   0  0  0  0  0  0  0  0  0  0  0  0
   -1.8970    1.2104    0.4883 H   0  0  0  0  0  0  0  0  0  0  0  0
   -2.5402    1.8363   -2.2963 H   0  0  0  0  0  0  0  0  0  0  0  0
   -4.5865    0.5737   -0.3754 H   0  0  0  0  0  0  0  0  0  0  0  0
   -4.9544    1.2075   -1.9842 H   0  0  0  0  0  0  0  0  0  0  0  0
   -3.9053   -0.2116   -1.8069 H   0  0  0  0  0  0  0  0  0  0  0  0
   -3.7052    3.9375   -1.5855 N   0  0  0  0  0  0  0  0  0  0  0  0
   -4.1317    5.2680   -1.2196 C   0  0  0  0  0  0  0  0  0  0  0  0
   -3.6711    3.7058   -2.5739 H   0  0  0  0  0  0  0  0  0  0  0  0
   -5.2232    5.2793   -1.0838 H   0  0  0  0  0  0  0  0  0  0  0  0
   -3.6423    5.5643   -0.2801 H   0  0  0  0  0  0  0  0  0  0  0  0
   -3.8541    5.9739   -2.0162 H   0  0  0  0  0  0  0  0  0  0  0  0
  1  3  1  0  0  0  0
  1  7  1  0  0  0  0
  1  2  2  0  0  0  0
 42 43  1  0  0  0  0
 43 51  1  0  0  0  0
 43 44  2  0  0  0  0
  8  9  1  0  0  0  0
  9 17  1  0  0  0  0
  9 10  2  0  0  0  0
 18 19  1  0  0  0  0
 19 41  1  0  0  0  0
 19 20  2  0  0  0  0
 25 26  1  0  0  0  0
 25 27  1  0  0  0  0
 24 25  2  0  0  0  0
 42 45  1  0  0  0  0
  8 11  1  0  0  0  0
 51 52  1  0  0  0  0
 21 22  1  0  0  0  0
 22 23  1  0  0  0  0
 18 21  1  0  0  0  0
 23 24  1  0  0  0  0
 41 42  1  0  0  0  0
  7  8  1  0  0  0  0
 17 18  1  0  0  0  0
  3  4  1  0  0  0  0
  3  5  1  0  0  0  0
  3  6  1  0  0  0  0
 45 48  1  0  0  0  0
 45 49  1  0  0  0  0
 45 50  1  0  0  0  0
 11 14  1  0  0  0  0
 11 15  1  0  0  0  0
 11 16  1  0  0  0  0
 52 54  1  0  0  0  0
 52 55  1  0  0  0  0
 52 56  1  0  0  0  0
 22 32  1  0  0  0  0
 22 33  1  0  0  0  0
 21 30  1  0  0  0  0
 21 31  1  0  0  0  0
 23 34  1  0  0  0  0
 23 35  1  0  0  0  0
 42 47  1  0  0  0  0
  8 13  1  0  0  0  0
 18 29  1  0  0  0  0
 26 37  1  0  0  0  0
 26 38  1  0  0  0  0
 27 39  1  0  0  0  0
 27 40  1  0  0  0  0
 51 53  1  0  0  0  0
  7 12  1  0  0  0  0
 41 46  1  0  0  0  0
 17 28  1  0  0  0  0
 24 36  1  0  0  0  0
M  CHG  1  24   1
M  END
$$$$

  -OEChem-05262214473D

 56 55  0     1  0  0  0  0  0999 V2000
    0.7735   -5.8042   -2.0022 C   0  0  0  0  0  0  0  0  0  0  0  0
   -0.2086   -6.3825   -1.5519 O   0  0  0  0  0  0  0  0  0  0  0  0
    1.4751   -6.3646   -3.1946 C   0  0  0  0  0  0  0  0  0  0  0  0
    2.2765   -7.0687   -2.9186 H   0  0  0  0  0  0  0  0  0  0  0  0
    0.7988   -6.9360   -3.8504 H   0  0  0  0  0  0  0  0  0  0  0  0
    1.9556   -5.6216   -3.8511 H   0  0  0  0  0  0  0  0  0  0  0  0
    1.3322   -4.6359   -1.5106 N   0  0  0  0  0  0  0  0  0  0  0  0
    0.8124   -3.9290   -0.3698 C   0  0  2  0  0  0  0  0  0  0  0  0
    1.0666   -2.4424   -0.5818 C   0  0  0  0  0  0  0  0  0  0  0  0
    2.0598   -2.0076   -1.1610 O   0  0  0  0  0  0  0  0  0  0  0  0
    1.4560   -4.4118    0.9207 C   0  0  0  0  0  0  0  0  0  0  0  0
    2.1528   -4.2578   -1.9805 H   0  0  0  0  0  0  0  0  0  0  0  0
   -0.2667   -4.1160   -0.3467 H   0  0  0  0  0  0  0  0  0  0  0  0
    2.5374   -4.2329    0.9160 H   0  0  0  0  0  0  0  0  0  0  0  0
    1.0390   -3.8932    1.7903 H   0  0  0  0  0  0  0  0  0  0  0  0
    1.2976   -5.4871    1.0566 H   0  0  0  0  0  0  0  0  0  0  0  0
    0.0755   -1.6529   -0.0105 N   0  0  0  0  0  0  0  0  0  0  0  0
    0.1113   -0.2132   -0.0391 C   0  0  2  0  0  0  0  0  0  0  0  0
   -0.9082    0.2501   -1.0742 C   0  0  0  0  0  0  0  0  0  0  0  0
   -0.9877   -0.2379   -2.1997 O   0  0  0  0  0  0  0  0  0  0  0  0
    1.5051    0.3213   -0.3840 C   0  0  0  0  0  0  0  0  0  0  0  0
    2.5331    0.0236    0.7141 C   0  0  0  0  0  0  0  0  0  0  0  0
    3.9185    0.5579    0.3656 C   0  0  0  0  0  0  0  0  0  0  0  0
    4.9002    0.2518    1.4036 N   0  3  0  0  0  0  0  0  0  0  0  0
    6.2497    0.5867    1.2780 C   0  0  0  0  0  0  0  0  0  0  0  0
    7.1281    0.2639    2.3070 N   0  0  0  0  0  0  0  0  0  0  0  0
    6.7375    1.2360    0.1487 N   0  0  0  0  0  0  0  0  0  0  0  0
   -0.7323   -2.1024    0.4149 H   0  0  0  0  0  0  0  0  0  0  0  0
   -0.2035    0.1321    0.9522 H   0  0  0  0  0  0  0  0  0  0  0  0
    1.4509    1.4046   -0.5458 H   0  0  0  0  0  0  0  0  0  0  0  0
    1.8470   -0.1163   -1.3312 H   0  0  0  0  0  0  0  0  0  0  0  0
    2.1980    0.4645    1.6606 H   0  0  0  0  0  0  0  0  0  0  0  0
    2.6071   -1.0595    0.8649 H   0  0  0  0  0  0  0  0  0  0  0  0
    4.2698    0.0934   -0.5609 H   0  0  0  0  0  0  0  0  0  0  0  0
    3.8958    1.6433    0.2285 H   0  0  0  0  0  0  0  0  0  0  0  0
    4.6020   -0.2228    2.2539 H   0  0  0  0  0  0  0  0  0  0  0  0
    8.1172    0.4940    2.2469 H   0  0  0  0  0  0  0  0  0  0  0  0
    6.8049   -0.2110    3.1464 H   0  0  0  0  0  0  0  0  0  0  0  0
    7.7193    1.4821    0.0523 H   0  0  0  0  0  0  0  0  0  0  0  0
    6.1186    1.4841   -0.6196 H   0  0  0  0  0  0  0  0  0  0  0  0
   -1.6832    1.3033   -0.6091 N   0  0  0  0  0  0  0  0  0  0  0  0
   -2.6897    1.9549   -1.4153 C   0  0  2  0  0  0  0  0  0  0  0  0
   -2.7485    3.4193   -1.0011 C   0  0  0  0  0  0  0  0  0  0  0  0
   -2.5603    3.7981    0.1531 O   0  0  0  0  0  0  0  0  0  0  0  0
   -4.0468    1.2887   -1.2510 C   0  0  0  0  0  0  0  0  0  0  0  0
   -1.5693    1.6206    0.3491 H   0  0  0  0  0  0  0  0  0  0  0  0
   -2.3567    1.8823   -2.4564 H   0  0  0  0  0  0  0  0  0  0  0  0
   -4.3968    1.3514   -0.2142 H   0  0  0  0  0  0  0  0  0  0  0  0
   -4.8022    1.7656   -1.8843 H   0  0  0  0  0  0  0  0  0  0  0  0
   -3.9957    0.2283   -1.5210 H   0  0  0  0  0  0  0  0  0  0  0  0
   -3.0783    4.2493   -2.0634 N   0  0  0  0  0  0  0  0  0  0  0  0
   -3.2379    5.6772   -1.9169 C   0  0  0  0  0  0  0  0  0  0  0  0
   -3.1770    3.8544   -2.9941 H   0  0  0  0  0  0  0  0  0  0  0  0
   -4.2941    5.9100   -1.7166 H   0  0  0  0  0  0  0  0  0  0  0  0
   -2.6193    6.0310   -1.0789 H   0  0  0  0  0  0  0  0  0  0  0  0
   -2.9213    6.1784   -2.8435 H   0  0  0  0  0  0  0  0  0  0  0  0
  1  3  1  0  0  0  0
  1  7  1  0  0  0  0
  1  2  2  0  0  0  0
 42 43  1  0  0  0  0
 43 51  1  0  0  0  0
 43 44  2  0  0  0  0
  8  9  1  0  0  0  0
  9 17  1  0  0  0  0
  9 10  2  0  0  0  0
 18 19  1  0  0  0  0
 19 41  1  0  0  0  0
 19 20  2  0  0  0  0
 25 26  1  0  0  0  0
 25 27  1  0  0  0  0
 24 25  2  0  0  0  0
 42 45  1  0  0  0  0
  8 11  1  0  0  0  0
 51 52  1  0  0  0  0
 21 22  1  0  0  0  0
 22 23  1  0  0  0  0
 18 21  1  0  0  0  0
 23 24  1  0  0  0  0
 41 42  1  0  0  0  0
  7  8  1  0  0  0  0
 17 18  1  0  0  0  0
  3  4  1  0  0  0  0
  3  5  1  0  0  0  0
  3  6  1  0  0  0  0
 45 48  1  0  0  0  0
 45 49  1  0  0  0  0
 45 50  1  0  0  0  0
 11 14  1  0  0  0  0
 11 15  1  0  0  0  0
 11 16  1  0  0  0  0
 52 54  1  0  0  0  0
 52 55  1  0  0  0  0
 52 56  1  0  0  0  0
 22 32  1  0  0  0  0
 22 33  1  0  0  0  0
 21 30  1  0  0  0  0
 21 31  1  0  0  0  0
 23 34  1  0  0  0  0
 23 35  1  0  0  0  0
 42 47  1  0  0  0  0
  8 13  1  0  0  0  0
 18 29  1  0  0  0  0
 26 37  1  0  0  0  0
 26 38  1  0  0  0  0
 27 39  1  0  0  0  0
 27 40  1  0  0  0  0
 51 53  1  0  0  0  0
  7 12  1  0  0  0  0
 41 46  1  0  0  0  0
 17 28  1  0  0  0  0
 24 36  1  0  0  0  0
M  CHG  1  24   1
M  END
$$$$

  -OEChem-05262214473D

 56 55  0     1  0  0  0  0  0999 V2000
    0.7735   -5.8042   -2.0022 C   0  0  0  0  0  0  0  0  0  0  0  0
   -0.2086   -6.3825   -1.5519 O   0  0  0  0  0  0  0  0  0  0  0  0
    1.4751   -6.3646   -3.1946 C   0  0  0  0  0  0  0  0  0  0  0  0
    2.2765   -7.0687   -2.9186 H   0  0  0  0  0  0  0  0  0  0  0  0
    0.7988   -6.9360   -3.8504 H   0  0  0  0  0  0  0  0  0  0  0  0
    1.9556   -5.6216   -3.8511 H   0  0  0  0  0  0  0  0  0  0  0  0
    1.3322   -4.6359   -1.5106 N   0  0  0  0  0  0  0  0  0  0  0  0
    0.8124   -3.9290   -0.3698 C   0  0  2  0  0  0  0  0  0  0  0  0
    1.0666   -2.4424   -0.5818 C   0  0  0  0  0  0  0  0  0  0  0  0
    2.0598   -2.0076   -1.1610 O   0  0  0  0  0  0  0  0  0  0  0  0
    1.4560   -4.4118    0.9207 C   0  0  0  0  0  0  0  0  0  0  0  0
    2.1528   -4.2578   -1.9805 H   0  0  0  0  0  0  0  0  0  0  0  0
   -0.2667   -4.1160   -0.3467 H   0  0  0  0  0  0  0  0  0  0  0  0
    2.5374   -4.2329    0.9160 H   0  0  0  0  0  0  0  0  0  0  0  0
    1.0390   -3.8932    1.7903 H   0  0  0  0  0  0  0  0  0  0  0  0
    1.2976   -5.4871    1.0566 H   0  0  0  0  0  0  0  0  0  0  0  0
    0.0755   -1.6529   -0.0105 N   0  0  0  0  0  0  0  0  0  0  0  0
    0.1113   -0.2132   -0.0391 C   0  0  2  0  0  0  0  0  0  0  0  0
   -0.9082    0.2501   -1.0742 C   0  0  0  0  0  0  0  0  0  0  0  0
   -1.1745   -0.3951   -2.0862 O   0  0  0  0  0  0  0  0  0  0  0  0
    1.5051    0.3213   -0.3840 C   0  0  0  0  0  0  0  0  0  0  0  0
    2.5331    0.0236    0.7141 C   0  0  0  0  0  0  0  0  0  0  0  0
    3.9185    0.5579    0.3656 C   0  0  0  0  0  0  0  0  0  0  0  0
    4.9002    0.2518    1.4036 N   0  3  0  0  0  0  0  0  0  0  0  0
    6.2497    0.5867    1.2780 C   0  0  0  0  0  0  0  0  0  0  0  0
    7.1281    0.2639    2.3070 N   0  0  0  0  0  0  0  0  0  0  0  0
    6.7375    1.2360    0.1487 N   0  0  0  0  0  0  0  0  0  0  0  0
   -0.7323   -2.1024    0.4149 H   0  0  0  0  0  0  0  0  0  0  0  0
   -0.2035    0.1321    0.9522 H   0  0  0  0  0  0  0  0  0  0  0  0
    1.4509    1.4046   -0.5458 H   0  0  0  0  0  0  0  0  0  0  0  0
    1.8470   -0.1163   -1.3312 H   0  0  0  0  0  0  0  0  0  0  0  0
    2.1980    0.4645    1.6606 H   0  0  0  0  0  0  0  0  0  0  0  0
    2.6071   -1.0595    0.8649 H   0  0  0  0  0  0  0  0  0  0  0  0
    4.2698    0.0934   -0.5609 H   0  0  0  0  0  0  0  0  0  0  0  0
    3.8958    1.6433    0.2285 H   0  0  0  0  0  0  0  0  0  0  0  0
    4.6020   -0.2228    2.2539 H   0  0  0  0  0  0  0  0  0  0  0  0
    8.1172    0.4940    2.2469 H   0  0  0  0  0  0  0  0  0  0  0  0
    6.8049   -0.2110    3.1464 H   0  0  0  0  0  0  0  0  0  0  0  0
    7.7193    1.4821    0.0523 H   0  0  0  0  0  0  0  0  0  0  0  0
    6.1186    1.4841   -0.6196 H   0  0  0  0  0  0  0  0  0  0  0  0
   -1.4471    1.4895   -0.7583 N   0  0  0  0  0  0  0  0  0  0  0  0
   -2.4005    2.1708   -1.6035 C   0  0  2  0  0  0  0  0  0  0  0  0
   -2.1721    3.6695   -1.4569 C   0  0  0  0  0  0  0  0  0  0  0  0
   -1.8150    4.1937   -0.4040 O   0  0  0  0  0  0  0  0  0  0  0  0
   -3.8290    1.8003   -1.2366 C   0  0  0  0  0  0  0  0  0  0  0  0
   -1.1916    1.9352    0.1179 H   0  0  0  0  0  0  0  0  0  0  0  0
   -2.1840    1.8668   -2.6334 H   0  0  0  0  0  0  0  0  0  0  0  0
   -4.0643    2.0971   -0.2080 H   0  0  0  0  0  0  0  0  0  0  0  0
   -4.5493    2.2953   -1.8963 H   0  0  0  0  0  0  0  0  0  0  0  0
   -3.9832    0.7186   -1.3138 H   0  0  0  0  0  0  0  0  0  0  0  0
   -2.4556    4.3576   -2.6283 N   0  0  0  0  0  0  0  0  0  0  0  0
   -2.3574    5.7948   -2.7315 C   0  0  0  0  0  0  0  0  0  0  0  0
   -2.7067    3.8385   -3.4645 H   0  0  0  0  0  0  0  0  0  0  0  0
   -3.3356    6.2466   -2.5101 H   0  0  0  0  0  0  0  0  0  0  0  0
   -1.6119    6.1639   -2.0117 H   0  0  0  0  0  0  0  0  0  0  0  0
   -2.0494    6.0689   -3.7513 H   0  0  0  0  0  0  0  0  0  0  0  0
  1  3  1  0  0  0  0
  1  7  1  0  0  0  0
  1  2  2  0  0  0  0
 42 43  1  0  0  0  0
 43 51  1  0  0  0  0
 43 44  2  0  0  0  0
  8  9  1  0  0  0  0
  9 17  1  0  0  0  0
  9 10  2  0  0  0  0
 18 19  1  0  0  0  0
 19 41  1  0  0  0  0
 19 20  2  0  0  0  0
 25 26  1  0  0  0  0
 25 27  1  0  0  0  0
 24 25  2  0  0  0  0
 42 45  1  0  0  0  0
  8 11  1  0  0  0  0
 51 52  1  0  0  0  0
 21 22  1  0  0  0  0
 22 23  1  0  0  0  0
 18 21  1  0  0  0  0
 23 24  1  0  0  0  0
 41 42  1  0  0  0  0
  7  8  1  0  0  0  0
 17 18  1  0  0  0  0
  3  4  1  0  0  0  0
  3  5  1  0  0  0  0
  3  6  1  0  0  0  0
 45 48  1  0  0  0  0
 45 49  1  0  0  0  0
 45 50  1  0  0  0  0
 11 14  1  0  0  0  0
 11 15  1  0  0  0  0
 11 16  1  0  0  0  0
 52 54  1  0  0  0  0
 52 55  1  0  0  0  0
 52 56  1  0  0  0  0
 22 32  1  0  0  0  0
 22 33  1  0  0  0  0
 21 30  1  0  0  0  0
 21 31  1  0  0  0  0
 23 34  1  0  0  0  0
 23 35  1  0  0  0  0
 42 47  1  0  0  0  0
  8 13  1  0  0  0  0
 18 29  1  0  0  0  0
 26 37  1  0  0  0  0
 26 38  1  0  0  0  0
 27 39  1  0  0  0  0
 27 40  1  0  0  0  0
 51 53  1  0  0  0  0
  7 12  1  0  0  0  0
 41 46  1  0  0  0  0
 17 28  1  0  0  0  0
 24 36  1  0  0  0  0
M  CHG  1  24   1
M  END
$$$$

  -OEChem-05262214473D

 56 55  0     1  0  0  0  0  0999 V2000
    0.7735   -5.8042   -2.0022 C   0  0  0  0  0  0  0  0  0  0  0  0
   -0.2086   -6.3825   -1.5519 O   0  0  0  0  0  0  0  0  0  0  0  0
    1.4751   -6.3646   -3.1946 C   0  0  0  0  0  0  0  0  0  0  0  0
    2.2765   -7.0687   -2.9186 H   0  0  0  0  0  0  0  0  0  0  0  0
    0.7988   -6.9360   -3.8504 H   0  0  0  0  0  0  0  0  0  0  0  0
    1.9556   -5.6216   -3.8511 H   0  0  0  0  0  0  0  0  0  0  0  0
    1.3322   -4.6359   -1.5106 N   0  0  0  0  0  0  0  0  0  0  0  0
    0.8124   -3.9290   -0.3698 C   0  0  2  0  0  0  0  0  0  0  0  0
    1.0666   -2.4424   -0.5818 C   0  0  0  0  0  0  0  0  0  0  0  0
    2.0598   -2.0076   -1.1610 O   0  0  0  0  0  0  0  0  0  0  0  0
    1.4560   -4.4118    0.9207 C   0  0  0  0  0  0  0  0  0  0  0  0
    2.1528   -4.2578   -1.9805 H   0  0  0  0  0  0  0  0  0  0  0  0
   -0.2667   -4.1160   -0.3467 H   0  0  0  0  0  0  0  0  0  0  0  0
    2.5374   -4.2329    0.9160 H   0  0  0  0  0  0  0  0  0  0  0  0
    1.0390   -3.8932    1.7903 H   0  0  0  0  0  0  0  0  0  0  0  0
    1.2976   -5.4871    1.0566 H   0  0  0  0  0  0  0  0  0  0  0  0
    0.0755   -1.6529   -0.0105 N   0  0  0  0  0  0  0  0  0  0  0  0
    0.1113   -0.2132   -0.0391 C   0  0  2  0  0  0  0  0  0  0  0  0
   -0.9082    0.2501   -1.0742 C   0  0  0  0  0  0  0  0  0  0  0  0
   -1.3735   -0.4945   -1.9346 O   0  0  0  0  0  0  0  0  0  0  0  0
    1.5051    0.3213   -0.3840 C   0  0  0  0  0  0  0  0  0  0  0  0
    2.5331    0.0236    0.7141 C   0  0  0  0  0  0  0  0  0  0  0  0
    3.9185    0.5579    0.3656 C   0  0  0  0  0  0  0  0  0  0  0  0
    4.9002    0.2518    1.4036 N   0  3  0  0  0  0  0  0  0  0  0  0
    6.2497    0.5867    1.2780 C   0  0  0  0  0  0  0  0  0  0  0  0
    7.1281    0.2639    2.3070 N   0  0  0  0  0  0  0  0  0  0  0  0
    6.7375    1.2360    0.1487 N   0  0  0  0  0  0  0  0  0  0  0  0
   -0.7323   -2.1024    0.4149 H   0  0  0  0  0  0  0  0  0  0  0  0
   -0.2035    0.1321    0.9522 H   0  0  0  0  0  0  0  0  0  0  0  0
    1.4509    1.4046   -0.5458 H   0  0  0  0  0  0  0  0  0  0  0  0
    1.8470   -0.1163   -1.3312 H   0  0  0  0  0  0  0  0  0  0  0  0
    2.1980    0.4645    1.6606 H   0  0  0  0  0  0  0  0  0  0  0  0
    2.6071   -1.0595    0.8649 H   0  0  0  0  0  0  0  0  0  0  0  0
    4.2698    0.0934   -0.5609 H   0  0  0  0  0  0  0  0  0  0  0  0
    3.8958    1.6433    0.2285 H   0  0  0  0  0  0  0  0  0  0  0  0
    4.6020   -0.2228    2.2539 H   0  0  0  0  0  0  0  0  0  0  0  0
    8.1172    0.4940    2.2469 H   0  0  0  0  0  0  0  0  0  0  0  0
    6.8049   -0.2110    3.1464 H   0  0  0  0  0  0  0  0  0  0  0  0
    7.7193    1.4821    0.0523 H   0  0  0  0  0  0  0  0  0  0  0  0
    6.1186    1.4841   -0.6196 H   0  0  0  0  0  0  0  0  0  0  0  0
   -1.1980    1.6020   -0.9533 N   0  0  0  0  0  0  0  0  0  0  0  0
   -2.0980    2.2960   -1.8453 C   0  0  2  0  0  0  0  0  0  0  0  0
   -1.6073    3.7309   -1.9857 C   0  0  0  0  0  0  0  0  0  0  0  0
   -1.0693    4.3486   -1.0691 O   0  0  0  0  0  0  0  0  0  0  0  0
   -3.5277    2.2587   -1.3282 C   0  0  0  0  0  0  0  0  0  0  0  0
   -0.7898    2.1328   -0.1896 H   0  0  0  0  0  0  0  0  0  0  0  0
   -2.0339    1.7909   -2.8153 H   0  0  0  0  0  0  0  0  0  0  0  0
   -3.6117    2.7601   -0.3571 H   0  0  0  0  0  0  0  0  0  0  0  0
   -4.2129    2.7604   -2.0195 H   0  0  0  0  0  0  0  0  0  0  0  0
   -3.8687    1.2258   -1.1996 H   0  0  0  0  0  0  0  0  0  0  0  0
   -1.8795    4.2551   -3.2416 N   0  0  0  0  0  0  0  0  0  0  0  0
   -1.5503    5.6128   -3.6079 C   0  0  0  0  0  0  0  0  0  0  0  0
   -2.2922    3.6590   -3.9531 H   0  0  0  0  0  0  0  0  0  0  0  0
   -2.4131    6.2660   -3.4102 H   0  0  0  0  0  0  0  0  0  0  0  0
   -0.6889    5.9539   -3.0149 H   0  0  0  0  0  0  0  0  0  0  0  0
   -1.2979    5.6529   -4.6778 H   0  0  0  0  0  0  0  0  0  0  0  0
  1  3  1  0  0  0  0
  1  7  1  0  0  0  0
  1  2  2  0  0  0  0
 42 43  1  0  0  0  0
 43 51  1  0  0  0  0
 43 44  2  0  0  0  0
  8  9  1  0  0  0  0
  9 17  1  0  0  0  0
  9 10  2  0  0  0  0
 18 19  1  0  0  0  0
 19 41  1  0  0  0  0
 19 20  2  0  0  0  0
 25 26  1  0  0  0  0
 25 27  1  0  0  0  0
 24 25  2  0  0  0  0
 42 45  1  0  0  0  0
  8 11  1  0  0  0  0
 51 52  1  0  0  0  0
 21 22  1  0  0  0  0
 22 23  1  0  0  0  0
 18 21  1  0  0  0  0
 23 24  1  0  0  0  0
 41 42  1  0  0  0  0
  7  8  1  0  0  0  0
 17 18  1  0  0  0  0
  3  4  1  0  0  0  0
  3  5  1  0  0  0  0
  3  6  1  0  0  0  0
 45 48  1  0  0  0  0
 45 49  1  0  0  0  0
 45 50  1  0  0  0  0
 11 14  1  0  0  0  0
 11 15  1  0  0  0  0
 11 16  1  0  0  0  0
 52 54  1  0  0  0  0
 52 55  1  0  0  0  0
 52 56  1  0  0  0  0
 22 32  1  0  0  0  0
 22 33  1  0  0  0  0
 21 30  1  0  0  0  0
 21 31  1  0  0  0  0
 23 34  1  0  0  0  0
 23 35  1  0  0  0  0
 42 47  1  0  0  0  0
  8 13  1  0  0  0  0
 18 29  1  0  0  0  0
 26 37  1  0  0  0  0
 26 38  1  0  0  0  0
 27 39  1  0  0  0  0
 27 40  1  0  0  0  0
 51 53  1  0  0  0  0
  7 12  1  0  0  0  0
 41 46  1  0  0  0  0
 17 28  1  0  0  0  0
 24 36  1  0  0  0  0
M  CHG  1  24   1
M  END
$$$$

  -OEChem-05262214473D

 56 55  0     1  0  0  0  0  0999 V2000
    0.7735   -5.8042   -2.0022 C   0  0  0  0  0  0  0  0  0  0  0  0
   -0.2086   -6.3825   -1.5519 O   0  0  0  0  0  0  0  0  0  0  0  0
    1.4751   -6.3646   -3.1946 C   0  0  0  0  0  0  0  0  0  0  0  0
    2.2765   -7.0687   -2.9186 H   0  0  0  0  0  0  0  0  0  0  0  0
    0.7988   -6.9360   -3.8504 H   0  0  0  0  0  0  0  0  0  0  0  0
    1.9556   -5.6216   -3.8511 H   0  0  0  0  0  0  0  0  0  0  0  0
    1.3322   -4.6359   -1.5106 N   0  0  0  0  0  0  0  0  0  0  0  0
    0.8124   -3.9290   -0.3698 C   0  0  2  0  0  0  0  0  0  0  0  0
    1.0666   -2.4424   -0.5818 C   0  0  0  0  0  0  0  0  0  0  0  0
    2.0598   -2.0076   -1.1610 O   0  0  0  0  0  0  0  0  0  0  0  0
    1.4560   -4.4118    0.9207 C   0  0  0  0  0  0  0  0  0  0  0  0
    2.1528   -4.2578   -1.9805 H   0  0  0  0  0  0  0  0  0  0  0  0
   -0.2667   -4.1160   -0.3467 H   0  0  0  0  0  0  0  0  0  0  0  0
    2.5374   -4.2329    0.9160 H   0  0  0  0  0  0  0  0  0  0  0  0
    1.0390   -3.8932    1.7903 H   0  0  0  0  0  0  0  0  0  0  0  0
    1.2976   -5.4871    1.0566 H   0  0  0  0  0  0  0  0  0  0  0  0
    0.0755   -1.6529   -0.0105 N   0  0  0  0  0  0  0  0  0  0  0  0
    0.1113   -0.2132   -0.0391 C   0  0  2  0  0  0  0  0  0  0  0  0
   -1.1385    0.2618   -0.7725 C   0  0  0  0  0  0  0  0  0  0  0  0
   -1.9599   -0.5099   -1.2634 O   0  0  0  0  0  0  0  0  0  0  0  0
    1.3717    0.3178   -0.7297 C   0  0  0  0  0  0  0  0  0  0  0  0
    2.6469    0.0078    0.0633 C   0  0  0  0  0  0  0  0  0  0  0  0
    3.8981    0.5386   -0.6287 C   0  0  0  0  0  0  0  0  0  0  0  0
    5.1131    0.2210    0.1182 N   0  3  0  0  0  0  0  0  0  0  0  0
    6.3862    0.5509   -0.3503 C   0  0  0  0  0  0  0  0  0  0  0  0
    7.4989    0.2170    0.4145 N   0  0  0  0  0  0  0  0  0  0  0  0
    6.5692    1.2061   -1.5636 N   0  0  0  0  0  0  0  0  0  0  0  0
   -0.7323   -2.1024    0.4149 H   0  0  0  0  0  0  0  0  0  0  0  0
    0.0657    0.1264    1.0019 H   0  0  0  0  0  0  0  0  0  0  0  0
    1.2839    1.4024   -0.8658 H   0  0  0  0  0  0  0  0  0  0  0  0
    1.4543   -0.1146   -1.7357 H   0  0  0  0  0  0  0  0  0  0  0  0
    2.5707    0.4434    1.0668 H   0  0  0  0  0  0  0  0  0  0  0  0
    2.7509   -1.0766    0.1836 H   0  0  0  0  0  0  0  0  0  0  0  0
    3.9951    0.0792   -1.6172 H   0  0  0  0  0  0  0  0  0  0  0  0
    3.8473    1.6251   -0.7490 H   0  0  0  0  0  0  0  0  0  0  0  0
    5.0422   -0.2584    1.0140 H   0  0  0  0  0  0  0  0  0  0  0  0
    8.4402    0.4432    0.1020 H   0  0  0  0  0  0  0  0  0  0  0  0
    7.4010   -0.2624    1.3062 H   0  0  0  0  0  0  0  0  0  0  0  0
    7.4940    1.4486   -1.9093 H   0  0  0  0  0  0  0  0  0  0  0  0
    5.7741    1.4624   -2.1442 H   0  0  0  0  0  0  0  0  0  0  0  0
   -1.2010    1.6458   -0.8557 N   0  0  0  0  0  0  0  0  0  0  0  0
   -2.2619    2.3450   -1.5435 C   0  0  2  0  0  0  0  0  0  0  0  0
   -1.6785    3.6225   -2.1326 C   0  0  0  0  0  0  0  0  0  0  0  0
   -0.7856    4.2666   -1.5858 O   0  0  0  0  0  0  0  0  0  0  0  0
   -3.4177    2.6572   -0.6058 C   0  0  0  0  0  0  0  0  0  0  0  0
   -0.4922    2.2055   -0.3909 H   0  0  0  0  0  0  0  0  0  0  0  0
   -2.5994    1.6895   -2.3537 H   0  0  0  0  0  0  0  0  0  0  0  0
   -3.0987    3.3130    0.2126 H   0  0  0  0  0  0  0  0  0  0  0  0
   -4.2329    3.1617   -1.1350 H   0  0  0  0  0  0  0  0  0  0  0  0
   -3.8167    1.7397   -0.1601 H   0  0  0  0  0  0  0  0  0  0  0  0
   -2.3020    3.9823   -3.3192 N   0  0  0  0  0  0  0  0  0  0  0  0
   -1.9565    5.1793   -4.0498 C   0  0  0  0  0  0  0  0  0  0  0  0
   -3.0048    3.3684   -3.7205 H   0  0  0  0  0  0  0  0  0  0  0  0
   -2.6109    6.0047   -3.7328 H   0  0  0  0  0  0  0  0  0  0  0  0
   -0.9083    5.4435   -3.8458 H   0  0  0  0  0  0  0  0  0  0  0  0
   -2.0867    5.0014   -5.1274 H   0  0  0  0  0  0  0  0  0  0  0  0
  1  3  1  0  0  0  0
  1  7  1  0  0  0  0
  1  2  2  0  0  0  0
 42 43  1  0  0  0  0
 43 51  1  0  0  0  0
 43 44  2  0  0  0  0
  8  9  1  0  0  0  0
  9 17  1  0  0  0  0
  9 10  2  0  0  0  0
 18 19  1  0  0  0  0
 19 41  1  0  0  0  0
 19 20  2  0  0  0  0
 25 26  1  0  0  0  0
 25 27  1  0  0  0  0
 24 25  2  0  0  0  0
 42 45  1  0  0  0  0
  8 11  1  0  0  0  0
 51 52  1  0  0  0  0
 21 22  1  0  0  0  0
 22 23  1  0  0  0  0
 18 21  1  0  0  0  0
 23 24  1  0  0  0  0
 41 42  1  0  0  0  0
  7  8  1  0  0  0  0
 17 18  1  0  0  0  0
  3  4  1  0  0  0  0
  3  5  1  0  0  0  0
  3  6  1  0  0  0  0
 45 48  1  0  0  0  0
 45 49  1  0  0  0  0
 45 50  1  0  0  0  0
 11 14  1  0  0  0  0
 11 15  1  0  0  0  0
 11 16  1  0  0  0  0
 52 54  1  0  0  0  0
 52 55  1  0  0  0  0
 52 56  1  0  0  0  0
 22 32  1  0  0  0  0
 22 33  1  0  0  0  0
 21 30  1  0  0  0  0
 21 31  1  0  0  0  0
 23 34  1  0  0  0  0
 23 35  1  0  0  0  0
 42 47  1  0  0  0  0
  8 13  1  0  0  0  0
 18 29  1  0  0  0  0
 26 37  1  0  0  0  0
 26 38  1  0  0  0  0
 27 39  1  0  0  0  0
 27 40  1  0  0  0  0
 51 53  1  0  0  0  0
  7 12  1  0  0  0  0
 41 46  1  0  0  0  0
 17 28  1  0  0  0  0
 24 36  1  0  0  0  0
M  CHG  1  24   1
M  END
$$$$

  -OEChem-05262214473D

 56 55  0     1  0  0  0  0  0999 V2000
    0.7735   -5.8042   -2.0022 C   0  0  0  0  0  0  0  0  0  0  0  0
   -0.2086   -6.3825   -1.5519 O   0  0  0  0  0  0  0  0  0  0  0  0
    1.4751   -6.3646   -3.1946 C   0  0  0  0  0  0  0  0  0  0  0  0
    2.2765   -7.0687   -2.9186 H   0  0  0  0  0  0  0  0  0  0  0  0
    0.7988   -6.9360   -3.8504 H   0  0  0  0  0  0  0  0  0  0  0  0
    1.9556   -5.6216   -3.8511 H   0  0  0  0  0  0  0  0  0  0  0  0
    1.3322   -4.6359   -1.5106 N   0  0  0  0  0  0  0  0  0  0  0  0
    0.8124   -3.9290   -0.3698 C   0  0  2  0  0  0  0  0  0  0  0  0
    1.0666   -2.4424   -0.5818 C   0  0  0  0  0  0  0  0  0  0  0  0
    2.0598   -2.0076   -1.1610 O   0  0  0  0  0  0  0  0  0  0  0  0
    1.4560   -4.4118    0.9207 C   0  0  0  0  0  0  0  0  0  0  0  0
    2.1528   -4.2578   -1.9805 H   0  0  0  0  0  0  0  0  0  0  0  0
   -0.2667   -4.1160   -0.3467 H   0  0  0  0  0  0  0  0  0  0  0  0
    2.5374   -4.2329    0.9160 H   0  0  0  0  0  0  0  0  0  0  0  0
    1.0390   -3.8932    1.7903 H   0  0  0  0  0  0  0  0  0  0  0  0
    1.2976   -5.4871    1.0566 H   0  0  0  0  0  0  0  0  0  0  0  0
    0.0755   -1.6529   -0.0105 N   0  0  0  0  0  0  0  0  0  0  0  0
    0.1113   -0.2132   -0.0391 C   0  0  2  0  0  0  0  0  0  0  0  0
   -1.1385    0.2618   -0.7725 C   0  0  0  0  0  0  0  0  0  0  0  0
   -2.0862   -0.4784   -1.0277 O   0  0  0  0  0  0  0  0  0  0  0  0
    1.3717    0.3178   -0.7297 C   0  0  0  0  0  0  0  0  0  0  0  0
    2.6469    0.0078    0.0633 C   0  0  0  0  0  0  0  0  0  0  0  0
    3.8981    0.5386   -0.6287 C   0  0  0  0  0  0  0  0  0  0  0  0
    5.1131    0.2210    0.1182 N   0  3  0  0  0  0  0  0  0  0  0  0
    6.3862    0.5509   -0.3503 C   0  0  0  0  0  0  0  0  0  0  0  0
    7.4989    0.2170    0.4145 N   0  0  0  0  0  0  0  0  0  0  0  0
    6.5692    1.2061   -1.5636 N   0  0  0  0  0  0  0  0  0  0  0  0
   -0.7323   -2.1024    0.4149 H   0  0  0  0  0  0  0  0  0  0  0  0
    0.0657    0.1264    1.0019 H   0  0  0  0  0  0  0  0  0  0  0  0
    1.2839    1.4024   -0.8658 H   0  0  0  0  0  0  0  0  0  0  0  0
    1.4543   -0.1146   -1.7357 H   0  0  0  0  0  0  0  0  0  0  0  0
    2.5707    0.4434    1.0668 H   0  0  0  0  0  0  0  0  0  0  0  0
    2.7509   -1.0766    0.1836 H   0  0  0  0  0  0  0  0  0  0  0  0
    3.9951    0.0792   -1.6172 H   0  0  0  0  0  0  0  0  0  0  0  0
    3.8473    1.6251   -0.7490 H   0  0  0  0  0  0  0  0  0  0  0  0
    5.0422   -0.2584    1.0140 H   0  0  0  0  0  0  0  0  0  0  0  0
    8.4402    0.4432    0.1020 H   0  0  0  0  0  0  0  0  0  0  0  0
    7.4010   -0.2624    1.3062 H   0  0  0  0  0  0  0  0  0  0  0  0
    7.4940    1.4486   -1.9093 H   0  0  0  0  0  0  0  0  0  0  0  0
    5.7741    1.4624   -2.1442 H   0  0  0  0  0  0  0  0  0  0  0  0
   -1.0479    1.5943   -1.1500 N   0  0  0  0  0  0  0  0  0  0  0  0
   -2.0807    2.2709   -1.9004 C   0  0  2  0  0  0  0  0  0  0  0  0
   -1.4113    3.3095   -2.7908 C   0  0  0  0  0  0  0  0  0  0  0  0
   -0.4024    3.9280   -2.4582 O   0  0  0  0  0  0  0  0  0  0  0  0
   -3.0992    2.9216   -0.9773 C   0  0  0  0  0  0  0  0  0  0  0  0
   -0.2385    2.1386   -0.8666 H   0  0  0  0  0  0  0  0  0  0  0  0
   -2.5665    1.5127   -2.5243 H   0  0  0  0  0  0  0  0  0  0  0  0
   -2.6309    3.6841   -0.3443 H   0  0  0  0  0  0  0  0  0  0  0  0
   -3.8966    3.4095   -1.5475 H   0  0  0  0  0  0  0  0  0  0  0  0
   -3.5581    2.1777   -0.3172 H   0  0  0  0  0  0  0  0  0  0  0  0
   -2.0978    3.4956   -3.9825 N   0  0  0  0  0  0  0  0  0  0  0  0
   -1.6862    4.4585   -4.9772 C   0  0  0  0  0  0  0  0  0  0  0  0
   -2.9015    2.9111   -4.1927 H   0  0  0  0  0  0  0  0  0  0  0  0
   -2.2080    5.4113   -4.8038 H   0  0  0  0  0  0  0  0  0  0  0  0
   -0.6001    4.6172   -4.9063 H   0  0  0  0  0  0  0  0  0  0  0  0
   -1.9370    4.0803   -5.9792 H   0  0  0  0  0  0  0  0  0  0  0  0
  1  3  1  0  0  0  0
  1  7  1  0  0  0  0
  1  2  2  0  0  0  0
 42 43  1  0  0  0  0
 43 51  1  0  0  0  0
 43 44  2  0  0  0  0
  8  9  1  0  0  0  0
  9 17  1  0  0  0  0
  9 10  2  0  0  0  0
 18 19  1  0  0  0  0
 19 41  1  0  0  0  0
 19 20  2  0  0  0  0
 25 26  1  0  0  0  0
 25 27  1  0  0  0  0
 24 25  2  0  0  0  0
 42 45  1  0  0  0  0
  8 11  1  0  0  0  0
 51 52  1  0  0  0  0
 21 22  1  0  0  0  0
 22 23  1  0  0  0  0
 18 21  1  0  0  0  0
 23 24  1  0  0  0  0
 41 42  1  0  0  0  0
  7  8  1  0  0  0  0
 17 18  1  0  0  0  0
  3  4  1  0  0  0  0
  3  5  1  0  0  0  0
  3  6  1  0  0  0  0
 45 48  1  0  0  0  0
 45 49  1  0  0  0  0
 45 50  1  0  0  0  0
 11 14  1  0  0  0  0
 11 15  1  0  0  0  0
 11 16  1  0  0  0  0
 52 54  1  0  0  0  0
 52 55  1  0  0  0  0
 52 56  1  0  0  0  0
 22 32  1  0  0  0  0
 22 33  1  0  0  0  0
 21 30  1  0  0  0  0
 21 31  1  0  0  0  0
 23 34  1  0  0  0  0
 23 35  1  0  0  0  0
 42 47  1  0  0  0  0
  8 13  1  0  0  0  0
 18 29  1  0  0  0  0
 26 37  1  0  0  0  0
 26 38  1  0  0  0  0
 27 39  1  0  0  0  0
 27 40  1  0  0  0  0
 51 53  1  0  0  0  0
  7 12  1  0  0  0  0
 41 46  1  0  0  0  0
 17 28  1  0  0  0  0
 24 36  1  0  0  0  0
M  CHG  1  24   1
M  END
$$$$

  -OEChem-05262214473D

 56 55  0     1  0  0  0  0  0999 V2000
    0.7735   -5.8042   -2.0022 C   0  0  0  0  0  0  0  0  0  0  0  0
   -0.2086   -6.3825   -1.5519 O   0  0  0  0  0  0  0  0  0  0  0  0
    1.4751   -6.3646   -3.1946 C   0  0  0  0  0  0  0  0  0  0  0  0
    2.2765   -7.0687   -2.9186 H   0  0  0  0  0  0  0  0  0  0  0  0
    0.7988   -6.9360   -3.8504 H   0  0  0  0  0  0  0  0  0  0  0  0
    1.9556   -5.6216   -3.8511 H   0  0  0  0  0  0  0  0  0  0  0  0
    1.3322   -4.6359   -1.5106 N   0  0  0  0  0  0  0  0  0  0  0  0
    0.8124   -3.9290   -0.3698 C   0  0  2  0  0  0  0  0  0  0  0  0
    1.0666   -2.4424   -0.5818 C   0  0  0  0  0  0  0  0  0  0  0  0
    2.0598   -2.0076   -1.1610 O   0  0  0  0  0  0  0  0  0  0  0  0
    1.4560   -4.4118    0.9207 C   0  0  0  0  0  0  0  0  0  0  0  0
    2.1528   -4.2578   -1.9805 H   0  0  0  0  0  0  0  0  0  0  0  0
   -0.2667   -4.1160   -0.3467 H   0  0  0  0  0  0  0  0  0  0  0  0
    2.5374   -4.2329    0.9160 H   0  0  0  0  0  0  0  0  0  0  0  0
    1.0390   -3.8932    1.7903 H   0  0  0  0  0  0  0  0  0  0  0  0
    1.2976   -5.4871    1.0566 H   0  0  0  0  0  0  0  0  0  0  0  0
    0.0755   -1.6529   -0.0105 N   0  0  0  0  0  0  0  0  0  0  0  0
    0.1113   -0.2132   -0.0391 C   0  0  2  0  0  0  0  0  0  0  0  0
   -1.1385    0.2618   -0.7725 C   0  0  0  0  0  0  0  0  0  0  0  0
   -2.1853   -0.3822   -0.7965 O   0  0  0  0  0  0  0  0  0  0  0  0
    1.3717    0.3178   -0.7297 C   0  0  0  0  0  0  0  0  0  0  0  0
    2.6469    0.0078    0.0633 C   0  0  0  0  0  0  0  0  0  0  0  0
    3.8981    0.5386   -0.6287 C   0  0  0  0  0  0  0  0  0  0  0  0
    5.1131    0.2210    0.1182 N   0  3  0  0  0  0  0  0  0  0  0  0
    6.3862    0.5509   -0.3503 C   0  0  0  0  0  0  0  0  0  0  0  0
    7.4989    0.2170    0.4145 N   0  0  0  0  0  0  0  0  0  0  0  0
    6.5692    1.2061   -1.5636 N   0  0  0  0  0  0  0  0  0  0  0  0
   -0.7323   -2.1024    0.4149 H   0  0  0  0  0  0  0  0  0  0  0  0
    0.0657    0.1264    1.0019 H   0  0  0  0  0  0  0  0  0  0  0  0
    1.2839    1.4024   -0.8658 H   0  0  0  0  0  0  0  0  0  0  0  0
    1.4543   -0.1146   -1.7357 H   0  0  0  0  0  0  0  0  0  0  0  0
    2.5707    0.4434    1.0668 H   0  0  0  0  0  0  0  0  0  0  0  0
    2.7509   -1.0766    0.1836 H   0  0  0  0  0  0  0  0  0  0  0  0
    3.9951    0.0792   -1.6172 H   0  0  0  0  0  0  0  0  0  0  0  0
    3.8473    1.6251   -0.7490 H   0  0  0  0  0  0  0  0  0  0  0  0
    5.0422   -0.2584    1.0140 H   0  0  0  0  0  0  0  0  0  0  0  0
    8.4402    0.4432    0.1020 H   0  0  0  0  0  0  0  0  0  0  0  0
    7.4010   -0.2624    1.3062 H   0  0  0  0  0  0  0  0  0  0  0  0
    7.4940    1.4486   -1.9093 H   0  0  0  0  0  0  0  0  0  0  0  0
    5.7741    1.4624   -2.1442 H   0  0  0  0  0  0  0  0  0  0  0  0
   -0.9302    1.4631   -1.4356 N   0  0  0  0  0  0  0  0  0  0  0  0
   -1.9436    2.1011   -2.2440 C   0  0  2  0  0  0  0  0  0  0  0  0
   -1.2453    2.8342   -3.3816 C   0  0  0  0  0  0  0  0  0  0  0  0
   -0.1447    3.3682   -3.2599 O   0  0  0  0  0  0  0  0  0  0  0  0
   -2.7886    3.0584   -1.4180 C   0  0  0  0  0  0  0  0  0  0  0  0
   -0.0402    1.9416   -1.3323 H   0  0  0  0  0  0  0  0  0  0  0  0
   -2.5704    1.3018   -2.6542 H   0  0  0  0  0  0  0  0  0  0  0  0
   -2.1777    3.8662   -0.9987 H   0  0  0  0  0  0  0  0  0  0  0  0
   -3.5742    3.5195   -2.0256 H   0  0  0  0  0  0  0  0  0  0  0  0
   -3.2664    2.5352   -0.5827 H   0  0  0  0  0  0  0  0  0  0  0  0
   -2.0146    2.8593   -4.5364 N   0  0  0  0  0  0  0  0  0  0  0  0
   -1.5897    3.5319   -5.7418 C   0  0  0  0  0  0  0  0  0  0  0  0
   -2.8968    2.3563   -4.5601 H   0  0  0  0  0  0  0  0  0  0  0  0
   -1.9790    4.5607   -5.7450 H   0  0  0  0  0  0  0  0  0  0  0  0
   -0.4907    3.5557   -5.7803 H   0  0  0  0  0  0  0  0  0  0  0  0
   -1.9757    2.9913   -6.6187 H   0  0  0  0  0  0  0  0  0  0  0  0
  1  3  1  0  0  0  0
  1  7  1  0  0  0  0
  1  2  2  0  0  0  0
 42 43  1  0  0  0  0
 43 51  1  0  0  0  0
 43 44  2  0  0  0  0
  8  9  1  0  0  0  0
  9 17  1  0  0  0  0
  9 10  2  0  0  0  0
 18 19  1  0  0  0  0
 19 41  1  0  0  0  0
 19 20  2  0  0  0  0
 25 26  1  0  0  0  0
 25 27  1  0  0  0  0
 24 25  2  0  0  0  0
 42 45  1  0  0  0  0
  8 11  1  0  0  0  0
 51 52  1  0  0  0  0
 21 22  1  0  0  0  0
 22 23  1  0  0  0  0
 18 21  1  0  0  0  0
 23 24  1  0  0  0  0
 41 42  1  0  0  0  0
  7  8  1  0  0  0  0
 17 18  1  0  0  0  0
  3  4  1  0  0  0  0
  3  5  1  0  0  0  0
  3  6  1  0  0  0  0
 45 48  1  0  0  0  0
 45 49  1  0  0  0  0
 45 50  1  0  0  0  0
 11 14  1  0  0  0  0
 11 15  1  0  0  0  0
 11 16  1  0  0  0  0
 52 54  1  0  0  0  0
 52 55  1  0  0  0  0
 52 56  1  0  0  0  0
 22 32  1  0  0  0  0
 22 33  1  0  0  0  0
 21 30  1  0  0  0  0
 21 31  1  0  0  0  0
 23 34  1  0  0  0  0
 23 35  1  0  0  0  0
 42 47  1  0  0  0  0
  8 13  1  0  0  0  0
 18 29  1  0  0  0  0
 26 37  1  0  0  0  0
 26 38  1  0  0  0  0
 27 39  1  0  0  0  0
 27 40  1  0  0  0  0
 51 53  1  0  0  0  0
  7 12  1  0  0  0  0
 41 46  1  0  0  0  0
 17 28  1  0  0  0  0
 24 36  1  0  0  0  0
M  CHG  1  24   1
M  END
$$$$

  -OEChem-05262214473D

 56 55  0     1  0  0  0  0  0999 V2000
    0.7735   -5.8042   -2.0022 C   0  0  0  0  0  0  0  0  0  0  0  0
   -0.2086   -6.3825   -1.5519 O   0  0  0  0  0  0  0  0  0  0  0  0
    1.4751   -6.3646   -3.1946 C   0  0  0  0  0  0  0  0  0  0  0  0
    2.2765   -7.0687   -2.9186 H   0  0  0  0  0  0  0  0  0  0  0  0
    0.7988   -6.9360   -3.8504 H   0  0  0  0  0  0  0  0  0  0  0  0
    1.9556   -5.6216   -3.8511 H   0  0  0  0  0  0  0  0  0  0  0  0
    1.3322   -4.6359   -1.5106 N   0  0  0  0  0  0  0  0  0  0  0  0
    0.8124   -3.9290   -0.3698 C   0  0  2  0  0  0  0  0  0  0  0  0
    1.0666   -2.4424   -0.5818 C   0  0  0  0  0  0  0  0  0  0  0  0
    2.0598   -2.0076   -1.1610 O   0  0  0  0  0  0  0  0  0  0  0  0
    1.4560   -4.4118    0.9207 C   0  0  0  0  0  0  0  0  0  0  0  0
    2.1528   -4.2578   -1.9805 H   0  0  0  0  0  0  0  0  0  0  0  0
   -0.2667   -4.1160   -0.3467 H   0  0  0  0  0  0  0  0  0  0  0  0
    2.5374   -4.2329    0.9160 H   0  0  0  0  0  0  0  0  0  0  0  0
    1.0390   -3.8932    1.7903 H   0  0  0  0  0  0  0  0  0  0  0  0
    1.2976   -5.4871    1.0566 H   0  0  0  0  0  0  0  0  0  0  0  0
    0.0755   -1.6529   -0.0105 N   0  0  0  0  0  0  0  0  0  0  0  0
    0.1113   -0.2132   -0.0391 C   0  0  2  0  0  0  0  0  0  0  0  0
   -1.1385    0.2618   -0.7725 C   0  0  0  0  0  0  0  0  0  0  0  0
   -2.2504   -0.2280   -0.5857 O   0  0  0  0  0  0  0  0  0  0  0  0
    1.3717    0.3178   -0.7297 C   0  0  0  0  0  0  0  0  0  0  0  0
    2.6469    0.0078    0.0633 C   0  0  0  0  0  0  0  0  0  0  0  0
    3.8981    0.5386   -0.6287 C   0  0  0  0  0  0  0  0  0  0  0  0
    5.1131    0.2210    0.1182 N   0  3  0  0  0  0  0  0  0  0  0  0
    6.3862    0.5509   -0.3503 C   0  0  0  0  0  0  0  0  0  0  0  0
    7.4989    0.2170    0.4145 N   0  0  0  0  0  0  0  0  0  0  0  0
    6.5692    1.2061   -1.5636 N   0  0  0  0  0  0  0  0  0  0  0  0
   -0.7323   -2.1024    0.4149 H   0  0  0  0  0  0  0  0  0  0  0  0
    0.0657    0.1264    1.0019 H   0  0  0  0  0  0  0  0  0  0  0  0
    1.2839    1.4024   -0.8658 H   0  0  0  0  0  0  0  0  0  0  0  0
    1.4543   -0.1146   -1.7357 H   0  0  0  0  0  0  0  0  0  0  0  0
    2.5707    0.4434    1.0668 H   0  0  0  0  0  0  0  0  0  0  0  0
    2.7509   -1.0766    0.1836 H   0  0  0  0  0  0  0  0  0  0  0  0
    3.9951    0.0792   -1.6172 H   0  0  0  0  0  0  0  0  0  0  0  0
    3.8473    1.6251   -0.7490 H   0  0  0  0  0  0  0  0  0  0  0  0
    5.0422   -0.2584    1.0140 H   0  0  0  0  0  0  0  0  0  0  0  0
    8.4402    0.4432    0.1020 H   0  0  0  0  0  0  0  0  0  0  0  0
    7.4010   -0.2624    1.3062 H   0  0  0  0  0  0  0  0  0  0  0  0
    7.4940    1.4486   -1.9093 H   0  0  0  0  0  0  0  0  0  0  0  0
    5.7741    1.4624   -2.1442 H   0  0  0  0  0  0  0  0  0  0  0  0
   -0.8558    1.2611   -1.6932 N   0  0  0  0  0  0  0  0  0  0  0  0
   -1.8601    1.8471   -2.5508 C   0  0  2  0  0  0  0  0  0  0  0  0
   -1.1916    2.2292   -3.8649 C   0  0  0  0  0  0  0  0  0  0  0  0
   -0.0302    2.6254   -3.9363 O   0  0  0  0  0  0  0  0  0  0  0  0
   -2.5071    3.0585   -1.8977 C   0  0  0  0  0  0  0  0  0  0  0  0
    0.0894    1.6277   -1.7563 H   0  0  0  0  0  0  0  0  0  0  0  0
   -2.6110    1.0710   -2.7346 H   0  0  0  0  0  0  0  0  0  0  0  0
   -1.7701    3.8469   -1.7059 H   0  0  0  0  0  0  0  0  0  0  0  0
   -3.2877    3.4842   -2.5368 H   0  0  0  0  0  0  0  0  0  0  0  0
   -2.9615    2.7879   -0.9385 H   0  0  0  0  0  0  0  0  0  0  0  0
   -2.0581    2.1169   -4.9432 N   0  0  0  0  0  0  0  0  0  0  0  0
   -1.6735    2.4627   -6.2917 C   0  0  0  0  0  0  0  0  0  0  0  0
   -2.9908    1.7419   -4.7978 H   0  0  0  0  0  0  0  0  0  0  0  0
   -1.9396    3.5110   -6.4921 H   0  0  0  0  0  0  0  0  0  0  0  0
   -0.5876    2.3314   -6.4082 H   0  0  0  0  0  0  0  0  0  0  0  0
   -2.2001    1.8086   -7.0022 H   0  0  0  0  0  0  0  0  0  0  0  0
  1  3  1  0  0  0  0
  1  7  1  0  0  0  0
  1  2  2  0  0  0  0
 42 43  1  0  0  0  0
 43 51  1  0  0  0  0
 43 44  2  0  0  0  0
  8  9  1  0  0  0  0
  9 17  1  0  0  0  0
  9 10  2  0  0  0  0
 18 19  1  0  0  0  0
 19 41  1  0  0  0  0
 19 20  2  0  0  0  0
 25 26  1  0  0  0  0
 25 27  1  0  0  0  0
 24 25  2  0  0  0  0
 42 45  1  0  0  0  0
  8 11  1  0  0  0  0
 51 52  1  0  0  0  0
 21 22  1  0  0  0  0
 22 23  1  0  0  0  0
 18 21  1  0  0  0  0
 23 24  1  0  0  0  0
 41 42  1  0  0  0  0
  7  8  1  0  0  0  0
 17 18  1  0  0  0  0
  3  4  1  0  0  0  0
  3  5  1  0  0  0  0
  3  6  1  0  0  0  0
 45 48  1  0  0  0  0
 45 49  1  0  0  0  0
 45 50  1  0  0  0  0
 11 14  1  0  0  0  0
 11 15  1  0  0  0  0
 11 16  1  0  0  0  0
 52 54  1  0  0  0  0
 52 55  1  0  0  0  0
 52 56  1  0  0  0  0
 22 32  1  0  0  0  0
 22 33  1  0  0  0  0
 21 30  1  0  0  0  0
 21 31  1  0  0  0  0
 23 34  1  0  0  0  0
 23 35  1  0  0  0  0
 42 47  1  0  0  0  0
  8 13  1  0  0  0  0
 18 29  1  0  0  0  0
 26 37  1  0  0  0  0
 26 38  1  0  0  0  0
 27 39  1  0  0  0  0
 27 40  1  0  0  0  0
 51 53  1  0  0  0  0
  7 12  1  0  0  0  0
 41 46  1  0  0  0  0
 17 28  1  0  0  0  0
 24 36  1  0  0  0  0
M  CHG  1  24   1
M  END
$$$$

  -OEChem-05262214473D

 56 55  0     1  0  0  0  0  0999 V2000
    0.7735   -5.8042   -2.0022 C   0  0  0  0  0  0  0  0  0  0  0  0
   -0.2086   -6.3825   -1.5519 O   0  0  0  0  0  0  0  0  0  0  0  0
    1.4751   -6.3646   -3.1946 C   0  0  0  0  0  0  0  0  0  0  0  0
    2.2765   -7.0687   -2.9186 H   0  0  0  0  0  0  0  0  0  0  0  0
    0.7988   -6.9360   -3.8504 H   0  0  0  0  0  0  0  0  0  0  0  0
    1.9556   -5.6216   -3.8511 H   0  0  0  0  0  0  0  0  0  0  0  0
    1.3322   -4.6359   -1.5106 N   0  0  0  0  0  0  0  0  0  0  0  0
    0.8124   -3.9290   -0.3698 C   0  0  2  0  0  0  0  0  0  0  0  0
    1.0666   -2.4424   -0.5818 C   0  0  0  0  0  0  0  0  0  0  0  0
    2.0598   -2.0076   -1.1610 O   0  0  0  0  0  0  0  0  0  0  0  0
    1.4560   -4.4118    0.9207 C   0  0  0  0  0  0  0  0  0  0  0  0
    2.1528   -4.2578   -1.9805 H   0  0  0  0  0  0  0  0  0  0  0  0
   -0.2667   -4.1160   -0.3467 H   0  0  0  0  0  0  0  0  0  0  0  0
    2.5374   -4.2329    0.9160 H   0  0  0  0  0  0  0  0  0  0  0  0
    1.0390   -3.8932    1.7903 H   0  0  0  0  0  0  0  0  0  0  0  0
    1.2976   -5.4871    1.0566 H   0  0  0  0  0  0  0  0  0  0  0  0
    0.0755   -1.6529   -0.0105 N   0  0  0  0  0  0  0  0  0  0  0  0
    0.1113   -0.2132   -0.0391 C   0  0  2  0  0  0  0  0  0  0  0  0
   -1.1385    0.2618   -0.7725 C   0  0  0  0  0  0  0  0  0  0  0  0
   -2.2771   -0.0261   -0.4094 O   0  0  0  0  0  0  0  0  0  0  0  0
    1.3717    0.3178   -0.7297 C   0  0  0  0  0  0  0  0  0  0  0  0
    2.6469    0.0078    0.0633 C   0  0  0  0  0  0  0  0  0  0  0  0
    3.8981    0.5386   -0.6287 C   0  0  0  0  0  0  0  0  0  0  0  0
    5.1131    0.2210    0.1182 N   0  3  0  0  0  0  0  0  0  0  0  0
    6.3862    0.5509   -0.3503 C   0  0  0  0  0  0  0  0  0  0  0  0
    7.4989    0.2170    0.4145 N   0  0  0  0  0  0  0  0  0  0  0  0
    6.5692    1.2061   -1.5636 N   0  0  0  0  0  0  0  0  0  0  0  0
   -0.7323   -2.1024    0.4149 H   0  0  0  0  0  0  0  0  0  0  0  0
    0.0657    0.1264    1.0019 H   0  0  0  0  0  0  0  0  0  0  0  0
    1.2839    1.4024   -0.8658 H   0  0  0  0  0  0  0  0  0  0  0  0
    1.4543   -0.1146   -1.7357 H   0  0  0  0  0  0  0  0  0  0  0  0
    2.5707    0.4434    1.0668 H   0  0  0  0  0  0  0  0  0  0  0  0
    2.7509   -1.0766    0.1836 H   0  0  0  0  0  0  0  0  0  0  0  0
    3.9951    0.0792   -1.6172 H   0  0  0  0  0  0  0  0  0  0  0  0
    3.8473    1.6251   -0.7490 H   0  0  0  0  0  0  0  0  0  0  0  0
    5.0422   -0.2584    1.0140 H   0  0  0  0  0  0  0  0  0  0  0  0
    8.4402    0.4432    0.1020 H   0  0  0  0  0  0  0  0  0  0  0  0
    7.4010   -0.2624    1.3062 H   0  0  0  0  0  0  0  0  0  0  0  0
    7.4940    1.4486   -1.9093 H   0  0  0  0  0  0  0  0  0  0  0  0
    5.7741    1.4624   -2.1442 H   0  0  0  0  0  0  0  0  0  0  0  0
   -0.8298    1.0022   -1.9052 N   0  0  0  0  0  0  0  0  0  0  0  0
   -1.8357    1.5263   -2.8001 C   0  0  2  0  0  0  0  0  0  0  0  0
   -1.2541    1.5356   -4.2077 C   0  0  0  0  0  0  0  0  0  0  0  0
   -0.0665    1.7501   -4.4413 O   0  0  0  0  0  0  0  0  0  0  0  0
   -2.2738    2.9218   -2.3838 C   0  0  0  0  0  0  0  0  0  0  0  0
    0.1412    1.2186   -2.1097 H   0  0  0  0  0  0  0  0  0  0  0  0
   -2.6854    0.8360   -2.7600 H   0  0  0  0  0  0  0  0  0  0  0  0
   -1.4358    3.6275   -2.4178 H   0  0  0  0  0  0  0  0  0  0  0  0
   -3.0565    3.3061   -3.0461 H   0  0  0  0  0  0  0  0  0  0  0  0
   -2.6643    2.9186   -1.3604 H   0  0  0  0  0  0  0  0  0  0  0  0
   -2.2253    1.3189   -5.1751 N   0  0  0  0  0  0  0  0  0  0  0  0
   -1.9318    1.3236   -6.5893 C   0  0  0  0  0  0  0  0  0  0  0  0
   -3.1774    1.1098   -4.8894 H   0  0  0  0  0  0  0  0  0  0  0  0
   -2.0924    2.3337   -6.9942 H   0  0  0  0  0  0  0  0  0  0  0  0
   -0.8842    1.0277   -6.7472 H   0  0  0  0  0  0  0  0  0  0  0  0
   -2.5951    0.6127   -7.1037 H   0  0  0  0  0  0  0  0  0  0  0  0
  1  3  1  0  0  0  0
  1  7  1  0  0  0  0
  1  2  2  0  0  0  0
 42 43  1  0  0  0  0
 43 51  1  0  0  0  0
 43 44  2  0  0  0  0
  8  9  1  0  0  0  0
  9 17  1  0  0  0  0
  9 10  2  0  0  0  0
 18 19  1  0  0  0  0
 19 41  1  0  0  0  0
 19 20  2  0  0  0  0
 25 26  1  0  0  0  0
 25 27  1  0  0  0  0
 24 25  2  0  0  0  0
 42 45  1  0  0  0  0
  8 11  1  0  0  0  0
 51 52  1  0  0  0  0
 21 22  1  0  0  0  0
 22 23  1  0  0  0  0
 18 21  1  0  0  0  0
 23 24  1  0  0  0  0
 41 42  1  0  0  0  0
  7  8  1  0  0  0  0
 17 18  1  0  0  0  0
  3  4  1  0  0  0  0
  3  5  1  0  0  0  0
  3  6  1  0  0  0  0
 45 48  1  0  0  0  0
 45 49  1  0  0  0  0
 45 50  1  0  0  0  0
 11 14  1  0  0  0  0
 11 15  1  0  0  0  0
 11 16  1  0  0  0  0
 52 54  1  0  0  0  0
 52 55  1  0  0  0  0
 52 56  1  0  0  0  0
 22 32  1  0  0  0  0
 22 33  1  0  0  0  0
 21 30  1  0  0  0  0
 21 31  1  0  0  0  0
 23 34  1  0  0  0  0
 23 35  1  0  0  0  0
 42 47  1  0  0  0  0
  8 13  1  0  0  0  0
 18 29  1  0  0  0  0
 26 37  1  0  0  0  0
 26 38  1  0  0  0  0
 27 39  1  0  0  0  0
 27 40  1  0  0  0  0
 51 53  1  0  0  0  0
  7 12  1  0  0  0  0
 41 46  1  0  0  0  0
 17 28  1  0  0  0  0
 24 36  1  0  0  0  0
M  CHG  1  24   1
M  END
$$$$

  -OEChem-05262214473D

 56 55  0     1  0  0  0  0  0999 V2000
    0.7735   -5.8042   -2.0022 C   0  0  0  0  0  0  0  0  0  0  0  0
   -0.2086   -6.3825   -1.5519 O   0  0  0  0  0  0  0  0  0  0  0  0
    1.4751   -6.3646   -3.1946 C   0  0  0  0  0  0  0  0  0  0  0  0
    2.2765   -7.0687   -2.9186 H   0  0  0  0  0  0  0  0  0  0  0  0
    0.7988   -6.9360   -3.8504 H   0  0  0  0  0  0  0  0  0  0  0  0
    1.9556   -5.6216   -3.8511 H   0  0  0  0  0  0  0  0  0  0  0  0
    1.3322   -4.6359   -1.5106 N   0  0  0  0  0  0  0  0  0  0  0  0
    0.8124   -3.9290   -0.3698 C   0  0  2  0  0  0  0  0  0  0  0  0
    1.0666   -2.4424   -0.5818 C   0  0  0  0  0  0  0  0  0  0  0  0
    2.0598   -2.0076   -1.1610 O   0  0  0  0  0  0  0  0  0  0  0  0
    1.4560   -4.4118    0.9207 C   0  0  0  0  0  0  0  0  0  0  0  0
    2.1528   -4.2578   -1.9805 H   0  0  0  0  0  0  0  0  0  0  0  0
   -0.2667   -4.1160   -0.3467 H   0  0  0  0  0  0  0  0  0  0  0  0
    2.5374   -4.2329    0.9160 H   0  0  0  0  0  0  0  0  0  0  0  0
    1.0390   -3.8932    1.7903 H   0  0  0  0  0  0  0  0  0  0  0  0
    1.2976   -5.4871    1.0566 H   0  0  0  0  0  0  0  0  0  0  0  0
    0.0755   -1.6529   -0.0105 N   0  0  0  0  0  0  0  0  0  0  0  0
    0.1113   -0.2132   -0.0391 C   0  0  2  0  0  0  0  0  0  0  0  0
   -1.1385    0.2618   -0.7725 C   0  0  0  0  0  0  0  0  0  0  0  0
   -2.2635    0.2095   -0.2799 O   0  0  0  0  0  0  0  0  0  0  0  0
    1.3717    0.3178   -0.7297 C   0  0  0  0  0  0  0  0  0  0  0  0
    2.6469    0.0078    0.0633 C   0  0  0  0  0  0  0  0  0  0  0  0
    3.8981    0.5386   -0.6287 C   0  0  0  0  0  0  0  0  0  0  0  0
    5.1131    0.2210    0.1182 N   0  3  0  0  0  0  0  0  0  0  0  0
    6.3862    0.5509   -0.3503 C   0  0  0  0  0  0  0  0  0  0  0  0
    7.4989    0.2170    0.4145 N   0  0  0  0  0  0  0  0  0  0  0  0
    6.5692    1.2061   -1.5636 N   0  0  0  0  0  0  0  0  0  0  0  0
   -0.7323   -2.1024    0.4149 H   0  0  0  0  0  0  0  0  0  0  0  0
    0.0657    0.1264    1.0019 H   0  0  0  0  0  0  0  0  0  0  0  0
    1.2839    1.4024   -0.8658 H   0  0  0  0  0  0  0  0  0  0  0  0
    1.4543   -0.1146   -1.7357 H   0  0  0  0  0  0  0  0  0  0  0  0
    2.5707    0.4434    1.0668 H   0  0  0  0  0  0  0  0  0  0  0  0
    2.7509   -1.0766    0.1836 H   0  0  0  0  0  0  0  0  0  0  0  0
    3.9951    0.0792   -1.6172 H   0  0  0  0  0  0  0  0  0  0  0  0
    3.8473    1.6251   -0.7490 H   0  0  0  0  0  0  0  0  0  0  0  0
    5.0422   -0.2584    1.0140 H   0  0  0  0  0  0  0  0  0  0  0  0
    8.4402    0.4432    0.1020 H   0  0  0  0  0  0  0  0  0  0  0  0
    7.4010   -0.2624    1.3062 H   0  0  0  0  0  0  0  0  0  0  0  0
    7.4940    1.4486   -1.9093 H   0  0  0  0  0  0  0  0  0  0  0  0
    5.7741    1.4624   -2.1442 H   0  0  0  0  0  0  0  0  0  0  0  0
   -0.8541    0.7038   -2.0571 N   0  0  0  0  0  0  0  0  0  0  0  0
   -1.8723    1.1605   -2.9748 C   0  0  2  0  0  0  0  0  0  0  0  0
   -1.4284    0.8007   -4.3866 C   0  0  0  0  0  0  0  0  0  0  0  0
   -0.2512    0.8021   -4.7405 O   0  0  0  0  0  0  0  0  0  0  0  0
   -2.1047    2.6576   -2.8431 C   0  0  0  0  0  0  0  0  0  0  0  0
    0.1119    0.7419   -2.3685 H   0  0  0  0  0  0  0  0  0  0  0  0
   -2.7885    0.6129   -2.7287 H   0  0  0  0  0  0  0  0  0  0  0  0
   -1.1975    3.2229   -3.0858 H   0  0  0  0  0  0  0  0  0  0  0  0
   -2.8965    2.9972   -3.5190 H   0  0  0  0  0  0  0  0  0  0  0  0
   -2.3949    2.9183   -1.8196 H   0  0  0  0  0  0  0  0  0  0  0  0
   -2.5049    0.5197   -5.2164 N   0  0  0  0  0  0  0  0  0  0  0  0
   -2.3471    0.1925   -6.6142 C   0  0  0  0  0  0  0  0  0  0  0  0
   -3.4436    0.5030   -4.8287 H   0  0  0  0  0  0  0  0  0  0  0  0
   -2.4270    1.1090   -7.2172 H   0  0  0  0  0  0  0  0  0  0  0  0
   -1.3603   -0.2665   -6.7741 H   0  0  0  0  0  0  0  0  0  0  0  0
   -3.1337   -0.5147   -6.9162 H   0  0  0  0  0  0  0  0  0  0  0  0
  1  3  1  0  0  0  0
  1  7  1  0  0  0  0
  1  2  2  0  0  0  0
 42 43  1  0  0  0  0
 43 51  1  0  0  0  0
 43 44  2  0  0  0  0
  8  9  1  0  0  0  0
  9 17  1  0  0  0  0
  9 10  2  0  0  0  0
 18 19  1  0  0  0  0
 19 41  1  0  0  0  0
 19 20  2  0  0  0  0
 25 26  1  0  0  0  0
 25 27  1  0  0  0  0
 24 25  2  0  0  0  0
 42 45  1  0  0  0  0
  8 11  1  0  0  0  0
 51 52  1  0  0  0  0
 21 22  1  0  0  0  0
 22 23  1  0  0  0  0
 18 21  1  0  0  0  0
 23 24  1  0  0  0  0
 41 42  1  0  0  0  0
  7  8  1  0  0  0  0
 17 18  1  0  0  0  0
  3  4  1  0  0  0  0
  3  5  1  0  0  0  0
  3  6  1  0  0  0  0
 45 48  1  0  0  0  0
 45 49  1  0  0  0  0
 45 50  1  0  0  0  0
 11 14  1  0  0  0  0
 11 15  1  0  0  0  0
 11 16  1  0  0  0  0
 52 54  1  0  0  0  0
 52 55  1  0  0  0  0
 52 56  1  0  0  0  0
 22 32  1  0  0  0  0
 22 33  1  0  0  0  0
 21 30  1  0  0  0  0
 21 31  1  0  0  0  0
 23 34  1  0  0  0  0
 23 35  1  0  0  0  0
 42 47  1  0  0  0  0
  8 13  1  0  0  0  0
 18 29  1  0  0  0  0
 26 37  1  0  0  0  0
 26 38  1  0  0  0  0
 27 39  1  0  0  0  0
 27 40  1  0  0  0  0
 51 53  1  0  0  0  0
  7 12  1  0  0  0  0
 41 46  1  0  0  0  0
 17 28  1  0  0  0  0
 24 36  1  0  0  0  0
M  CHG  1  24   1
M  END
$$$$

  -OEChem-05262214473D

 56 55  0     1  0  0  0  0  0999 V2000
    0.7735   -5.8042   -2.0022 C   0  0  0  0  0  0  0  0  0  0  0  0
   -0.2086   -6.3825   -1.5519 O   0  0  0  0  0  0  0  0  0  0  0  0
    1.4751   -6.3646   -3.1946 C   0  0  0  0  0  0  0  0  0  0  0  0
    2.2765   -7.0687   -2.9186 H   0  0  0  0  0  0  0  0  0  0  0  0
    0.7988   -6.9360   -3.8504 H   0  0  0  0  0  0  0  0  0  0  0  0
    1.9556   -5.6216   -3.8511 H   0  0  0  0  0  0  0  0  0  0  0  0
    1.3322   -4.6359   -1.5106 N   0  0  0  0  0  0  0  0  0  0  0  0
    0.8124   -3.9290   -0.3698 C   0  0  2  0  0  0  0  0  0  0  0  0
    1.0666   -2.4424   -0.5818 C   0  0  0  0  0  0  0  0  0  0  0  0
    2.0598   -2.0076   -1.1610 O   0  0  0  0  0  0  0  0  0  0  0  0
    1.4560   -4.4118    0.9207 C   0  0  0  0  0  0  0  0  0  0  0  0
    2.1528   -4.2578   -1.9805 H   0  0  0  0  0  0  0  0  0  0  0  0
   -0.2667   -4.1160   -0.3467 H   0  0  0  0  0  0  0  0  0  0  0  0
    2.5374   -4.2329    0.9160 H   0  0  0  0  0  0  0  0  0  0  0  0
    1.0390   -3.8932    1.7903 H   0  0  0  0  0  0  0  0  0  0  0  0
    1.2976   -5.4871    1.0566 H   0  0  0  0  0  0  0  0  0  0  0  0
    0.0755   -1.6529   -0.0105 N   0  0  0  0  0  0  0  0  0  0  0  0
    0.1113   -0.2132   -0.0391 C   0  0  2  0  0  0  0  0  0  0  0  0
   -1.1385    0.2618   -0.7725 C   0  0  0  0  0  0  0  0  0  0  0  0
   -2.2107    0.4629   -0.2058 O   0  0  0  0  0  0  0  0  0  0  0  0
    1.3717    0.3178   -0.7297 C   0  0  0  0  0  0  0  0  0  0  0  0
    2.6469    0.0078    0.0633 C   0  0  0  0  0  0  0  0  0  0  0  0
    3.8981    0.5386   -0.6287 C   0  0  0  0  0  0  0  0  0  0  0  0
    5.1131    0.2210    0.1182 N   0  3  0  0  0  0  0  0  0  0  0  0
    6.3862    0.5509   -0.3503 C   0  0  0  0  0  0  0  0  0  0  0  0
    7.4989    0.2170    0.4145 N   0  0  0  0  0  0  0  0  0  0  0  0
    6.5692    1.2061   -1.5636 N   0  0  0  0  0  0  0  0  0  0  0  0
   -0.7323   -2.1024    0.4149 H   0  0  0  0  0  0  0  0  0  0  0  0
    0.0657    0.1264    1.0019 H   0  0  0  0  0  0  0  0  0  0  0  0
    1.2839    1.4024   -0.8658 H   0  0  0  0  0  0  0  0  0  0  0  0
    1.4543   -0.1146   -1.7357 H   0  0  0  0  0  0  0  0  0  0  0  0
    2.5707    0.4434    1.0668 H   0  0  0  0  0  0  0  0  0  0  0  0
    2.7509   -1.0766    0.1836 H   0  0  0  0  0  0  0  0  0  0  0  0
    3.9951    0.0792   -1.6172 H   0  0  0  0  0  0  0  0  0  0  0  0
    3.8473    1.6251   -0.7490 H   0  0  0  0  0  0  0  0  0  0  0  0
    5.0422   -0.2584    1.0140 H   0  0  0  0  0  0  0  0  0  0  0  0
    8.4402    0.4432    0.1020 H   0  0  0  0  0  0  0  0  0  0  0  0
    7.4010   -0.2624    1.3062 H   0  0  0  0  0  0  0  0  0  0  0  0
    7.4940    1.4486   -1.9093 H   0  0  0  0  0  0  0  0  0  0  0  0
    5.7741    1.4624   -2.1442 H   0  0  0  0  0  0  0  0  0  0  0  0
   -0.9270    0.3864   -2.1386 N   0  0  0  0  0  0  0  0  0  0  0  0
   -1.9671    0.7746   -3.0631 C   0  0  2  0  0  0  0  0  0  0  0  0
   -1.7027    0.0745   -4.3895 C   0  0  0  0  0  0  0  0  0  0  0  0
   -0.5718   -0.1541   -4.8136 O   0  0  0  0  0  0  0  0  0  0  0  0
   -2.0113    2.2839   -3.2444 C   0  0  0  0  0  0  0  0  0  0  0  0
    0.0034    0.2302   -2.5150 H   0  0  0  0  0  0  0  0  0  0  0  0
   -2.9134    0.4168   -2.6429 H   0  0  0  0  0  0  0  0  0  0  0  0
   -1.0716    2.6608   -3.6645 H   0  0  0  0  0  0  0  0  0  0  0  0
   -2.8184    2.5786   -3.9231 H   0  0  0  0  0  0  0  0  0  0  0  0
   -2.1718    2.7872   -2.2848 H   0  0  0  0  0  0  0  0  0  0  0  0
   -2.8777   -0.2262   -5.0642 N   0  0  0  0  0  0  0  0  0  0  0  0
   -2.8910   -0.8538   -6.3650 C   0  0  0  0  0  0  0  0  0  0  0  0
   -3.7714   -0.0372   -4.6200 H   0  0  0  0  0  0  0  0  0  0  0  0
   -2.9207   -0.0796   -7.1459 H   0  0  0  0  0  0  0  0  0  0  0  0
   -1.9834   -1.4632   -6.4873 H   0  0  0  0  0  0  0  0  0  0  0  0
   -3.7791   -1.4970   -6.4525 H   0  0  0  0  0  0  0  0  0  0  0  0
  1  3  1  0  0  0  0
  1  7  1  0  0  0  0
  1  2  2  0  0  0  0
 42 43  1  0  0  0  0
 43 51  1  0  0  0  0
 43 44  2  0  0  0  0
  8  9  1  0  0  0  0
  9 17  1  0  0  0  0
  9 10  2  0  0  0  0
 18 19  1  0  0  0  0
 19 41  1  0  0  0  0
 19 20  2  0  0  0  0
 25 26  1  0  0  0  0
 25 27  1  0  0  0  0
 24 25  2  0  0  0  0
 42 45  1  0  0  0  0
  8 11  1  0  0  0  0
 51 52  1  0  0  0  0
 21 22  1  0  0  0  0
 22 23  1  0  0  0  0
 18 21  1  0  0  0  0
 23 24  1  0  0  0  0
 41 42  1  0  0  0  0
  7  8  1  0  0  0  0
 17 18  1  0  0  0  0
  3  4  1  0  0  0  0
  3  5  1  0  0  0  0
  3  6  1  0  0  0  0
 45 48  1  0  0  0  0
 45 49  1  0  0  0  0
 45 50  1  0  0  0  0
 11 14  1  0  0  0  0
 11 15  1  0  0  0  0
 11 16  1  0  0  0  0
 52 54  1  0  0  0  0
 52 55  1  0  0  0  0
 52 56  1  0  0  0  0
 22 32  1  0  0  0  0
 22 33  1  0  0  0  0
 21 30  1  0  0  0  0
 21 31  1  0  0  0  0
 23 34  1  0  0  0  0
 23 35  1  0  0  0  0
 42 47  1  0  0  0  0
  8 13  1  0  0  0  0
 18 29  1  0  0  0  0
 26 37  1  0  0  0  0
 26 38  1  0  0  0  0
 27 39  1  0  0  0  0
 27 40  1  0  0  0  0
 51 53  1  0  0  0  0
  7 12  1  0  0  0  0
 41 46  1  0  0  0  0
 17 28  1  0  0  0  0
 24 36  1  0  0  0  0
M  CHG  1  24   1
M  END
$$$$

  -OEChem-05262214473D

 56 55  0     1  0  0  0  0  0999 V2000
    0.7735   -5.8042   -2.0022 C   0  0  0  0  0  0  0  0  0  0  0  0
   -0.2086   -6.3825   -1.5519 O   0  0  0  0  0  0  0  0  0  0  0  0
    1.4751   -6.3646   -3.1946 C   0  0  0  0  0  0  0  0  0  0  0  0
    2.2765   -7.0687   -2.9186 H   0  0  0  0  0  0  0  0  0  0  0  0
    0.7988   -6.9360   -3.8504 H   0  0  0  0  0  0  0  0  0  0  0  0
    1.9556   -5.6216   -3.8511 H   0  0  0  0  0  0  0  0  0  0  0  0
    1.3322   -4.6359   -1.5106 N   0  0  0  0  0  0  0  0  0  0  0  0
    0.8124   -3.9290   -0.3698 C   0  0  2  0  0  0  0  0  0  0  0  0
    1.0666   -2.4424   -0.5818 C   0  0  0  0  0  0  0  0  0  0  0  0
    2.0598   -2.0076   -1.1610 O   0  0  0  0  0  0  0  0  0  0  0  0
    1.4560   -4.4118    0.9207 C   0  0  0  0  0  0  0  0  0  0  0  0
    2.1528   -4.2578   -1.9805 H   0  0  0  0  0  0  0  0  0  0  0  0
   -0.2667   -4.1160   -0.3467 H   0  0  0  0  0  0  0  0  0  0  0  0
    2.5374   -4.2329    0.9160 H   0  0  0  0  0  0  0  0  0  0  0  0
    1.0390   -3.8932    1.7903 H   0  0  0  0  0  0  0  0  0  0  0  0
    1.2976   -5.4871    1.0566 H   0  0  0  0  0  0  0  0  0  0  0  0
    0.0755   -1.6529   -0.0105 N   0  0  0  0  0  0  0  0  0  0  0  0
    0.1113   -0.2132   -0.0391 C   0  0  2  0  0  0  0  0  0  0  0  0
   -1.1385    0.2618   -0.7725 C   0  0  0  0  0  0  0  0  0  0  0  0
   -2.1221    0.7168   -0.1923 O   0  0  0  0  0  0  0  0  0  0  0  0
    1.3717    0.3178   -0.7297 C   0  0  0  0  0  0  0  0  0  0  0  0
    2.6469    0.0078    0.0633 C   0  0  0  0  0  0  0  0  0  0  0  0
    3.8981    0.5386   -0.6287 C   0  0  0  0  0  0  0  0  0  0  0  0
    5.1131    0.2210    0.1182 N   0  3  0  0  0  0  0  0  0  0  0  0
    6.3862    0.5509   -0.3503 C   0  0  0  0  0  0  0  0  0  0  0  0
    7.4989    0.2170    0.4145 N   0  0  0  0  0  0  0  0  0  0  0  0
    6.5692    1.2061   -1.5636 N   0  0  0  0  0  0  0  0  0  0  0  0
   -0.7323   -2.1024    0.4149 H   0  0  0  0  0  0  0  0  0  0  0  0
    0.0657    0.1264    1.0019 H   0  0  0  0  0  0  0  0  0  0  0  0
    1.2839    1.4024   -0.8658 H   0  0  0  0  0  0  0  0  0  0  0  0
    1.4543   -0.1146   -1.7357 H   0  0  0  0  0  0  0  0  0  0  0  0
    2.5707    0.4434    1.0668 H   0  0  0  0  0  0  0  0  0  0  0  0
    2.7509   -1.0766    0.1836 H   0  0  0  0  0  0  0  0  0  0  0  0
    3.9951    0.0792   -1.6172 H   0  0  0  0  0  0  0  0  0  0  0  0
    3.8473    1.6251   -0.7490 H   0  0  0  0  0  0  0  0  0  0  0  0
    5.0422   -0.2584    1.0140 H   0  0  0  0  0  0  0  0  0  0  0  0
    8.4402    0.4432    0.1020 H   0  0  0  0  0  0  0  0  0  0  0  0
    7.4010   -0.2624    1.3062 H   0  0  0  0  0  0  0  0  0  0  0  0
    7.4940    1.4486   -1.9093 H   0  0  0  0  0  0  0  0  0  0  0  0
    5.7741    1.4624   -2.1442 H   0  0  0  0  0  0  0  0  0  0  0  0
   -1.0434    0.0716   -2.1441 N   0  0  0  0  0  0  0  0  0  0  0  0
   -2.1139    0.3950   -3.0588 C   0  0  2  0  0  0  0  0  0  0  0  0
   -2.0583   -0.5933   -4.2162 C   0  0  0  0  0  0  0  0  0  0  0  0
   -1.0064   -1.0533   -4.6554 O   0  0  0  0  0  0  0  0  0  0  0  0
   -1.9999    1.8262   -3.5602 C   0  0  0  0  0  0  0  0  0  0  0  0
   -0.1769   -0.2816   -2.5393 H   0  0  0  0  0  0  0  0  0  0  0  0
   -3.0515    0.2612   -2.5083 H   0  0  0  0  0  0  0  0  0  0  0  0
   -1.0666    1.9794   -4.1143 H   0  0  0  0  0  0  0  0  0  0  0  0
   -2.8278    2.0788   -4.2310 H   0  0  0  0  0  0  0  0  0  0  0  0
   -2.0101    2.5340   -2.7243 H   0  0  0  0  0  0  0  0  0  0  0  0
   -3.3184   -0.8680   -4.7289 N   0  0  0  0  0  0  0  0  0  0  0  0
   -3.5265   -1.7438   -5.8584 C   0  0  0  0  0  0  0  0  0  0  0  0
   -4.1384   -0.4738   -4.2774 H   0  0  0  0  0  0  0  0  0  0  0  0
   -3.5397   -1.1512   -6.7850 H   0  0  0  0  0  0  0  0  0  0  0  0
   -2.7112   -2.4806   -5.9061 H   0  0  0  0  0  0  0  0  0  0  0  0
   -4.4874   -2.2671   -5.7443 H   0  0  0  0  0  0  0  0  0  0  0  0
  1  3  1  0  0  0  0
  1  7  1  0  0  0  0
  1  2  2  0  0  0  0
 42 43  1  0  0  0  0
 43 51  1  0  0  0  0
 43 44  2  0  0  0  0
  8  9  1  0  0  0  0
  9 17  1  0  0  0  0
  9 10  2  0  0  0  0
 18 19  1  0  0  0  0
 19 41  1  0  0  0  0
 19 20  2  0  0  0  0
 25 26  1  0  0  0  0
 25 27  1  0  0  0  0
 24 25  2  0  0  0  0
 42 45  1  0  0  0  0
  8 11  1  0  0  0  0
 51 52  1  0  0  0  0
 21 22  1  0  0  0  0
 22 23  1  0  0  0  0
 18 21  1  0  0  0  0
 23 24  1  0  0  0  0
 41 42  1  0  0  0  0
  7  8  1  0  0  0  0
 17 18  1  0  0  0  0
  3  4  1  0  0  0  0
  3  5  1  0  0  0  0
  3  6  1  0  0  0  0
 45 48  1  0  0  0  0
 45 49  1  0  0  0  0
 45 50  1  0  0  0  0
 11 14  1  0  0  0  0
 11 15  1  0  0  0  0
 11 16  1  0  0  0  0
 52 54  1  0  0  0  0
 52 55  1  0  0  0  0
 52 56  1  0  0  0  0
 22 32  1  0  0  0  0
 22 33  1  0  0  0  0
 21 30  1  0  0  0  0
 21 31  1  0  0  0  0
 23 34  1  0  0  0  0
 23 35  1  0  0  0  0
 42 47  1  0  0  0  0
  8 13  1  0  0  0  0
 18 29  1  0  0  0  0
 26 37  1  0  0  0  0
 26 38  1  0  0  0  0
 27 39  1  0  0  0  0
 27 40  1  0  0  0  0
 51 53  1  0  0  0  0
  7 12  1  0  0  0  0
 41 46  1  0  0  0  0
 17 28  1  0  0  0  0
 24 36  1  0  0  0  0
M  CHG  1  24   1
M  END
$$$$

  -OEChem-05262214473D

 56 55  0     1  0  0  0  0  0999 V2000
    0.7735   -5.8042   -2.0022 C   0  0  0  0  0  0  0  0  0  0  0  0
   -0.2086   -6.3825   -1.5519 O   0  0  0  0  0  0  0  0  0  0  0  0
    1.4751   -6.3646   -3.1946 C   0  0  0  0  0  0  0  0  0  0  0  0
    2.2765   -7.0687   -2.9186 H   0  0  0  0  0  0  0  0  0  0  0  0
    0.7988   -6.9360   -3.8504 H   0  0  0  0  0  0  0  0  0  0  0  0
    1.9556   -5.6216   -3.8511 H   0  0  0  0  0  0  0  0  0  0  0  0
    1.3322   -4.6359   -1.5106 N   0  0  0  0  0  0  0  0  0  0  0  0
    0.8124   -3.9290   -0.3698 C   0  0  2  0  0  0  0  0  0  0  0  0
    1.0666   -2.4424   -0.5818 C   0  0  0  0  0  0  0  0  0  0  0  0
    2.0598   -2.0076   -1.1610 O   0  0  0  0  0  0  0  0  0  0  0  0
    1.4560   -4.4118    0.9207 C   0  0  0  0  0  0  0  0  0  0  0  0
    2.1528   -4.2578   -1.9805 H   0  0  0  0  0  0  0  0  0  0  0  0
   -0.2667   -4.1160   -0.3467 H   0  0  0  0  0  0  0  0  0  0  0  0
    2.5374   -4.2329    0.9160 H   0  0  0  0  0  0  0  0  0  0  0  0
    1.0390   -3.8932    1.7903 H   0  0  0  0  0  0  0  0  0  0  0  0
    1.2976   -5.4871    1.0566 H   0  0  0  0  0  0  0  0  0  0  0  0
    0.0755   -1.6529   -0.0105 N   0  0  0  0  0  0  0  0  0  0  0  0
    0.1113   -0.2132   -0.0391 C   0  0  2  0  0  0  0  0  0  0  0  0
   -1.1385    0.2618   -0.7725 C   0  0  0  0  0  0  0  0  0  0  0  0
   -2.0039    0.9539   -0.2403 O   0  0  0  0  0  0  0  0  0  0  0  0
    1.3717    0.3178   -0.7297 C   0  0  0  0  0  0  0  0  0  0  0  0
    2.6469    0.0078    0.0633 C   0  0  0  0  0  0  0  0  0  0  0  0
    3.8981    0.5386   -0.6287 C   0  0  0  0  0  0  0  0  0  0  0  0
    5.1131    0.2210    0.1182 N   0  3  0  0  0  0  0  0  0  0  0  0
    6.3862    0.5509   -0.3503 C   0  0  0  0  0  0  0  0  0  0  0  0
    7.4989    0.2170    0.4145 N   0  0  0  0  0  0  0  0  0  0  0  0
    6.5692    1.2061   -1.5636 N   0  0  0  0  0  0  0  0  0  0  0  0
   -0.7323   -2.1024    0.4149 H   0  0  0  0  0  0  0  0  0  0  0  0
    0.0657    0.1264    1.0019 H   0  0  0  0  0  0  0  0  0  0  0  0
    1.2839    1.4024   -0.8658 H   0  0  0  0  0  0  0  0  0  0  0  0
    1.4543   -0.1146   -1.7357 H   0  0  0  0  0  0  0  0  0  0  0  0
    2.5707    0.4434    1.0668 H   0  0  0  0  0  0  0  0  0  0  0  0
    2.7509   -1.0766    0.1836 H   0  0  0  0  0  0  0  0  0  0  0  0
    3.9951    0.0792   -1.6172 H   0  0  0  0  0  0  0  0  0  0  0  0
    3.8473    1.6251   -0.7490 H   0  0  0  0  0  0  0  0  0  0  0  0
    5.0422   -0.2584    1.0140 H   0  0  0  0  0  0  0  0  0  0  0  0
    8.4402    0.4432    0.1020 H   0  0  0  0  0  0  0  0  0  0  0  0
    7.4010   -0.2624    1.3062 H   0  0  0  0  0  0  0  0  0  0  0  0
    7.4940    1.4486   -1.9093 H   0  0  0  0  0  0  0  0  0  0  0  0
    5.7741    1.4624   -2.1442 H   0  0  0  0  0  0  0  0  0  0  0  0
   -1.1954   -0.2191   -2.0732 N   0  0  0  0  0  0  0  0  0  0  0  0
   -2.3026    0.0475   -2.9623 C   0  0  2  0  0  0  0  0  0  0  0  0
   -2.4709   -1.1574   -3.8784 C   0  0  0  0  0  0  0  0  0  0  0  0
   -1.5253   -1.8343   -4.2769 O   0  0  0  0  0  0  0  0  0  0  0  0
   -2.0713    1.3157   -3.7691 C   0  0  0  0  0  0  0  0  0  0  0  0
   -0.4168   -0.7587   -2.4395 H   0  0  0  0  0  0  0  0  0  0  0  0
   -3.1935    0.1567   -2.3342 H   0  0  0  0  0  0  0  0  0  0  0  0
   -1.1829    1.2252   -4.4047 H   0  0  0  0  0  0  0  0  0  0  0  0
   -2.9238    1.5319   -4.4216 H   0  0  0  0  0  0  0  0  0  0  0  0
   -1.9209    2.1761   -3.1082 H   0  0  0  0  0  0  0  0  0  0  0  0
   -3.7969   -1.3620   -4.2334 N   0  0  0  0  0  0  0  0  0  0  0  0
   -4.2104   -2.4169   -5.1290 C   0  0  0  0  0  0  0  0  0  0  0  0
   -4.5196   -0.7773   -3.8242 H   0  0  0  0  0  0  0  0  0  0  0  0
   -4.2419   -2.0326   -6.1592 H   0  0  0  0  0  0  0  0  0  0  0  0
   -3.4939   -3.2495   -5.0702 H   0  0  0  0  0  0  0  0  0  0  0  0
   -5.2103   -2.7725   -4.8397 H   0  0  0  0  0  0  0  0  0  0  0  0
  1  3  1  0  0  0  0
  1  7  1  0  0  0  0
  1  2  2  0  0  0  0
 42 43  1  0  0  0  0
 43 51  1  0  0  0  0
 43 44  2  0  0  0  0
  8  9  1  0  0  0  0
  9 17  1  0  0  0  0
  9 10  2  0  0  0  0
 18 19  1  0  0  0  0
 19 41  1  0  0  0  0
 19 20  2  0  0  0  0
 25 26  1  0  0  0  0
 25 27  1  0  0  0  0
 24 25  2  0  0  0  0
 42 45  1  0  0  0  0
  8 11  1  0  0  0  0
 51 52  1  0  0  0  0
 21 22  1  0  0  0  0
 22 23  1  0  0  0  0
 18 21  1  0  0  0  0
 23 24  1  0  0  0  0
 41 42  1  0  0  0  0
  7  8  1  0  0  0  0
 17 18  1  0  0  0  0
  3  4  1  0  0  0  0
  3  5  1  0  0  0  0
  3  6  1  0  0  0  0
 45 48  1  0  0  0  0
 45 49  1  0  0  0  0
 45 50  1  0  0  0  0
 11 14  1  0  0  0  0
 11 15  1  0  0  0  0
 11 16  1  0  0  0  0
 52 54  1  0  0  0  0
 52 55  1  0  0  0  0
 52 56  1  0  0  0  0
 22 32  1  0  0  0  0
 22 33  1  0  0  0  0
 21 30  1  0  0  0  0
 21 31  1  0  0  0  0
 23 34  1  0  0  0  0
 23 35  1  0  0  0  0
 42 47  1  0  0  0  0
  8 13  1  0  0  0  0
 18 29  1  0  0  0  0
 26 37  1  0  0  0  0
 26 38  1  0  0  0  0
 27 39  1  0  0  0  0
 27 40  1  0  0  0  0
 51 53  1  0  0  0  0
  7 12  1  0  0  0  0
 41 46  1  0  0  0  0
 17 28  1  0  0  0  0
 24 36  1  0  0  0  0
M  CHG  1  24   1
M  END
$$$$

  -OEChem-05262214473D

 56 55  0     1  0  0  0  0  0999 V2000
    0.7735   -5.8042   -2.0022 C   0  0  0  0  0  0  0  0  0  0  0  0
   -0.2086   -6.3825   -1.5519 O   0  0  0  0  0  0  0  0  0  0  0  0
    1.4751   -6.3646   -3.1946 C   0  0  0  0  0  0  0  0  0  0  0  0
    2.2765   -7.0687   -2.9186 H   0  0  0  0  0  0  0  0  0  0  0  0
    0.7988   -6.9360   -3.8504 H   0  0  0  0  0  0  0  0  0  0  0  0
    1.9556   -5.6216   -3.8511 H   0  0  0  0  0  0  0  0  0  0  0  0
    1.3322   -4.6359   -1.5106 N   0  0  0  0  0  0  0  0  0  0  0  0
    0.8124   -3.9290   -0.3698 C   0  0  2  0  0  0  0  0  0  0  0  0
    1.0666   -2.4424   -0.5818 C   0  0  0  0  0  0  0  0  0  0  0  0
    2.0598   -2.0076   -1.1610 O   0  0  0  0  0  0  0  0  0  0  0  0
    1.4560   -4.4118    0.9207 C   0  0  0  0  0  0  0  0  0  0  0  0
    2.1528   -4.2578   -1.9805 H   0  0  0  0  0  0  0  0  0  0  0  0
   -0.2667   -4.1160   -0.3467 H   0  0  0  0  0  0  0  0  0  0  0  0
    2.5374   -4.2329    0.9160 H   0  0  0  0  0  0  0  0  0  0  0  0
    1.0390   -3.8932    1.7903 H   0  0  0  0  0  0  0  0  0  0  0  0
    1.2976   -5.4871    1.0566 H   0  0  0  0  0  0  0  0  0  0  0  0
    0.0755   -1.6529   -0.0105 N   0  0  0  0  0  0  0  0  0  0  0  0
    0.1113   -0.2132   -0.0391 C   0  0  2  0  0  0  0  0  0  0  0  0
   -1.1385    0.2618   -0.7725 C   0  0  0  0  0  0  0  0  0  0  0  0
   -1.8640    1.1581   -0.3464 O   0  0  0  0  0  0  0  0  0  0  0  0
    1.3717    0.3178   -0.7297 C   0  0  0  0  0  0  0  0  0  0  0  0
    2.6469    0.0078    0.0633 C   0  0  0  0  0  0  0  0  0  0  0  0
    3.8981    0.5386   -0.6287 C   0  0  0  0  0  0  0  0  0  0  0  0
    5.1131    0.2210    0.1182 N   0  3  0  0  0  0  0  0  0  0  0  0
    6.3862    0.5509   -0.3503 C   0  0  0  0  0  0  0  0  0  0  0  0
    7.4989    0.2170    0.4145 N   0  0  0  0  0  0  0  0  0  0  0  0
    6.5692    1.2061   -1.5636 N   0  0  0  0  0  0  0  0  0  0  0  0
   -0.7323   -2.1024    0.4149 H   0  0  0  0  0  0  0  0  0  0  0  0
    0.0657    0.1264    1.0019 H   0  0  0  0  0  0  0  0  0  0  0  0
    1.2839    1.4024   -0.8658 H   0  0  0  0  0  0  0  0  0  0  0  0
    1.4543   -0.1146   -1.7357 H   0  0  0  0  0  0  0  0  0  0  0  0
    2.5707    0.4434    1.0668 H   0  0  0  0  0  0  0  0  0  0  0  0
    2.7509   -1.0766    0.1836 H   0  0  0  0  0  0  0  0  0  0  0  0
    3.9951    0.0792   -1.6172 H   0  0  0  0  0  0  0  0  0  0  0  0
    3.8473    1.6251   -0.7490 H   0  0  0  0  0  0  0  0  0  0  0  0
    5.0422   -0.2584    1.0140 H   0  0  0  0  0  0  0  0  0  0  0  0
    8.4402    0.4432    0.1020 H   0  0  0  0  0  0  0  0  0  0  0  0
    7.4010   -0.2624    1.3062 H   0  0  0  0  0  0  0  0  0  0  0  0
    7.4940    1.4486   -1.9093 H   0  0  0  0  0  0  0  0  0  0  0  0
    5.7741    1.4624   -2.1442 H   0  0  0  0  0  0  0  0  0  0  0  0
   -1.3728   -0.4660   -1.9308 N   0  0  0  0  0  0  0  0  0  0  0  0
   -2.5204   -0.2442   -2.7802 C   0  0  2  0  0  0  0  0  0  0  0  0
   -2.9124   -1.5793   -3.3993 C   0  0  0  0  0  0  0  0  0  0  0  0
   -2.0933   -2.4437   -3.7038 O   0  0  0  0  0  0  0  0  0  0  0  0
   -2.2207    0.7872   -3.8569 C   0  0  0  0  0  0  0  0  0  0  0  0
   -0.6998   -1.1685   -2.2227 H   0  0  0  0  0  0  0  0  0  0  0  0
   -3.3295    0.1103   -2.1324 H   0  0  0  0  0  0  0  0  0  0  0  0
   -1.4125    0.4495   -4.5159 H   0  0  0  0  0  0  0  0  0  0  0  0
   -3.1000    0.9751   -4.4819 H   0  0  0  0  0  0  0  0  0  0  0  0
   -1.9102    1.7379   -3.4103 H   0  0  0  0  0  0  0  0  0  0  0  0
   -4.2806   -1.6745   -3.6114 N   0  0  0  0  0  0  0  0  0  0  0  0
   -4.8959   -2.8273   -4.2266 C   0  0  0  0  0  0  0  0  0  0  0  0
   -4.8891   -0.9268   -3.2914 H   0  0  0  0  0  0  0  0  0  0  0  0
   -4.9795   -2.6639   -5.3112 H   0  0  0  0  0  0  0  0  0  0  0  0
   -4.2783   -3.7175   -4.0367 H   0  0  0  0  0  0  0  0  0  0  0  0
   -5.8985   -2.9789   -3.8004 H   0  0  0  0  0  0  0  0  0  0  0  0
  1  3  1  0  0  0  0
  1  7  1  0  0  0  0
  1  2  2  0  0  0  0
 42 43  1  0  0  0  0
 43 51  1  0  0  0  0
 43 44  2  0  0  0  0
  8  9  1  0  0  0  0
  9 17  1  0  0  0  0
  9 10  2  0  0  0  0
 18 19  1  0  0  0  0
 19 41  1  0  0  0  0
 19 20  2  0  0  0  0
 25 26  1  0  0  0  0
 25 27  1  0  0  0  0
 24 25  2  0  0  0  0
 42 45  1  0  0  0  0
  8 11  1  0  0  0  0
 51 52  1  0  0  0  0
 21 22  1  0  0  0  0
 22 23  1  0  0  0  0
 18 21  1  0  0  0  0
 23 24  1  0  0  0  0
 41 42  1  0  0  0  0
  7  8  1  0  0  0  0
 17 18  1  0  0  0  0
  3  4  1  0  0  0  0
  3  5  1  0  0  0  0
  3  6  1  0  0  0  0
 45 48  1  0  0  0  0
 45 49  1  0  0  0  0
 45 50  1  0  0  0  0
 11 14  1  0  0  0  0
 11 15  1  0  0  0  0
 11 16  1  0  0  0  0
 52 54  1  0  0  0  0
 52 55  1  0  0  0  0
 52 56  1  0  0  0  0
 22 32  1  0  0  0  0
 22 33  1  0  0  0  0
 21 30  1  0  0  0  0
 21 31  1  0  0  0  0
 23 34  1  0  0  0  0
 23 35  1  0  0  0  0
 42 47  1  0  0  0  0
  8 13  1  0  0  0  0
 18 29  1  0  0  0  0
 26 37  1  0  0  0  0
 26 38  1  0  0  0  0
 27 39  1  0  0  0  0
 27 40  1  0  0  0  0
 51 53  1  0  0  0  0
  7 12  1  0  0  0  0
 41 46  1  0  0  0  0
 17 28  1  0  0  0  0
 24 36  1  0  0  0  0
M  CHG  1  24   1
M  END
$$$$

  -OEChem-05262214473D

 56 55  0     1  0  0  0  0  0999 V2000
    0.7735   -5.8042   -2.0022 C   0  0  0  0  0  0  0  0  0  0  0  0
   -0.2086   -6.3825   -1.5519 O   0  0  0  0  0  0  0  0  0  0  0  0
    1.4751   -6.3646   -3.1946 C   0  0  0  0  0  0  0  0  0  0  0  0
    2.2765   -7.0687   -2.9186 H   0  0  0  0  0  0  0  0  0  0  0  0
    0.7988   -6.9360   -3.8504 H   0  0  0  0  0  0  0  0  0  0  0  0
    1.9556   -5.6216   -3.8511 H   0  0  0  0  0  0  0  0  0  0  0  0
    1.3322   -4.6359   -1.5106 N   0  0  0  0  0  0  0  0  0  0  0  0
    0.8124   -3.9290   -0.3698 C   0  0  2  0  0  0  0  0  0  0  0  0
    1.0666   -2.4424   -0.5818 C   0  0  0  0  0  0  0  0  0  0  0  0
    2.0598   -2.0076   -1.1610 O   0  0  0  0  0  0  0  0  0  0  0  0
    1.4560   -4.4118    0.9207 C   0  0  0  0  0  0  0  0  0  0  0  0
    2.1528   -4.2578   -1.9805 H   0  0  0  0  0  0  0  0  0  0  0  0
   -0.2667   -4.1160   -0.3467 H   0  0  0  0  0  0  0  0  0  0  0  0
    2.5374   -4.2329    0.9160 H   0  0  0  0  0  0  0  0  0  0  0  0
    1.0390   -3.8932    1.7903 H   0  0  0  0  0  0  0  0  0  0  0  0
    1.2976   -5.4871    1.0566 H   0  0  0  0  0  0  0  0  0  0  0  0
    0.0755   -1.6529   -0.0105 N   0  0  0  0  0  0  0  0  0  0  0  0
    0.1113   -0.2132   -0.0391 C   0  0  2  0  0  0  0  0  0  0  0  0
   -1.1385    0.2618   -0.7725 C   0  0  0  0  0  0  0  0  0  0  0  0
   -1.7120    1.3153   -0.5035 O   0  0  0  0  0  0  0  0  0  0  0  0
    1.3717    0.3178   -0.7297 C   0  0  0  0  0  0  0  0  0  0  0  0
    2.6469    0.0078    0.0633 C   0  0  0  0  0  0  0  0  0  0  0  0
    3.8981    0.5386   -0.6287 C   0  0  0  0  0  0  0  0  0  0  0  0
    5.1131    0.2210    0.1182 N   0  3  0  0  0  0  0  0  0  0  0  0
    6.3862    0.5509   -0.3503 C   0  0  0  0  0  0  0  0  0  0  0  0
    7.4989    0.2170    0.4145 N   0  0  0  0  0  0  0  0  0  0  0  0
    6.5692    1.2061   -1.5636 N   0  0  0  0  0  0  0  0  0  0  0  0
   -0.7323   -2.1024    0.4149 H   0  0  0  0  0  0  0  0  0  0  0  0
    0.0657    0.1264    1.0019 H   0  0  0  0  0  0  0  0  0  0  0  0
    1.2839    1.4024   -0.8658 H   0  0  0  0  0  0  0  0  0  0  0  0
    1.4543   -0.1146   -1.7357 H   0  0  0  0  0  0  0  0  0  0  0  0
    2.5707    0.4434    1.0668 H   0  0  0  0  0  0  0  0  0  0  0  0
    2.7509   -1.0766    0.1836 H   0  0  0  0  0  0  0  0  0  0  0  0
    3.9951    0.0792   -1.6172 H   0  0  0  0  0  0  0  0  0  0  0  0
    3.8473    1.6251   -0.7490 H   0  0  0  0  0  0  0  0  0  0  0  0
    5.0422   -0.2584    1.0140 H   0  0  0  0  0  0  0  0  0  0  0  0
    8.4402    0.4432    0.1020 H   0  0  0  0  0  0  0  0  0  0  0  0
    7.4010   -0.2624    1.3062 H   0  0  0  0  0  0  0  0  0  0  0  0
    7.4940    1.4486   -1.9093 H   0  0  0  0  0  0  0  0  0  0  0  0
    5.7741    1.4624   -2.1442 H   0  0  0  0  0  0  0  0  0  0  0  0
   -1.5634   -0.6522   -1.7267 N   0  0  0  0  0  0  0  0  0  0  0  0
   -2.7523   -0.4602   -2.5248 C   0  0  2  0  0  0  0  0  0  0  0  0
   -3.3528   -1.8302   -2.8113 C   0  0  0  0  0  0  0  0  0  0  0  0
   -2.6715   -2.8402   -2.9752 O   0  0  0  0  0  0  0  0  0  0  0  0
   -2.4379    0.2766   -3.8175 C   0  0  0  0  0  0  0  0  0  0  0  0
   -1.0067   -1.4831   -1.9035 H   0  0  0  0  0  0  0  0  0  0  0  0
   -3.4504    0.1252   -1.9166 H   0  0  0  0  0  0  0  0  0  0  0  0
   -1.7398   -0.2947   -4.4402 H   0  0  0  0  0  0  0  0  0  0  0  0
   -3.3443    0.4465   -4.4079 H   0  0  0  0  0  0  0  0  0  0  0  0
   -1.9788    1.2492   -3.6100 H   0  0  0  0  0  0  0  0  0  0  0  0
   -4.7367   -1.7842   -2.9053 N   0  0  0  0  0  0  0  0  0  0  0  0
   -5.5363   -2.9469   -3.2127 C   0  0  0  0  0  0  0  0  0  0  0  0
   -5.2217   -0.9122   -2.7152 H   0  0  0  0  0  0  0  0  0  0  0  0
   -5.7021   -3.0019   -4.2987 H   0  0  0  0  0  0  0  0  0  0  0  0
   -5.0108   -3.8527   -2.8758 H   0  0  0  0  0  0  0  0  0  0  0  0
   -6.5052   -2.8721   -2.6973 H   0  0  0  0  0  0  0  0  0  0  0  0
  1  3  1  0  0  0  0
  1  7  1  0  0  0  0
  1  2  2  0  0  0  0
 42 43  1  0  0  0  0
 43 51  1  0  0  0  0
 43 44  2  0  0  0  0
  8  9  1  0  0  0  0
  9 17  1  0  0  0  0
  9 10  2  0  0  0  0
 18 19  1  0  0  0  0
 19 41  1  0  0  0  0
 19 20  2  0  0  0  0
 25 26  1  0  0  0  0
 25 27  1  0  0  0  0
 24 25  2  0  0  0  0
 42 45  1  0  0  0  0
  8 11  1  0  0  0  0
 51 52  1  0  0  0  0
 21 22  1  0  0  0  0
 22 23  1  0  0  0  0
 18 21  1  0  0  0  0
 23 24  1  0  0  0  0
 41 42  1  0  0  0  0
  7  8  1  0  0  0  0
 17 18  1  0  0  0  0
  3  4  1  0  0  0  0
  3  5  1  0  0  0  0
  3  6  1  0  0  0  0
 45 48  1  0  0  0  0
 45 49  1  0  0  0  0
 45 50  1  0  0  0  0
 11 14  1  0  0  0  0
 11 15  1  0  0  0  0
 11 16  1  0  0  0  0
 52 54  1  0  0  0  0
 52 55  1  0  0  0  0
 52 56  1  0  0  0  0
 22 32  1  0  0  0  0
 22 33  1  0  0  0  0
 21 30  1  0  0  0  0
 21 31  1  0  0  0  0
 23 34  1  0  0  0  0
 23 35  1  0  0  0  0
 42 47  1  0  0  0  0
  8 13  1  0  0  0  0
 18 29  1  0  0  0  0
 26 37  1  0  0  0  0
 26 38  1  0  0  0  0
 27 39  1  0  0  0  0
 27 40  1  0  0  0  0
 51 53  1  0  0  0  0
  7 12  1  0  0  0  0
 41 46  1  0  0  0  0
 17 28  1  0  0  0  0
 24 36  1  0  0  0  0
M  CHG  1  24   1
M  END
$$$$

  -OEChem-05262214473D

 56 55  0     1  0  0  0  0  0999 V2000
    0.7735   -5.8042   -2.0022 C   0  0  0  0  0  0  0  0  0  0  0  0
   -0.2086   -6.3825   -1.5519 O   0  0  0  0  0  0  0  0  0  0  0  0
    1.4751   -6.3646   -3.1946 C   0  0  0  0  0  0  0  0  0  0  0  0
    2.2765   -7.0687   -2.9186 H   0  0  0  0  0  0  0  0  0  0  0  0
    0.7988   -6.9360   -3.8504 H   0  0  0  0  0  0  0  0  0  0  0  0
    1.9556   -5.6216   -3.8511 H   0  0  0  0  0  0  0  0  0  0  0  0
    1.3322   -4.6359   -1.5106 N   0  0  0  0  0  0  0  0  0  0  0  0
    0.8124   -3.9290   -0.3698 C   0  0  2  0  0  0  0  0  0  0  0  0
    1.0666   -2.4424   -0.5818 C   0  0  0  0  0  0  0  0  0  0  0  0
    2.0598   -2.0076   -1.1610 O   0  0  0  0  0  0  0  0  0  0  0  0
    1.4560   -4.4118    0.9207 C   0  0  0  0  0  0  0  0  0  0  0  0
    2.1528   -4.2578   -1.9805 H   0  0  0  0  0  0  0  0  0  0  0  0
   -0.2667   -4.1160   -0.3467 H   0  0  0  0  0  0  0  0  0  0  0  0
    2.5374   -4.2329    0.9160 H   0  0  0  0  0  0  0  0  0  0  0  0
    1.0390   -3.8932    1.7903 H   0  0  0  0  0  0  0  0  0  0  0  0
    1.2976   -5.4871    1.0566 H   0  0  0  0  0  0  0  0  0  0  0  0
    0.0755   -1.6529   -0.0105 N   0  0  0  0  0  0  0  0  0  0  0  0
    0.1113   -0.2132   -0.0391 C   0  0  2  0  0  0  0  0  0  0  0  0
   -1.1385    0.2618   -0.7725 C   0  0  0  0  0  0  0  0  0  0  0  0
   -1.5584    1.4150   -0.7009 O   0  0  0  0  0  0  0  0  0  0  0  0
    1.3717    0.3178   -0.7297 C   0  0  0  0  0  0  0  0  0  0  0  0
    2.6469    0.0078    0.0633 C   0  0  0  0  0  0  0  0  0  0  0  0
    3.8981    0.5386   -0.6287 C   0  0  0  0  0  0  0  0  0  0  0  0
    5.1131    0.2210    0.1182 N   0  3  0  0  0  0  0  0  0  0  0  0
    6.3862    0.5509   -0.3503 C   0  0  0  0  0  0  0  0  0  0  0  0
    7.4989    0.2170    0.4145 N   0  0  0  0  0  0  0  0  0  0  0  0
    6.5692    1.2061   -1.5636 N   0  0  0  0  0  0  0  0  0  0  0  0
   -0.7323   -2.1024    0.4149 H   0  0  0  0  0  0  0  0  0  0  0  0
    0.0657    0.1264    1.0019 H   0  0  0  0  0  0  0  0  0  0  0  0
    1.2839    1.4024   -0.8658 H   0  0  0  0  0  0  0  0  0  0  0  0
    1.4543   -0.1146   -1.7357 H   0  0  0  0  0  0  0  0  0  0  0  0
    2.5707    0.4434    1.0668 H   0  0  0  0  0  0  0  0  0  0  0  0
    2.7509   -1.0766    0.1836 H   0  0  0  0  0  0  0  0  0  0  0  0
    3.9951    0.0792   -1.6172 H   0  0  0  0  0  0  0  0  0  0  0  0
    3.8473    1.6251   -0.7490 H   0  0  0  0  0  0  0  0  0  0  0  0
    5.0422   -0.2584    1.0140 H   0  0  0  0  0  0  0  0  0  0  0  0
    8.4402    0.4432    0.1020 H   0  0  0  0  0  0  0  0  0  0  0  0
    7.4010   -0.2624    1.3062 H   0  0  0  0  0  0  0  0  0  0  0  0
    7.4940    1.4486   -1.9093 H   0  0  0  0  0  0  0  0  0  0  0  0
    5.7741    1.4624   -2.1442 H   0  0  0  0  0  0  0  0  0  0  0  0
   -1.7542   -0.7650   -1.4746 N   0  0  0  0  0  0  0  0  0  0  0  0
   -2.9827   -0.5858   -2.2137 C   0  0  2  0  0  0  0  0  0  0  0  0
   -3.7619   -1.8930   -2.1547 C   0  0  0  0  0  0  0  0  0  0  0  0
   -3.2206   -2.9966   -2.1406 O   0  0  0  0  0  0  0  0  0  0  0  0
   -2.7080   -0.1812   -3.6536 C   0  0  0  0  0  0  0  0  0  0  0  0
   -1.3165   -1.6811   -1.5037 H   0  0  0  0  0  0  0  0  0  0  0  0
   -3.5480    0.2005   -1.7016 H   0  0  0  0  0  0  0  0  0  0  0  0
   -2.1424   -0.9567   -4.1828 H   0  0  0  0  0  0  0  0  0  0  0  0
   -3.6402   -0.0180   -4.2046 H   0  0  0  0  0  0  0  0  0  0  0  0
   -2.1219    0.7433   -3.6937 H   0  0  0  0  0  0  0  0  0  0  0  0
   -5.1339   -1.6836   -2.1632 N   0  0  0  0  0  0  0  0  0  0  0  0
   -6.0881   -2.7677   -2.1562 C   0  0  0  0  0  0  0  0  0  0  0  0
   -5.4946   -0.7344   -2.1349 H   0  0  0  0  0  0  0  0  0  0  0  0
   -6.3605   -3.0237   -3.1908 H   0  0  0  0  0  0  0  0  0  0  0  0
   -5.6417   -3.6458   -1.6667 H   0  0  0  0  0  0  0  0  0  0  0  0
   -6.9891   -2.4594   -1.6055 H   0  0  0  0  0  0  0  0  0  0  0  0
  1  3  1  0  0  0  0
  1  7  1  0  0  0  0
  1  2  2  0  0  0  0
 42 43  1  0  0  0  0
 43 51  1  0  0  0  0
 43 44  2  0  0  0  0
  8  9  1  0  0  0  0
  9 17  1  0  0  0  0
  9 10  2  0  0  0  0
 18 19  1  0  0  0  0
 19 41  1  0  0  0  0
 19 20  2  0  0  0  0
 25 26  1  0  0  0  0
 25 27  1  0  0  0  0
 24 25  2  0  0  0  0
 42 45  1  0  0  0  0
  8 11  1  0  0  0  0
 51 52  1  0  0  0  0
 21 22  1  0  0  0  0
 22 23  1  0  0  0  0
 18 21  1  0  0  0  0
 23 24  1  0  0  0  0
 41 42  1  0  0  0  0
  7  8  1  0  0  0  0
 17 18  1  0  0  0  0
  3  4  1  0  0  0  0
  3  5  1  0  0  0  0
  3  6  1  0  0  0  0
 45 48  1  0  0  0  0
 45 49  1  0  0  0  0
 45 50  1  0  0  0  0
 11 14  1  0  0  0  0
 11 15  1  0  0  0  0
 11 16  1  0  0  0  0
 52 54  1  0  0  0  0
 52 55  1  0  0  0  0
 52 56  1  0  0  0  0
 22 32  1  0  0  0  0
 22 33  1  0  0  0  0
 21 30  1  0  0  0  0
 21 31  1  0  0  0  0
 23 34  1  0  0  0  0
 23 35  1  0  0  0  0
 42 47  1  0  0  0  0
  8 13  1  0  0  0  0
 18 29  1  0  0  0  0
 26 37  1  0  0  0  0
 26 38  1  0  0  0  0
 27 39  1  0  0  0  0
 27 40  1  0  0  0  0
 51 53  1  0  0  0  0
  7 12  1  0  0  0  0
 41 46  1  0  0  0  0
 17 28  1  0  0  0  0
 24 36  1  0  0  0  0
M  CHG  1  24   1
M  END
$$$$

  -OEChem-05262214473D

 56 55  0     1  0  0  0  0  0999 V2000
    0.7735   -5.8042   -2.0022 C   0  0  0  0  0  0  0  0  0  0  0  0
   -0.2086   -6.3825   -1.5519 O   0  0  0  0  0  0  0  0  0  0  0  0
    1.4751   -6.3646   -3.1946 C   0  0  0  0  0  0  0  0  0  0  0  0
    2.2765   -7.0687   -2.9186 H   0  0  0  0  0  0  0  0  0  0  0  0
    0.7988   -6.9360   -3.8504 H   0  0  0  0  0  0  0  0  0  0  0  0
    1.9556   -5.6216   -3.8511 H   0  0  0  0  0  0  0  0  0  0  0  0
    1.3322   -4.6359   -1.5106 N   0  0  0  0  0  0  0  0  0  0  0  0
    0.8124   -3.9290   -0.3698 C   0  0  2  0  0  0  0  0  0  0  0  0
    1.0666   -2.4424   -0.5818 C   0  0  0  0  0  0  0  0  0  0  0  0
    2.0598   -2.0076   -1.1610 O   0  0  0  0  0  0  0  0  0  0  0  0
    1.4560   -4.4118    0.9207 C   0  0  0  0  0  0  0  0  0  0  0  0
    2.1528   -4.2578   -1.9805 H   0  0  0  0  0  0  0  0  0  0  0  0
   -0.2667   -4.1160   -0.3467 H   0  0  0  0  0  0  0  0  0  0  0  0
    2.5374   -4.2329    0.9160 H   0  0  0  0  0  0  0  0  0  0  0  0
    1.0390   -3.8932    1.7903 H   0  0  0  0  0  0  0  0  0  0  0  0
    1.2976   -5.4871    1.0566 H   0  0  0  0  0  0  0  0  0  0  0  0
    0.0755   -1.6529   -0.0105 N   0  0  0  0  0  0  0  0  0  0  0  0
    0.1113   -0.2132   -0.0391 C   0  0  2  0  0  0  0  0  0  0  0  0
   -1.1385    0.2618   -0.7725 C   0  0  0  0  0  0  0  0  0  0  0  0
   -1.4134    1.4502   -0.9250 O   0  0  0  0  0  0  0  0  0  0  0  0
    1.3717    0.3178   -0.7297 C   0  0  0  0  0  0  0  0  0  0  0  0
    2.6469    0.0078    0.0633 C   0  0  0  0  0  0  0  0  0  0  0  0
    3.8981    0.5386   -0.6287 C   0  0  0  0  0  0  0  0  0  0  0  0
    5.1131    0.2210    0.1182 N   0  3  0  0  0  0  0  0  0  0  0  0
    6.3862    0.5509   -0.3503 C   0  0  0  0  0  0  0  0  0  0  0  0
    7.4989    0.2170    0.4145 N   0  0  0  0  0  0  0  0  0  0  0  0
    6.5692    1.2061   -1.5636 N   0  0  0  0  0  0  0  0  0  0  0  0
   -0.7323   -2.1024    0.4149 H   0  0  0  0  0  0  0  0  0  0  0  0
    0.0657    0.1264    1.0019 H   0  0  0  0  0  0  0  0  0  0  0  0
    1.2839    1.4024   -0.8658 H   0  0  0  0  0  0  0  0  0  0  0  0
    1.4543   -0.1146   -1.7357 H   0  0  0  0  0  0  0  0  0  0  0  0
    2.5707    0.4434    1.0668 H   0  0  0  0  0  0  0  0  0  0  0  0
    2.7509   -1.0766    0.1836 H   0  0  0  0  0  0  0  0  0  0  0  0
    3.9951    0.0792   -1.6172 H   0  0  0  0  0  0  0  0  0  0  0  0
    3.8473    1.6251   -0.7490 H   0  0  0  0  0  0  0  0  0  0  0  0
    5.0422   -0.2584    1.0140 H   0  0  0  0  0  0  0  0  0  0  0  0
    8.4402    0.4432    0.1020 H   0  0  0  0  0  0  0  0  0  0  0  0
    7.4010   -0.2624    1.3062 H   0  0  0  0  0  0  0  0  0  0  0  0
    7.4940    1.4486   -1.9093 H   0  0  0  0  0  0  0  0  0  0  0  0
    5.7741    1.4624   -2.1442 H   0  0  0  0  0  0  0  0  0  0  0  0
   -1.9322   -0.7968   -1.1918 N   0  0  0  0  0  0  0  0  0  0  0  0
   -3.1957   -0.6125   -1.8679 C   0  0  2  0  0  0  0  0  0  0  0  0
   -4.1120   -1.7635   -1.4742 C   0  0  0  0  0  0  0  0  0  0  0  0
   -3.7032   -2.9023   -1.2571 O   0  0  0  0  0  0  0  0  0  0  0  0
   -3.0128   -0.5550   -3.3765 C   0  0  0  0  0  0  0  0  0  0  0  0
   -1.6082   -1.7490   -1.0505 H   0  0  0  0  0  0  0  0  0  0  0  0
   -3.6155    0.3309   -1.5021 H   0  0  0  0  0  0  0  0  0  0  0  0
   -2.5930   -1.4915   -3.7614 H   0  0  0  0  0  0  0  0  0  0  0  0
   -3.9674   -0.3867   -3.8858 H   0  0  0  0  0  0  0  0  0  0  0  0
   -2.3299    0.2547   -3.6557 H   0  0  0  0  0  0  0  0  0  0  0  0
   -5.4452   -1.3795   -1.4358 N   0  0  0  0  0  0  0  0  0  0  0  0
   -6.5136   -2.3018   -1.1293 C   0  0  0  0  0  0  0  0  0  0  0  0
   -5.6894   -0.4057   -1.5901 H   0  0  0  0  0  0  0  0  0  0  0  0
   -6.9099   -2.7279   -2.0628 H   0  0  0  0  0  0  0  0  0  0  0  0
   -6.1278   -3.1110   -0.4919 H   0  0  0  0  0  0  0  0  0  0  0  0
   -7.3170   -1.7691   -0.5995 H   0  0  0  0  0  0  0  0  0  0  0  0
  1  3  1  0  0  0  0
  1  7  1  0  0  0  0
  1  2  2  0  0  0  0
 42 43  1  0  0  0  0
 43 51  1  0  0  0  0
 43 44  2  0  0  0  0
  8  9  1  0  0  0  0
  9 17  1  0  0  0  0
  9 10  2  0  0  0  0
 18 19  1  0  0  0  0
 19 41  1  0  0  0  0
 19 20  2  0  0  0  0
 25 26  1  0  0  0  0
 25 27  1  0  0  0  0
 24 25  2  0  0  0  0
 42 45  1  0  0  0  0
  8 11  1  0  0  0  0
 51 52  1  0  0  0  0
 21 22  1  0  0  0  0
 22 23  1  0  0  0  0
 18 21  1  0  0  0  0
 23 24  1  0  0  0  0
 41 42  1  0  0  0  0
  7  8  1  0  0  0  0
 17 18  1  0  0  0  0
  3  4  1  0  0  0  0
  3  5  1  0  0  0  0
  3  6  1  0  0  0  0
 45 48  1  0  0  0  0
 45 49  1  0  0  0  0
 45 50  1  0  0  0  0
 11 14  1  0  0  0  0
 11 15  1  0  0  0  0
 11 16  1  0  0  0  0
 52 54  1  0  0  0  0
 52 55  1  0  0  0  0
 52 56  1  0  0  0  0
 22 32  1  0  0  0  0
 22 33  1  0  0  0  0
 21 30  1  0  0  0  0
 21 31  1  0  0  0  0
 23 34  1  0  0  0  0
 23 35  1  0  0  0  0
 42 47  1  0  0  0  0
  8 13  1  0  0  0  0
 18 29  1  0  0  0  0
 26 37  1  0  0  0  0
 26 38  1  0  0  0  0
 27 39  1  0  0  0  0
 27 40  1  0  0  0  0
 51 53  1  0  0  0  0
  7 12  1  0  0  0  0
 41 46  1  0  0  0  0
 17 28  1  0  0  0  0
 24 36  1  0  0  0  0
M  CHG  1  24   1
M  END
$$$$

  -OEChem-05262214473D

 56 55  0     1  0  0  0  0  0999 V2000
    0.7735   -5.8042   -2.0022 C   0  0  0  0  0  0  0  0  0  0  0  0
   -0.2086   -6.3825   -1.5519 O   0  0  0  0  0  0  0  0  0  0  0  0
    1.4751   -6.3646   -3.1946 C   0  0  0  0  0  0  0  0  0  0  0  0
    2.2765   -7.0687   -2.9186 H   0  0  0  0  0  0  0  0  0  0  0  0
    0.7988   -6.9360   -3.8504 H   0  0  0  0  0  0  0  0  0  0  0  0
    1.9556   -5.6216   -3.8511 H   0  0  0  0  0  0  0  0  0  0  0  0
    1.3322   -4.6359   -1.5106 N   0  0  0  0  0  0  0  0  0  0  0  0
    0.8124   -3.9290   -0.3698 C   0  0  2  0  0  0  0  0  0  0  0  0
    1.0666   -2.4424   -0.5818 C   0  0  0  0  0  0  0  0  0  0  0  0
    2.0598   -2.0076   -1.1610 O   0  0  0  0  0  0  0  0  0  0  0  0
    1.4560   -4.4118    0.9207 C   0  0  0  0  0  0  0  0  0  0  0  0
    2.1528   -4.2578   -1.9805 H   0  0  0  0  0  0  0  0  0  0  0  0
   -0.2667   -4.1160   -0.3467 H   0  0  0  0  0  0  0  0  0  0  0  0
    2.5374   -4.2329    0.9160 H   0  0  0  0  0  0  0  0  0  0  0  0
    1.0390   -3.8932    1.7903 H   0  0  0  0  0  0  0  0  0  0  0  0
    1.2976   -5.4871    1.0566 H   0  0  0  0  0  0  0  0  0  0  0  0
    0.0755   -1.6529   -0.0105 N   0  0  0  0  0  0  0  0  0  0  0  0
    0.1113   -0.2132   -0.0391 C   0  0  2  0  0  0  0  0  0  0  0  0
   -1.1385    0.2618   -0.7725 C   0  0  0  0  0  0  0  0  0  0  0  0
   -1.2871    1.4187   -1.1607 O   0  0  0  0  0  0  0  0  0  0  0  0
    1.3717    0.3178   -0.7297 C   0  0  0  0  0  0  0  0  0  0  0  0
    2.6469    0.0078    0.0633 C   0  0  0  0  0  0  0  0  0  0  0  0
    3.8981    0.5386   -0.6287 C   0  0  0  0  0  0  0  0  0  0  0  0
    5.1131    0.2210    0.1182 N   0  3  0  0  0  0  0  0  0  0  0  0
    6.3862    0.5509   -0.3503 C   0  0  0  0  0  0  0  0  0  0  0  0
    7.4989    0.2170    0.4145 N   0  0  0  0  0  0  0  0  0  0  0  0
    6.5692    1.2061   -1.5636 N   0  0  0  0  0  0  0  0  0  0  0  0
   -0.7323   -2.1024    0.4149 H   0  0  0  0  0  0  0  0  0  0  0  0
    0.0657    0.1264    1.0019 H   0  0  0  0  0  0  0  0  0  0  0  0
    1.2839    1.4024   -0.8658 H   0  0  0  0  0  0  0  0  0  0  0  0
    1.4543   -0.1146   -1.7357 H   0  0  0  0  0  0  0  0  0  0  0  0
    2.5707    0.4434    1.0668 H   0  0  0  0  0  0  0  0  0  0  0  0
    2.7509   -1.0766    0.1836 H   0  0  0  0  0  0  0  0  0  0  0  0
    3.9951    0.0792   -1.6172 H   0  0  0  0  0  0  0  0  0  0  0  0
    3.8473    1.6251   -0.7490 H   0  0  0  0  0  0  0  0  0  0  0  0
    5.0422   -0.2584    1.0140 H   0  0  0  0  0  0  0  0  0  0  0  0
    8.4402    0.4432    0.1020 H   0  0  0  0  0  0  0  0  0  0  0  0
    7.4010   -0.2624    1.3062 H   0  0  0  0  0  0  0  0  0  0  0  0
    7.4940    1.4486   -1.9093 H   0  0  0  0  0  0  0  0  0  0  0  0
    5.7741    1.4624   -2.1442 H   0  0  0  0  0  0  0  0  0  0  0  0
   -2.0853   -0.7453   -0.8975 N   0  0  0  0  0  0  0  0  0  0  0  0
   -3.3769   -0.5384   -1.5110 C   0  0  2  0  0  0  0  0  0  0  0  0
   -4.3792   -1.4504   -0.8160 C   0  0  0  0  0  0  0  0  0  0  0  0
   -4.0864   -2.5637   -0.3848 O   0  0  0  0  0  0  0  0  0  0  0  0
   -3.3313   -0.8193   -3.0049 C   0  0  0  0  0  0  0  0  0  0  0  0
   -1.8619   -1.6821   -0.5749 H   0  0  0  0  0  0  0  0  0  0  0  0
   -3.6484    0.5076   -1.3315 H   0  0  0  0  0  0  0  0  0  0  0  0
   -3.0608   -1.8626   -3.2045 H   0  0  0  0  0  0  0  0  0  0  0  0
   -4.3036   -0.6345   -3.4733 H   0  0  0  0  0  0  0  0  0  0  0  0
   -2.5886   -0.1832   -3.4986 H   0  0  0  0  0  0  0  0  0  0  0  0
   -5.6494   -0.8928   -0.7725 N   0  0  0  0  0  0  0  0  0  0  0  0
   -6.7838   -1.5810   -0.2019 C   0  0  0  0  0  0  0  0  0  0  0  0
   -5.7926    0.0516   -1.1179 H   0  0  0  0  0  0  0  0  0  0  0  0
   -7.3128   -2.1344   -0.9918 H   0  0  0  0  0  0  0  0  0  0  0  0
   -6.4360   -2.2847    0.5686 H   0  0  0  0  0  0  0  0  0  0  0  0
   -7.4667   -0.8480    0.2523 H   0  0  0  0  0  0  0  0  0  0  0  0
  1  3  1  0  0  0  0
  1  7  1  0  0  0  0
  1  2  2  0  0  0  0
 42 43  1  0  0  0  0
 43 51  1  0  0  0  0
 43 44  2  0  0  0  0
  8  9  1  0  0  0  0
  9 17  1  0  0  0  0
  9 10  2  0  0  0  0
 18 19  1  0  0  0  0
 19 41  1  0  0  0  0
 19 20  2  0  0  0  0
 25 26  1  0  0  0  0
 25 27  1  0  0  0  0
 24 25  2  0  0  0  0
 42 45  1  0  0  0  0
  8 11  1  0  0  0  0
 51 52  1  0  0  0  0
 21 22  1  0  0  0  0
 22 23  1  0  0  0  0
 18 21  1  0  0  0  0
 23 24  1  0  0  0  0
 41 42  1  0  0  0  0
  7  8  1  0  0  0  0
 17 18  1  0  0  0  0
  3  4  1  0  0  0  0
  3  5  1  0  0  0  0
  3  6  1  0  0  0  0
 45 48  1  0  0  0  0
 45 49  1  0  0  0  0
 45 50  1  0  0  0  0
 11 14  1  0  0  0  0
 11 15  1  0  0  0  0
 11 16  1  0  0  0  0
 52 54  1  0  0  0  0
 52 55  1  0  0  0  0
 52 56  1  0  0  0  0
 22 32  1  0  0  0  0
 22 33  1  0  0  0  0
 21 30  1  0  0  0  0
 21 31  1  0  0  0  0
 23 34  1  0  0  0  0
 23 35  1  0  0  0  0
 42 47  1  0  0  0  0
  8 13  1  0  0  0  0
 18 29  1  0  0  0  0
 26 37  1  0  0  0  0
 26 38  1  0  0  0  0
 27 39  1  0  0  0  0
 27 40  1  0  0  0  0
 51 53  1  0  0  0  0
  7 12  1  0  0  0  0
 41 46  1  0  0  0  0
 17 28  1  0  0  0  0
 24 36  1  0  0  0  0
M  CHG  1  24   1
M  END
$$$$

  -OEChem-05262214473D

 56 55  0     1  0  0  0  0  0999 V2000
    0.7735   -5.8042   -2.0022 C   0  0  0  0  0  0  0  0  0  0  0  0
   -0.2086   -6.3825   -1.5519 O   0  0  0  0  0  0  0  0  0  0  0  0
    1.4751   -6.3646   -3.1946 C   0  0  0  0  0  0  0  0  0  0  0  0
    2.2765   -7.0687   -2.9186 H   0  0  0  0  0  0  0  0  0  0  0  0
    0.7988   -6.9360   -3.8504 H   0  0  0  0  0  0  0  0  0  0  0  0
    1.9556   -5.6216   -3.8511 H   0  0  0  0  0  0  0  0  0  0  0  0
    1.3322   -4.6359   -1.5106 N   0  0  0  0  0  0  0  0  0  0  0  0
    0.8124   -3.9290   -0.3698 C   0  0  2  0  0  0  0  0  0  0  0  0
    1.0666   -2.4424   -0.5818 C   0  0  0  0  0  0  0  0  0  0  0  0
    2.0598   -2.0076   -1.1610 O   0  0  0  0  0  0  0  0  0  0  0  0
    1.4560   -4.4118    0.9207 C   0  0  0  0  0  0  0  0  0  0  0  0
    2.1528   -4.2578   -1.9805 H   0  0  0  0  0  0  0  0  0  0  0  0
   -0.2667   -4.1160   -0.3467 H   0  0  0  0  0  0  0  0  0  0  0  0
    2.5374   -4.2329    0.9160 H   0  0  0  0  0  0  0  0  0  0  0  0
    1.0390   -3.8932    1.7903 H   0  0  0  0  0  0  0  0  0  0  0  0
    1.2976   -5.4871    1.0566 H   0  0  0  0  0  0  0  0  0  0  0  0
    0.0755   -1.6529   -0.0105 N   0  0  0  0  0  0  0  0  0  0  0  0
    0.1113   -0.2132   -0.0391 C   0  0  2  0  0  0  0  0  0  0  0  0
   -1.1385    0.2618   -0.7725 C   0  0  0  0  0  0  0  0  0  0  0  0
   -1.1880    1.3225   -1.3919 O   0  0  0  0  0  0  0  0  0  0  0  0
    1.3717    0.3178   -0.7297 C   0  0  0  0  0  0  0  0  0  0  0  0
    2.6469    0.0078    0.0633 C   0  0  0  0  0  0  0  0  0  0  0  0
    3.8981    0.5386   -0.6287 C   0  0  0  0  0  0  0  0  0  0  0  0
    5.1131    0.2210    0.1182 N   0  3  0  0  0  0  0  0  0  0  0  0
    6.3862    0.5509   -0.3503 C   0  0  0  0  0  0  0  0  0  0  0  0
    7.4989    0.2170    0.4145 N   0  0  0  0  0  0  0  0  0  0  0  0
    6.5692    1.2061   -1.5636 N   0  0  0  0  0  0  0  0  0  0  0  0
   -0.7323   -2.1024    0.4149 H   0  0  0  0  0  0  0  0  0  0  0  0
    0.0657    0.1264    1.0019 H   0  0  0  0  0  0  0  0  0  0  0  0
    1.2839    1.4024   -0.8658 H   0  0  0  0  0  0  0  0  0  0  0  0
    1.4543   -0.1146   -1.7357 H   0  0  0  0  0  0  0  0  0  0  0  0
    2.5707    0.4434    1.0668 H   0  0  0  0  0  0  0  0  0  0  0  0
    2.7509   -1.0766    0.1836 H   0  0  0  0  0  0  0  0  0  0  0  0
    3.9951    0.0792   -1.6172 H   0  0  0  0  0  0  0  0  0  0  0  0
    3.8473    1.6251   -0.7490 H   0  0  0  0  0  0  0  0  0  0  0  0
    5.0422   -0.2584    1.0140 H   0  0  0  0  0  0  0  0  0  0  0  0
    8.4402    0.4432    0.1020 H   0  0  0  0  0  0  0  0  0  0  0  0
    7.4010   -0.2624    1.3062 H   0  0  0  0  0  0  0  0  0  0  0  0
    7.4940    1.4486   -1.9093 H   0  0  0  0  0  0  0  0  0  0  0  0
    5.7741    1.4624   -2.1442 H   0  0  0  0  0  0  0  0  0  0  0  0
   -2.2031   -0.6141   -0.6119 N   0  0  0  0  0  0  0  0  0  0  0  0
   -3.5140   -0.3685   -1.1675 C   0  0  2  0  0  0  0  0  0  0  0  0
   -4.5453   -0.9752   -0.2252 C   0  0  0  0  0  0  0  0  0  0  0  0
   -4.3441   -2.0039    0.4169 O   0  0  0  0  0  0  0  0  0  0  0  0
   -3.6418   -0.9562   -2.5643 C   0  0  0  0  0  0  0  0  0  0  0  0
   -2.0603   -1.4851   -0.1092 H   0  0  0  0  0  0  0  0  0  0  0  0
   -3.6445    0.7186   -1.2016 H   0  0  0  0  0  0  0  0  0  0  0  0
   -3.5140   -2.0447   -2.5501 H   0  0  0  0  0  0  0  0  0  0  0  0
   -4.6260   -0.7446   -2.9952 H   0  0  0  0  0  0  0  0  0  0  0  0
   -2.8803   -0.5408   -3.2331 H   0  0  0  0  0  0  0  0  0  0  0  0
   -5.7326   -0.2566   -0.2185 N   0  0  0  0  0  0  0  0  0  0  0  0
   -6.8803   -0.6544    0.5627 C   0  0  0  0  0  0  0  0  0  0  0  0
   -5.7974    0.6063   -0.7505 H   0  0  0  0  0  0  0  0  0  0  0  0
   -7.5418   -1.2838   -0.0507 H   0  0  0  0  0  0  0  0  0  0  0  0
   -6.5454   -1.2233    1.4426 H   0  0  0  0  0  0  0  0  0  0  0  0
   -7.4280    0.2410    0.8917 H   0  0  0  0  0  0  0  0  0  0  0  0
  1  3  1  0  0  0  0
  1  7  1  0  0  0  0
  1  2  2  0  0  0  0
 42 43  1  0  0  0  0
 43 51  1  0  0  0  0
 43 44  2  0  0  0  0
  8  9  1  0  0  0  0
  9 17  1  0  0  0  0
  9 10  2  0  0  0  0
 18 19  1  0  0  0  0
 19 41  1  0  0  0  0
 19 20  2  0  0  0  0
 25 26  1  0  0  0  0
 25 27  1  0  0  0  0
 24 25  2  0  0  0  0
 42 45  1  0  0  0  0
  8 11  1  0  0  0  0
 51 52  1  0  0  0  0
 21 22  1  0  0  0  0
 22 23  1  0  0  0  0
 18 21  1  0  0  0  0
 23 24  1  0  0  0  0
 41 42  1  0  0  0  0
  7  8  1  0  0  0  0
 17 18  1  0  0  0  0
  3  4  1  0  0  0  0
  3  5  1  0  0  0  0
  3  6  1  0  0  0  0
 45 48  1  0  0  0  0
 45 49  1  0  0  0  0
 45 50  1  0  0  0  0
 11 14  1  0  0  0  0
 11 15  1  0  0  0  0
 11 16  1  0  0  0  0
 52 54  1  0  0  0  0
 52 55  1  0  0  0  0
 52 56  1  0  0  0  0
 22 32  1  0  0  0  0
 22 33  1  0  0  0  0
 21 30  1  0  0  0  0
 21 31  1  0  0  0  0
 23 34  1  0  0  0  0
 23 35  1  0  0  0  0
 42 47  1  0  0  0  0
  8 13  1  0  0  0  0
 18 29  1  0  0  0  0
 26 37  1  0  0  0  0
 26 38  1  0  0  0  0
 27 39  1  0  0  0  0
 27 40  1  0  0  0  0
 51 53  1  0  0  0  0
  7 12  1  0  0  0  0
 41 46  1  0  0  0  0
 17 28  1  0  0  0  0
 24 36  1  0  0  0  0
M  CHG  1  24   1
M  END
$$$$

  -OEChem-05262214473D

 56 55  0     1  0  0  0  0  0999 V2000
    0.7735   -5.8042   -2.0022 C   0  0  0  0  0  0  0  0  0  0  0  0
   -0.2086   -6.3825   -1.5519 O   0  0  0  0  0  0  0  0  0  0  0  0
    1.4751   -6.3646   -3.1946 C   0  0  0  0  0  0  0  0  0  0  0  0
    2.2765   -7.0687   -2.9186 H   0  0  0  0  0  0  0  0  0  0  0  0
    0.7988   -6.9360   -3.8504 H   0  0  0  0  0  0  0  0  0  0  0  0
    1.9556   -5.6216   -3.8511 H   0  0  0  0  0  0  0  0  0  0  0  0
    1.3322   -4.6359   -1.5106 N   0  0  0  0  0  0  0  0  0  0  0  0
    0.8124   -3.9290   -0.3698 C   0  0  2  0  0  0  0  0  0  0  0  0
    1.0666   -2.4424   -0.5818 C   0  0  0  0  0  0  0  0  0  0  0  0
    2.0598   -2.0076   -1.1610 O   0  0  0  0  0  0  0  0  0  0  0  0
    1.4560   -4.4118    0.9207 C   0  0  0  0  0  0  0  0  0  0  0  0
    2.1528   -4.2578   -1.9805 H   0  0  0  0  0  0  0  0  0  0  0  0
   -0.2667   -4.1160   -0.3467 H   0  0  0  0  0  0  0  0  0  0  0  0
    2.5374   -4.2329    0.9160 H   0  0  0  0  0  0  0  0  0  0  0  0
    1.0390   -3.8932    1.7903 H   0  0  0  0  0  0  0  0  0  0  0  0
    1.2976   -5.4871    1.0566 H   0  0  0  0  0  0  0  0  0  0  0  0
    0.0755   -1.6529   -0.0105 N   0  0  0  0  0  0  0  0  0  0  0  0
    0.1113   -0.2132   -0.0391 C   0  0  2  0  0  0  0  0  0  0  0  0
   -1.1385    0.2618   -0.7725 C   0  0  0  0  0  0  0  0  0  0  0  0
   -1.1229    1.1683   -1.6027 O   0  0  0  0  0  0  0  0  0  0  0  0
    1.3717    0.3178   -0.7297 C   0  0  0  0  0  0  0  0  0  0  0  0
    2.6469    0.0078    0.0633 C   0  0  0  0  0  0  0  0  0  0  0  0
    3.8981    0.5386   -0.6287 C   0  0  0  0  0  0  0  0  0  0  0  0
    5.1131    0.2210    0.1182 N   0  3  0  0  0  0  0  0  0  0  0  0
    6.3862    0.5509   -0.3503 C   0  0  0  0  0  0  0  0  0  0  0  0
    7.4989    0.2170    0.4145 N   0  0  0  0  0  0  0  0  0  0  0  0
    6.5692    1.2061   -1.5636 N   0  0  0  0  0  0  0  0  0  0  0  0
   -0.7323   -2.1024    0.4149 H   0  0  0  0  0  0  0  0  0  0  0  0
    0.0657    0.1264    1.0019 H   0  0  0  0  0  0  0  0  0  0  0  0
    1.2839    1.4024   -0.8658 H   0  0  0  0  0  0  0  0  0  0  0  0
    1.4543   -0.1146   -1.7357 H   0  0  0  0  0  0  0  0  0  0  0  0
    2.5707    0.4434    1.0668 H   0  0  0  0  0  0  0  0  0  0  0  0
    2.7509   -1.0766    0.1836 H   0  0  0  0  0  0  0  0  0  0  0  0
    3.9951    0.0792   -1.6172 H   0  0  0  0  0  0  0  0  0  0  0  0
    3.8473    1.6251   -0.7490 H   0  0  0  0  0  0  0  0  0  0  0  0
    5.0422   -0.2584    1.0140 H   0  0  0  0  0  0  0  0  0  0  0  0
    8.4402    0.4432    0.1020 H   0  0  0  0  0  0  0  0  0  0  0  0
    7.4010   -0.2624    1.3062 H   0  0  0  0  0  0  0  0  0  0  0  0
    7.4940    1.4486   -1.9093 H   0  0  0  0  0  0  0  0  0  0  0  0
    5.7741    1.4624   -2.1442 H   0  0  0  0  0  0  0  0  0  0  0  0
   -2.2774   -0.4121   -0.3543 N   0  0  0  0  0  0  0  0  0  0  0  0
   -3.5975   -0.1146   -0.8606 C   0  0  2  0  0  0  0  0  0  0  0  0
   -4.5989   -0.3701    0.2581 C   0  0  0  0  0  0  0  0  0  0  0  0
   -4.4587   -1.2611    1.0933 O   0  0  0  0  0  0  0  0  0  0  0  0
   -3.9234   -0.9562   -2.0846 C   0  0  0  0  0  0  0  0  0  0  0  0
   -2.1898   -1.1712    0.3148 H   0  0  0  0  0  0  0  0  0  0  0  0
   -3.6039    0.9494   -1.1212 H   0  0  0  0  0  0  0  0  0  0  0  0
   -3.9216   -2.0254   -1.8429 H   0  0  0  0  0  0  0  0  0  0  0  0
   -4.9126   -0.7093   -2.4840 H   0  0  0  0  0  0  0  0  0  0  0  0
   -3.1851   -0.7935   -2.8772 H   0  0  0  0  0  0  0  0  0  0  0  0
   -5.6891    0.4859    0.1882 N   0  0  0  0  0  0  0  0  0  0  0  0
   -6.7966    0.4148    1.1126 C   0  0  0  0  0  0  0  0  0  0  0  0
   -5.7033    1.2207   -0.5128 H   0  0  0  0  0  0  0  0  0  0  0  0
   -7.5812   -0.2341    0.6964 H   0  0  0  0  0  0  0  0  0  0  0  0
   -6.4485    0.0010    2.0705 H   0  0  0  0  0  0  0  0  0  0  0  0
   -7.2035    1.4238    1.2753 H   0  0  0  0  0  0  0  0  0  0  0  0
  1  3  1  0  0  0  0
  1  7  1  0  0  0  0
  1  2  2  0  0  0  0
 42 43  1  0  0  0  0
 43 51  1  0  0  0  0
 43 44  2  0  0  0  0
  8  9  1  0  0  0  0
  9 17  1  0  0  0  0
  9 10  2  0  0  0  0
 18 19  1  0  0  0  0
 19 41  1  0  0  0  0
 19 20  2  0  0  0  0
 25 26  1  0  0  0  0
 25 27  1  0  0  0  0
 24 25  2  0  0  0  0
 42 45  1  0  0  0  0
  8 11  1  0  0  0  0
 51 52  1  0  0  0  0
 21 22  1  0  0  0  0
 22 23  1  0  0  0  0
 18 21  1  0  0  0  0
 23 24  1  0  0  0  0
 41 42  1  0  0  0  0
  7  8  1  0  0  0  0
 17 18  1  0  0  0  0
  3  4  1  0  0  0  0
  3  5  1  0  0  0  0
  3  6  1  0  0  0  0
 45 48  1  0  0  0  0
 45 49  1  0  0  0  0
 45 50  1  0  0  0  0
 11 14  1  0  0  0  0
 11 15  1  0  0  0  0
 11 16  1  0  0  0  0
 52 54  1  0  0  0  0
 52 55  1  0  0  0  0
 52 56  1  0  0  0  0
 22 32  1  0  0  0  0
 22 33  1  0  0  0  0
 21 30  1  0  0  0  0
 21 31  1  0  0  0  0
 23 34  1  0  0  0  0
 23 35  1  0  0  0  0
 42 47  1  0  0  0  0
  8 13  1  0  0  0  0
 18 29  1  0  0  0  0
 26 37  1  0  0  0  0
 26 38  1  0  0  0  0
 27 39  1  0  0  0  0
 27 40  1  0  0  0  0
 51 53  1  0  0  0  0
  7 12  1  0  0  0  0
 41 46  1  0  0  0  0
 17 28  1  0  0  0  0
 24 36  1  0  0  0  0
M  CHG  1  24   1
M  END
$$$$

  -OEChem-05262214473D

 56 55  0     1  0  0  0  0  0999 V2000
    0.7735   -5.8042   -2.0022 C   0  0  0  0  0  0  0  0  0  0  0  0
   -0.2086   -6.3825   -1.5519 O   0  0  0  0  0  0  0  0  0  0  0  0
    1.4751   -6.3646   -3.1946 C   0  0  0  0  0  0  0  0  0  0  0  0
    2.2765   -7.0687   -2.9186 H   0  0  0  0  0  0  0  0  0  0  0  0
    0.7988   -6.9360   -3.8504 H   0  0  0  0  0  0  0  0  0  0  0  0
    1.9556   -5.6216   -3.8511 H   0  0  0  0  0  0  0  0  0  0  0  0
    1.3322   -4.6359   -1.5106 N   0  0  0  0  0  0  0  0  0  0  0  0
    0.8124   -3.9290   -0.3698 C   0  0  2  0  0  0  0  0  0  0  0  0
    1.0666   -2.4424   -0.5818 C   0  0  0  0  0  0  0  0  0  0  0  0
    2.0598   -2.0076   -1.1610 O   0  0  0  0  0  0  0  0  0  0  0  0
    1.4560   -4.4118    0.9207 C   0  0  0  0  0  0  0  0  0  0  0  0
    2.1528   -4.2578   -1.9805 H   0  0  0  0  0  0  0  0  0  0  0  0
   -0.2667   -4.1160   -0.3467 H   0  0  0  0  0  0  0  0  0  0  0  0
    2.5374   -4.2329    0.9160 H   0  0  0  0  0  0  0  0  0  0  0  0
    1.0390   -3.8932    1.7903 H   0  0  0  0  0  0  0  0  0  0  0  0
    1.2976   -5.4871    1.0566 H   0  0  0  0  0  0  0  0  0  0  0  0
    0.0755   -1.6529   -0.0105 N   0  0  0  0  0  0  0  0  0  0  0  0
    0.1113   -0.2132   -0.0391 C   0  0  2  0  0  0  0  0  0  0  0  0
   -1.1385    0.2618   -0.7725 C   0  0  0  0  0  0  0  0  0  0  0  0
   -1.0962    0.9665   -1.7789 O   0  0  0  0  0  0  0  0  0  0  0  0
    1.3717    0.3178   -0.7297 C   0  0  0  0  0  0  0  0  0  0  0  0
    2.6469    0.0078    0.0633 C   0  0  0  0  0  0  0  0  0  0  0  0
    3.8981    0.5386   -0.6287 C   0  0  0  0  0  0  0  0  0  0  0  0
    5.1131    0.2210    0.1182 N   0  3  0  0  0  0  0  0  0  0  0  0
    6.3862    0.5509   -0.3503 C   0  0  0  0  0  0  0  0  0  0  0  0
    7.4989    0.2170    0.4145 N   0  0  0  0  0  0  0  0  0  0  0  0
    6.5692    1.2061   -1.5636 N   0  0  0  0  0  0  0  0  0  0  0  0
   -0.7323   -2.1024    0.4149 H   0  0  0  0  0  0  0  0  0  0  0  0
    0.0657    0.1264    1.0019 H   0  0  0  0  0  0  0  0  0  0  0  0
    1.2839    1.4024   -0.8658 H   0  0  0  0  0  0  0  0  0  0  0  0
    1.4543   -0.1146   -1.7357 H   0  0  0  0  0  0  0  0  0  0  0  0
    2.5707    0.4434    1.0668 H   0  0  0  0  0  0  0  0  0  0  0  0
    2.7509   -1.0766    0.1836 H   0  0  0  0  0  0  0  0  0  0  0  0
    3.9951    0.0792   -1.6172 H   0  0  0  0  0  0  0  0  0  0  0  0
    3.8473    1.6251   -0.7490 H   0  0  0  0  0  0  0  0  0  0  0  0
    5.0422   -0.2584    1.0140 H   0  0  0  0  0  0  0  0  0  0  0  0
    8.4402    0.4432    0.1020 H   0  0  0  0  0  0  0  0  0  0  0  0
    7.4010   -0.2624    1.3062 H   0  0  0  0  0  0  0  0  0  0  0  0
    7.4940    1.4486   -1.9093 H   0  0  0  0  0  0  0  0  0  0  0  0
    5.7741    1.4624   -2.1442 H   0  0  0  0  0  0  0  0  0  0  0  0
   -2.3034   -0.1531   -0.1423 N   0  0  0  0  0  0  0  0  0  0  0  0
   -3.6219    0.2062   -0.6113 C   0  0  2  0  0  0  0  0  0  0  0  0
   -4.5364    0.3235    0.6009 C   0  0  0  0  0  0  0  0  0  0  0  0
   -4.4223   -0.3858    1.5983 O   0  0  0  0  0  0  0  0  0  0  0  0
   -4.1566   -0.8195   -1.5985 C   0  0  0  0  0  0  0  0  0  0  0  0
   -2.2417   -0.7620    0.6683 H   0  0  0  0  0  0  0  0  0  0  0  0
   -3.5295    1.1844   -1.0958 H   0  0  0  0  0  0  0  0  0  0  0  0
   -4.2560   -1.8060   -1.1310 H   0  0  0  0  0  0  0  0  0  0  0  0
   -5.1437   -0.5311   -1.9746 H   0  0  0  0  0  0  0  0  0  0  0  0
   -3.4824   -0.9242   -2.4554 H   0  0  0  0  0  0  0  0  0  0  0  0
   -5.5219    1.2839    0.4202 N   0  0  0  0  0  0  0  0  0  0  0  0
   -6.5383    1.5539    1.4102 C   0  0  0  0  0  0  0  0  0  0  0  0
   -5.5168    1.8529   -0.4212 H   0  0  0  0  0  0  0  0  0  0  0  0
   -7.4284    0.9432    1.1986 H   0  0  0  0  0  0  0  0  0  0  0  0
   -6.1519    1.3047    2.4095 H   0  0  0  0  0  0  0  0  0  0  0  0
   -6.8086    2.6196    1.3767 H   0  0  0  0  0  0  0  0  0  0  0  0
  1  3  1  0  0  0  0
  1  7  1  0  0  0  0
  1  2  2  0  0  0  0
 42 43  1  0  0  0  0
 43 51  1  0  0  0  0
 43 44  2  0  0  0  0
  8  9  1  0  0  0  0
  9 17  1  0  0  0  0
  9 10  2  0  0  0  0
 18 19  1  0  0  0  0
 19 41  1  0  0  0  0
 19 20  2  0  0  0  0
 25 26  1  0  0  0  0
 25 27  1  0  0  0  0
 24 25  2  0  0  0  0
 42 45  1  0  0  0  0
  8 11  1  0  0  0  0
 51 52  1  0  0  0  0
 21 22  1  0  0  0  0
 22 23  1  0  0  0  0
 18 21  1  0  0  0  0
 23 24  1  0  0  0  0
 41 42  1  0  0  0  0
  7  8  1  0  0  0  0
 17 18  1  0  0  0  0
  3  4  1  0  0  0  0
  3  5  1  0  0  0  0
  3  6  1  0  0  0  0
 45 48  1  0  0  0  0
 45 49  1  0  0  0  0
 45 50  1  0  0  0  0
 11 14  1  0  0  0  0
 11 15  1  0  0  0  0
 11 16  1  0  0  0  0
 52 54  1  0  0  0  0
 52 55  1  0  0  0  0
 52 56  1  0  0  0  0
 22 32  1  0  0  0  0
 22 33  1  0  0  0  0
 21 30  1  0  0  0  0
 21 31  1  0  0  0  0
 23 34  1  0  0  0  0
 23 35  1  0  0  0  0
 42 47  1  0  0  0  0
  8 13  1  0  0  0  0
 18 29  1  0  0  0  0
 26 37  1  0  0  0  0
 26 38  1  0  0  0  0
 27 39  1  0  0  0  0
 27 40  1  0  0  0  0
 51 53  1  0  0  0  0
  7 12  1  0  0  0  0
 41 46  1  0  0  0  0
 17 28  1  0  0  0  0
 24 36  1  0  0  0  0
M  CHG  1  24   1
M  END
$$$$

  -OEChem-05262214473D

 56 55  0     1  0  0  0  0  0999 V2000
    0.7735   -5.8042   -2.0022 C   0  0  0  0  0  0  0  0  0  0  0  0
   -0.2086   -6.3825   -1.5519 O   0  0  0  0  0  0  0  0  0  0  0  0
    1.4751   -6.3646   -3.1946 C   0  0  0  0  0  0  0  0  0  0  0  0
    2.2765   -7.0687   -2.9186 H   0  0  0  0  0  0  0  0  0  0  0  0
    0.7988   -6.9360   -3.8504 H   0  0  0  0  0  0  0  0  0  0  0  0
    1.9556   -5.6216   -3.8511 H   0  0  0  0  0  0  0  0  0  0  0  0
    1.3322   -4.6359   -1.5106 N   0  0  0  0  0  0  0  0  0  0  0  0
    0.8124   -3.9290   -0.3698 C   0  0  2  0  0  0  0  0  0  0  0  0
    1.0666   -2.4424   -0.5818 C   0  0  0  0  0  0  0  0  0  0  0  0
    2.0598   -2.0076   -1.1610 O   0  0  0  0  0  0  0  0  0  0  0  0
    1.4560   -4.4118    0.9207 C   0  0  0  0  0  0  0  0  0  0  0  0
    2.1528   -4.2578   -1.9805 H   0  0  0  0  0  0  0  0  0  0  0  0
   -0.2667   -4.1160   -0.3467 H   0  0  0  0  0  0  0  0  0  0  0  0
    2.5374   -4.2329    0.9160 H   0  0  0  0  0  0  0  0  0  0  0  0
    1.0390   -3.8932    1.7903 H   0  0  0  0  0  0  0  0  0  0  0  0
    1.2976   -5.4871    1.0566 H   0  0  0  0  0  0  0  0  0  0  0  0
    0.0755   -1.6529   -0.0105 N   0  0  0  0  0  0  0  0  0  0  0  0
    0.1113   -0.2132   -0.0391 C   0  0  2  0  0  0  0  0  0  0  0  0
   -1.1385    0.2618   -0.7725 C   0  0  0  0  0  0  0  0  0  0  0  0
   -1.1098    0.7308   -1.9085 O   0  0  0  0  0  0  0  0  0  0  0  0
    1.3717    0.3178   -0.7297 C   0  0  0  0  0  0  0  0  0  0  0  0
    2.6469    0.0078    0.0633 C   0  0  0  0  0  0  0  0  0  0  0  0
    3.8981    0.5386   -0.6287 C   0  0  0  0  0  0  0  0  0  0  0  0
    5.1131    0.2210    0.1182 N   0  3  0  0  0  0  0  0  0  0  0  0
    6.3862    0.5509   -0.3503 C   0  0  0  0  0  0  0  0  0  0  0  0
    7.4989    0.2170    0.4145 N   0  0  0  0  0  0  0  0  0  0  0  0
    6.5692    1.2061   -1.5636 N   0  0  0  0  0  0  0  0  0  0  0  0
   -0.7323   -2.1024    0.4149 H   0  0  0  0  0  0  0  0  0  0  0  0
    0.0657    0.1264    1.0019 H   0  0  0  0  0  0  0  0  0  0  0  0
    1.2839    1.4024   -0.8658 H   0  0  0  0  0  0  0  0  0  0  0  0
    1.4543   -0.1146   -1.7357 H   0  0  0  0  0  0  0  0  0  0  0  0
    2.5707    0.4434    1.0668 H   0  0  0  0  0  0  0  0  0  0  0  0
    2.7509   -1.0766    0.1836 H   0  0  0  0  0  0  0  0  0  0  0  0
    3.9951    0.0792   -1.6172 H   0  0  0  0  0  0  0  0  0  0  0  0
    3.8473    1.6251   -0.7490 H   0  0  0  0  0  0  0  0  0  0  0  0
    5.0422   -0.2584    1.0140 H   0  0  0  0  0  0  0  0  0  0  0  0
    8.4402    0.4432    0.1020 H   0  0  0  0  0  0  0  0  0  0  0  0
    7.4010   -0.2624    1.3062 H   0  0  0  0  0  0  0  0  0  0  0  0
    7.4940    1.4486   -1.9093 H   0  0  0  0  0  0  0  0  0  0  0  0
    5.7741    1.4624   -2.1442 H   0  0  0  0  0  0  0  0  0  0  0  0
   -2.2791    0.1453    0.0096 N   0  0  0  0  0  0  0  0  0  0  0  0
   -3.5853    0.5720   -0.4366 C   0  0  2  0  0  0  0  0  0  0  0  0
   -4.3621    1.0584    0.7798 C   0  0  0  0  0  0  0  0  0  0  0  0
   -4.2376    0.5622    1.8976 O   0  0  0  0  0  0  0  0  0  0  0  0
   -4.3257   -0.5553   -1.1392 C   0  0  0  0  0  0  0  0  0  0  0  0
   -2.2124   -0.2854    0.9271 H   0  0  0  0  0  0  0  0  0  0  0  0
   -3.4264    1.4075   -1.1271 H   0  0  0  0  0  0  0  0  0  0  0  0
   -4.4942   -1.4014   -0.4630 H   0  0  0  0  0  0  0  0  0  0  0  0
   -5.3038   -0.2222   -1.5018 H   0  0  0  0  0  0  0  0  0  0  0  0
   -3.7517   -0.9239   -1.9962 H   0  0  0  0  0  0  0  0  0  0  0  0
   -5.2424    2.0831    0.4615 N   0  0  0  0  0  0  0  0  0  0  0  0
   -6.1230    2.6850    1.4351 C   0  0  0  0  0  0  0  0  0  0  0  0
   -5.2506    2.4597   -0.4818 H   0  0  0  0  0  0  0  0  0  0  0  0
   -7.0937    2.1679    1.4216 H   0  0  0  0  0  0  0  0  0  0  0  0
   -5.6758    2.5990    2.4365 H   0  0  0  0  0  0  0  0  0  0  0  0
   -6.2700    3.7471    1.1893 H   0  0  0  0  0  0  0  0  0  0  0  0
  1  3  1  0  0  0  0
  1  7  1  0  0  0  0
  1  2  2  0  0  0  0
 42 43  1  0  0  0  0
 43 51  1  0  0  0  0
 43 44  2  0  0  0  0
  8  9  1  0  0  0  0
  9 17  1  0  0  0  0
  9 10  2  0  0  0  0
 18 19  1  0  0  0  0
 19 41  1  0  0  0  0
 19 20  2  0  0  0  0
 25 26  1  0  0  0  0
 25 27  1  0  0  0  0
 24 25  2  0  0  0  0
 42 45  1  0  0  0  0
  8 11  1  0  0  0  0
 51 52  1  0  0  0  0
 21 22  1  0  0  0  0
 22 23  1  0  0  0  0
 18 21  1  0  0  0  0
 23 24  1  0  0  0  0
 41 42  1  0  0  0  0
  7  8  1  0  0  0  0
 17 18  1  0  0  0  0
  3  4  1  0  0  0  0
  3  5  1  0  0  0  0
  3  6  1  0  0  0  0
 45 48  1  0  0  0  0
 45 49  1  0  0  0  0
 45 50  1  0  0  0  0
 11 14  1  0  0  0  0
 11 15  1  0  0  0  0
 11 16  1  0  0  0  0
 52 54  1  0  0  0  0
 52 55  1  0  0  0  0
 52 56  1  0  0  0  0
 22 32  1  0  0  0  0
 22 33  1  0  0  0  0
 21 30  1  0  0  0  0
 21 31  1  0  0  0  0
 23 34  1  0  0  0  0
 23 35  1  0  0  0  0
 42 47  1  0  0  0  0
  8 13  1  0  0  0  0
 18 29  1  0  0  0  0
 26 37  1  0  0  0  0
 26 38  1  0  0  0  0
 27 39  1  0  0  0  0
 27 40  1  0  0  0  0
 51 53  1  0  0  0  0
  7 12  1  0  0  0  0
 41 46  1  0  0  0  0
 17 28  1  0  0  0  0
 24 36  1  0  0  0  0
M  CHG  1  24   1
M  END
$$$$

  -OEChem-05262214473D

 56 55  0     1  0  0  0  0  0999 V2000
    0.7735   -5.8042   -2.0022 C   0  0  0  0  0  0  0  0  0  0  0  0
   -0.2086   -6.3825   -1.5519 O   0  0  0  0  0  0  0  0  0  0  0  0
    1.4751   -6.3646   -3.1946 C   0  0  0  0  0  0  0  0  0  0  0  0
    2.2765   -7.0687   -2.9186 H   0  0  0  0  0  0  0  0  0  0  0  0
    0.7988   -6.9360   -3.8504 H   0  0  0  0  0  0  0  0  0  0  0  0
    1.9556   -5.6216   -3.8511 H   0  0  0  0  0  0  0  0  0  0  0  0
    1.3322   -4.6359   -1.5106 N   0  0  0  0  0  0  0  0  0  0  0  0
    0.8124   -3.9290   -0.3698 C   0  0  2  0  0  0  0  0  0  0  0  0
    1.0666   -2.4424   -0.5818 C   0  0  0  0  0  0  0  0  0  0  0  0
    2.0598   -2.0076   -1.1610 O   0  0  0  0  0  0  0  0  0  0  0  0
    1.4560   -4.4118    0.9207 C   0  0  0  0  0  0  0  0  0  0  0  0
    2.1528   -4.2578   -1.9805 H   0  0  0  0  0  0  0  0  0  0  0  0
   -0.2667   -4.1160   -0.3467 H   0  0  0  0  0  0  0  0  0  0  0  0
    2.5374   -4.2329    0.9160 H   0  0  0  0  0  0  0  0  0  0  0  0
    1.0390   -3.8932    1.7903 H   0  0  0  0  0  0  0  0  0  0  0  0
    1.2976   -5.4871    1.0566 H   0  0  0  0  0  0  0  0  0  0  0  0
    0.0755   -1.6529   -0.0105 N   0  0  0  0  0  0  0  0  0  0  0  0
    0.1113   -0.2132   -0.0391 C   0  0  2  0  0  0  0  0  0  0  0  0
   -1.1385    0.2618   -0.7725 C   0  0  0  0  0  0  0  0  0  0  0  0
   -1.1626    0.4774   -1.9825 O   0  0  0  0  0  0  0  0  0  0  0  0
    1.3717    0.3178   -0.7297 C   0  0  0  0  0  0  0  0  0  0  0  0
    2.6469    0.0078    0.0633 C   0  0  0  0  0  0  0  0  0  0  0  0
    3.8981    0.5386   -0.6287 C   0  0  0  0  0  0  0  0  0  0  0  0
    5.1131    0.2210    0.1182 N   0  3  0  0  0  0  0  0  0  0  0  0
    6.3862    0.5509   -0.3503 C   0  0  0  0  0  0  0  0  0  0  0  0
    7.4989    0.2170    0.4145 N   0  0  0  0  0  0  0  0  0  0  0  0
    6.5692    1.2061   -1.5636 N   0  0  0  0  0  0  0  0  0  0  0  0
   -0.7323   -2.1024    0.4149 H   0  0  0  0  0  0  0  0  0  0  0  0
    0.0657    0.1264    1.0019 H   0  0  0  0  0  0  0  0  0  0  0  0
    1.2839    1.4024   -0.8658 H   0  0  0  0  0  0  0  0  0  0  0  0
    1.4543   -0.1146   -1.7357 H   0  0  0  0  0  0  0  0  0  0  0  0
    2.5707    0.4434    1.0668 H   0  0  0  0  0  0  0  0  0  0  0  0
    2.7509   -1.0766    0.1836 H   0  0  0  0  0  0  0  0  0  0  0  0
    3.9951    0.0792   -1.6172 H   0  0  0  0  0  0  0  0  0  0  0  0
    3.8473    1.6251   -0.7490 H   0  0  0  0  0  0  0  0  0  0  0  0
    5.0422   -0.2584    1.0140 H   0  0  0  0  0  0  0  0  0  0  0  0
    8.4402    0.4432    0.1020 H   0  0  0  0  0  0  0  0  0  0  0  0
    7.4010   -0.2624    1.3062 H   0  0  0  0  0  0  0  0  0  0  0  0
    7.4940    1.4486   -1.9093 H   0  0  0  0  0  0  0  0  0  0  0  0
    5.7741    1.4624   -2.1442 H   0  0  0  0  0  0  0  0  0  0  0  0
   -2.2063    0.4627    0.0911 N   0  0  0  0  0  0  0  0  0  0  0  0
   -3.4905    0.9579   -0.3484 C   0  0  2  0  0  0  0  0  0  0  0  0
   -4.0878    1.7845    0.7827 C   0  0  0  0  0  0  0  0  0  0  0  0
   -3.9170    1.5184    1.9706 O   0  0  0  0  0  0  0  0  0  0  0  0
   -4.4192   -0.1816   -0.7379 C   0  0  0  0  0  0  0  0  0  0  0  0
   -2.1038    0.2263    1.0736 H   0  0  0  0  0  0  0  0  0  0  0  0
   -3.3015    1.6035   -1.2129 H   0  0  0  0  0  0  0  0  0  0  0  0
   -4.6201   -0.8393    0.1157 H   0  0  0  0  0  0  0  0  0  0  0  0
   -5.3818    0.1964   -1.0977 H   0  0  0  0  0  0  0  0  0  0  0  0
   -3.9748   -0.7927   -1.5310 H   0  0  0  0  0  0  0  0  0  0  0  0
   -4.8695    2.8290    0.3093 N   0  0  0  0  0  0  0  0  0  0  0  0
   -5.5790    3.7313    1.1859 C   0  0  0  0  0  0  0  0  0  0  0  0
   -4.9228    2.9999   -0.6906 H   0  0  0  0  0  0  0  0  0  0  0  0
   -6.6001    3.3565    1.3502 H   0  0  0  0  0  0  0  0  0  0  0  0
   -5.0527    3.7956    2.1496 H   0  0  0  0  0  0  0  0  0  0  0  0
   -5.6246    4.7293    0.7256 H   0  0  0  0  0  0  0  0  0  0  0  0
  1  3  1  0  0  0  0
  1  7  1  0  0  0  0
  1  2  2  0  0  0  0
 42 43  1  0  0  0  0
 43 51  1  0  0  0  0
 43 44  2  0  0  0  0
  8  9  1  0  0  0  0
  9 17  1  0  0  0  0
  9 10  2  0  0  0  0
 18 19  1  0  0  0  0
 19 41  1  0  0  0  0
 19 20  2  0  0  0  0
 25 26  1  0  0  0  0
 25 27  1  0  0  0  0
 24 25  2  0  0  0  0
 42 45  1  0  0  0  0
  8 11  1  0  0  0  0
 51 52  1  0  0  0  0
 21 22  1  0  0  0  0
 22 23  1  0  0  0  0
 18 21  1  0  0  0  0
 23 24  1  0  0  0  0
 41 42  1  0  0  0  0
  7  8  1  0  0  0  0
 17 18  1  0  0  0  0
  3  4  1  0  0  0  0
  3  5  1  0  0  0  0
  3  6  1  0  0  0  0
 45 48  1  0  0  0  0
 45 49  1  0  0  0  0
 45 50  1  0  0  0  0
 11 14  1  0  0  0  0
 11 15  1  0  0  0  0
 11 16  1  0  0  0  0
 52 54  1  0  0  0  0
 52 55  1  0  0  0  0
 52 56  1  0  0  0  0
 22 32  1  0  0  0  0
 22 33  1  0  0  0  0
 21 30  1  0  0  0  0
 21 31  1  0  0  0  0
 23 34  1  0  0  0  0
 23 35  1  0  0  0  0
 42 47  1  0  0  0  0
  8 13  1  0  0  0  0
 18 29  1  0  0  0  0
 26 37  1  0  0  0  0
 26 38  1  0  0  0  0
 27 39  1  0  0  0  0
 27 40  1  0  0  0  0
 51 53  1  0  0  0  0
  7 12  1  0  0  0  0
 41 46  1  0  0  0  0
 17 28  1  0  0  0  0
 24 36  1  0  0  0  0
M  CHG  1  24   1
M  END
$$$$

  -OEChem-05262214473D

 56 55  0     1  0  0  0  0  0999 V2000
    0.7735   -5.8042   -2.0022 C   0  0  0  0  0  0  0  0  0  0  0  0
   -0.2086   -6.3825   -1.5519 O   0  0  0  0  0  0  0  0  0  0  0  0
    1.4751   -6.3646   -3.1946 C   0  0  0  0  0  0  0  0  0  0  0  0
    2.2765   -7.0687   -2.9186 H   0  0  0  0  0  0  0  0  0  0  0  0
    0.7988   -6.9360   -3.8504 H   0  0  0  0  0  0  0  0  0  0  0  0
    1.9556   -5.6216   -3.8511 H   0  0  0  0  0  0  0  0  0  0  0  0
    1.3322   -4.6359   -1.5106 N   0  0  0  0  0  0  0  0  0  0  0  0
    0.8124   -3.9290   -0.3698 C   0  0  2  0  0  0  0  0  0  0  0  0
    1.0666   -2.4424   -0.5818 C   0  0  0  0  0  0  0  0  0  0  0  0
    2.0598   -2.0076   -1.1610 O   0  0  0  0  0  0  0  0  0  0  0  0
    1.4560   -4.4118    0.9207 C   0  0  0  0  0  0  0  0  0  0  0  0
    2.1528   -4.2578   -1.9805 H   0  0  0  0  0  0  0  0  0  0  0  0
   -0.2667   -4.1160   -0.3467 H   0  0  0  0  0  0  0  0  0  0  0  0
    2.5374   -4.2329    0.9160 H   0  0  0  0  0  0  0  0  0  0  0  0
    1.0390   -3.8932    1.7903 H   0  0  0  0  0  0  0  0  0  0  0  0
    1.2976   -5.4871    1.0566 H   0  0  0  0  0  0  0  0  0  0  0  0
    0.0755   -1.6529   -0.0105 N   0  0  0  0  0  0  0  0  0  0  0  0
    0.1113   -0.2132   -0.0391 C   0  0  2  0  0  0  0  0  0  0  0  0
   -1.1385    0.2618   -0.7725 C   0  0  0  0  0  0  0  0  0  0  0  0
   -1.2512    0.2235   -1.9960 O   0  0  0  0  0  0  0  0  0  0  0  0
    1.3717    0.3178   -0.7297 C   0  0  0  0  0  0  0  0  0  0  0  0
    2.6469    0.0078    0.0633 C   0  0  0  0  0  0  0  0  0  0  0  0
    3.8981    0.5386   -0.6287 C   0  0  0  0  0  0  0  0  0  0  0  0
    5.1131    0.2210    0.1182 N   0  3  0  0  0  0  0  0  0  0  0  0
    6.3862    0.5509   -0.3503 C   0  0  0  0  0  0  0  0  0  0  0  0
    7.4989    0.2170    0.4145 N   0  0  0  0  0  0  0  0  0  0  0  0
    6.5692    1.2061   -1.5636 N   0  0  0  0  0  0  0  0  0  0  0  0
   -0.7323   -2.1024    0.4149 H   0  0  0  0  0  0  0  0  0  0  0  0
    0.0657    0.1264    1.0019 H   0  0  0  0  0  0  0  0  0  0  0  0
    1.2839    1.4024   -0.8658 H   0  0  0  0  0  0  0  0  0  0  0  0
    1.4543   -0.1146   -1.7357 H   0  0  0  0  0  0  0  0  0  0  0  0
    2.5707    0.4434    1.0668 H   0  0  0  0  0  0  0  0  0  0  0  0
    2.7509   -1.0766    0.1836 H   0  0  0  0  0  0  0  0  0  0  0  0
    3.9951    0.0792   -1.6172 H   0  0  0  0  0  0  0  0  0  0  0  0
    3.8473    1.6251   -0.7490 H   0  0  0  0  0  0  0  0  0  0  0  0
    5.0422   -0.2584    1.0140 H   0  0  0  0  0  0  0  0  0  0  0  0
    8.4402    0.4432    0.1020 H   0  0  0  0  0  0  0  0  0  0  0  0
    7.4010   -0.2624    1.3062 H   0  0  0  0  0  0  0  0  0  0  0  0
    7.4940    1.4486   -1.9093 H   0  0  0  0  0  0  0  0  0  0  0  0
    5.7741    1.4624   -2.1442 H   0  0  0  0  0  0  0  0  0  0  0  0
   -2.0899    0.7774    0.0966 N   0  0  0  0  0  0  0  0  0  0  0  0
   -3.3437    1.3375   -0.3526 C   0  0  2  0  0  0  0  0  0  0  0  0
   -3.7323    2.4524    0.6094 C   0  0  0  0  0  0  0  0  0  0  0  0
   -3.4824    2.4176    1.8125 O   0  0  0  0  0  0  0  0  0  0  0  0
   -4.4305    0.2761   -0.4220 C   0  0  0  0  0  0  0  0  0  0  0  0
   -1.9235    0.7381    1.0978 H   0  0  0  0  0  0  0  0  0  0  0  0
   -3.1634    1.7591   -1.3475 H   0  0  0  0  0  0  0  0  0  0  0  0
   -4.6251   -0.1579    0.5655 H   0  0  0  0  0  0  0  0  0  0  0  0
   -5.3725    0.6962   -0.7898 H   0  0  0  0  0  0  0  0  0  0  0  0
   -4.1365   -0.5396   -1.0914 H   0  0  0  0  0  0  0  0  0  0  0  0
   -4.4289    3.4708   -0.0260 N   0  0  0  0  0  0  0  0  0  0  0  0
   -4.9435    4.6213    0.6793 C   0  0  0  0  0  0  0  0  0  0  0  0
   -4.5558    3.4365   -1.0332 H   0  0  0  0  0  0  0  0  0  0  0  0
   -5.9811    4.4280    0.9894 H   0  0  0  0  0  0  0  0  0  0  0  0
   -4.3249    4.8131    1.5684 H   0  0  0  0  0  0  0  0  0  0  0  0
   -4.9163    5.4994    0.0173 H   0  0  0  0  0  0  0  0  0  0  0  0
  1  3  1  0  0  0  0
  1  7  1  0  0  0  0
  1  2  2  0  0  0  0
 42 43  1  0  0  0  0
 43 51  1  0  0  0  0
 43 44  2  0  0  0  0
  8  9  1  0  0  0  0
  9 17  1  0  0  0  0
  9 10  2  0  0  0  0
 18 19  1  0  0  0  0
 19 41  1  0  0  0  0
 19 20  2  0  0  0  0
 25 26  1  0  0  0  0
 25 27  1  0  0  0  0
 24 25  2  0  0  0  0
 42 45  1  0  0  0  0
  8 11  1  0  0  0  0
 51 52  1  0  0  0  0
 21 22  1  0  0  0  0
 22 23  1  0  0  0  0
 18 21  1  0  0  0  0
 23 24  1  0  0  0  0
 41 42  1  0  0  0  0
  7  8  1  0  0  0  0
 17 18  1  0  0  0  0
  3  4  1  0  0  0  0
  3  5  1  0  0  0  0
  3  6  1  0  0  0  0
 45 48  1  0  0  0  0
 45 49  1  0  0  0  0
 45 50  1  0  0  0  0
 11 14  1  0  0  0  0
 11 15  1  0  0  0  0
 11 16  1  0  0  0  0
 52 54  1  0  0  0  0
 52 55  1  0  0  0  0
 52 56  1  0  0  0  0
 22 32  1  0  0  0  0
 22 33  1  0  0  0  0
 21 30  1  0  0  0  0
 21 31  1  0  0  0  0
 23 34  1  0  0  0  0
 23 35  1  0  0  0  0
 42 47  1  0  0  0  0
  8 13  1  0  0  0  0
 18 29  1  0  0  0  0
 26 37  1  0  0  0  0
 26 38  1  0  0  0  0
 27 39  1  0  0  0  0
 27 40  1  0  0  0  0
 51 53  1  0  0  0  0
  7 12  1  0  0  0  0
 41 46  1  0  0  0  0
 17 28  1  0  0  0  0
 24 36  1  0  0  0  0
M  CHG  1  24   1
M  END
$$$$

  -OEChem-05262214473D

 56 55  0     1  0  0  0  0  0999 V2000
    0.7735   -5.8042   -2.0022 C   0  0  0  0  0  0  0  0  0  0  0  0
   -0.2086   -6.3825   -1.5519 O   0  0  0  0  0  0  0  0  0  0  0  0
    1.4751   -6.3646   -3.1946 C   0  0  0  0  0  0  0  0  0  0  0  0
    2.2765   -7.0687   -2.9186 H   0  0  0  0  0  0  0  0  0  0  0  0
    0.7988   -6.9360   -3.8504 H   0  0  0  0  0  0  0  0  0  0  0  0
    1.9556   -5.6216   -3.8511 H   0  0  0  0  0  0  0  0  0  0  0  0
    1.3322   -4.6359   -1.5106 N   0  0  0  0  0  0  0  0  0  0  0  0
    0.8124   -3.9290   -0.3698 C   0  0  2  0  0  0  0  0  0  0  0  0
    1.0666   -2.4424   -0.5818 C   0  0  0  0  0  0  0  0  0  0  0  0
    2.0598   -2.0076   -1.1610 O   0  0  0  0  0  0  0  0  0  0  0  0
    1.4560   -4.4118    0.9207 C   0  0  0  0  0  0  0  0  0  0  0  0
    2.1528   -4.2578   -1.9805 H   0  0  0  0  0  0  0  0  0  0  0  0
   -0.2667   -4.1160   -0.3467 H   0  0  0  0  0  0  0  0  0  0  0  0
    2.5374   -4.2329    0.9160 H   0  0  0  0  0  0  0  0  0  0  0  0
    1.0390   -3.8932    1.7903 H   0  0  0  0  0  0  0  0  0  0  0  0
    1.2976   -5.4871    1.0566 H   0  0  0  0  0  0  0  0  0  0  0  0
    0.0755   -1.6529   -0.0105 N   0  0  0  0  0  0  0  0  0  0  0  0
    0.1113   -0.2132   -0.0391 C   0  0  2  0  0  0  0  0  0  0  0  0
   -1.1385    0.2618   -0.7725 C   0  0  0  0  0  0  0  0  0  0  0  0
   -1.3695   -0.0136   -1.9481 O   0  0  0  0  0  0  0  0  0  0  0  0
    1.3717    0.3178   -0.7297 C   0  0  0  0  0  0  0  0  0  0  0  0
    2.6469    0.0078    0.0633 C   0  0  0  0  0  0  0  0  0  0  0  0
    3.8981    0.5386   -0.6287 C   0  0  0  0  0  0  0  0  0  0  0  0
    5.1131    0.2210    0.1182 N   0  3  0  0  0  0  0  0  0  0  0  0
    6.3862    0.5509   -0.3503 C   0  0  0  0  0  0  0  0  0  0  0  0
    7.4989    0.2170    0.4145 N   0  0  0  0  0  0  0  0  0  0  0  0
    6.5692    1.2061   -1.5636 N   0  0  0  0  0  0  0  0  0  0  0  0
   -0.7323   -2.1024    0.4149 H   0  0  0  0  0  0  0  0  0  0  0  0
    0.0657    0.1264    1.0019 H   0  0  0  0  0  0  0  0  0  0  0  0
    1.2839    1.4024   -0.8658 H   0  0  0  0  0  0  0  0  0  0  0  0
    1.4543   -0.1146   -1.7357 H   0  0  0  0  0  0  0  0  0  0  0  0
    2.5707    0.4434    1.0668 H   0  0  0  0  0  0  0  0  0  0  0  0
    2.7509   -1.0766    0.1836 H   0  0  0  0  0  0  0  0  0  0  0  0
    3.9951    0.0792   -1.6172 H   0  0  0  0  0  0  0  0  0  0  0  0
    3.8473    1.6251   -0.7490 H   0  0  0  0  0  0  0  0  0  0  0  0
    5.0422   -0.2584    1.0140 H   0  0  0  0  0  0  0  0  0  0  0  0
    8.4402    0.4432    0.1020 H   0  0  0  0  0  0  0  0  0  0  0  0
    7.4010   -0.2624    1.3062 H   0  0  0  0  0  0  0  0  0  0  0  0
    7.4940    1.4486   -1.9093 H   0  0  0  0  0  0  0  0  0  0  0  0
    5.7741    1.4624   -2.1442 H   0  0  0  0  0  0  0  0  0  0  0  0
   -1.9378    1.0682    0.0257 N   0  0  0  0  0  0  0  0  0  0  0  0
   -3.1550    1.6850   -0.4491 C   0  0  2  0  0  0  0  0  0  0  0  0
   -3.3197    3.0165    0.2716 C   0  0  0  0  0  0  0  0  0  0  0  0
   -2.9635    3.1986    1.4340 O   0  0  0  0  0  0  0  0  0  0  0  0
   -4.3591    0.7866   -0.2131 C   0  0  0  0  0  0  0  0  0  0  0  0
   -1.6837    1.2152    0.9981 H   0  0  0  0  0  0  0  0  0  0  0  0
   -3.0215    1.8637   -1.5216 H   0  0  0  0  0  0  0  0  0  0  0  0
   -4.5088    0.5963    0.8559 H   0  0  0  0  0  0  0  0  0  0  0  0
   -5.2765    1.2431   -0.5992 H   0  0  0  0  0  0  0  0  0  0  0  0
   -4.2258   -0.1817   -0.7075 H   0  0  0  0  0  0  0  0  0  0  0  0
   -3.9503    3.9648   -0.5216 N   0  0  0  0  0  0  0  0  0  0  0  0
   -4.2597    5.2944   -0.0501 C   0  0  0  0  0  0  0  0  0  0  0  0
   -4.1745    3.7399   -1.4864 H   0  0  0  0  0  0  0  0  0  0  0  0
   -5.2789    5.3095    0.3636 H   0  0  0  0  0  0  0  0  0  0  0  0
   -3.5422    5.5820    0.7326 H   0  0  0  0  0  0  0  0  0  0  0  0
   -4.1934    6.0049   -0.8872 H   0  0  0  0  0  0  0  0  0  0  0  0
  1  3  1  0  0  0  0
  1  7  1  0  0  0  0
  1  2  2  0  0  0  0
 42 43  1  0  0  0  0
 43 51  1  0  0  0  0
 43 44  2  0  0  0  0
  8  9  1  0  0  0  0
  9 17  1  0  0  0  0
  9 10  2  0  0  0  0
 18 19  1  0  0  0  0
 19 41  1  0  0  0  0
 19 20  2  0  0  0  0
 25 26  1  0  0  0  0
 25 27  1  0  0  0  0
 24 25  2  0  0  0  0
 42 45  1  0  0  0  0
  8 11  1  0  0  0  0
 51 52  1  0  0  0  0
 21 22  1  0  0  0  0
 22 23  1  0  0  0  0
 18 21  1  0  0  0  0
 23 24  1  0  0  0  0
 41 42  1  0  0  0  0
  7  8  1  0  0  0  0
 17 18  1  0  0  0  0
  3  4  1  0  0  0  0
  3  5  1  0  0  0  0
  3  6  1  0  0  0  0
 45 48  1  0  0  0  0
 45 49  1  0  0  0  0
 45 50  1  0  0  0  0
 11 14  1  0  0  0  0
 11 15  1  0  0  0  0
 11 16  1  0  0  0  0
 52 54  1  0  0  0  0
 52 55  1  0  0  0  0
 52 56  1  0  0  0  0
 22 32  1  0  0  0  0
 22 33  1  0  0  0  0
 21 30  1  0  0  0  0
 21 31  1  0  0  0  0
 23 34  1  0  0  0  0
 23 35  1  0  0  0  0
 42 47  1  0  0  0  0
  8 13  1  0  0  0  0
 18 29  1  0  0  0  0
 26 37  1  0  0  0  0
 26 38  1  0  0  0  0
 27 39  1  0  0  0  0
 27 40  1  0  0  0  0
 51 53  1  0  0  0  0
  7 12  1  0  0  0  0
 41 46  1  0  0  0  0
 17 28  1  0  0  0  0
 24 36  1  0  0  0  0
M  CHG  1  24   1
M  END
$$$$

  -OEChem-05262214473D

 56 55  0     1  0  0  0  0  0999 V2000
    0.7735   -5.8042   -2.0022 C   0  0  0  0  0  0  0  0  0  0  0  0
   -0.2086   -6.3825   -1.5519 O   0  0  0  0  0  0  0  0  0  0  0  0
    1.4751   -6.3646   -3.1946 C   0  0  0  0  0  0  0  0  0  0  0  0
    2.2765   -7.0687   -2.9186 H   0  0  0  0  0  0  0  0  0  0  0  0
    0.7988   -6.9360   -3.8504 H   0  0  0  0  0  0  0  0  0  0  0  0
    1.9556   -5.6216   -3.8511 H   0  0  0  0  0  0  0  0  0  0  0  0
    1.3322   -4.6359   -1.5106 N   0  0  0  0  0  0  0  0  0  0  0  0
    0.8124   -3.9290   -0.3698 C   0  0  2  0  0  0  0  0  0  0  0  0
    1.0666   -2.4424   -0.5818 C   0  0  0  0  0  0  0  0  0  0  0  0
    2.0598   -2.0076   -1.1610 O   0  0  0  0  0  0  0  0  0  0  0  0
    1.4560   -4.4118    0.9207 C   0  0  0  0  0  0  0  0  0  0  0  0
    2.1528   -4.2578   -1.9805 H   0  0  0  0  0  0  0  0  0  0  0  0
   -0.2667   -4.1160   -0.3467 H   0  0  0  0  0  0  0  0  0  0  0  0
    2.5374   -4.2329    0.9160 H   0  0  0  0  0  0  0  0  0  0  0  0
    1.0390   -3.8932    1.7903 H   0  0  0  0  0  0  0  0  0  0  0  0
    1.2976   -5.4871    1.0566 H   0  0  0  0  0  0  0  0  0  0  0  0
    0.0755   -1.6529   -0.0105 N   0  0  0  0  0  0  0  0  0  0  0  0
    0.1113   -0.2132   -0.0391 C   0  0  2  0  0  0  0  0  0  0  0  0
   -1.1385    0.2618   -0.7725 C   0  0  0  0  0  0  0  0  0  0  0  0
   -1.5093   -0.2177   -1.8420 O   0  0  0  0  0  0  0  0  0  0  0  0
    1.3717    0.3178   -0.7297 C   0  0  0  0  0  0  0  0  0  0  0  0
    2.6469    0.0078    0.0633 C   0  0  0  0  0  0  0  0  0  0  0  0
    3.8981    0.5386   -0.6287 C   0  0  0  0  0  0  0  0  0  0  0  0
    5.1131    0.2210    0.1182 N   0  3  0  0  0  0  0  0  0  0  0  0
    6.3862    0.5509   -0.3503 C   0  0  0  0  0  0  0  0  0  0  0  0
    7.4989    0.2170    0.4145 N   0  0  0  0  0  0  0  0  0  0  0  0
    6.5692    1.2061   -1.5636 N   0  0  0  0  0  0  0  0  0  0  0  0
   -0.7323   -2.1024    0.4149 H   0  0  0  0  0  0  0  0  0  0  0  0
    0.0657    0.1264    1.0019 H   0  0  0  0  0  0  0  0  0  0  0  0
    1.2839    1.4024   -0.8658 H   0  0  0  0  0  0  0  0  0  0  0  0
    1.4543   -0.1146   -1.7357 H   0  0  0  0  0  0  0  0  0  0  0  0
    2.5707    0.4434    1.0668 H   0  0  0  0  0  0  0  0  0  0  0  0
    2.7509   -1.0766    0.1836 H   0  0  0  0  0  0  0  0  0  0  0  0
    3.9951    0.0792   -1.6172 H   0  0  0  0  0  0  0  0  0  0  0  0
    3.8473    1.6251   -0.7490 H   0  0  0  0  0  0  0  0  0  0  0  0
    5.0422   -0.2584    1.0140 H   0  0  0  0  0  0  0  0  0  0  0  0
    8.4402    0.4432    0.1020 H   0  0  0  0  0  0  0  0  0  0  0  0
    7.4010   -0.2624    1.3062 H   0  0  0  0  0  0  0  0  0  0  0  0
    7.4940    1.4486   -1.9093 H   0  0  0  0  0  0  0  0  0  0  0  0
    5.7741    1.4624   -2.1442 H   0  0  0  0  0  0  0  0  0  0  0  0
   -1.7604    1.3151   -0.1167 N   0  0  0  0  0  0  0  0  0  0  0  0
   -2.9372    1.9767   -0.6312 C   0  0  2  0  0  0  0  0  0  0  0  0
   -2.8781    3.4383   -0.2075 C   0  0  0  0  0  0  0  0  0  0  0  0
   -2.3956    3.8080    0.8609 O   0  0  0  0  0  0  0  0  0  0  0  0
   -4.2097    1.3151   -0.1254 C   0  0  0  0  0  0  0  0  0  0  0  0
   -1.4007    1.6250    0.7812 H   0  0  0  0  0  0  0  0  0  0  0  0
   -2.8854    1.9101   -1.7234 H   0  0  0  0  0  0  0  0  0  0  0  0
   -4.2792    1.3720    0.9671 H   0  0  0  0  0  0  0  0  0  0  0  0
   -5.1003    1.7998   -0.5389 H   0  0  0  0  0  0  0  0  0  0  0  0
   -4.2365    0.2565   -0.4055 H   0  0  0  0  0  0  0  0  0  0  0  0
   -3.4666    4.2772   -1.1436 N   0  0  0  0  0  0  0  0  0  0  0  0
   -3.5742    5.7048   -0.9525 C   0  0  0  0  0  0  0  0  0  0  0  0
   -3.8050    3.8895   -2.0192 H   0  0  0  0  0  0  0  0  0  0  0  0
   -4.5413    5.9407   -0.4844 H   0  0  0  0  0  0  0  0  0  0  0  0
   -2.7578    6.0500   -0.3010 H   0  0  0  0  0  0  0  0  0  0  0  0
   -3.5051    6.2112   -1.9265 H   0  0  0  0  0  0  0  0  0  0  0  0
  1  3  1  0  0  0  0
  1  7  1  0  0  0  0
  1  2  2  0  0  0  0
 42 43  1  0  0  0  0
 43 51  1  0  0  0  0
 43 44  2  0  0  0  0
  8  9  1  0  0  0  0
  9 17  1  0  0  0  0
  9 10  2  0  0  0  0
 18 19  1  0  0  0  0
 19 41  1  0  0  0  0
 19 20  2  0  0  0  0
 25 26  1  0  0  0  0
 25 27  1  0  0  0  0
 24 25  2  0  0  0  0
 42 45  1  0  0  0  0
  8 11  1  0  0  0  0
 51 52  1  0  0  0  0
 21 22  1  0  0  0  0
 22 23  1  0  0  0  0
 18 21  1  0  0  0  0
 23 24  1  0  0  0  0
 41 42  1  0  0  0  0
  7  8  1  0  0  0  0
 17 18  1  0  0  0  0
  3  4  1  0  0  0  0
  3  5  1  0  0  0  0
  3  6  1  0  0  0  0
 45 48  1  0  0  0  0
 45 49  1  0  0  0  0
 45 50  1  0  0  0  0
 11 14  1  0  0  0  0
 11 15  1  0  0  0  0
 11 16  1  0  0  0  0
 52 54  1  0  0  0  0
 52 55  1  0  0  0  0
 52 56  1  0  0  0  0
 22 32  1  0  0  0  0
 22 33  1  0  0  0  0
 21 30  1  0  0  0  0
 21 31  1  0  0  0  0
 23 34  1  0  0  0  0
 23 35  1  0  0  0  0
 42 47  1  0  0  0  0
  8 13  1  0  0  0  0
 18 29  1  0  0  0  0
 26 37  1  0  0  0  0
 26 38  1  0  0  0  0
 27 39  1  0  0  0  0
 27 40  1  0  0  0  0
 51 53  1  0  0  0  0
  7 12  1  0  0  0  0
 41 46  1  0  0  0  0
 17 28  1  0  0  0  0
 24 36  1  0  0  0  0
M  CHG  1  24   1
M  END
$$$$

  -OEChem-05262214473D

 56 55  0     1  0  0  0  0  0999 V2000
    0.7735   -5.8042   -2.0022 C   0  0  0  0  0  0  0  0  0  0  0  0
   -0.2086   -6.3825   -1.5519 O   0  0  0  0  0  0  0  0  0  0  0  0
    1.4751   -6.3646   -3.1946 C   0  0  0  0  0  0  0  0  0  0  0  0
    2.2765   -7.0687   -2.9186 H   0  0  0  0  0  0  0  0  0  0  0  0
    0.7988   -6.9360   -3.8504 H   0  0  0  0  0  0  0  0  0  0  0  0
    1.9556   -5.6216   -3.8511 H   0  0  0  0  0  0  0  0  0  0  0  0
    1.3322   -4.6359   -1.5106 N   0  0  0  0  0  0  0  0  0  0  0  0
    0.8124   -3.9290   -0.3698 C   0  0  2  0  0  0  0  0  0  0  0  0
    1.0666   -2.4424   -0.5818 C   0  0  0  0  0  0  0  0  0  0  0  0
    2.0598   -2.0076   -1.1610 O   0  0  0  0  0  0  0  0  0  0  0  0
    1.4560   -4.4118    0.9207 C   0  0  0  0  0  0  0  0  0  0  0  0
    2.1528   -4.2578   -1.9805 H   0  0  0  0  0  0  0  0  0  0  0  0
   -0.2667   -4.1160   -0.3467 H   0  0  0  0  0  0  0  0  0  0  0  0
    2.5374   -4.2329    0.9160 H   0  0  0  0  0  0  0  0  0  0  0  0
    1.0390   -3.8932    1.7903 H   0  0  0  0  0  0  0  0  0  0  0  0
    1.2976   -5.4871    1.0566 H   0  0  0  0  0  0  0  0  0  0  0  0
    0.0755   -1.6529   -0.0105 N   0  0  0  0  0  0  0  0  0  0  0  0
    0.1113   -0.2132   -0.0391 C   0  0  2  0  0  0  0  0  0  0  0  0
   -1.1385    0.2618   -0.7725 C   0  0  0  0  0  0  0  0  0  0  0  0
   -1.6613   -0.3750   -1.6849 O   0  0  0  0  0  0  0  0  0  0  0  0
    1.3717    0.3178   -0.7297 C   0  0  0  0  0  0  0  0  0  0  0  0
    2.6469    0.0078    0.0633 C   0  0  0  0  0  0  0  0  0  0  0  0
    3.8981    0.5386   -0.6287 C   0  0  0  0  0  0  0  0  0  0  0  0
    5.1131    0.2210    0.1182 N   0  3  0  0  0  0  0  0  0  0  0  0
    6.3862    0.5509   -0.3503 C   0  0  0  0  0  0  0  0  0  0  0  0
    7.4989    0.2170    0.4145 N   0  0  0  0  0  0  0  0  0  0  0  0
    6.5692    1.2061   -1.5636 N   0  0  0  0  0  0  0  0  0  0  0  0
   -0.7323   -2.1024    0.4149 H   0  0  0  0  0  0  0  0  0  0  0  0
    0.0657    0.1264    1.0019 H   0  0  0  0  0  0  0  0  0  0  0  0
    1.2839    1.4024   -0.8658 H   0  0  0  0  0  0  0  0  0  0  0  0
    1.4543   -0.1146   -1.7357 H   0  0  0  0  0  0  0  0  0  0  0  0
    2.5707    0.4434    1.0668 H   0  0  0  0  0  0  0  0  0  0  0  0
    2.7509   -1.0766    0.1836 H   0  0  0  0  0  0  0  0  0  0  0  0
    3.9951    0.0792   -1.6172 H   0  0  0  0  0  0  0  0  0  0  0  0
    3.8473    1.6251   -0.7490 H   0  0  0  0  0  0  0  0  0  0  0  0
    5.0422   -0.2584    1.0140 H   0  0  0  0  0  0  0  0  0  0  0  0
    8.4402    0.4432    0.1020 H   0  0  0  0  0  0  0  0  0  0  0  0
    7.4010   -0.2624    1.3062 H   0  0  0  0  0  0  0  0  0  0  0  0
    7.4940    1.4486   -1.9093 H   0  0  0  0  0  0  0  0  0  0  0  0
    5.7741    1.4624   -2.1442 H   0  0  0  0  0  0  0  0  0  0  0  0
   -1.5698    1.5012   -0.3208 N   0  0  0  0  0  0  0  0  0  0  0  0
   -2.7053    2.1927   -0.8866 C   0  0  2  0  0  0  0  0  0  0  0  0
   -2.4378    3.6892   -0.7955 C   0  0  0  0  0  0  0  0  0  0  0  0
   -1.8173    4.2045    0.1322 O   0  0  0  0  0  0  0  0  0  0  0  0
   -3.9925    1.8257   -0.1648 C   0  0  0  0  0  0  0  0  0  0  0  0
   -1.0938    1.9396    0.4620 H   0  0  0  0  0  0  0  0  0  0  0  0
   -2.7645    1.8951   -1.9392 H   0  0  0  0  0  0  0  0  0  0  0  0
   -3.9520    2.1162    0.8914 H   0  0  0  0  0  0  0  0  0  0  0  0
   -4.8559    2.3284   -0.6129 H   0  0  0  0  0  0  0  0  0  0  0  0
   -4.1679    0.7452   -0.2058 H   0  0  0  0  0  0  0  0  0  0  0  0
   -3.0106    4.3869   -1.8497 N   0  0  0  0  0  0  0  0  0  0  0  0
   -2.9337    5.8244   -1.9664 C   0  0  0  0  0  0  0  0  0  0  0  0
   -3.4725    3.8748   -2.5954 H   0  0  0  0  0  0  0  0  0  0  0  0
   -3.8187    6.2788   -1.4969 H   0  0  0  0  0  0  0  0  0  0  0  0
   -2.0253    6.1851   -1.4619 H   0  0  0  0  0  0  0  0  0  0  0  0
   -2.8984    6.1045   -3.0296 H   0  0  0  0  0  0  0  0  0  0  0  0
  1  3  1  0  0  0  0
  1  7  1  0  0  0  0
  1  2  2  0  0  0  0
 42 43  1  0  0  0  0
 43 51  1  0  0  0  0
 43 44  2  0  0  0  0
  8  9  1  0  0  0  0
  9 17  1  0  0  0  0
  9 10  2  0  0  0  0
 18 19  1  0  0  0  0
 19 41  1  0  0  0  0
 19 20  2  0  0  0  0
 25 26  1  0  0  0  0
 25 27  1  0  0  0  0
 24 25  2  0  0  0  0
 42 45  1  0  0  0  0
  8 11  1  0  0  0  0
 51 52  1  0  0  0  0
 21 22  1  0  0  0  0
 22 23  1  0  0  0  0
 18 21  1  0  0  0  0
 23 24  1  0  0  0  0
 41 42  1  0  0  0  0
  7  8  1  0  0  0  0
 17 18  1  0  0  0  0
  3  4  1  0  0  0  0
  3  5  1  0  0  0  0
  3  6  1  0  0  0  0
 45 48  1  0  0  0  0
 45 49  1  0  0  0  0
 45 50  1  0  0  0  0
 11 14  1  0  0  0  0
 11 15  1  0  0  0  0
 11 16  1  0  0  0  0
 52 54  1  0  0  0  0
 52 55  1  0  0  0  0
 52 56  1  0  0  0  0
 22 32  1  0  0  0  0
 22 33  1  0  0  0  0
 21 30  1  0  0  0  0
 21 31  1  0  0  0  0
 23 34  1  0  0  0  0
 23 35  1  0  0  0  0
 42 47  1  0  0  0  0
  8 13  1  0  0  0  0
 18 29  1  0  0  0  0
 26 37  1  0  0  0  0
 26 38  1  0  0  0  0
 27 39  1  0  0  0  0
 27 40  1  0  0  0  0
 51 53  1  0  0  0  0
  7 12  1  0  0  0  0
 41 46  1  0  0  0  0
 17 28  1  0  0  0  0
 24 36  1  0  0  0  0
M  CHG  1  24   1
M  END
$$$$

  -OEChem-05262214473D

 56 55  0     1  0  0  0  0  0999 V2000
    0.7735   -5.8042   -2.0022 C   0  0  0  0  0  0  0  0  0  0  0  0
   -0.2086   -6.3825   -1.5519 O   0  0  0  0  0  0  0  0  0  0  0  0
    1.4751   -6.3646   -3.1946 C   0  0  0  0  0  0  0  0  0  0  0  0
    2.2765   -7.0687   -2.9186 H   0  0  0  0  0  0  0  0  0  0  0  0
    0.7988   -6.9360   -3.8504 H   0  0  0  0  0  0  0  0  0  0  0  0
    1.9556   -5.6216   -3.8511 H   0  0  0  0  0  0  0  0  0  0  0  0
    1.3322   -4.6359   -1.5106 N   0  0  0  0  0  0  0  0  0  0  0  0
    0.8124   -3.9290   -0.3698 C   0  0  2  0  0  0  0  0  0  0  0  0
    1.0666   -2.4424   -0.5818 C   0  0  0  0  0  0  0  0  0  0  0  0
    2.0598   -2.0076   -1.1610 O   0  0  0  0  0  0  0  0  0  0  0  0
    1.4560   -4.4118    0.9207 C   0  0  0  0  0  0  0  0  0  0  0  0
    2.1528   -4.2578   -1.9805 H   0  0  0  0  0  0  0  0  0  0  0  0
   -0.2667   -4.1160   -0.3467 H   0  0  0  0  0  0  0  0  0  0  0  0
    2.5374   -4.2329    0.9160 H   0  0  0  0  0  0  0  0  0  0  0  0
    1.0390   -3.8932    1.7903 H   0  0  0  0  0  0  0  0  0  0  0  0
    1.2976   -5.4871    1.0566 H   0  0  0  0  0  0  0  0  0  0  0  0
    0.0755   -1.6529   -0.0105 N   0  0  0  0  0  0  0  0  0  0  0  0
    0.1113   -0.2132   -0.0391 C   0  0  2  0  0  0  0  0  0  0  0  0
   -1.1385    0.2618   -0.7725 C   0  0  0  0  0  0  0  0  0  0  0  0
   -1.8150   -0.4746   -1.4875 O   0  0  0  0  0  0  0  0  0  0  0  0
    1.3717    0.3178   -0.7297 C   0  0  0  0  0  0  0  0  0  0  0  0
    2.6469    0.0078    0.0633 C   0  0  0  0  0  0  0  0  0  0  0  0
    3.8981    0.5386   -0.6287 C   0  0  0  0  0  0  0  0  0  0  0  0
    5.1131    0.2210    0.1182 N   0  3  0  0  0  0  0  0  0  0  0  0
    6.3862    0.5509   -0.3503 C   0  0  0  0  0  0  0  0  0  0  0  0
    7.4989    0.2170    0.4145 N   0  0  0  0  0  0  0  0  0  0  0  0
    6.5692    1.2061   -1.5636 N   0  0  0  0  0  0  0  0  0  0  0  0
   -0.7323   -2.1024    0.4149 H   0  0  0  0  0  0  0  0  0  0  0  0
    0.0657    0.1264    1.0019 H   0  0  0  0  0  0  0  0  0  0  0  0
    1.2839    1.4024   -0.8658 H   0  0  0  0  0  0  0  0  0  0  0  0
    1.4543   -0.1146   -1.7357 H   0  0  0  0  0  0  0  0  0  0  0  0
    2.5707    0.4434    1.0668 H   0  0  0  0  0  0  0  0  0  0  0  0
    2.7509   -1.0766    0.1836 H   0  0  0  0  0  0  0  0  0  0  0  0
    3.9951    0.0792   -1.6172 H   0  0  0  0  0  0  0  0  0  0  0  0
    3.8473    1.6251   -0.7490 H   0  0  0  0  0  0  0  0  0  0  0  0
    5.0422   -0.2584    1.0140 H   0  0  0  0  0  0  0  0  0  0  0  0
    8.4402    0.4432    0.1020 H   0  0  0  0  0  0  0  0  0  0  0  0
    7.4010   -0.2624    1.3062 H   0  0  0  0  0  0  0  0  0  0  0  0
    7.4940    1.4486   -1.9093 H   0  0  0  0  0  0  0  0  0  0  0  0
    5.7741    1.4624   -2.1442 H   0  0  0  0  0  0  0  0  0  0  0  0
   -1.3790    1.6141   -0.5729 N   0  0  0  0  0  0  0  0  0  0  0  0
   -2.4750    2.3183   -1.1978 C   0  0  2  0  0  0  0  0  0  0  0  0
   -2.0286    3.7521   -1.4521 C   0  0  0  0  0  0  0  0  0  0  0  0
   -1.2682    4.3609   -0.7023 O   0  0  0  0  0  0  0  0  0  0  0  0
   -3.7224    2.2834   -0.3286 C   0  0  0  0  0  0  0  0  0  0  0  0
   -0.7839    2.1376    0.0622 H   0  0  0  0  0  0  0  0  0  0  0  0
   -2.6669    1.8199   -2.1542 H   0  0  0  0  0  0  0  0  0  0  0  0
   -3.5493    2.7782    0.6340 H   0  0  0  0  0  0  0  0  0  0  0  0
   -4.5601    2.7930   -0.8162 H   0  0  0  0  0  0  0  0  0  0  0  0
   -4.0247    1.2511   -0.1221 H   0  0  0  0  0  0  0  0  0  0  0  0
   -2.6134    4.2863   -2.5917 N   0  0  0  0  0  0  0  0  0  0  0  0
   -2.3820    5.6452   -3.0229 C   0  0  0  0  0  0  0  0  0  0  0  0
   -3.1995    3.6971   -3.1757 H   0  0  0  0  0  0  0  0  0  0  0  0
   -3.1603    6.3006   -2.6049 H   0  0  0  0  0  0  0  0  0  0  0  0
   -1.3944    5.9783   -2.6709 H   0  0  0  0  0  0  0  0  0  0  0  0
   -2.4146    5.6918   -4.1214 H   0  0  0  0  0  0  0  0  0  0  0  0
  1  3  1  0  0  0  0
  1  7  1  0  0  0  0
  1  2  2  0  0  0  0
 42 43  1  0  0  0  0
 43 51  1  0  0  0  0
 43 44  2  0  0  0  0
  8  9  1  0  0  0  0
  9 17  1  0  0  0  0
  9 10  2  0  0  0  0
 18 19  1  0  0  0  0
 19 41  1  0  0  0  0
 19 20  2  0  0  0  0
 25 26  1  0  0  0  0
 25 27  1  0  0  0  0
 24 25  2  0  0  0  0
 42 45  1  0  0  0  0
  8 11  1  0  0  0  0
 51 52  1  0  0  0  0
 21 22  1  0  0  0  0
 22 23  1  0  0  0  0
 18 21  1  0  0  0  0
 23 24  1  0  0  0  0
 41 42  1  0  0  0  0
  7  8  1  0  0  0  0
 17 18  1  0  0  0  0
  3  4  1  0  0  0  0
  3  5  1  0  0  0  0
  3  6  1  0  0  0  0
 45 48  1  0  0  0  0
 45 49  1  0  0  0  0
 45 50  1  0  0  0  0
 11 14  1  0  0  0  0
 11 15  1  0  0  0  0
 11 16  1  0  0  0  0
 52 54  1  0  0  0  0
 52 55  1  0  0  0  0
 52 56  1  0  0  0  0
 22 32  1  0  0  0  0
 22 33  1  0  0  0  0
 21 30  1  0  0  0  0
 21 31  1  0  0  0  0
 23 34  1  0  0  0  0
 23 35  1  0  0  0  0
 42 47  1  0  0  0  0
  8 13  1  0  0  0  0
 18 29  1  0  0  0  0
 26 37  1  0  0  0  0
 26 38  1  0  0  0  0
 27 39  1  0  0  0  0
 27 40  1  0  0  0  0
 51 53  1  0  0  0  0
  7 12  1  0  0  0  0
 41 46  1  0  0  0  0
 17 28  1  0  0  0  0
 24 36  1  0  0  0  0
M  CHG  1  24   1
M  END
$$$$

  -OEChem-05262214473D

 56 55  0     1  0  0  0  0  0999 V2000
    0.7735   -5.8042   -2.0022 C   0  0  0  0  0  0  0  0  0  0  0  0
   -0.2086   -6.3825   -1.5519 O   0  0  0  0  0  0  0  0  0  0  0  0
    1.4751   -6.3646   -3.1946 C   0  0  0  0  0  0  0  0  0  0  0  0
    2.2765   -7.0687   -2.9186 H   0  0  0  0  0  0  0  0  0  0  0  0
    0.7988   -6.9360   -3.8504 H   0  0  0  0  0  0  0  0  0  0  0  0
    1.9556   -5.6216   -3.8511 H   0  0  0  0  0  0  0  0  0  0  0  0
    1.3322   -4.6359   -1.5106 N   0  0  0  0  0  0  0  0  0  0  0  0
    0.8124   -3.9290   -0.3698 C   0  0  2  0  0  0  0  0  0  0  0  0
    1.0666   -2.4424   -0.5818 C   0  0  0  0  0  0  0  0  0  0  0  0
    2.0598   -2.0076   -1.1610 O   0  0  0  0  0  0  0  0  0  0  0  0
    1.4560   -4.4118    0.9207 C   0  0  0  0  0  0  0  0  0  0  0  0
    2.1528   -4.2578   -1.9805 H   0  0  0  0  0  0  0  0  0  0  0  0
   -0.2667   -4.1160   -0.3467 H   0  0  0  0  0  0  0  0  0  0  0  0
    2.5374   -4.2329    0.9160 H   0  0  0  0  0  0  0  0  0  0  0  0
    1.0390   -3.8932    1.7903 H   0  0  0  0  0  0  0  0  0  0  0  0
    1.2976   -5.4871    1.0566 H   0  0  0  0  0  0  0  0  0  0  0  0
    0.0755   -1.6529   -0.0105 N   0  0  0  0  0  0  0  0  0  0  0  0
    0.1113   -0.2132   -0.0391 C   0  0  2  0  0  0  0  0  0  0  0  0
   -1.2828    0.2724   -0.4215 C   0  0  0  0  0  0  0  0  0  0  0  0
   -2.2078   -0.4923   -0.6875 O   0  0  0  0  0  0  0  0  0  0  0  0
    1.1533    0.3173   -1.0292 C   0  0  0  0  0  0  0  0  0  0  0  0
    2.5884   -0.0038   -0.5949 C   0  0  0  0  0  0  0  0  0  0  0  0
    3.6212    0.5265   -1.5839 C   0  0  0  0  0  0  0  0  0  0  0  0
    4.9861    0.1983   -1.1786 N   0  3  0  0  0  0  0  0  0  0  0  0
    6.0966    0.5261   -1.9586 C   0  0  0  0  0  0  0  0  0  0  0  0
    7.3673    0.1820   -1.5096 N   0  0  0  0  0  0  0  0  0  0  0  0
    5.9634    1.1892   -3.1741 N   0  0  0  0  0  0  0  0  0  0  0  0
   -0.7323   -2.1024    0.4149 H   0  0  0  0  0  0  0  0  0  0  0  0
    0.3386    0.1192    0.9802 H   0  0  0  0  0  0  0  0  0  0  0  0
    1.0399    1.4032   -1.1317 H   0  0  0  0  0  0  0  0  0  0  0  0
    0.9703   -0.1083   -2.0248 H   0  0  0  0  0  0  0  0  0  0  0  0
    2.7769    0.4249    0.3967 H   0  0  0  0  0  0  0  0  0  0  0  0
    2.7135   -1.0895   -0.5118 H   0  0  0  0  0  0  0  0  0  0  0  0
    3.4564    0.0737   -2.5665 H   0  0  0  0  0  0  0  0  0  0  0  0
    3.5475    1.6140   -1.6807 H   0  0  0  0  0  0  0  0  0  0  0  0
    5.1464   -0.2871   -0.2977 H   0  0  0  0  0  0  0  0  0  0  0  0
    8.1970    0.4064   -2.0537 H   0  0  0  0  0  0  0  0  0  0  0  0
    7.5005   -0.3033   -0.6258 H   0  0  0  0  0  0  0  0  0  0  0  0
    6.7688    1.4302   -3.7459 H   0  0  0  0  0  0  0  0  0  0  0  0
    5.0468    1.4530   -3.5278 H   0  0  0  0  0  0  0  0  0  0  0  0
   -1.3564    1.6572   -0.4777 N   0  0  0  0  0  0  0  0  0  0  0  0
   -2.5549    2.3658   -0.8636 C   0  0  2  0  0  0  0  0  0  0  0  0
   -2.1361    3.6450   -1.5762 C   0  0  0  0  0  0  0  0  0  0  0  0
   -1.1283    4.2813   -1.2753 O   0  0  0  0  0  0  0  0  0  0  0  0
   -3.4269    2.6763    0.3431 C   0  0  0  0  0  0  0  0  0  0  0  0
   -0.5482    2.2105   -0.2089 H   0  0  0  0  0  0  0  0  0  0  0  0
   -3.0944    1.7175   -1.5626 H   0  0  0  0  0  0  0  0  0  0  0  0
   -2.9032    3.3249    1.0548 H   0  0  0  0  0  0  0  0  0  0  0  0
   -4.3481    3.1880    0.0457 H   0  0  0  0  0  0  0  0  0  0  0  0
   -3.7025    1.7574    0.8715 H   0  0  0  0  0  0  0  0  0  0  0  0
   -3.0432    4.0159   -2.5589 N   0  0  0  0  0  0  0  0  0  0  0  0
   -2.8911    5.2166   -3.3471 C   0  0  0  0  0  0  0  0  0  0  0  0
   -3.8295    3.4079   -2.7683 H   0  0  0  0  0  0  0  0  0  0  0  0
   -3.4363    6.0425   -2.8669 H   0  0  0  0  0  0  0  0  0  0  0  0
   -1.8243    5.4748   -3.4197 H   0  0  0  0  0  0  0  0  0  0  0  0
   -3.2968    5.0469   -4.3554 H   0  0  0  0  0  0  0  0  0  0  0  0
  1  3  1  0  0  0  0
  1  7  1  0  0  0  0
  1  2  2  0  0  0  0
 42 43  1  0  0  0  0
 43 51  1  0  0  0  0
 43 44  2  0  0  0  0
  8  9  1  0  0  0  0
  9 17  1  0  0  0  0
  9 10  2  0  0  0  0
 18 19  1  0  0  0  0
 19 41  1  0  0  0  0
 19 20  2  0  0  0  0
 25 26  1  0  0  0  0
 25 27  1  0  0  0  0
 24 25  2  0  0  0  0
 42 45  1  0  0  0  0
  8 11  1  0  0  0  0
 51 52  1  0  0  0  0
 21 22  1  0  0  0  0
 22 23  1  0  0  0  0
 18 21  1  0  0  0  0
 23 24  1  0  0  0  0
 41 42  1  0  0  0  0
  7  8  1  0  0  0  0
 17 18  1  0  0  0  0
  3  4  1  0  0  0  0
  3  5  1  0  0  0  0
  3  6  1  0  0  0  0
 45 48  1  0  0  0  0
 45 49  1  0  0  0  0
 45 50  1  0  0  0  0
 11 14  1  0  0  0  0
 11 15  1  0  0  0  0
 11 16  1  0  0  0  0
 52 54  1  0  0  0  0
 52 55  1  0  0  0  0
 52 56  1  0  0  0  0
 22 32  1  0  0  0  0
 22 33  1  0  0  0  0
 21 30  1  0  0  0  0
 21 31  1  0  0  0  0
 23 34  1  0  0  0  0
 23 35  1  0  0  0  0
 42 47  1  0  0  0  0
  8 13  1  0  0  0  0
 18 29  1  0  0  0  0
 26 37  1  0  0  0  0
 26 38  1  0  0  0  0
 27 39  1  0  0  0  0
 27 40  1  0  0  0  0
 51 53  1  0  0  0  0
  7 12  1  0  0  0  0
 41 46  1  0  0  0  0
 17 28  1  0  0  0  0
 24 36  1  0  0  0  0
M  CHG  1  24   1
M  END
$$$$

  -OEChem-05262214473D

 56 55  0     1  0  0  0  0  0999 V2000
    0.7735   -5.8042   -2.0022 C   0  0  0  0  0  0  0  0  0  0  0  0
   -0.2086   -6.3825   -1.5519 O   0  0  0  0  0  0  0  0  0  0  0  0
    1.4751   -6.3646   -3.1946 C   0  0  0  0  0  0  0  0  0  0  0  0
    2.2765   -7.0687   -2.9186 H   0  0  0  0  0  0  0  0  0  0  0  0
    0.7988   -6.9360   -3.8504 H   0  0  0  0  0  0  0  0  0  0  0  0
    1.9556   -5.6216   -3.8511 H   0  0  0  0  0  0  0  0  0  0  0  0
    1.3322   -4.6359   -1.5106 N   0  0  0  0  0  0  0  0  0  0  0  0
    0.8124   -3.9290   -0.3698 C   0  0  2  0  0  0  0  0  0  0  0  0
    1.0666   -2.4424   -0.5818 C   0  0  0  0  0  0  0  0  0  0  0  0
    2.0598   -2.0076   -1.1610 O   0  0  0  0  0  0  0  0  0  0  0  0
    1.4560   -4.4118    0.9207 C   0  0  0  0  0  0  0  0  0  0  0  0
    2.1528   -4.2578   -1.9805 H   0  0  0  0  0  0  0  0  0  0  0  0
   -0.2667   -4.1160   -0.3467 H   0  0  0  0  0  0  0  0  0  0  0  0
    2.5374   -4.2329    0.9160 H   0  0  0  0  0  0  0  0  0  0  0  0
    1.0390   -3.8932    1.7903 H   0  0  0  0  0  0  0  0  0  0  0  0
    1.2976   -5.4871    1.0566 H   0  0  0  0  0  0  0  0  0  0  0  0
    0.0755   -1.6529   -0.0105 N   0  0  0  0  0  0  0  0  0  0  0  0
    0.1113   -0.2132   -0.0391 C   0  0  2  0  0  0  0  0  0  0  0  0
   -1.2828    0.2724   -0.4215 C   0  0  0  0  0  0  0  0  0  0  0  0
   -2.2687   -0.4619   -0.4270 O   0  0  0  0  0  0  0  0  0  0  0  0
    1.1533    0.3173   -1.0292 C   0  0  0  0  0  0  0  0  0  0  0  0
    2.5884   -0.0038   -0.5949 C   0  0  0  0  0  0  0  0  0  0  0  0
    3.6212    0.5265   -1.5839 C   0  0  0  0  0  0  0  0  0  0  0  0
    4.9861    0.1983   -1.1786 N   0  3  0  0  0  0  0  0  0  0  0  0
    6.0966    0.5261   -1.9586 C   0  0  0  0  0  0  0  0  0  0  0  0
    7.3673    0.1820   -1.5096 N   0  0  0  0  0  0  0  0  0  0  0  0
    5.9634    1.1892   -3.1741 N   0  0  0  0  0  0  0  0  0  0  0  0
   -0.7323   -2.1024    0.4149 H   0  0  0  0  0  0  0  0  0  0  0  0
    0.3386    0.1192    0.9802 H   0  0  0  0  0  0  0  0  0  0  0  0
    1.0399    1.4032   -1.1317 H   0  0  0  0  0  0  0  0  0  0  0  0
    0.9703   -0.1083   -2.0248 H   0  0  0  0  0  0  0  0  0  0  0  0
    2.7769    0.4249    0.3967 H   0  0  0  0  0  0  0  0  0  0  0  0
    2.7135   -1.0895   -0.5118 H   0  0  0  0  0  0  0  0  0  0  0  0
    3.4564    0.0737   -2.5665 H   0  0  0  0  0  0  0  0  0  0  0  0
    3.5475    1.6140   -1.6807 H   0  0  0  0  0  0  0  0  0  0  0  0
    5.1464   -0.2871   -0.2977 H   0  0  0  0  0  0  0  0  0  0  0  0
    8.1970    0.4064   -2.0537 H   0  0  0  0  0  0  0  0  0  0  0  0
    7.5005   -0.3033   -0.6258 H   0  0  0  0  0  0  0  0  0  0  0  0
    6.7688    1.4302   -3.7459 H   0  0  0  0  0  0  0  0  0  0  0  0
    5.0468    1.4530   -3.5278 H   0  0  0  0  0  0  0  0  0  0  0  0
   -1.2849    1.6072   -0.8018 N   0  0  0  0  0  0  0  0  0  0  0  0
   -2.4726    2.2935   -1.2556 C   0  0  2  0  0  0  0  0  0  0  0  0
   -2.0501    3.3355   -2.2828 C   0  0  0  0  0  0  0  0  0  0  0  0
   -0.9858    3.9473   -2.2190 O   0  0  0  0  0  0  0  0  0  0  0  0
   -3.2137    2.9419   -0.0967 C   0  0  0  0  0  0  0  0  0  0  0  0
   -0.4265    2.1459   -0.7343 H   0  0  0  0  0  0  0  0  0  0  0  0
   -3.1078    1.5419   -1.7369 H   0  0  0  0  0  0  0  0  0  0  0  0
   -2.5931    3.6979    0.3980 H   0  0  0  0  0  0  0  0  0  0  0  0
   -4.1286    3.4373   -0.4383 H   0  0  0  0  0  0  0  0  0  0  0  0
   -3.4907    2.1953    0.6554 H   0  0  0  0  0  0  0  0  0  0  0  0
   -3.0204    3.5330   -3.2553 N   0  0  0  0  0  0  0  0  0  0  0  0
   -2.8743    4.5012   -4.3170 C   0  0  0  0  0  0  0  0  0  0  0  0
   -3.8546    2.9535   -3.2538 H   0  0  0  0  0  0  0  0  0  0  0  0
   -3.3277    5.4550   -4.0091 H   0  0  0  0  0  0  0  0  0  0  0  0
   -1.8059    4.6548   -4.5286 H   0  0  0  0  0  0  0  0  0  0  0  0
   -3.3780    4.1313   -5.2222 H   0  0  0  0  0  0  0  0  0  0  0  0
  1  3  1  0  0  0  0
  1  7  1  0  0  0  0
  1  2  2  0  0  0  0
 42 43  1  0  0  0  0
 43 51  1  0  0  0  0
 43 44  2  0  0  0  0
  8  9  1  0  0  0  0
  9 17  1  0  0  0  0
  9 10  2  0  0  0  0
 18 19  1  0  0  0  0
 19 41  1  0  0  0  0
 19 20  2  0  0  0  0
 25 26  1  0  0  0  0
 25 27  1  0  0  0  0
 24 25  2  0  0  0  0
 42 45  1  0  0  0  0
  8 11  1  0  0  0  0
 51 52  1  0  0  0  0
 21 22  1  0  0  0  0
 22 23  1  0  0  0  0
 18 21  1  0  0  0  0
 23 24  1  0  0  0  0
 41 42  1  0  0  0  0
  7  8  1  0  0  0  0
 17 18  1  0  0  0  0
  3  4  1  0  0  0  0
  3  5  1  0  0  0  0
  3  6  1  0  0  0  0
 45 48  1  0  0  0  0
 45 49  1  0  0  0  0
 45 50  1  0  0  0  0
 11 14  1  0  0  0  0
 11 15  1  0  0  0  0
 11 16  1  0  0  0  0
 52 54  1  0  0  0  0
 52 55  1  0  0  0  0
 52 56  1  0  0  0  0
 22 32  1  0  0  0  0
 22 33  1  0  0  0  0
 21 30  1  0  0  0  0
 21 31  1  0  0  0  0
 23 34  1  0  0  0  0
 23 35  1  0  0  0  0
 42 47  1  0  0  0  0
  8 13  1  0  0  0  0
 18 29  1  0  0  0  0
 26 37  1  0  0  0  0
 26 38  1  0  0  0  0
 27 39  1  0  0  0  0
 27 40  1  0  0  0  0
 51 53  1  0  0  0  0
  7 12  1  0  0  0  0
 41 46  1  0  0  0  0
 17 28  1  0  0  0  0
 24 36  1  0  0  0  0
M  CHG  1  24   1
M  END
$$$$

  -OEChem-05262214473D

 56 55  0     1  0  0  0  0  0999 V2000
    0.7735   -5.8042   -2.0022 C   0  0  0  0  0  0  0  0  0  0  0  0
   -0.2086   -6.3825   -1.5519 O   0  0  0  0  0  0  0  0  0  0  0  0
    1.4751   -6.3646   -3.1946 C   0  0  0  0  0  0  0  0  0  0  0  0
    2.2765   -7.0687   -2.9186 H   0  0  0  0  0  0  0  0  0  0  0  0
    0.7988   -6.9360   -3.8504 H   0  0  0  0  0  0  0  0  0  0  0  0
    1.9556   -5.6216   -3.8511 H   0  0  0  0  0  0  0  0  0  0  0  0
    1.3322   -4.6359   -1.5106 N   0  0  0  0  0  0  0  0  0  0  0  0
    0.8124   -3.9290   -0.3698 C   0  0  2  0  0  0  0  0  0  0  0  0
    1.0666   -2.4424   -0.5818 C   0  0  0  0  0  0  0  0  0  0  0  0
    2.0598   -2.0076   -1.1610 O   0  0  0  0  0  0  0  0  0  0  0  0
    1.4560   -4.4118    0.9207 C   0  0  0  0  0  0  0  0  0  0  0  0
    2.1528   -4.2578   -1.9805 H   0  0  0  0  0  0  0  0  0  0  0  0
   -0.2667   -4.1160   -0.3467 H   0  0  0  0  0  0  0  0  0  0  0  0
    2.5374   -4.2329    0.9160 H   0  0  0  0  0  0  0  0  0  0  0  0
    1.0390   -3.8932    1.7903 H   0  0  0  0  0  0  0  0  0  0  0  0
    1.2976   -5.4871    1.0566 H   0  0  0  0  0  0  0  0  0  0  0  0
    0.0755   -1.6529   -0.0105 N   0  0  0  0  0  0  0  0  0  0  0  0
    0.1113   -0.2132   -0.0391 C   0  0  2  0  0  0  0  0  0  0  0  0
   -1.2828    0.2724   -0.4215 C   0  0  0  0  0  0  0  0  0  0  0  0
   -2.3040   -0.3669   -0.1775 O   0  0  0  0  0  0  0  0  0  0  0  0
    1.1533    0.3173   -1.0292 C   0  0  0  0  0  0  0  0  0  0  0  0
    2.5884   -0.0038   -0.5949 C   0  0  0  0  0  0  0  0  0  0  0  0
    3.6212    0.5265   -1.5839 C   0  0  0  0  0  0  0  0  0  0  0  0
    4.9861    0.1983   -1.1786 N   0  3  0  0  0  0  0  0  0  0  0  0
    6.0966    0.5261   -1.9586 C   0  0  0  0  0  0  0  0  0  0  0  0
    7.3673    0.1820   -1.5096 N   0  0  0  0  0  0  0  0  0  0  0  0
    5.9634    1.1892   -3.1741 N   0  0  0  0  0  0  0  0  0  0  0  0
   -0.7323   -2.1024    0.4149 H   0  0  0  0  0  0  0  0  0  0  0  0
    0.3386    0.1192    0.9802 H   0  0  0  0  0  0  0  0  0  0  0  0
    1.0399    1.4032   -1.1317 H   0  0  0  0  0  0  0  0  0  0  0  0
    0.9703   -0.1083   -2.0248 H   0  0  0  0  0  0  0  0  0  0  0  0
    2.7769    0.4249    0.3967 H   0  0  0  0  0  0  0  0  0  0  0  0
    2.7135   -1.0895   -0.5118 H   0  0  0  0  0  0  0  0  0  0  0  0
    3.4564    0.0737   -2.5665 H   0  0  0  0  0  0  0  0  0  0  0  0
    3.5475    1.6140   -1.6807 H   0  0  0  0  0  0  0  0  0  0  0  0
    5.1464   -0.2871   -0.2977 H   0  0  0  0  0  0  0  0  0  0  0  0
    8.1970    0.4064   -2.0537 H   0  0  0  0  0  0  0  0  0  0  0  0
    7.5005   -0.3033   -0.6258 H   0  0  0  0  0  0  0  0  0  0  0  0
    6.7688    1.4302   -3.7459 H   0  0  0  0  0  0  0  0  0  0  0  0
    5.0468    1.4530   -3.5278 H   0  0  0  0  0  0  0  0  0  0  0  0
   -1.2459    1.4775   -1.1090 N   0  0  0  0  0  0  0  0  0  0  0  0
   -2.4301    2.1255   -1.6239 C   0  0  2  0  0  0  0  0  0  0  0  0
   -2.0454    2.8638   -2.8992 C   0  0  0  0  0  0  0  0  0  0  0  0
   -0.9476    3.3921   -3.0632 O   0  0  0  0  0  0  0  0  0  0  0  0
   -3.0269    3.0806   -0.6019 C   0  0  0  0  0  0  0  0  0  0  0  0
   -0.3566    1.9514   -1.2366 H   0  0  0  0  0  0  0  0  0  0  0  0
   -3.1465    1.3319   -1.8626 H   0  0  0  0  0  0  0  0  0  0  0  0
   -2.3235    3.8827   -0.3503 H   0  0  0  0  0  0  0  0  0  0  0  0
   -3.9402    3.5494   -0.9829 H   0  0  0  0  0  0  0  0  0  0  0  0
   -3.2755    2.5535    0.3255 H   0  0  0  0  0  0  0  0  0  0  0  0
   -3.0871    2.9004   -3.8155 N   0  0  0  0  0  0  0  0  0  0  0  0
   -2.9845    3.5797   -5.0859 C   0  0  0  0  0  0  0  0  0  0  0  0
   -3.9484    2.4014   -3.6131 H   0  0  0  0  0  0  0  0  0  0  0  0
   -3.3551    4.6102   -4.9823 H   0  0  0  0  0  0  0  0  0  0  0  0
   -1.9326    3.5991   -5.4073 H   0  0  0  0  0  0  0  0  0  0  0  0
   -3.5873    3.0470   -5.8362 H   0  0  0  0  0  0  0  0  0  0  0  0
  1  3  1  0  0  0  0
  1  7  1  0  0  0  0
  1  2  2  0  0  0  0
 42 43  1  0  0  0  0
 43 51  1  0  0  0  0
 43 44  2  0  0  0  0
  8  9  1  0  0  0  0
  9 17  1  0  0  0  0
  9 10  2  0  0  0  0
 18 19  1  0  0  0  0
 19 41  1  0  0  0  0
 19 20  2  0  0  0  0
 25 26  1  0  0  0  0
 25 27  1  0  0  0  0
 24 25  2  0  0  0  0
 42 45  1  0  0  0  0
  8 11  1  0  0  0  0
 51 52  1  0  0  0  0
 21 22  1  0  0  0  0
 22 23  1  0  0  0  0
 18 21  1  0  0  0  0
 23 24  1  0  0  0  0
 41 42  1  0  0  0  0
  7  8  1  0  0  0  0
 17 18  1  0  0  0  0
  3  4  1  0  0  0  0
  3  5  1  0  0  0  0
  3  6  1  0  0  0  0
 45 48  1  0  0  0  0
 45 49  1  0  0  0  0
 45 50  1  0  0  0  0
 11 14  1  0  0  0  0
 11 15  1  0  0  0  0
 11 16  1  0  0  0  0
 52 54  1  0  0  0  0
 52 55  1  0  0  0  0
 52 56  1  0  0  0  0
 22 32  1  0  0  0  0
 22 33  1  0  0  0  0
 21 30  1  0  0  0  0
 21 31  1  0  0  0  0
 23 34  1  0  0  0  0
 23 35  1  0  0  0  0
 42 47  1  0  0  0  0
  8 13  1  0  0  0  0
 18 29  1  0  0  0  0
 26 37  1  0  0  0  0
 26 38  1  0  0  0  0
 27 39  1  0  0  0  0
 27 40  1  0  0  0  0
 51 53  1  0  0  0  0
  7 12  1  0  0  0  0
 41 46  1  0  0  0  0
 17 28  1  0  0  0  0
 24 36  1  0  0  0  0
M  CHG  1  24   1
M  END
$$$$

  -OEChem-05262214473D

 56 55  0     1  0  0  0  0  0999 V2000
    0.7735   -5.8042   -2.0022 C   0  0  0  0  0  0  0  0  0  0  0  0
   -0.2086   -6.3825   -1.5519 O   0  0  0  0  0  0  0  0  0  0  0  0
    1.4751   -6.3646   -3.1946 C   0  0  0  0  0  0  0  0  0  0  0  0
    2.2765   -7.0687   -2.9186 H   0  0  0  0  0  0  0  0  0  0  0  0
    0.7988   -6.9360   -3.8504 H   0  0  0  0  0  0  0  0  0  0  0  0
    1.9556   -5.6216   -3.8511 H   0  0  0  0  0  0  0  0  0  0  0  0
    1.3322   -4.6359   -1.5106 N   0  0  0  0  0  0  0  0  0  0  0  0
    0.8124   -3.9290   -0.3698 C   0  0  2  0  0  0  0  0  0  0  0  0
    1.0666   -2.4424   -0.5818 C   0  0  0  0  0  0  0  0  0  0  0  0
    2.0598   -2.0076   -1.1610 O   0  0  0  0  0  0  0  0  0  0  0  0
    1.4560   -4.4118    0.9207 C   0  0  0  0  0  0  0  0  0  0  0  0
    2.1528   -4.2578   -1.9805 H   0  0  0  0  0  0  0  0  0  0  0  0
   -0.2667   -4.1160   -0.3467 H   0  0  0  0  0  0  0  0  0  0  0  0
    2.5374   -4.2329    0.9160 H   0  0  0  0  0  0  0  0  0  0  0  0
    1.0390   -3.8932    1.7903 H   0  0  0  0  0  0  0  0  0  0  0  0
    1.2976   -5.4871    1.0566 H   0  0  0  0  0  0  0  0  0  0  0  0
    0.0755   -1.6529   -0.0105 N   0  0  0  0  0  0  0  0  0  0  0  0
    0.1113   -0.2132   -0.0391 C   0  0  2  0  0  0  0  0  0  0  0  0
   -1.2828    0.2724   -0.4215 C   0  0  0  0  0  0  0  0  0  0  0  0
   -2.3114   -0.2139    0.0439 O   0  0  0  0  0  0  0  0  0  0  0  0
    1.1533    0.3173   -1.0292 C   0  0  0  0  0  0  0  0  0  0  0  0
    2.5884   -0.0038   -0.5949 C   0  0  0  0  0  0  0  0  0  0  0  0
    3.6212    0.5265   -1.5839 C   0  0  0  0  0  0  0  0  0  0  0  0
    4.9861    0.1983   -1.1786 N   0  3  0  0  0  0  0  0  0  0  0  0
    6.0966    0.5261   -1.9586 C   0  0  0  0  0  0  0  0  0  0  0  0
    7.3673    0.1820   -1.5096 N   0  0  0  0  0  0  0  0  0  0  0  0
    5.9634    1.1892   -3.1741 N   0  0  0  0  0  0  0  0  0  0  0  0
   -0.7323   -2.1024    0.4149 H   0  0  0  0  0  0  0  0  0  0  0  0
    0.3386    0.1192    0.9802 H   0  0  0  0  0  0  0  0  0  0  0  0
    1.0399    1.4032   -1.1317 H   0  0  0  0  0  0  0  0  0  0  0  0
    0.9703   -0.1083   -2.0248 H   0  0  0  0  0  0  0  0  0  0  0  0
    2.7769    0.4249    0.3967 H   0  0  0  0  0  0  0  0  0  0  0  0
    2.7135   -1.0895   -0.5118 H   0  0  0  0  0  0  0  0  0  0  0  0
    3.4564    0.0737   -2.5665 H   0  0  0  0  0  0  0  0  0  0  0  0
    3.5475    1.6140   -1.6807 H   0  0  0  0  0  0  0  0  0  0  0  0
    5.1464   -0.2871   -0.2977 H   0  0  0  0  0  0  0  0  0  0  0  0
    8.1970    0.4064   -2.0537 H   0  0  0  0  0  0  0  0  0  0  0  0
    7.5005   -0.3033   -0.6258 H   0  0  0  0  0  0  0  0  0  0  0  0
    6.7688    1.4302   -3.7459 H   0  0  0  0  0  0  0  0  0  0  0  0
    5.0468    1.4530   -3.5278 H   0  0  0  0  0  0  0  0  0  0  0  0
   -1.2419    1.2770   -1.3782 N   0  0  0  0  0  0  0  0  0  0  0  0
   -2.4303    1.8734   -1.9434 C   0  0  2  0  0  0  0  0  0  0  0  0
   -2.1222    2.2620   -3.3834 C   0  0  0  0  0  0  0  0  0  0  0  0
   -1.0164    2.6536   -3.7505 O   0  0  0  0  0  0  0  0  0  0  0  0
   -2.8790    3.0829   -1.1381 C   0  0  0  0  0  0  0  0  0  0  0  0
   -0.3430    1.6400   -1.6815 H   0  0  0  0  0  0  0  0  0  0  0  0
   -3.2078    1.1018   -1.9311 H   0  0  0  0  0  0  0  0  0  0  0  0
   -2.1128    3.8667   -1.1390 H   0  0  0  0  0  0  0  0  0  0  0  0
   -3.7958    3.5165   -1.5510 H   0  0  0  0  0  0  0  0  0  0  0  0
   -3.0715    2.8074   -0.0956 H   0  0  0  0  0  0  0  0  0  0  0  0
   -3.2388    2.1611   -4.2015 N   0  0  0  0  0  0  0  0  0  0  0  0
   -3.2140    2.5148   -5.6016 C   0  0  0  0  0  0  0  0  0  0  0  0
   -4.1044    1.7891   -3.8218 H   0  0  0  0  0  0  0  0  0  0  0  0
   -3.5166    3.5657   -5.7202 H   0  0  0  0  0  0  0  0  0  0  0  0
   -2.1960    2.3797   -5.9958 H   0  0  0  0  0  0  0  0  0  0  0  0
   -3.9104    1.8680   -6.1554 H   0  0  0  0  0  0  0  0  0  0  0  0
  1  3  1  0  0  0  0
  1  7  1  0  0  0  0
  1  2  2  0  0  0  0
 42 43  1  0  0  0  0
 43 51  1  0  0  0  0
 43 44  2  0  0  0  0
  8  9  1  0  0  0  0
  9 17  1  0  0  0  0
  9 10  2  0  0  0  0
 18 19  1  0  0  0  0
 19 41  1  0  0  0  0
 19 20  2  0  0  0  0
 25 26  1  0  0  0  0
 25 27  1  0  0  0  0
 24 25  2  0  0  0  0
 42 45  1  0  0  0  0
  8 11  1  0  0  0  0
 51 52  1  0  0  0  0
 21 22  1  0  0  0  0
 22 23  1  0  0  0  0
 18 21  1  0  0  0  0
 23 24  1  0  0  0  0
 41 42  1  0  0  0  0
  7  8  1  0  0  0  0
 17 18  1  0  0  0  0
  3  4  1  0  0  0  0
  3  5  1  0  0  0  0
  3  6  1  0  0  0  0
 45 48  1  0  0  0  0
 45 49  1  0  0  0  0
 45 50  1  0  0  0  0
 11 14  1  0  0  0  0
 11 15  1  0  0  0  0
 11 16  1  0  0  0  0
 52 54  1  0  0  0  0
 52 55  1  0  0  0  0
 52 56  1  0  0  0  0
 22 32  1  0  0  0  0
 22 33  1  0  0  0  0
 21 30  1  0  0  0  0
 21 31  1  0  0  0  0
 23 34  1  0  0  0  0
 23 35  1  0  0  0  0
 42 47  1  0  0  0  0
  8 13  1  0  0  0  0
 18 29  1  0  0  0  0
 26 37  1  0  0  0  0
 26 38  1  0  0  0  0
 27 39  1  0  0  0  0
 27 40  1  0  0  0  0
 51 53  1  0  0  0  0
  7 12  1  0  0  0  0
 41 46  1  0  0  0  0
 17 28  1  0  0  0  0
 24 36  1  0  0  0  0
M  CHG  1  24   1
M  END
$$$$

  -OEChem-05262214473D

 56 55  0     1  0  0  0  0  0999 V2000
    0.7735   -5.8042   -2.0022 C   0  0  0  0  0  0  0  0  0  0  0  0
   -0.2086   -6.3825   -1.5519 O   0  0  0  0  0  0  0  0  0  0  0  0
    1.4751   -6.3646   -3.1946 C   0  0  0  0  0  0  0  0  0  0  0  0
    2.2765   -7.0687   -2.9186 H   0  0  0  0  0  0  0  0  0  0  0  0
    0.7988   -6.9360   -3.8504 H   0  0  0  0  0  0  0  0  0  0  0  0
    1.9556   -5.6216   -3.8511 H   0  0  0  0  0  0  0  0  0  0  0  0
    1.3322   -4.6359   -1.5106 N   0  0  0  0  0  0  0  0  0  0  0  0
    0.8124   -3.9290   -0.3698 C   0  0  2  0  0  0  0  0  0  0  0  0
    1.0666   -2.4424   -0.5818 C   0  0  0  0  0  0  0  0  0  0  0  0
    2.0598   -2.0076   -1.1610 O   0  0  0  0  0  0  0  0  0  0  0  0
    1.4560   -4.4118    0.9207 C   0  0  0  0  0  0  0  0  0  0  0  0
    2.1528   -4.2578   -1.9805 H   0  0  0  0  0  0  0  0  0  0  0  0
   -0.2667   -4.1160   -0.3467 H   0  0  0  0  0  0  0  0  0  0  0  0
    2.5374   -4.2329    0.9160 H   0  0  0  0  0  0  0  0  0  0  0  0
    1.0390   -3.8932    1.7903 H   0  0  0  0  0  0  0  0  0  0  0  0
    1.2976   -5.4871    1.0566 H   0  0  0  0  0  0  0  0  0  0  0  0
    0.0755   -1.6529   -0.0105 N   0  0  0  0  0  0  0  0  0  0  0  0
    0.1113   -0.2132   -0.0391 C   0  0  2  0  0  0  0  0  0  0  0  0
   -1.2828    0.2724   -0.4215 C   0  0  0  0  0  0  0  0  0  0  0  0
   -2.2904   -0.0132    0.2222 O   0  0  0  0  0  0  0  0  0  0  0  0
    1.1533    0.3173   -1.0292 C   0  0  0  0  0  0  0  0  0  0  0  0
    2.5884   -0.0038   -0.5949 C   0  0  0  0  0  0  0  0  0  0  0  0
    3.6212    0.5265   -1.5839 C   0  0  0  0  0  0  0  0  0  0  0  0
    4.9861    0.1983   -1.1786 N   0  3  0  0  0  0  0  0  0  0  0  0
    6.0966    0.5261   -1.9586 C   0  0  0  0  0  0  0  0  0  0  0  0
    7.3673    0.1820   -1.5096 N   0  0  0  0  0  0  0  0  0  0  0  0
    5.9634    1.1892   -3.1741 N   0  0  0  0  0  0  0  0  0  0  0  0
   -0.7323   -2.1024    0.4149 H   0  0  0  0  0  0  0  0  0  0  0  0
    0.3386    0.1192    0.9802 H   0  0  0  0  0  0  0  0  0  0  0  0
    1.0399    1.4032   -1.1317 H   0  0  0  0  0  0  0  0  0  0  0  0
    0.9703   -0.1083   -2.0248 H   0  0  0  0  0  0  0  0  0  0  0  0
    2.7769    0.4249    0.3967 H   0  0  0  0  0  0  0  0  0  0  0  0
    2.7135   -1.0895   -0.5118 H   0  0  0  0  0  0  0  0  0  0  0  0
    3.4564    0.0737   -2.5665 H   0  0  0  0  0  0  0  0  0  0  0  0
    3.5475    1.6140   -1.6807 H   0  0  0  0  0  0  0  0  0  0  0  0
    5.1464   -0.2871   -0.2977 H   0  0  0  0  0  0  0  0  0  0  0  0
    8.1970    0.4064   -2.0537 H   0  0  0  0  0  0  0  0  0  0  0  0
    7.5005   -0.3033   -0.6258 H   0  0  0  0  0  0  0  0  0  0  0  0
    6.7688    1.4302   -3.7459 H   0  0  0  0  0  0  0  0  0  0  0  0
    5.0468    1.4530   -3.5278 H   0  0  0  0  0  0  0  0  0  0  0  0
   -1.2732    1.0195   -1.5911 N   0  0  0  0  0  0  0  0  0  0  0  0
   -2.4732    1.5543   -2.1923 C   0  0  2  0  0  0  0  0  0  0  0  0
   -2.2754    1.5711   -3.7023 C   0  0  0  0  0  0  0  0  0  0  0  0
   -1.1874    1.7822   -4.2340 O   0  0  0  0  0  0  0  0  0  0  0  0
   -2.7803    2.9486   -1.6688 C   0  0  0  0  0  0  0  0  0  0  0  0
   -0.3868    1.2331   -2.0387 H   0  0  0  0  0  0  0  0  0  0  0  0
   -3.2877    0.8673   -1.9377 H   0  0  0  0  0  0  0  0  0  0  0  0
   -1.9753    3.6509   -1.9143 H   0  0  0  0  0  0  0  0  0  0  0  0
   -3.7054    3.3410   -2.1039 H   0  0  0  0  0  0  0  0  0  0  0  0
   -2.8928    2.9398   -0.5793 H   0  0  0  0  0  0  0  0  0  0  0  0
   -3.4651    1.3655   -4.3868 N   0  0  0  0  0  0  0  0  0  0  0  0
   -3.5473    1.3790   -5.8287 C   0  0  0  0  0  0  0  0  0  0  0  0
   -4.3120    1.1584   -3.8657 H   0  0  0  0  0  0  0  0  0  0  0  0
   -3.8012    2.3926   -6.1725 H   0  0  0  0  0  0  0  0  0  0  0  0
   -2.5780    1.0798   -6.2540 H   0  0  0  0  0  0  0  0  0  0  0  0
   -4.3254    0.6747   -6.1581 H   0  0  0  0  0  0  0  0  0  0  0  0
  1  3  1  0  0  0  0
  1  7  1  0  0  0  0
  1  2  2  0  0  0  0
 42 43  1  0  0  0  0
 43 51  1  0  0  0  0
 43 44  2  0  0  0  0
  8  9  1  0  0  0  0
  9 17  1  0  0  0  0
  9 10  2  0  0  0  0
 18 19  1  0  0  0  0
 19 41  1  0  0  0  0
 19 20  2  0  0  0  0
 25 26  1  0  0  0  0
 25 27  1  0  0  0  0
 24 25  2  0  0  0  0
 42 45  1  0  0  0  0
  8 11  1  0  0  0  0
 51 52  1  0  0  0  0
 21 22  1  0  0  0  0
 22 23  1  0  0  0  0
 18 21  1  0  0  0  0
 23 24  1  0  0  0  0
 41 42  1  0  0  0  0
  7  8  1  0  0  0  0
 17 18  1  0  0  0  0
  3  4  1  0  0  0  0
  3  5  1  0  0  0  0
  3  6  1  0  0  0  0
 45 48  1  0  0  0  0
 45 49  1  0  0  0  0
 45 50  1  0  0  0  0
 11 14  1  0  0  0  0
 11 15  1  0  0  0  0
 11 16  1  0  0  0  0
 52 54  1  0  0  0  0
 52 55  1  0  0  0  0
 52 56  1  0  0  0  0
 22 32  1  0  0  0  0
 22 33  1  0  0  0  0
 21 30  1  0  0  0  0
 21 31  1  0  0  0  0
 23 34  1  0  0  0  0
 23 35  1  0  0  0  0
 42 47  1  0  0  0  0
  8 13  1  0  0  0  0
 18 29  1  0  0  0  0
 26 37  1  0  0  0  0
 26 38  1  0  0  0  0
 27 39  1  0  0  0  0
 27 40  1  0  0  0  0
 51 53  1  0  0  0  0
  7 12  1  0  0  0  0
 41 46  1  0  0  0  0
 17 28  1  0  0  0  0
 24 36  1  0  0  0  0
M  CHG  1  24   1
M  END
$$$$

  -OEChem-05262214473D

 56 55  0     1  0  0  0  0  0999 V2000
    0.7735   -5.8042   -2.0022 C   0  0  0  0  0  0  0  0  0  0  0  0
   -0.2086   -6.3825   -1.5519 O   0  0  0  0  0  0  0  0  0  0  0  0
    1.4751   -6.3646   -3.1946 C   0  0  0  0  0  0  0  0  0  0  0  0
    2.2765   -7.0687   -2.9186 H   0  0  0  0  0  0  0  0  0  0  0  0
    0.7988   -6.9360   -3.8504 H   0  0  0  0  0  0  0  0  0  0  0  0
    1.9556   -5.6216   -3.8511 H   0  0  0  0  0  0  0  0  0  0  0  0
    1.3322   -4.6359   -1.5106 N   0  0  0  0  0  0  0  0  0  0  0  0
    0.8124   -3.9290   -0.3698 C   0  0  2  0  0  0  0  0  0  0  0  0
    1.0666   -2.4424   -0.5818 C   0  0  0  0  0  0  0  0  0  0  0  0
    2.0598   -2.0076   -1.1610 O   0  0  0  0  0  0  0  0  0  0  0  0
    1.4560   -4.4118    0.9207 C   0  0  0  0  0  0  0  0  0  0  0  0
    2.1528   -4.2578   -1.9805 H   0  0  0  0  0  0  0  0  0  0  0  0
   -0.2667   -4.1160   -0.3467 H   0  0  0  0  0  0  0  0  0  0  0  0
    2.5374   -4.2329    0.9160 H   0  0  0  0  0  0  0  0  0  0  0  0
    1.0390   -3.8932    1.7903 H   0  0  0  0  0  0  0  0  0  0  0  0
    1.2976   -5.4871    1.0566 H   0  0  0  0  0  0  0  0  0  0  0  0
    0.0755   -1.6529   -0.0105 N   0  0  0  0  0  0  0  0  0  0  0  0
    0.1113   -0.2132   -0.0391 C   0  0  2  0  0  0  0  0  0  0  0  0
   -1.2828    0.2724   -0.4215 C   0  0  0  0  0  0  0  0  0  0  0  0
   -2.2424    0.2214    0.3451 O   0  0  0  0  0  0  0  0  0  0  0  0
    1.1533    0.3173   -1.0292 C   0  0  0  0  0  0  0  0  0  0  0  0
    2.5884   -0.0038   -0.5949 C   0  0  0  0  0  0  0  0  0  0  0  0
    3.6212    0.5265   -1.5839 C   0  0  0  0  0  0  0  0  0  0  0  0
    4.9861    0.1983   -1.1786 N   0  3  0  0  0  0  0  0  0  0  0  0
    6.0966    0.5261   -1.9586 C   0  0  0  0  0  0  0  0  0  0  0  0
    7.3673    0.1820   -1.5096 N   0  0  0  0  0  0  0  0  0  0  0  0
    5.9634    1.1892   -3.1741 N   0  0  0  0  0  0  0  0  0  0  0  0
   -0.7323   -2.1024    0.4149 H   0  0  0  0  0  0  0  0  0  0  0  0
    0.3386    0.1192    0.9802 H   0  0  0  0  0  0  0  0  0  0  0  0
    1.0399    1.4032   -1.1317 H   0  0  0  0  0  0  0  0  0  0  0  0
    0.9703   -0.1083   -2.0248 H   0  0  0  0  0  0  0  0  0  0  0  0
    2.7769    0.4249    0.3967 H   0  0  0  0  0  0  0  0  0  0  0  0
    2.7135   -1.0895   -0.5118 H   0  0  0  0  0  0  0  0  0  0  0  0
    3.4564    0.0737   -2.5665 H   0  0  0  0  0  0  0  0  0  0  0  0
    3.5475    1.6140   -1.6807 H   0  0  0  0  0  0  0  0  0  0  0  0
    5.1464   -0.2871   -0.2977 H   0  0  0  0  0  0  0  0  0  0  0  0
    8.1970    0.4064   -2.0537 H   0  0  0  0  0  0  0  0  0  0  0  0
    7.5005   -0.3033   -0.6258 H   0  0  0  0  0  0  0  0  0  0  0  0
    6.7688    1.4302   -3.7459 H   0  0  0  0  0  0  0  0  0  0  0  0
    5.0468    1.4530   -3.5278 H   0  0  0  0  0  0  0  0  0  0  0  0
   -1.3377    0.7223   -1.7333 N   0  0  0  0  0  0  0  0  0  0  0  0
   -2.5559    1.1899   -2.3538 C   0  0  2  0  0  0  0  0  0  0  0  0
   -2.4945    0.8382   -3.8343 C   0  0  0  0  0  0  0  0  0  0  0  0
   -1.4489    0.8371   -4.4807 O   0  0  0  0  0  0  0  0  0  0  0  0
   -2.7373    2.6870   -2.1577 C   0  0  0  0  0  0  0  0  0  0  0  0
   -0.4849    0.7584   -2.2838 H   0  0  0  0  0  0  0  0  0  0  0  0
   -3.3806    0.6445   -1.8821 H   0  0  0  0  0  0  0  0  0  0  0  0
   -1.9204    3.2501   -2.6236 H   0  0  0  0  0  0  0  0  0  0  0  0
   -3.6749    3.0348   -2.6038 H   0  0  0  0  0  0  0  0  0  0  0  0
   -2.7514    2.9417   -1.0925 H   0  0  0  0  0  0  0  0  0  0  0  0
   -3.7506    0.5678   -4.3590 N   0  0  0  0  0  0  0  0  0  0  0  0
   -3.9617    0.2499   -5.7520 C   0  0  0  0  0  0  0  0  0  0  0  0
   -4.5572    0.5524   -3.7418 H   0  0  0  0  0  0  0  0  0  0  0  0
   -4.1894    1.1710   -6.3084 H   0  0  0  0  0  0  0  0  0  0  0  0
   -3.0526   -0.2122   -6.1643 H   0  0  0  0  0  0  0  0  0  0  0  0
   -4.8039   -0.4518   -5.8442 H   0  0  0  0  0  0  0  0  0  0  0  0
  1  3  1  0  0  0  0
  1  7  1  0  0  0  0
  1  2  2  0  0  0  0
 42 43  1  0  0  0  0
 43 51  1  0  0  0  0
 43 44  2  0  0  0  0
  8  9  1  0  0  0  0
  9 17  1  0  0  0  0
  9 10  2  0  0  0  0
 18 19  1  0  0  0  0
 19 41  1  0  0  0  0
 19 20  2  0  0  0  0
 25 26  1  0  0  0  0
 25 27  1  0  0  0  0
 24 25  2  0  0  0  0
 42 45  1  0  0  0  0
  8 11  1  0  0  0  0
 51 52  1  0  0  0  0
 21 22  1  0  0  0  0
 22 23  1  0  0  0  0
 18 21  1  0  0  0  0
 23 24  1  0  0  0  0
 41 42  1  0  0  0  0
  7  8  1  0  0  0  0
 17 18  1  0  0  0  0
  3  4  1  0  0  0  0
  3  5  1  0  0  0  0
  3  6  1  0  0  0  0
 45 48  1  0  0  0  0
 45 49  1  0  0  0  0
 45 50  1  0  0  0  0
 11 14  1  0  0  0  0
 11 15  1  0  0  0  0
 11 16  1  0  0  0  0
 52 54  1  0  0  0  0
 52 55  1  0  0  0  0
 52 56  1  0  0  0  0
 22 32  1  0  0  0  0
 22 33  1  0  0  0  0
 21 30  1  0  0  0  0
 21 31  1  0  0  0  0
 23 34  1  0  0  0  0
 23 35  1  0  0  0  0
 42 47  1  0  0  0  0
  8 13  1  0  0  0  0
 18 29  1  0  0  0  0
 26 37  1  0  0  0  0
 26 38  1  0  0  0  0
 27 39  1  0  0  0  0
 27 40  1  0  0  0  0
 51 53  1  0  0  0  0
  7 12  1  0  0  0  0
 41 46  1  0  0  0  0
 17 28  1  0  0  0  0
 24 36  1  0  0  0  0
M  CHG  1  24   1
M  END
$$$$

  -OEChem-05262214473D

 56 55  0     1  0  0  0  0  0999 V2000
    0.7735   -5.8042   -2.0022 C   0  0  0  0  0  0  0  0  0  0  0  0
   -0.2086   -6.3825   -1.5519 O   0  0  0  0  0  0  0  0  0  0  0  0
    1.4751   -6.3646   -3.1946 C   0  0  0  0  0  0  0  0  0  0  0  0
    2.2765   -7.0687   -2.9186 H   0  0  0  0  0  0  0  0  0  0  0  0
    0.7988   -6.9360   -3.8504 H   0  0  0  0  0  0  0  0  0  0  0  0
    1.9556   -5.6216   -3.8511 H   0  0  0  0  0  0  0  0  0  0  0  0
    1.3322   -4.6359   -1.5106 N   0  0  0  0  0  0  0  0  0  0  0  0
    0.8124   -3.9290   -0.3698 C   0  0  2  0  0  0  0  0  0  0  0  0
    1.0666   -2.4424   -0.5818 C   0  0  0  0  0  0  0  0  0  0  0  0
    2.0598   -2.0076   -1.1610 O   0  0  0  0  0  0  0  0  0  0  0  0
    1.4560   -4.4118    0.9207 C   0  0  0  0  0  0  0  0  0  0  0  0
    2.1528   -4.2578   -1.9805 H   0  0  0  0  0  0  0  0  0  0  0  0
   -0.2667   -4.1160   -0.3467 H   0  0  0  0  0  0  0  0  0  0  0  0
    2.5374   -4.2329    0.9160 H   0  0  0  0  0  0  0  0  0  0  0  0
    1.0390   -3.8932    1.7903 H   0  0  0  0  0  0  0  0  0  0  0  0
    1.2976   -5.4871    1.0566 H   0  0  0  0  0  0  0  0  0  0  0  0
    0.0755   -1.6529   -0.0105 N   0  0  0  0  0  0  0  0  0  0  0  0
    0.1113   -0.2132   -0.0391 C   0  0  2  0  0  0  0  0  0  0  0  0
   -1.2828    0.2724   -0.4215 C   0  0  0  0  0  0  0  0  0  0  0  0
   -2.1707    0.4741    0.4045 O   0  0  0  0  0  0  0  0  0  0  0  0
    1.1533    0.3173   -1.0292 C   0  0  0  0  0  0  0  0  0  0  0  0
    2.5884   -0.0038   -0.5949 C   0  0  0  0  0  0  0  0  0  0  0  0
    3.6212    0.5265   -1.5839 C   0  0  0  0  0  0  0  0  0  0  0  0
    4.9861    0.1983   -1.1786 N   0  3  0  0  0  0  0  0  0  0  0  0
    6.0966    0.5261   -1.9586 C   0  0  0  0  0  0  0  0  0  0  0  0
    7.3673    0.1820   -1.5096 N   0  0  0  0  0  0  0  0  0  0  0  0
    5.9634    1.1892   -3.1741 N   0  0  0  0  0  0  0  0  0  0  0  0
   -0.7323   -2.1024    0.4149 H   0  0  0  0  0  0  0  0  0  0  0  0
    0.3386    0.1192    0.9802 H   0  0  0  0  0  0  0  0  0  0  0  0
    1.0399    1.4032   -1.1317 H   0  0  0  0  0  0  0  0  0  0  0  0
    0.9703   -0.1083   -2.0248 H   0  0  0  0  0  0  0  0  0  0  0  0
    2.7769    0.4249    0.3967 H   0  0  0  0  0  0  0  0  0  0  0  0
    2.7135   -1.0895   -0.5118 H   0  0  0  0  0  0  0  0  0  0  0  0
    3.4564    0.0737   -2.5665 H   0  0  0  0  0  0  0  0  0  0  0  0
    3.5475    1.6140   -1.6807 H   0  0  0  0  0  0  0  0  0  0  0  0
    5.1464   -0.2871   -0.2977 H   0  0  0  0  0  0  0  0  0  0  0  0
    8.1970    0.4064   -2.0537 H   0  0  0  0  0  0  0  0  0  0  0  0
    7.5005   -0.3033   -0.6258 H   0  0  0  0  0  0  0  0  0  0  0  0
    6.7688    1.4302   -3.7459 H   0  0  0  0  0  0  0  0  0  0  0  0
    5.0468    1.4530   -3.5278 H   0  0  0  0  0  0  0  0  0  0  0  0
   -1.4311    0.4058   -1.7950 N   0  0  0  0  0  0  0  0  0  0  0  0
   -2.6726    0.8051   -2.4167 C   0  0  2  0  0  0  0  0  0  0  0  0
   -2.7645    0.1133   -3.7704 C   0  0  0  0  0  0  0  0  0  0  0  0
   -1.7832   -0.1172   -4.4739 O   0  0  0  0  0  0  0  0  0  0  0  0
   -2.7531    2.3158   -2.5717 C   0  0  0  0  0  0  0  0  0  0  0  0
   -0.6307    0.2483   -2.4002 H   0  0  0  0  0  0  0  0  0  0  0  0
   -3.4802    0.4484   -1.7680 H   0  0  0  0  0  0  0  0  0  0  0  0
   -1.9519    2.6916   -3.2184 H   0  0  0  0  0  0  0  0  0  0  0  0
   -3.7066    2.6187   -3.0168 H   0  0  0  0  0  0  0  0  0  0  0  0
   -2.6570    2.8129   -1.6003 H   0  0  0  0  0  0  0  0  0  0  0  0
   -4.0758   -0.1776   -4.1199 N   0  0  0  0  0  0  0  0  0  0  0  0
   -4.4289   -0.7958   -5.3765 C   0  0  0  0  0  0  0  0  0  0  0  0
   -4.8230    0.0121   -3.4585 H   0  0  0  0  0  0  0  0  0  0  0  0
   -4.6549   -0.0160   -6.1186 H   0  0  0  0  0  0  0  0  0  0  0  0
   -3.5875   -1.4082   -5.7329 H   0  0  0  0  0  0  0  0  0  0  0  0
   -5.3132   -1.4345   -5.2350 H   0  0  0  0  0  0  0  0  0  0  0  0
  1  3  1  0  0  0  0
  1  7  1  0  0  0  0
  1  2  2  0  0  0  0
 42 43  1  0  0  0  0
 43 51  1  0  0  0  0
 43 44  2  0  0  0  0
  8  9  1  0  0  0  0
  9 17  1  0  0  0  0
  9 10  2  0  0  0  0
 18 19  1  0  0  0  0
 19 41  1  0  0  0  0
 19 20  2  0  0  0  0
 25 26  1  0  0  0  0
 25 27  1  0  0  0  0
 24 25  2  0  0  0  0
 42 45  1  0  0  0  0
  8 11  1  0  0  0  0
 51 52  1  0  0  0  0
 21 22  1  0  0  0  0
 22 23  1  0  0  0  0
 18 21  1  0  0  0  0
 23 24  1  0  0  0  0
 41 42  1  0  0  0  0
  7  8  1  0  0  0  0
 17 18  1  0  0  0  0
  3  4  1  0  0  0  0
  3  5  1  0  0  0  0
  3  6  1  0  0  0  0
 45 48  1  0  0  0  0
 45 49  1  0  0  0  0
 45 50  1  0  0  0  0
 11 14  1  0  0  0  0
 11 15  1  0  0  0  0
 11 16  1  0  0  0  0
 52 54  1  0  0  0  0
 52 55  1  0  0  0  0
 52 56  1  0  0  0  0
 22 32  1  0  0  0  0
 22 33  1  0  0  0  0
 21 30  1  0  0  0  0
 21 31  1  0  0  0  0
 23 34  1  0  0  0  0
 23 35  1  0  0  0  0
 42 47  1  0  0  0  0
  8 13  1  0  0  0  0
 18 29  1  0  0  0  0
 26 37  1  0  0  0  0
 26 38  1  0  0  0  0
 27 39  1  0  0  0  0
 27 40  1  0  0  0  0
 51 53  1  0  0  0  0
  7 12  1  0  0  0  0
 41 46  1  0  0  0  0
 17 28  1  0  0  0  0
 24 36  1  0  0  0  0
M  CHG  1  24   1
M  END
$$$$

  -OEChem-05262214473D

 56 55  0     1  0  0  0  0  0999 V2000
    0.7735   -5.8042   -2.0022 C   0  0  0  0  0  0  0  0  0  0  0  0
   -0.2086   -6.3825   -1.5519 O   0  0  0  0  0  0  0  0  0  0  0  0
    1.4751   -6.3646   -3.1946 C   0  0  0  0  0  0  0  0  0  0  0  0
    2.2765   -7.0687   -2.9186 H   0  0  0  0  0  0  0  0  0  0  0  0
    0.7988   -6.9360   -3.8504 H   0  0  0  0  0  0  0  0  0  0  0  0
    1.9556   -5.6216   -3.8511 H   0  0  0  0  0  0  0  0  0  0  0  0
    1.3322   -4.6359   -1.5106 N   0  0  0  0  0  0  0  0  0  0  0  0
    0.8124   -3.9290   -0.3698 C   0  0  2  0  0  0  0  0  0  0  0  0
    1.0666   -2.4424   -0.5818 C   0  0  0  0  0  0  0  0  0  0  0  0
    2.0598   -2.0076   -1.1610 O   0  0  0  0  0  0  0  0  0  0  0  0
    1.4560   -4.4118    0.9207 C   0  0  0  0  0  0  0  0  0  0  0  0
    2.1528   -4.2578   -1.9805 H   0  0  0  0  0  0  0  0  0  0  0  0
   -0.2667   -4.1160   -0.3467 H   0  0  0  0  0  0  0  0  0  0  0  0
    2.5374   -4.2329    0.9160 H   0  0  0  0  0  0  0  0  0  0  0  0
    1.0390   -3.8932    1.7903 H   0  0  0  0  0  0  0  0  0  0  0  0
    1.2976   -5.4871    1.0566 H   0  0  0  0  0  0  0  0  0  0  0  0
    0.0755   -1.6529   -0.0105 N   0  0  0  0  0  0  0  0  0  0  0  0
    0.1113   -0.2132   -0.0391 C   0  0  2  0  0  0  0  0  0  0  0  0
   -1.2828    0.2724   -0.4215 C   0  0  0  0  0  0  0  0  0  0  0  0
   -2.0801    0.7275    0.3961 O   0  0  0  0  0  0  0  0  0  0  0  0
    1.1533    0.3173   -1.0292 C   0  0  0  0  0  0  0  0  0  0  0  0
    2.5884   -0.0038   -0.5949 C   0  0  0  0  0  0  0  0  0  0  0  0
    3.6212    0.5265   -1.5839 C   0  0  0  0  0  0  0  0  0  0  0  0
    4.9861    0.1983   -1.1786 N   0  3  0  0  0  0  0  0  0  0  0  0
    6.0966    0.5261   -1.9586 C   0  0  0  0  0  0  0  0  0  0  0  0
    7.3673    0.1820   -1.5096 N   0  0  0  0  0  0  0  0  0  0  0  0
    5.9634    1.1892   -3.1741 N   0  0  0  0  0  0  0  0  0  0  0  0
   -0.7323   -2.1024    0.4149 H   0  0  0  0  0  0  0  0  0  0  0  0
    0.3386    0.1192    0.9802 H   0  0  0  0  0  0  0  0  0  0  0  0
    1.0399    1.4032   -1.1317 H   0  0  0  0  0  0  0  0  0  0  0  0
    0.9703   -0.1083   -2.0248 H   0  0  0  0  0  0  0  0  0  0  0  0
    2.7769    0.4249    0.3967 H   0  0  0  0  0  0  0  0  0  0  0  0
    2.7135   -1.0895   -0.5118 H   0  0  0  0  0  0  0  0  0  0  0  0
    3.4564    0.0737   -2.5665 H   0  0  0  0  0  0  0  0  0  0  0  0
    3.5475    1.6140   -1.6807 H   0  0  0  0  0  0  0  0  0  0  0  0
    5.1464   -0.2871   -0.2977 H   0  0  0  0  0  0  0  0  0  0  0  0
    8.1970    0.4064   -2.0537 H   0  0  0  0  0  0  0  0  0  0  0  0
    7.5005   -0.3033   -0.6258 H   0  0  0  0  0  0  0  0  0  0  0  0
    6.7688    1.4302   -3.7459 H   0  0  0  0  0  0  0  0  0  0  0  0
    5.0468    1.4530   -3.5278 H   0  0  0  0  0  0  0  0  0  0  0  0
   -1.5468    0.0916   -1.7720 N   0  0  0  0  0  0  0  0  0  0  0  0
   -2.8156    0.4261   -2.3767 C   0  0  2  0  0  0  0  0  0  0  0  0
   -3.0672   -0.5542   -3.5148 C   0  0  0  0  0  0  0  0  0  0  0  0
   -2.1675   -1.0156   -4.2139 O   0  0  0  0  0  0  0  0  0  0  0  0
   -2.8266    1.8603   -2.8823 C   0  0  0  0  0  0  0  0  0  0  0  0
   -0.8142   -0.2626   -2.3799 H   0  0  0  0  0  0  0  0  0  0  0  0
   -3.5797    0.2924   -1.6032 H   0  0  0  0  0  0  0  0  0  0  0  0
   -2.0675    2.0134   -3.6581 H   0  0  0  0  0  0  0  0  0  0  0  0
   -3.7982    2.1212   -3.3146 H   0  0  0  0  0  0  0  0  0  0  0  0
   -2.6160    2.5622   -2.0682 H   0  0  0  0  0  0  0  0  0  0  0  0
   -4.4186   -0.8199   -3.6857 N   0  0  0  0  0  0  0  0  0  0  0  0
   -4.9171   -1.6866   -4.7279 C   0  0  0  0  0  0  0  0  0  0  0  0
   -5.0915   -0.4254   -3.0351 H   0  0  0  0  0  0  0  0  0  0  0  0
   -5.1660   -1.0874   -5.6161 H   0  0  0  0  0  0  0  0  0  0  0  0
   -4.1463   -2.4266   -4.9891 H   0  0  0  0  0  0  0  0  0  0  0  0
   -5.8188   -2.2066   -4.3721 H   0  0  0  0  0  0  0  0  0  0  0  0
  1  3  1  0  0  0  0
  1  7  1  0  0  0  0
  1  2  2  0  0  0  0
 42 43  1  0  0  0  0
 43 51  1  0  0  0  0
 43 44  2  0  0  0  0
  8  9  1  0  0  0  0
  9 17  1  0  0  0  0
  9 10  2  0  0  0  0
 18 19  1  0  0  0  0
 19 41  1  0  0  0  0
 19 20  2  0  0  0  0
 25 26  1  0  0  0  0
 25 27  1  0  0  0  0
 24 25  2  0  0  0  0
 42 45  1  0  0  0  0
  8 11  1  0  0  0  0
 51 52  1  0  0  0  0
 21 22  1  0  0  0  0
 22 23  1  0  0  0  0
 18 21  1  0  0  0  0
 23 24  1  0  0  0  0
 41 42  1  0  0  0  0
  7  8  1  0  0  0  0
 17 18  1  0  0  0  0
  3  4  1  0  0  0  0
  3  5  1  0  0  0  0
  3  6  1  0  0  0  0
 45 48  1  0  0  0  0
 45 49  1  0  0  0  0
 45 50  1  0  0  0  0
 11 14  1  0  0  0  0
 11 15  1  0  0  0  0
 11 16  1  0  0  0  0
 52 54  1  0  0  0  0
 52 55  1  0  0  0  0
 52 56  1  0  0  0  0
 22 32  1  0  0  0  0
 22 33  1  0  0  0  0
 21 30  1  0  0  0  0
 21 31  1  0  0  0  0
 23 34  1  0  0  0  0
 23 35  1  0  0  0  0
 42 47  1  0  0  0  0
  8 13  1  0  0  0  0
 18 29  1  0  0  0  0
 26 37  1  0  0  0  0
 26 38  1  0  0  0  0
 27 39  1  0  0  0  0
 27 40  1  0  0  0  0
 51 53  1  0  0  0  0
  7 12  1  0  0  0  0
 41 46  1  0  0  0  0
 17 28  1  0  0  0  0
 24 36  1  0  0  0  0
M  CHG  1  24   1
M  END
$$$$

  -OEChem-05262214473D

 56 55  0     1  0  0  0  0  0999 V2000
    0.7735   -5.8042   -2.0022 C   0  0  0  0  0  0  0  0  0  0  0  0
   -0.2086   -6.3825   -1.5519 O   0  0  0  0  0  0  0  0  0  0  0  0
    1.4751   -6.3646   -3.1946 C   0  0  0  0  0  0  0  0  0  0  0  0
    2.2765   -7.0687   -2.9186 H   0  0  0  0  0  0  0  0  0  0  0  0
    0.7988   -6.9360   -3.8504 H   0  0  0  0  0  0  0  0  0  0  0  0
    1.9556   -5.6216   -3.8511 H   0  0  0  0  0  0  0  0  0  0  0  0
    1.3322   -4.6359   -1.5106 N   0  0  0  0  0  0  0  0  0  0  0  0
    0.8124   -3.9290   -0.3698 C   0  0  2  0  0  0  0  0  0  0  0  0
    1.0666   -2.4424   -0.5818 C   0  0  0  0  0  0  0  0  0  0  0  0
    2.0598   -2.0076   -1.1610 O   0  0  0  0  0  0  0  0  0  0  0  0
    1.4560   -4.4118    0.9207 C   0  0  0  0  0  0  0  0  0  0  0  0
    2.1528   -4.2578   -1.9805 H   0  0  0  0  0  0  0  0  0  0  0  0
   -0.2667   -4.1160   -0.3467 H   0  0  0  0  0  0  0  0  0  0  0  0
    2.5374   -4.2329    0.9160 H   0  0  0  0  0  0  0  0  0  0  0  0
    1.0390   -3.8932    1.7903 H   0  0  0  0  0  0  0  0  0  0  0  0
    1.2976   -5.4871    1.0566 H   0  0  0  0  0  0  0  0  0  0  0  0
    0.0755   -1.6529   -0.0105 N   0  0  0  0  0  0  0  0  0  0  0  0
    0.1113   -0.2132   -0.0391 C   0  0  2  0  0  0  0  0  0  0  0  0
   -1.2828    0.2724   -0.4215 C   0  0  0  0  0  0  0  0  0  0  0  0
   -1.9769    0.9644    0.3205 O   0  0  0  0  0  0  0  0  0  0  0  0
    1.1533    0.3173   -1.0292 C   0  0  0  0  0  0  0  0  0  0  0  0
    2.5884   -0.0038   -0.5949 C   0  0  0  0  0  0  0  0  0  0  0  0
    3.6212    0.5265   -1.5839 C   0  0  0  0  0  0  0  0  0  0  0  0
    4.9861    0.1983   -1.1786 N   0  3  0  0  0  0  0  0  0  0  0  0
    6.0966    0.5261   -1.9586 C   0  0  0  0  0  0  0  0  0  0  0  0
    7.3673    0.1820   -1.5096 N   0  0  0  0  0  0  0  0  0  0  0  0
    5.9634    1.1892   -3.1741 N   0  0  0  0  0  0  0  0  0  0  0  0
   -0.7323   -2.1024    0.4149 H   0  0  0  0  0  0  0  0  0  0  0  0
    0.3386    0.1192    0.9802 H   0  0  0  0  0  0  0  0  0  0  0  0
    1.0399    1.4032   -1.1317 H   0  0  0  0  0  0  0  0  0  0  0  0
    0.9703   -0.1083   -2.0248 H   0  0  0  0  0  0  0  0  0  0  0  0
    2.7769    0.4249    0.3967 H   0  0  0  0  0  0  0  0  0  0  0  0
    2.7135   -1.0895   -0.5118 H   0  0  0  0  0  0  0  0  0  0  0  0
    3.4564    0.0737   -2.5665 H   0  0  0  0  0  0  0  0  0  0  0  0
    3.5475    1.6140   -1.6807 H   0  0  0  0  0  0  0  0  0  0  0  0
    5.1464   -0.2871   -0.2977 H   0  0  0  0  0  0  0  0  0  0  0  0
    8.1970    0.4064   -2.0537 H   0  0  0  0  0  0  0  0  0  0  0  0
    7.5005   -0.3033   -0.6258 H   0  0  0  0  0  0  0  0  0  0  0  0
    6.7688    1.4302   -3.7459 H   0  0  0  0  0  0  0  0  0  0  0  0
    5.0468    1.4530   -3.5278 H   0  0  0  0  0  0  0  0  0  0  0  0
   -1.6771   -0.1990   -1.6659 N   0  0  0  0  0  0  0  0  0  0  0  0
   -2.9750    0.0787   -2.2367 C   0  0  2  0  0  0  0  0  0  0  0  0
   -3.3817   -1.1189   -3.0851 C   0  0  0  0  0  0  0  0  0  0  0  0
   -2.5755   -1.7970   -3.7185 O   0  0  0  0  0  0  0  0  0  0  0  0
   -2.9527    1.3516   -3.0686 C   0  0  0  0  0  0  0  0  0  0  0  0
   -1.0230   -0.7393   -2.2243 H   0  0  0  0  0  0  0  0  0  0  0  0
   -3.6724    0.1872   -1.3989 H   0  0  0  0  0  0  0  0  0  0  0  0
   -2.2594    1.2618   -3.9129 H   0  0  0  0  0  0  0  0  0  0  0  0
   -3.9436    1.5761   -3.4770 H   0  0  0  0  0  0  0  0  0  0  0  0
   -2.6313    2.2066   -2.4641 H   0  0  0  0  0  0  0  0  0  0  0  0
   -4.7556   -1.3153   -3.0861 N   0  0  0  0  0  0  0  0  0  0  0  0
   -5.3930   -2.3620   -3.8504 C   0  0  0  0  0  0  0  0  0  0  0  0
   -5.3444   -0.7304   -2.5005 H   0  0  0  0  0  0  0  0  0  0  0  0
   -5.6877   -1.9702   -4.8351 H   0  0  0  0  0  0  0  0  0  0  0  0
   -4.6907   -3.1981   -3.9837 H   0  0  0  0  0  0  0  0  0  0  0  0
   -6.2862   -2.7153   -3.3142 H   0  0  0  0  0  0  0  0  0  0  0  0
  1  3  1  0  0  0  0
  1  7  1  0  0  0  0
  1  2  2  0  0  0  0
 42 43  1  0  0  0  0
 43 51  1  0  0  0  0
 43 44  2  0  0  0  0
  8  9  1  0  0  0  0
  9 17  1  0  0  0  0
  9 10  2  0  0  0  0
 18 19  1  0  0  0  0
 19 41  1  0  0  0  0
 19 20  2  0  0  0  0
 25 26  1  0  0  0  0
 25 27  1  0  0  0  0
 24 25  2  0  0  0  0
 42 45  1  0  0  0  0
  8 11  1  0  0  0  0
 51 52  1  0  0  0  0
 21 22  1  0  0  0  0
 22 23  1  0  0  0  0
 18 21  1  0  0  0  0
 23 24  1  0  0  0  0
 41 42  1  0  0  0  0
  7  8  1  0  0  0  0
 17 18  1  0  0  0  0
  3  4  1  0  0  0  0
  3  5  1  0  0  0  0
  3  6  1  0  0  0  0
 45 48  1  0  0  0  0
 45 49  1  0  0  0  0
 45 50  1  0  0  0  0
 11 14  1  0  0  0  0
 11 15  1  0  0  0  0
 11 16  1  0  0  0  0
 52 54  1  0  0  0  0
 52 55  1  0  0  0  0
 52 56  1  0  0  0  0
 22 32  1  0  0  0  0
 22 33  1  0  0  0  0
 21 30  1  0  0  0  0
 21 31  1  0  0  0  0
 23 34  1  0  0  0  0
 23 35  1  0  0  0  0
 42 47  1  0  0  0  0
  8 13  1  0  0  0  0
 18 29  1  0  0  0  0
 26 37  1  0  0  0  0
 26 38  1  0  0  0  0
 27 39  1  0  0  0  0
 27 40  1  0  0  0  0
 51 53  1  0  0  0  0
  7 12  1  0  0  0  0
 41 46  1  0  0  0  0
 17 28  1  0  0  0  0
 24 36  1  0  0  0  0
M  CHG  1  24   1
M  END
$$$$

  -OEChem-05262214473D

 56 55  0     1  0  0  0  0  0999 V2000
    0.7735   -5.8042   -2.0022 C   0  0  0  0  0  0  0  0  0  0  0  0
   -0.2086   -6.3825   -1.5519 O   0  0  0  0  0  0  0  0  0  0  0  0
    1.4751   -6.3646   -3.1946 C   0  0  0  0  0  0  0  0  0  0  0  0
    2.2765   -7.0687   -2.9186 H   0  0  0  0  0  0  0  0  0  0  0  0
    0.7988   -6.9360   -3.8504 H   0  0  0  0  0  0  0  0  0  0  0  0
    1.9556   -5.6216   -3.8511 H   0  0  0  0  0  0  0  0  0  0  0  0
    1.3322   -4.6359   -1.5106 N   0  0  0  0  0  0  0  0  0  0  0  0
    0.8124   -3.9290   -0.3698 C   0  0  2  0  0  0  0  0  0  0  0  0
    1.0666   -2.4424   -0.5818 C   0  0  0  0  0  0  0  0  0  0  0  0
    2.0598   -2.0076   -1.1610 O   0  0  0  0  0  0  0  0  0  0  0  0
    1.4560   -4.4118    0.9207 C   0  0  0  0  0  0  0  0  0  0  0  0
    2.1528   -4.2578   -1.9805 H   0  0  0  0  0  0  0  0  0  0  0  0
   -0.2667   -4.1160   -0.3467 H   0  0  0  0  0  0  0  0  0  0  0  0
    2.5374   -4.2329    0.9160 H   0  0  0  0  0  0  0  0  0  0  0  0
    1.0390   -3.8932    1.7903 H   0  0  0  0  0  0  0  0  0  0  0  0
    1.2976   -5.4871    1.0566 H   0  0  0  0  0  0  0  0  0  0  0  0
    0.0755   -1.6529   -0.0105 N   0  0  0  0  0  0  0  0  0  0  0  0
    0.1113   -0.2132   -0.0391 C   0  0  2  0  0  0  0  0  0  0  0  0
   -1.2828    0.2724   -0.4215 C   0  0  0  0  0  0  0  0  0  0  0  0
   -1.8680    1.1687    0.1830 O   0  0  0  0  0  0  0  0  0  0  0  0
    1.1533    0.3173   -1.0292 C   0  0  0  0  0  0  0  0  0  0  0  0
    2.5884   -0.0038   -0.5949 C   0  0  0  0  0  0  0  0  0  0  0  0
    3.6212    0.5265   -1.5839 C   0  0  0  0  0  0  0  0  0  0  0  0
    4.9861    0.1983   -1.1786 N   0  3  0  0  0  0  0  0  0  0  0  0
    6.0966    0.5261   -1.9586 C   0  0  0  0  0  0  0  0  0  0  0  0
    7.3673    0.1820   -1.5096 N   0  0  0  0  0  0  0  0  0  0  0  0
    5.9634    1.1892   -3.1741 N   0  0  0  0  0  0  0  0  0  0  0  0
   -0.7323   -2.1024    0.4149 H   0  0  0  0  0  0  0  0  0  0  0  0
    0.3386    0.1192    0.9802 H   0  0  0  0  0  0  0  0  0  0  0  0
    1.0399    1.4032   -1.1317 H   0  0  0  0  0  0  0  0  0  0  0  0
    0.9703   -0.1083   -2.0248 H   0  0  0  0  0  0  0  0  0  0  0  0
    2.7769    0.4249    0.3967 H   0  0  0  0  0  0  0  0  0  0  0  0
    2.7135   -1.0895   -0.5118 H   0  0  0  0  0  0  0  0  0  0  0  0
    3.4564    0.0737   -2.5665 H   0  0  0  0  0  0  0  0  0  0  0  0
    3.5475    1.6140   -1.6807 H   0  0  0  0  0  0  0  0  0  0  0  0
    5.1464   -0.2871   -0.2977 H   0  0  0  0  0  0  0  0  0  0  0  0
    8.1970    0.4064   -2.0537 H   0  0  0  0  0  0  0  0  0  0  0  0
    7.5005   -0.3033   -0.6258 H   0  0  0  0  0  0  0  0  0  0  0  0
    6.7688    1.4302   -3.7459 H   0  0  0  0  0  0  0  0  0  0  0  0
    5.0468    1.4530   -3.5278 H   0  0  0  0  0  0  0  0  0  0  0  0
   -1.8131   -0.4461   -1.4839 N   0  0  0  0  0  0  0  0  0  0  0  0
   -3.1400   -0.2133   -2.0062 C   0  0  2  0  0  0  0  0  0  0  0  0
   -3.6868   -1.5423   -2.5104 C   0  0  0  0  0  0  0  0  0  0  0  0
   -2.9795   -2.4081   -3.0215 O   0  0  0  0  0  0  0  0  0  0  0  0
   -3.1229    0.8243   -3.1178 C   0  0  0  0  0  0  0  0  0  0  0  0
   -1.2427   -1.1494   -1.9440 H   0  0  0  0  0  0  0  0  0  0  0  0
   -3.7518    0.1400   -1.1690 H   0  0  0  0  0  0  0  0  0  0  0  0
   -2.5146    0.4880   -3.9653 H   0  0  0  0  0  0  0  0  0  0  0  0
   -4.1327    1.0206   -3.4929 H   0  0  0  0  0  0  0  0  0  0  0  0
   -2.7017    1.7705   -2.7612 H   0  0  0  0  0  0  0  0  0  0  0  0
   -5.0639   -1.6301   -2.3619 N   0  0  0  0  0  0  0  0  0  0  0  0
   -5.8242   -2.7758   -2.8037 C   0  0  0  0  0  0  0  0  0  0  0  0
   -5.5644   -0.8821   -1.8911 H   0  0  0  0  0  0  0  0  0  0  0  0
   -6.1845   -2.6043   -3.8288 H   0  0  0  0  0  0  0  0  0  0  0  0
   -5.1838   -3.6700   -2.7851 H   0  0  0  0  0  0  0  0  0  0  0  0
   -6.6834   -2.9261   -2.1335 H   0  0  0  0  0  0  0  0  0  0  0  0
  1  3  1  0  0  0  0
  1  7  1  0  0  0  0
  1  2  2  0  0  0  0
 42 43  1  0  0  0  0
 43 51  1  0  0  0  0
 43 44  2  0  0  0  0
  8  9  1  0  0  0  0
  9 17  1  0  0  0  0
  9 10  2  0  0  0  0
 18 19  1  0  0  0  0
 19 41  1  0  0  0  0
 19 20  2  0  0  0  0
 25 26  1  0  0  0  0
 25 27  1  0  0  0  0
 24 25  2  0  0  0  0
 42 45  1  0  0  0  0
  8 11  1  0  0  0  0
 51 52  1  0  0  0  0
 21 22  1  0  0  0  0
 22 23  1  0  0  0  0
 18 21  1  0  0  0  0
 23 24  1  0  0  0  0
 41 42  1  0  0  0  0
  7  8  1  0  0  0  0
 17 18  1  0  0  0  0
  3  4  1  0  0  0  0
  3  5  1  0  0  0  0
  3  6  1  0  0  0  0
 45 48  1  0  0  0  0
 45 49  1  0  0  0  0
 45 50  1  0  0  0  0
 11 14  1  0  0  0  0
 11 15  1  0  0  0  0
 11 16  1  0  0  0  0
 52 54  1  0  0  0  0
 52 55  1  0  0  0  0
 52 56  1  0  0  0  0
 22 32  1  0  0  0  0
 22 33  1  0  0  0  0
 21 30  1  0  0  0  0
 21 31  1  0  0  0  0
 23 34  1  0  0  0  0
 23 35  1  0  0  0  0
 42 47  1  0  0  0  0
  8 13  1  0  0  0  0
 18 29  1  0  0  0  0
 26 37  1  0  0  0  0
 26 38  1  0  0  0  0
 27 39  1  0  0  0  0
 27 40  1  0  0  0  0
 51 53  1  0  0  0  0
  7 12  1  0  0  0  0
 41 46  1  0  0  0  0
 17 28  1  0  0  0  0
 24 36  1  0  0  0  0
M  CHG  1  24   1
M  END
$$$$

  -OEChem-05262214473D

 56 55  0     1  0  0  0  0  0999 V2000
    0.7735   -5.8042   -2.0022 C   0  0  0  0  0  0  0  0  0  0  0  0
   -0.2086   -6.3825   -1.5519 O   0  0  0  0  0  0  0  0  0  0  0  0
    1.4751   -6.3646   -3.1946 C   0  0  0  0  0  0  0  0  0  0  0  0
    2.2765   -7.0687   -2.9186 H   0  0  0  0  0  0  0  0  0  0  0  0
    0.7988   -6.9360   -3.8504 H   0  0  0  0  0  0  0  0  0  0  0  0
    1.9556   -5.6216   -3.8511 H   0  0  0  0  0  0  0  0  0  0  0  0
    1.3322   -4.6359   -1.5106 N   0  0  0  0  0  0  0  0  0  0  0  0
    0.8124   -3.9290   -0.3698 C   0  0  2  0  0  0  0  0  0  0  0  0
    1.0666   -2.4424   -0.5818 C   0  0  0  0  0  0  0  0  0  0  0  0
    2.0598   -2.0076   -1.1610 O   0  0  0  0  0  0  0  0  0  0  0  0
    1.4560   -4.4118    0.9207 C   0  0  0  0  0  0  0  0  0  0  0  0
    2.1528   -4.2578   -1.9805 H   0  0  0  0  0  0  0  0  0  0  0  0
   -0.2667   -4.1160   -0.3467 H   0  0  0  0  0  0  0  0  0  0  0  0
    2.5374   -4.2329    0.9160 H   0  0  0  0  0  0  0  0  0  0  0  0
    1.0390   -3.8932    1.7903 H   0  0  0  0  0  0  0  0  0  0  0  0
    1.2976   -5.4871    1.0566 H   0  0  0  0  0  0  0  0  0  0  0  0
    0.0755   -1.6529   -0.0105 N   0  0  0  0  0  0  0  0  0  0  0  0
    0.1113   -0.2132   -0.0391 C   0  0  2  0  0  0  0  0  0  0  0  0
   -1.2828    0.2724   -0.4215 C   0  0  0  0  0  0  0  0  0  0  0  0
   -1.7609    1.3264   -0.0072 O   0  0  0  0  0  0  0  0  0  0  0  0
    1.1533    0.3173   -1.0292 C   0  0  0  0  0  0  0  0  0  0  0  0
    2.5884   -0.0038   -0.5949 C   0  0  0  0  0  0  0  0  0  0  0  0
    3.6212    0.5265   -1.5839 C   0  0  0  0  0  0  0  0  0  0  0  0
    4.9861    0.1983   -1.1786 N   0  3  0  0  0  0  0  0  0  0  0  0
    6.0966    0.5261   -1.9586 C   0  0  0  0  0  0  0  0  0  0  0  0
    7.3673    0.1820   -1.5096 N   0  0  0  0  0  0  0  0  0  0  0  0
    5.9634    1.1892   -3.1741 N   0  0  0  0  0  0  0  0  0  0  0  0
   -0.7323   -2.1024    0.4149 H   0  0  0  0  0  0  0  0  0  0  0  0
    0.3386    0.1192    0.9802 H   0  0  0  0  0  0  0  0  0  0  0  0
    1.0399    1.4032   -1.1317 H   0  0  0  0  0  0  0  0  0  0  0  0
    0.9703   -0.1083   -2.0248 H   0  0  0  0  0  0  0  0  0  0  0  0
    2.7769    0.4249    0.3967 H   0  0  0  0  0  0  0  0  0  0  0  0
    2.7135   -1.0895   -0.5118 H   0  0  0  0  0  0  0  0  0  0  0  0
    3.4564    0.0737   -2.5665 H   0  0  0  0  0  0  0  0  0  0  0  0
    3.5475    1.6140   -1.6807 H   0  0  0  0  0  0  0  0  0  0  0  0
    5.1464   -0.2871   -0.2977 H   0  0  0  0  0  0  0  0  0  0  0  0
    8.1970    0.4064   -2.0537 H   0  0  0  0  0  0  0  0  0  0  0  0
    7.5005   -0.3033   -0.6258 H   0  0  0  0  0  0  0  0  0  0  0  0
    6.7688    1.4302   -3.7459 H   0  0  0  0  0  0  0  0  0  0  0  0
    5.0468    1.4530   -3.5278 H   0  0  0  0  0  0  0  0  0  0  0  0
   -1.9455   -0.6330   -1.2384 N   0  0  0  0  0  0  0  0  0  0  0  0
   -3.2993   -0.4301   -1.7007 C   0  0  2  0  0  0  0  0  0  0  0  0
   -3.9616   -1.7955   -1.8301 C   0  0  0  0  0  0  0  0  0  0  0  0
   -3.3519   -2.8072   -2.1704 O   0  0  0  0  0  0  0  0  0  0  0  0
   -3.3255    0.3145   -3.0265 C   0  0  0  0  0  0  0  0  0  0  0  0
   -1.4584   -1.4650   -1.5581 H   0  0  0  0  0  0  0  0  0  0  0  0
   -3.8128    0.1539   -0.9293 H   0  0  0  0  0  0  0  0  0  0  0  0
   -2.8156   -0.2554   -3.8119 H   0  0  0  0  0  0  0  0  0  0  0  0
   -4.3528    0.4925   -3.3613 H   0  0  0  0  0  0  0  0  0  0  0  0
   -2.8225    1.2836   -2.9392 H   0  0  0  0  0  0  0  0  0  0  0  0
   -5.3224   -1.7428   -1.5625 N   0  0  0  0  0  0  0  0  0  0  0  0
   -6.1813   -2.8999   -1.6593 C   0  0  0  0  0  0  0  0  0  0  0  0
   -5.7365   -0.8702   -1.2484 H   0  0  0  0  0  0  0  0  0  0  0  0
   -6.6227   -2.9465   -2.6658 H   0  0  0  0  0  0  0  0  0  0  0  0
   -5.5920   -3.8103   -1.4750 H   0  0  0  0  0  0  0  0  0  0  0  0
   -6.9835   -2.8246   -0.9104 H   0  0  0  0  0  0  0  0  0  0  0  0
  1  3  1  0  0  0  0
  1  7  1  0  0  0  0
  1  2  2  0  0  0  0
 42 43  1  0  0  0  0
 43 51  1  0  0  0  0
 43 44  2  0  0  0  0
  8  9  1  0  0  0  0
  9 17  1  0  0  0  0
  9 10  2  0  0  0  0
 18 19  1  0  0  0  0
 19 41  1  0  0  0  0
 19 20  2  0  0  0  0
 25 26  1  0  0  0  0
 25 27  1  0  0  0  0
 24 25  2  0  0  0  0
 42 45  1  0  0  0  0
  8 11  1  0  0  0  0
 51 52  1  0  0  0  0
 21 22  1  0  0  0  0
 22 23  1  0  0  0  0
 18 21  1  0  0  0  0
 23 24  1  0  0  0  0
 41 42  1  0  0  0  0
  7  8  1  0  0  0  0
 17 18  1  0  0  0  0
  3  4  1  0  0  0  0
  3  5  1  0  0  0  0
  3  6  1  0  0  0  0
 45 48  1  0  0  0  0
 45 49  1  0  0  0  0
 45 50  1  0  0  0  0
 11 14  1  0  0  0  0
 11 15  1  0  0  0  0
 11 16  1  0  0  0  0
 52 54  1  0  0  0  0
 52 55  1  0  0  0  0
 52 56  1  0  0  0  0
 22 32  1  0  0  0  0
 22 33  1  0  0  0  0
 21 30  1  0  0  0  0
 21 31  1  0  0  0  0
 23 34  1  0  0  0  0
 23 35  1  0  0  0  0
 42 47  1  0  0  0  0
  8 13  1  0  0  0  0
 18 29  1  0  0  0  0
 26 37  1  0  0  0  0
 26 38  1  0  0  0  0
 27 39  1  0  0  0  0
 27 40  1  0  0  0  0
 51 53  1  0  0  0  0
  7 12  1  0  0  0  0
 41 46  1  0  0  0  0
 17 28  1  0  0  0  0
 24 36  1  0  0  0  0
M  CHG  1  24   1
M  END
$$$$

  -OEChem-05262214473D

 56 55  0     1  0  0  0  0  0999 V2000
    0.7735   -5.8042   -2.0022 C   0  0  0  0  0  0  0  0  0  0  0  0
   -0.2086   -6.3825   -1.5519 O   0  0  0  0  0  0  0  0  0  0  0  0
    1.4751   -6.3646   -3.1946 C   0  0  0  0  0  0  0  0  0  0  0  0
    2.2765   -7.0687   -2.9186 H   0  0  0  0  0  0  0  0  0  0  0  0
    0.7988   -6.9360   -3.8504 H   0  0  0  0  0  0  0  0  0  0  0  0
    1.9556   -5.6216   -3.8511 H   0  0  0  0  0  0  0  0  0  0  0  0
    1.3322   -4.6359   -1.5106 N   0  0  0  0  0  0  0  0  0  0  0  0
    0.8124   -3.9290   -0.3698 C   0  0  2  0  0  0  0  0  0  0  0  0
    1.0666   -2.4424   -0.5818 C   0  0  0  0  0  0  0  0  0  0  0  0
    2.0598   -2.0076   -1.1610 O   0  0  0  0  0  0  0  0  0  0  0  0
    1.4560   -4.4118    0.9207 C   0  0  0  0  0  0  0  0  0  0  0  0
    2.1528   -4.2578   -1.9805 H   0  0  0  0  0  0  0  0  0  0  0  0
   -0.2667   -4.1160   -0.3467 H   0  0  0  0  0  0  0  0  0  0  0  0
    2.5374   -4.2329    0.9160 H   0  0  0  0  0  0  0  0  0  0  0  0
    1.0390   -3.8932    1.7903 H   0  0  0  0  0  0  0  0  0  0  0  0
    1.2976   -5.4871    1.0566 H   0  0  0  0  0  0  0  0  0  0  0  0
    0.0755   -1.6529   -0.0105 N   0  0  0  0  0  0  0  0  0  0  0  0
    0.1113   -0.2132   -0.0391 C   0  0  2  0  0  0  0  0  0  0  0  0
   -1.2828    0.2724   -0.4215 C   0  0  0  0  0  0  0  0  0  0  0  0
   -1.6629    1.4268   -0.2370 O   0  0  0  0  0  0  0  0  0  0  0  0
    1.1533    0.3173   -1.0292 C   0  0  0  0  0  0  0  0  0  0  0  0
    2.5884   -0.0038   -0.5949 C   0  0  0  0  0  0  0  0  0  0  0  0
    3.6212    0.5265   -1.5839 C   0  0  0  0  0  0  0  0  0  0  0  0
    4.9861    0.1983   -1.1786 N   0  3  0  0  0  0  0  0  0  0  0  0
    6.0966    0.5261   -1.9586 C   0  0  0  0  0  0  0  0  0  0  0  0
    7.3673    0.1820   -1.5096 N   0  0  0  0  0  0  0  0  0  0  0  0
    5.9634    1.1892   -3.1741 N   0  0  0  0  0  0  0  0  0  0  0  0
   -0.7323   -2.1024    0.4149 H   0  0  0  0  0  0  0  0  0  0  0  0
    0.3386    0.1192    0.9802 H   0  0  0  0  0  0  0  0  0  0  0  0
    1.0399    1.4032   -1.1317 H   0  0  0  0  0  0  0  0  0  0  0  0
    0.9703   -0.1083   -2.0248 H   0  0  0  0  0  0  0  0  0  0  0  0
    2.7769    0.4249    0.3967 H   0  0  0  0  0  0  0  0  0  0  0  0
    2.7135   -1.0895   -0.5118 H   0  0  0  0  0  0  0  0  0  0  0  0
    3.4564    0.0737   -2.5665 H   0  0  0  0  0  0  0  0  0  0  0  0
    3.5475    1.6140   -1.6807 H   0  0  0  0  0  0  0  0  0  0  0  0
    5.1464   -0.2871   -0.2977 H   0  0  0  0  0  0  0  0  0  0  0  0
    8.1970    0.4064   -2.0537 H   0  0  0  0  0  0  0  0  0  0  0  0
    7.5005   -0.3033   -0.6258 H   0  0  0  0  0  0  0  0  0  0  0  0
    6.7688    1.4302   -3.7459 H   0  0  0  0  0  0  0  0  0  0  0  0
    5.0468    1.4530   -3.5278 H   0  0  0  0  0  0  0  0  0  0  0  0
   -2.0653   -0.7467   -0.9462 N   0  0  0  0  0  0  0  0  0  0  0  0
   -3.4420   -0.5570   -1.3413 C   0  0  2  0  0  0  0  0  0  0  0  0
   -4.1873   -1.8612   -1.0903 C   0  0  0  0  0  0  0  0  0  0  0  0
   -3.6675   -2.9672   -1.2231 O   0  0  0  0  0  0  0  0  0  0  0  0
   -3.5468   -0.1433   -2.8010 C   0  0  0  0  0  0  0  0  0  0  0  0
   -1.6555   -1.6645   -1.0929 H   0  0  0  0  0  0  0  0  0  0  0  0
   -3.8509    0.2280   -0.6959 H   0  0  0  0  0  0  0  0  0  0  0  0
   -3.1420   -0.9175   -3.4629 H   0  0  0  0  0  0  0  0  0  0  0  0
   -4.5887    0.0278   -3.0910 H   0  0  0  0  0  0  0  0  0  0  0  0
   -2.9855    0.7789   -2.9859 H   0  0  0  0  0  0  0  0  0  0  0  0
   -5.5135   -1.6458   -0.7424 N   0  0  0  0  0  0  0  0  0  0  0  0
   -6.4399   -2.7259   -0.4950 C   0  0  0  0  0  0  0  0  0  0  0  0
   -5.8490   -0.6954   -0.6162 H   0  0  0  0  0  0  0  0  0  0  0  0
   -6.9722   -2.9734   -1.4253 H   0  0  0  0  0  0  0  0  0  0  0  0
   -5.8873   -3.6094   -0.1428 H   0  0  0  0  0  0  0  0  0  0  0  0
   -7.1659   -2.4177    0.2717 H   0  0  0  0  0  0  0  0  0  0  0  0
  1  3  1  0  0  0  0
  1  7  1  0  0  0  0
  1  2  2  0  0  0  0
 42 43  1  0  0  0  0
 43 51  1  0  0  0  0
 43 44  2  0  0  0  0
  8  9  1  0  0  0  0
  9 17  1  0  0  0  0
  9 10  2  0  0  0  0
 18 19  1  0  0  0  0
 19 41  1  0  0  0  0
 19 20  2  0  0  0  0
 25 26  1  0  0  0  0
 25 27  1  0  0  0  0
 24 25  2  0  0  0  0
 42 45  1  0  0  0  0
  8 11  1  0  0  0  0
 51 52  1  0  0  0  0
 21 22  1  0  0  0  0
 22 23  1  0  0  0  0
 18 21  1  0  0  0  0
 23 24  1  0  0  0  0
 41 42  1  0  0  0  0
  7  8  1  0  0  0  0
 17 18  1  0  0  0  0
  3  4  1  0  0  0  0
  3  5  1  0  0  0  0
  3  6  1  0  0  0  0
 45 48  1  0  0  0  0
 45 49  1  0  0  0  0
 45 50  1  0  0  0  0
 11 14  1  0  0  0  0
 11 15  1  0  0  0  0
 11 16  1  0  0  0  0
 52 54  1  0  0  0  0
 52 55  1  0  0  0  0
 52 56  1  0  0  0  0
 22 32  1  0  0  0  0
 22 33  1  0  0  0  0
 21 30  1  0  0  0  0
 21 31  1  0  0  0  0
 23 34  1  0  0  0  0
 23 35  1  0  0  0  0
 42 47  1  0  0  0  0
  8 13  1  0  0  0  0
 18 29  1  0  0  0  0
 26 37  1  0  0  0  0
 26 38  1  0  0  0  0
 27 39  1  0  0  0  0
 27 40  1  0  0  0  0
 51 53  1  0  0  0  0
  7 12  1  0  0  0  0
 41 46  1  0  0  0  0
 17 28  1  0  0  0  0
 24 36  1  0  0  0  0
M  CHG  1  24   1
M  END
$$$$

  -OEChem-05262214473D

 56 55  0     1  0  0  0  0  0999 V2000
    0.7735   -5.8042   -2.0022 C   0  0  0  0  0  0  0  0  0  0  0  0
   -0.2086   -6.3825   -1.5519 O   0  0  0  0  0  0  0  0  0  0  0  0
    1.4751   -6.3646   -3.1946 C   0  0  0  0  0  0  0  0  0  0  0  0
    2.2765   -7.0687   -2.9186 H   0  0  0  0  0  0  0  0  0  0  0  0
    0.7988   -6.9360   -3.8504 H   0  0  0  0  0  0  0  0  0  0  0  0
    1.9556   -5.6216   -3.8511 H   0  0  0  0  0  0  0  0  0  0  0  0
    1.3322   -4.6359   -1.5106 N   0  0  0  0  0  0  0  0  0  0  0  0
    0.8124   -3.9290   -0.3698 C   0  0  2  0  0  0  0  0  0  0  0  0
    1.0666   -2.4424   -0.5818 C   0  0  0  0  0  0  0  0  0  0  0  0
    2.0598   -2.0076   -1.1610 O   0  0  0  0  0  0  0  0  0  0  0  0
    1.4560   -4.4118    0.9207 C   0  0  0  0  0  0  0  0  0  0  0  0
    2.1528   -4.2578   -1.9805 H   0  0  0  0  0  0  0  0  0  0  0  0
   -0.2667   -4.1160   -0.3467 H   0  0  0  0  0  0  0  0  0  0  0  0
    2.5374   -4.2329    0.9160 H   0  0  0  0  0  0  0  0  0  0  0  0
    1.0390   -3.8932    1.7903 H   0  0  0  0  0  0  0  0  0  0  0  0
    1.2976   -5.4871    1.0566 H   0  0  0  0  0  0  0  0  0  0  0  0
    0.0755   -1.6529   -0.0105 N   0  0  0  0  0  0  0  0  0  0  0  0
    0.1113   -0.2132   -0.0391 C   0  0  2  0  0  0  0  0  0  0  0  0
   -1.2828    0.2724   -0.4215 C   0  0  0  0  0  0  0  0  0  0  0  0
   -1.5807    1.4630   -0.4908 O   0  0  0  0  0  0  0  0  0  0  0  0
    1.1533    0.3173   -1.0292 C   0  0  0  0  0  0  0  0  0  0  0  0
    2.5884   -0.0038   -0.5949 C   0  0  0  0  0  0  0  0  0  0  0  0
    3.6212    0.5265   -1.5839 C   0  0  0  0  0  0  0  0  0  0  0  0
    4.9861    0.1983   -1.1786 N   0  3  0  0  0  0  0  0  0  0  0  0
    6.0966    0.5261   -1.9586 C   0  0  0  0  0  0  0  0  0  0  0  0
    7.3673    0.1820   -1.5096 N   0  0  0  0  0  0  0  0  0  0  0  0
    5.9634    1.1892   -3.1741 N   0  0  0  0  0  0  0  0  0  0  0  0
   -0.7323   -2.1024    0.4149 H   0  0  0  0  0  0  0  0  0  0  0  0
    0.3386    0.1192    0.9802 H   0  0  0  0  0  0  0  0  0  0  0  0
    1.0399    1.4032   -1.1317 H   0  0  0  0  0  0  0  0  0  0  0  0
    0.9703   -0.1083   -2.0248 H   0  0  0  0  0  0  0  0  0  0  0  0
    2.7769    0.4249    0.3967 H   0  0  0  0  0  0  0  0  0  0  0  0
    2.7135   -1.0895   -0.5118 H   0  0  0  0  0  0  0  0  0  0  0  0
    3.4564    0.0737   -2.5665 H   0  0  0  0  0  0  0  0  0  0  0  0
    3.5475    1.6140   -1.6807 H   0  0  0  0  0  0  0  0  0  0  0  0
    5.1464   -0.2871   -0.2977 H   0  0  0  0  0  0  0  0  0  0  0  0
    8.1970    0.4064   -2.0537 H   0  0  0  0  0  0  0  0  0  0  0  0
    7.5005   -0.3033   -0.6258 H   0  0  0  0  0  0  0  0  0  0  0  0
    6.7688    1.4302   -3.7459 H   0  0  0  0  0  0  0  0  0  0  0  0
    5.0468    1.4530   -3.5278 H   0  0  0  0  0  0  0  0  0  0  0  0
   -2.1643   -0.7797   -0.6272 N   0  0  0  0  0  0  0  0  0  0  0  0
   -3.5585   -0.5852   -0.9523 C   0  0  2  0  0  0  0  0  0  0  0  0
   -4.3487   -1.7350   -0.3416 C   0  0  0  0  0  0  0  0  0  0  0  0
   -3.9045   -2.8771   -0.2443 O   0  0  0  0  0  0  0  0  0  0  0  0
   -3.7717   -0.5177   -2.4566 C   0  0  0  0  0  0  0  0  0  0  0  0
   -1.8205   -1.7343   -0.5801 H   0  0  0  0  0  0  0  0  0  0  0  0
   -3.8638    0.3573   -0.4849 H   0  0  0  0  0  0  0  0  0  0  0  0
   -3.4714   -1.4533   -2.9423 H   0  0  0  0  0  0  0  0  0  0  0  0
   -4.8246   -0.3418   -2.7006 H   0  0  0  0  0  0  0  0  0  0  0  0
   -3.1795    0.2910   -2.8982 H   0  0  0  0  0  0  0  0  0  0  0  0
   -5.6242   -1.3457    0.0426 N   0  0  0  0  0  0  0  0  0  0  0  0
   -6.5825   -2.2655    0.6096 C   0  0  0  0  0  0  0  0  0  0  0  0
   -5.8942   -0.3697   -0.0377 H   0  0  0  0  0  0  0  0  0  0  0  0
   -7.2094   -2.6832   -0.1920 H   0  0  0  0  0  0  0  0  0  0  0  0
   -6.0498   -3.0809    1.1209 H   0  0  0  0  0  0  0  0  0  0  0  0
   -7.2183   -1.7331    1.3324 H   0  0  0  0  0  0  0  0  0  0  0  0
  1  3  1  0  0  0  0
  1  7  1  0  0  0  0
  1  2  2  0  0  0  0
 42 43  1  0  0  0  0
 43 51  1  0  0  0  0
 43 44  2  0  0  0  0
  8  9  1  0  0  0  0
  9 17  1  0  0  0  0
  9 10  2  0  0  0  0
 18 19  1  0  0  0  0
 19 41  1  0  0  0  0
 19 20  2  0  0  0  0
 25 26  1  0  0  0  0
 25 27  1  0  0  0  0
 24 25  2  0  0  0  0
 42 45  1  0  0  0  0
  8 11  1  0  0  0  0
 51 52  1  0  0  0  0
 21 22  1  0  0  0  0
 22 23  1  0  0  0  0
 18 21  1  0  0  0  0
 23 24  1  0  0  0  0
 41 42  1  0  0  0  0
  7  8  1  0  0  0  0
 17 18  1  0  0  0  0
  3  4  1  0  0  0  0
  3  5  1  0  0  0  0
  3  6  1  0  0  0  0
 45 48  1  0  0  0  0
 45 49  1  0  0  0  0
 45 50  1  0  0  0  0
 11 14  1  0  0  0  0
 11 15  1  0  0  0  0
 11 16  1  0  0  0  0
 52 54  1  0  0  0  0
 52 55  1  0  0  0  0
 52 56  1  0  0  0  0
 22 32  1  0  0  0  0
 22 33  1  0  0  0  0
 21 30  1  0  0  0  0
 21 31  1  0  0  0  0
 23 34  1  0  0  0  0
 23 35  1  0  0  0  0
 42 47  1  0  0  0  0
  8 13  1  0  0  0  0
 18 29  1  0  0  0  0
 26 37  1  0  0  0  0
 26 38  1  0  0  0  0
 27 39  1  0  0  0  0
 27 40  1  0  0  0  0
 51 53  1  0  0  0  0
  7 12  1  0  0  0  0
 41 46  1  0  0  0  0
 17 28  1  0  0  0  0
 24 36  1  0  0  0  0
M  CHG  1  24   1
M  END
$$$$

  -OEChem-05262214473D

 56 55  0     1  0  0  0  0  0999 V2000
    0.7735   -5.8042   -2.0022 C   0  0  0  0  0  0  0  0  0  0  0  0
   -0.2086   -6.3825   -1.5519 O   0  0  0  0  0  0  0  0  0  0  0  0
    1.4751   -6.3646   -3.1946 C   0  0  0  0  0  0  0  0  0  0  0  0
    2.2765   -7.0687   -2.9186 H   0  0  0  0  0  0  0  0  0  0  0  0
    0.7988   -6.9360   -3.8504 H   0  0  0  0  0  0  0  0  0  0  0  0
    1.9556   -5.6216   -3.8511 H   0  0  0  0  0  0  0  0  0  0  0  0
    1.3322   -4.6359   -1.5106 N   0  0  0  0  0  0  0  0  0  0  0  0
    0.8124   -3.9290   -0.3698 C   0  0  2  0  0  0  0  0  0  0  0  0
    1.0666   -2.4424   -0.5818 C   0  0  0  0  0  0  0  0  0  0  0  0
    2.0598   -2.0076   -1.1610 O   0  0  0  0  0  0  0  0  0  0  0  0
    1.4560   -4.4118    0.9207 C   0  0  0  0  0  0  0  0  0  0  0  0
    2.1528   -4.2578   -1.9805 H   0  0  0  0  0  0  0  0  0  0  0  0
   -0.2667   -4.1160   -0.3467 H   0  0  0  0  0  0  0  0  0  0  0  0
    2.5374   -4.2329    0.9160 H   0  0  0  0  0  0  0  0  0  0  0  0
    1.0390   -3.8932    1.7903 H   0  0  0  0  0  0  0  0  0  0  0  0
    1.2976   -5.4871    1.0566 H   0  0  0  0  0  0  0  0  0  0  0  0
    0.0755   -1.6529   -0.0105 N   0  0  0  0  0  0  0  0  0  0  0  0
    0.1113   -0.2132   -0.0391 C   0  0  2  0  0  0  0  0  0  0  0  0
   -1.2828    0.2724   -0.4215 C   0  0  0  0  0  0  0  0  0  0  0  0
   -1.5198    1.4326   -0.7513 O   0  0  0  0  0  0  0  0  0  0  0  0
    1.1533    0.3173   -1.0292 C   0  0  0  0  0  0  0  0  0  0  0  0
    2.5884   -0.0038   -0.5949 C   0  0  0  0  0  0  0  0  0  0  0  0
    3.6212    0.5265   -1.5839 C   0  0  0  0  0  0  0  0  0  0  0  0
    4.9861    0.1983   -1.1786 N   0  3  0  0  0  0  0  0  0  0  0  0
    6.0966    0.5261   -1.9586 C   0  0  0  0  0  0  0  0  0  0  0  0
    7.3673    0.1820   -1.5096 N   0  0  0  0  0  0  0  0  0  0  0  0
    5.9634    1.1892   -3.1741 N   0  0  0  0  0  0  0  0  0  0  0  0
   -0.7323   -2.1024    0.4149 H   0  0  0  0  0  0  0  0  0  0  0  0
    0.3386    0.1192    0.9802 H   0  0  0  0  0  0  0  0  0  0  0  0
    1.0399    1.4032   -1.1317 H   0  0  0  0  0  0  0  0  0  0  0  0
    0.9703   -0.1083   -2.0248 H   0  0  0  0  0  0  0  0  0  0  0  0
    2.7769    0.4249    0.3967 H   0  0  0  0  0  0  0  0  0  0  0  0
    2.7135   -1.0895   -0.5118 H   0  0  0  0  0  0  0  0  0  0  0  0
    3.4564    0.0737   -2.5665 H   0  0  0  0  0  0  0  0  0  0  0  0
    3.5475    1.6140   -1.6807 H   0  0  0  0  0  0  0  0  0  0  0  0
    5.1464   -0.2871   -0.2977 H   0  0  0  0  0  0  0  0  0  0  0  0
    8.1970    0.4064   -2.0537 H   0  0  0  0  0  0  0  0  0  0  0  0
    7.5005   -0.3033   -0.6258 H   0  0  0  0  0  0  0  0  0  0  0  0
    6.7688    1.4302   -3.7459 H   0  0  0  0  0  0  0  0  0  0  0  0
    5.0468    1.4530   -3.5278 H   0  0  0  0  0  0  0  0  0  0  0  0
   -2.2357   -0.7297   -0.3031 N   0  0  0  0  0  0  0  0  0  0  0  0
   -3.6408   -0.5129   -0.5604 C   0  0  2  0  0  0  0  0  0  0  0  0
   -4.4347   -1.4255    0.3650 C   0  0  0  0  0  0  0  0  0  0  0  0
   -4.0470   -2.5431    0.6994 O   0  0  0  0  0  0  0  0  0  0  0  0
   -3.9848   -0.7833   -2.0168 C   0  0  0  0  0  0  0  0  0  0  0  0
   -1.9421   -1.6698   -0.0546 H   0  0  0  0  0  0  0  0  0  0  0  0
   -3.8504    0.5330   -0.3107 H   0  0  0  0  0  0  0  0  0  0  0  0
   -3.7815   -1.8264   -2.2855 H   0  0  0  0  0  0  0  0  0  0  0  0
   -5.0441   -0.5911   -2.2166 H   0  0  0  0  0  0  0  0  0  0  0  0
   -3.3913   -0.1470   -2.6821 H   0  0  0  0  0  0  0  0  0  0  0  0
   -5.6470   -0.8628    0.7389 N   0  0  0  0  0  0  0  0  0  0  0  0
   -6.5993   -1.5501    1.5795 C   0  0  0  0  0  0  0  0  0  0  0  0
   -5.8690    0.0846    0.4478 H   0  0  0  0  0  0  0  0  0  0  0  0
   -7.3180   -2.0956    0.9502 H   0  0  0  0  0  0  0  0  0  0  0  0
   -6.0683   -2.2608    2.2298 H   0  0  0  0  0  0  0  0  0  0  0  0
   -7.1371   -0.8174    2.1992 H   0  0  0  0  0  0  0  0  0  0  0  0
  1  3  1  0  0  0  0
  1  7  1  0  0  0  0
  1  2  2  0  0  0  0
 42 43  1  0  0  0  0
 43 51  1  0  0  0  0
 43 44  2  0  0  0  0
  8  9  1  0  0  0  0
  9 17  1  0  0  0  0
  9 10  2  0  0  0  0
 18 19  1  0  0  0  0
 19 41  1  0  0  0  0
 19 20  2  0  0  0  0
 25 26  1  0  0  0  0
 25 27  1  0  0  0  0
 24 25  2  0  0  0  0
 42 45  1  0  0  0  0
  8 11  1  0  0  0  0
 51 52  1  0  0  0  0
 21 22  1  0  0  0  0
 22 23  1  0  0  0  0
 18 21  1  0  0  0  0
 23 24  1  0  0  0  0
 41 42  1  0  0  0  0
  7  8  1  0  0  0  0
 17 18  1  0  0  0  0
  3  4  1  0  0  0  0
  3  5  1  0  0  0  0
  3  6  1  0  0  0  0
 45 48  1  0  0  0  0
 45 49  1  0  0  0  0
 45 50  1  0  0  0  0
 11 14  1  0  0  0  0
 11 15  1  0  0  0  0
 11 16  1  0  0  0  0
 52 54  1  0  0  0  0
 52 55  1  0  0  0  0
 52 56  1  0  0  0  0
 22 32  1  0  0  0  0
 22 33  1  0  0  0  0
 21 30  1  0  0  0  0
 21 31  1  0  0  0  0
 23 34  1  0  0  0  0
 23 35  1  0  0  0  0
 42 47  1  0  0  0  0
  8 13  1  0  0  0  0
 18 29  1  0  0  0  0
 26 37  1  0  0  0  0
 26 38  1  0  0  0  0
 27 39  1  0  0  0  0
 27 40  1  0  0  0  0
 51 53  1  0  0  0  0
  7 12  1  0  0  0  0
 41 46  1  0  0  0  0
 17 28  1  0  0  0  0
 24 36  1  0  0  0  0
M  CHG  1  24   1
M  END
$$$$

  -OEChem-05262214473D

 56 55  0     1  0  0  0  0  0999 V2000
    0.7735   -5.8042   -2.0022 C   0  0  0  0  0  0  0  0  0  0  0  0
   -0.2086   -6.3825   -1.5519 O   0  0  0  0  0  0  0  0  0  0  0  0
    1.4751   -6.3646   -3.1946 C   0  0  0  0  0  0  0  0  0  0  0  0
    2.2765   -7.0687   -2.9186 H   0  0  0  0  0  0  0  0  0  0  0  0
    0.7988   -6.9360   -3.8504 H   0  0  0  0  0  0  0  0  0  0  0  0
    1.9556   -5.6216   -3.8511 H   0  0  0  0  0  0  0  0  0  0  0  0
    1.3322   -4.6359   -1.5106 N   0  0  0  0  0  0  0  0  0  0  0  0
    0.8124   -3.9290   -0.3698 C   0  0  2  0  0  0  0  0  0  0  0  0
    1.0666   -2.4424   -0.5818 C   0  0  0  0  0  0  0  0  0  0  0  0
    2.0598   -2.0076   -1.1610 O   0  0  0  0  0  0  0  0  0  0  0  0
    1.4560   -4.4118    0.9207 C   0  0  0  0  0  0  0  0  0  0  0  0
    2.1528   -4.2578   -1.9805 H   0  0  0  0  0  0  0  0  0  0  0  0
   -0.2667   -4.1160   -0.3467 H   0  0  0  0  0  0  0  0  0  0  0  0
    2.5374   -4.2329    0.9160 H   0  0  0  0  0  0  0  0  0  0  0  0
    1.0390   -3.8932    1.7903 H   0  0  0  0  0  0  0  0  0  0  0  0
    1.2976   -5.4871    1.0566 H   0  0  0  0  0  0  0  0  0  0  0  0
    0.0755   -1.6529   -0.0105 N   0  0  0  0  0  0  0  0  0  0  0  0
    0.1113   -0.2132   -0.0391 C   0  0  2  0  0  0  0  0  0  0  0  0
   -1.2828    0.2724   -0.4215 C   0  0  0  0  0  0  0  0  0  0  0  0
   -1.4845    1.3377   -1.0008 O   0  0  0  0  0  0  0  0  0  0  0  0
    1.1533    0.3173   -1.0292 C   0  0  0  0  0  0  0  0  0  0  0  0
    2.5884   -0.0038   -0.5949 C   0  0  0  0  0  0  0  0  0  0  0  0
    3.6212    0.5265   -1.5839 C   0  0  0  0  0  0  0  0  0  0  0  0
    4.9861    0.1983   -1.1786 N   0  3  0  0  0  0  0  0  0  0  0  0
    6.0966    0.5261   -1.9586 C   0  0  0  0  0  0  0  0  0  0  0  0
    7.3673    0.1820   -1.5096 N   0  0  0  0  0  0  0  0  0  0  0  0
    5.9634    1.1892   -3.1741 N   0  0  0  0  0  0  0  0  0  0  0  0
   -0.7323   -2.1024    0.4149 H   0  0  0  0  0  0  0  0  0  0  0  0
    0.3386    0.1192    0.9802 H   0  0  0  0  0  0  0  0  0  0  0  0
    1.0399    1.4032   -1.1317 H   0  0  0  0  0  0  0  0  0  0  0  0
    0.9703   -0.1083   -2.0248 H   0  0  0  0  0  0  0  0  0  0  0  0
    2.7769    0.4249    0.3967 H   0  0  0  0  0  0  0  0  0  0  0  0
    2.7135   -1.0895   -0.5118 H   0  0  0  0  0  0  0  0  0  0  0  0
    3.4564    0.0737   -2.5665 H   0  0  0  0  0  0  0  0  0  0  0  0
    3.5475    1.6140   -1.6807 H   0  0  0  0  0  0  0  0  0  0  0  0
    5.1464   -0.2871   -0.2977 H   0  0  0  0  0  0  0  0  0  0  0  0
    8.1970    0.4064   -2.0537 H   0  0  0  0  0  0  0  0  0  0  0  0
    7.5005   -0.3033   -0.6258 H   0  0  0  0  0  0  0  0  0  0  0  0
    6.7688    1.4302   -3.7459 H   0  0  0  0  0  0  0  0  0  0  0  0
    5.0468    1.4530   -3.5278 H   0  0  0  0  0  0  0  0  0  0  0  0
   -2.2748   -0.6000    0.0041 N   0  0  0  0  0  0  0  0  0  0  0  0
   -3.6833   -0.3449   -0.1920 C   0  0  2  0  0  0  0  0  0  0  0  0
   -4.4394   -0.9538    0.9814 C   0  0  0  0  0  0  0  0  0  0  0  0
   -4.0851   -1.9879    1.5437 O   0  0  0  0  0  0  0  0  0  0  0  0
   -4.1717   -0.9220   -1.5116 C   0  0  0  0  0  0  0  0  0  0  0  0
   -2.0121   -1.4752    0.4477 H   0  0  0  0  0  0  0  0  0  0  0  0
   -3.8117    0.7430   -0.1850 H   0  0  0  0  0  0  0  0  0  0  0  0
   -4.0510   -2.0112   -1.5373 H   0  0  0  0  0  0  0  0  0  0  0  0
   -5.2325   -0.7031   -1.6720 H   0  0  0  0  0  0  0  0  0  0  0  0
   -3.6066   -0.5051   -2.3522 H   0  0  0  0  0  0  0  0  0  0  0  0
   -5.5803   -0.2302    1.2992 N   0  0  0  0  0  0  0  0  0  0  0  0
   -6.4892   -0.6286    2.3485 C   0  0  0  0  0  0  0  0  0  0  0  0
   -5.7753    0.6368    0.8071 H   0  0  0  0  0  0  0  0  0  0  0  0
   -7.2906   -1.2508    1.9234 H   0  0  0  0  0  0  0  0  0  0  0  0
   -5.9415   -1.2052    3.1085 H   0  0  0  0  0  0  0  0  0  0  0  0
   -6.9278    0.2668    2.8131 H   0  0  0  0  0  0  0  0  0  0  0  0
  1  3  1  0  0  0  0
  1  7  1  0  0  0  0
  1  2  2  0  0  0  0
 42 43  1  0  0  0  0
 43 51  1  0  0  0  0
 43 44  2  0  0  0  0
  8  9  1  0  0  0  0
  9 17  1  0  0  0  0
  9 10  2  0  0  0  0
 18 19  1  0  0  0  0
 19 41  1  0  0  0  0
 19 20  2  0  0  0  0
 25 26  1  0  0  0  0
 25 27  1  0  0  0  0
 24 25  2  0  0  0  0
 42 45  1  0  0  0  0
  8 11  1  0  0  0  0
 51 52  1  0  0  0  0
 21 22  1  0  0  0  0
 22 23  1  0  0  0  0
 18 21  1  0  0  0  0
 23 24  1  0  0  0  0
 41 42  1  0  0  0  0
  7  8  1  0  0  0  0
 17 18  1  0  0  0  0
  3  4  1  0  0  0  0
  3  5  1  0  0  0  0
  3  6  1  0  0  0  0
 45 48  1  0  0  0  0
 45 49  1  0  0  0  0
 45 50  1  0  0  0  0
 11 14  1  0  0  0  0
 11 15  1  0  0  0  0
 11 16  1  0  0  0  0
 52 54  1  0  0  0  0
 52 55  1  0  0  0  0
 52 56  1  0  0  0  0
 22 32  1  0  0  0  0
 22 33  1  0  0  0  0
 21 30  1  0  0  0  0
 21 31  1  0  0  0  0
 23 34  1  0  0  0  0
 23 35  1  0  0  0  0
 42 47  1  0  0  0  0
  8 13  1  0  0  0  0
 18 29  1  0  0  0  0
 26 37  1  0  0  0  0
 26 38  1  0  0  0  0
 27 39  1  0  0  0  0
 27 40  1  0  0  0  0
 51 53  1  0  0  0  0
  7 12  1  0  0  0  0
 41 46  1  0  0  0  0
 17 28  1  0  0  0  0
 24 36  1  0  0  0  0
M  CHG  1  24   1
M  END
$$$$

  -OEChem-05262214473D

 56 55  0     1  0  0  0  0  0999 V2000
    0.7735   -5.8042   -2.0022 C   0  0  0  0  0  0  0  0  0  0  0  0
   -0.2086   -6.3825   -1.5519 O   0  0  0  0  0  0  0  0  0  0  0  0
    1.4751   -6.3646   -3.1946 C   0  0  0  0  0  0  0  0  0  0  0  0
    2.2765   -7.0687   -2.9186 H   0  0  0  0  0  0  0  0  0  0  0  0
    0.7988   -6.9360   -3.8504 H   0  0  0  0  0  0  0  0  0  0  0  0
    1.9556   -5.6216   -3.8511 H   0  0  0  0  0  0  0  0  0  0  0  0
    1.3322   -4.6359   -1.5106 N   0  0  0  0  0  0  0  0  0  0  0  0
    0.8124   -3.9290   -0.3698 C   0  0  2  0  0  0  0  0  0  0  0  0
    1.0666   -2.4424   -0.5818 C   0  0  0  0  0  0  0  0  0  0  0  0
    2.0598   -2.0076   -1.1610 O   0  0  0  0  0  0  0  0  0  0  0  0
    1.4560   -4.4118    0.9207 C   0  0  0  0  0  0  0  0  0  0  0  0
    2.1528   -4.2578   -1.9805 H   0  0  0  0  0  0  0  0  0  0  0  0
   -0.2667   -4.1160   -0.3467 H   0  0  0  0  0  0  0  0  0  0  0  0
    2.5374   -4.2329    0.9160 H   0  0  0  0  0  0  0  0  0  0  0  0
    1.0390   -3.8932    1.7903 H   0  0  0  0  0  0  0  0  0  0  0  0
    1.2976   -5.4871    1.0566 H   0  0  0  0  0  0  0  0  0  0  0  0
    0.0755   -1.6529   -0.0105 N   0  0  0  0  0  0  0  0  0  0  0  0
    0.1113   -0.2132   -0.0391 C   0  0  2  0  0  0  0  0  0  0  0  0
   -1.2828    0.2724   -0.4215 C   0  0  0  0  0  0  0  0  0  0  0  0
   -1.4770    1.1847   -1.2222 O   0  0  0  0  0  0  0  0  0  0  0  0
    1.1533    0.3173   -1.0292 C   0  0  0  0  0  0  0  0  0  0  0  0
    2.5884   -0.0038   -0.5949 C   0  0  0  0  0  0  0  0  0  0  0  0
    3.6212    0.5265   -1.5839 C   0  0  0  0  0  0  0  0  0  0  0  0
    4.9861    0.1983   -1.1786 N   0  3  0  0  0  0  0  0  0  0  0  0
    6.0966    0.5261   -1.9586 C   0  0  0  0  0  0  0  0  0  0  0  0
    7.3673    0.1820   -1.5096 N   0  0  0  0  0  0  0  0  0  0  0  0
    5.9634    1.1892   -3.1741 N   0  0  0  0  0  0  0  0  0  0  0  0
   -0.7323   -2.1024    0.4149 H   0  0  0  0  0  0  0  0  0  0  0  0
    0.3386    0.1192    0.9802 H   0  0  0  0  0  0  0  0  0  0  0  0
    1.0399    1.4032   -1.1317 H   0  0  0  0  0  0  0  0  0  0  0  0
    0.9703   -0.1083   -2.0248 H   0  0  0  0  0  0  0  0  0  0  0  0
    2.7769    0.4249    0.3967 H   0  0  0  0  0  0  0  0  0  0  0  0
    2.7135   -1.0895   -0.5118 H   0  0  0  0  0  0  0  0  0  0  0  0
    3.4564    0.0737   -2.5665 H   0  0  0  0  0  0  0  0  0  0  0  0
    3.5475    1.6140   -1.6807 H   0  0  0  0  0  0  0  0  0  0  0  0
    5.1464   -0.2871   -0.2977 H   0  0  0  0  0  0  0  0  0  0  0  0
    8.1970    0.4064   -2.0537 H   0  0  0  0  0  0  0  0  0  0  0  0
    7.5005   -0.3033   -0.6258 H   0  0  0  0  0  0  0  0  0  0  0  0
    6.7688    1.4302   -3.7459 H   0  0  0  0  0  0  0  0  0  0  0  0
    5.0468    1.4530   -3.5278 H   0  0  0  0  0  0  0  0  0  0  0  0
   -2.2788   -0.3996    0.2733 N   0  0  0  0  0  0  0  0  0  0  0  0
   -3.6831   -0.0928    0.1275 C   0  0  2  0  0  0  0  0  0  0  0  0
   -4.3626   -0.3520    1.4656 C   0  0  0  0  0  0  0  0  0  0  0  0
   -4.0164   -1.2495    2.2310 O   0  0  0  0  0  0  0  0  0  0  0  0
   -4.3195   -0.9243   -0.9754 C   0  0  0  0  0  0  0  0  0  0  0  0
   -2.0256   -1.1638    0.8926 H   0  0  0  0  0  0  0  0  0  0  0  0
   -3.7503    0.9730   -0.1165 H   0  0  0  0  0  0  0  0  0  0  0  0
   -4.2617   -1.9951   -0.7486 H   0  0  0  0  0  0  0  0  0  0  0  0
   -5.3769   -0.6703   -1.1039 H   0  0  0  0  0  0  0  0  0  0  0  0
   -3.8105   -0.7591   -1.9311 H   0  0  0  0  0  0  0  0  0  0  0  0
   -5.4286    0.5092    1.6851 N   0  0  0  0  0  0  0  0  0  0  0  0
   -6.2597    0.4363    2.8641 C   0  0  0  0  0  0  0  0  0  0  0  0
   -5.6192    1.2491    1.0158 H   0  0  0  0  0  0  0  0  0  0  0  0
   -7.1291   -0.2063    2.6613 H   0  0  0  0  0  0  0  0  0  0  0  0
   -5.6782    0.0142    3.6970 H   0  0  0  0  0  0  0  0  0  0  0  0
   -6.6046    1.4458    3.1323 H   0  0  0  0  0  0  0  0  0  0  0  0
  1  3  1  0  0  0  0
  1  7  1  0  0  0  0
  1  2  2  0  0  0  0
 42 43  1  0  0  0  0
 43 51  1  0  0  0  0
 43 44  2  0  0  0  0
  8  9  1  0  0  0  0
  9 17  1  0  0  0  0
  9 10  2  0  0  0  0
 18 19  1  0  0  0  0
 19 41  1  0  0  0  0
 19 20  2  0  0  0  0
 25 26  1  0  0  0  0
 25 27  1  0  0  0  0
 24 25  2  0  0  0  0
 42 45  1  0  0  0  0
  8 11  1  0  0  0  0
 51 52  1  0  0  0  0
 21 22  1  0  0  0  0
 22 23  1  0  0  0  0
 18 21  1  0  0  0  0
 23 24  1  0  0  0  0
 41 42  1  0  0  0  0
  7  8  1  0  0  0  0
 17 18  1  0  0  0  0
  3  4  1  0  0  0  0
  3  5  1  0  0  0  0
  3  6  1  0  0  0  0
 45 48  1  0  0  0  0
 45 49  1  0  0  0  0
 45 50  1  0  0  0  0
 11 14  1  0  0  0  0
 11 15  1  0  0  0  0
 11 16  1  0  0  0  0
 52 54  1  0  0  0  0
 52 55  1  0  0  0  0
 52 56  1  0  0  0  0
 22 32  1  0  0  0  0
 22 33  1  0  0  0  0
 21 30  1  0  0  0  0
 21 31  1  0  0  0  0
 23 34  1  0  0  0  0
 23 35  1  0  0  0  0
 42 47  1  0  0  0  0
  8 13  1  0  0  0  0
 18 29  1  0  0  0  0
 26 37  1  0  0  0  0
 26 38  1  0  0  0  0
 27 39  1  0  0  0  0
 27 40  1  0  0  0  0
 51 53  1  0  0  0  0
  7 12  1  0  0  0  0
 41 46  1  0  0  0  0
 17 28  1  0  0  0  0
 24 36  1  0  0  0  0
M  CHG  1  24   1
M  END
$$$$

  -OEChem-05262214473D

 56 55  0     1  0  0  0  0  0999 V2000
    0.7735   -5.8042   -2.0022 C   0  0  0  0  0  0  0  0  0  0  0  0
   -0.2086   -6.3825   -1.5519 O   0  0  0  0  0  0  0  0  0  0  0  0
    1.4751   -6.3646   -3.1946 C   0  0  0  0  0  0  0  0  0  0  0  0
    2.2765   -7.0687   -2.9186 H   0  0  0  0  0  0  0  0  0  0  0  0
    0.7988   -6.9360   -3.8504 H   0  0  0  0  0  0  0  0  0  0  0  0
    1.9556   -5.6216   -3.8511 H   0  0  0  0  0  0  0  0  0  0  0  0
    1.3322   -4.6359   -1.5106 N   0  0  0  0  0  0  0  0  0  0  0  0
    0.8124   -3.9290   -0.3698 C   0  0  2  0  0  0  0  0  0  0  0  0
    1.0666   -2.4424   -0.5818 C   0  0  0  0  0  0  0  0  0  0  0  0
    2.0598   -2.0076   -1.1610 O   0  0  0  0  0  0  0  0  0  0  0  0
    1.4560   -4.4118    0.9207 C   0  0  0  0  0  0  0  0  0  0  0  0
    2.1528   -4.2578   -1.9805 H   0  0  0  0  0  0  0  0  0  0  0  0
   -0.2667   -4.1160   -0.3467 H   0  0  0  0  0  0  0  0  0  0  0  0
    2.5374   -4.2329    0.9160 H   0  0  0  0  0  0  0  0  0  0  0  0
    1.0390   -3.8932    1.7903 H   0  0  0  0  0  0  0  0  0  0  0  0
    1.2976   -5.4871    1.0566 H   0  0  0  0  0  0  0  0  0  0  0  0
    0.0755   -1.6529   -0.0105 N   0  0  0  0  0  0  0  0  0  0  0  0
    0.1113   -0.2132   -0.0391 C   0  0  2  0  0  0  0  0  0  0  0  0
   -1.2828    0.2724   -0.4215 C   0  0  0  0  0  0  0  0  0  0  0  0
   -1.4981    0.9840   -1.4005 O   0  0  0  0  0  0  0  0  0  0  0  0
    1.1533    0.3173   -1.0292 C   0  0  0  0  0  0  0  0  0  0  0  0
    2.5884   -0.0038   -0.5949 C   0  0  0  0  0  0  0  0  0  0  0  0
    3.6212    0.5265   -1.5839 C   0  0  0  0  0  0  0  0  0  0  0  0
    4.9861    0.1983   -1.1786 N   0  3  0  0  0  0  0  0  0  0  0  0
    6.0966    0.5261   -1.9586 C   0  0  0  0  0  0  0  0  0  0  0  0
    7.3673    0.1820   -1.5096 N   0  0  0  0  0  0  0  0  0  0  0  0
    5.9634    1.1892   -3.1741 N   0  0  0  0  0  0  0  0  0  0  0  0
   -0.7323   -2.1024    0.4149 H   0  0  0  0  0  0  0  0  0  0  0  0
    0.3386    0.1192    0.9802 H   0  0  0  0  0  0  0  0  0  0  0  0
    1.0399    1.4032   -1.1317 H   0  0  0  0  0  0  0  0  0  0  0  0
    0.9703   -0.1083   -2.0248 H   0  0  0  0  0  0  0  0  0  0  0  0
    2.7769    0.4249    0.3967 H   0  0  0  0  0  0  0  0  0  0  0  0
    2.7135   -1.0895   -0.5118 H   0  0  0  0  0  0  0  0  0  0  0  0
    3.4564    0.0737   -2.5665 H   0  0  0  0  0  0  0  0  0  0  0  0
    3.5475    1.6140   -1.6807 H   0  0  0  0  0  0  0  0  0  0  0  0
    5.1464   -0.2871   -0.2977 H   0  0  0  0  0  0  0  0  0  0  0  0
    8.1970    0.4064   -2.0537 H   0  0  0  0  0  0  0  0  0  0  0  0
    7.5005   -0.3033   -0.6258 H   0  0  0  0  0  0  0  0  0  0  0  0
    6.7688    1.4302   -3.7459 H   0  0  0  0  0  0  0  0  0  0  0  0
    5.0468    1.4530   -3.5278 H   0  0  0  0  0  0  0  0  0  0  0  0
   -2.2475   -0.1420    0.4863 N   0  0  0  0  0  0  0  0  0  0  0  0
   -3.6402    0.2264    0.3764 C   0  0  2  0  0  0  0  0  0  0  0  0
   -4.2094    0.3389    1.7846 C   0  0  0  0  0  0  0  0  0  0  0  0
   -3.8454   -0.3780    2.7145 O   0  0  0  0  0  0  0  0  0  0  0  0
   -4.4183   -0.7900   -0.4447 C   0  0  0  0  0  0  0  0  0  0  0  0
   -1.9818   -0.7570    1.2498 H   0  0  0  0  0  0  0  0  0  0  0  0
   -3.6705    1.2075   -0.1098 H   0  0  0  0  0  0  0  0  0  0  0  0
   -4.3992   -1.7794    0.0268 H   0  0  0  0  0  0  0  0  0  0  0  0
   -5.4673   -0.4947   -0.5510 H   0  0  0  0  0  0  0  0  0  0  0  0
   -3.9893   -0.8915   -1.4474 H   0  0  0  0  0  0  0  0  0  0  0  0
   -5.2023    1.3048    1.8705 N   0  0  0  0  0  0  0  0  0  0  0  0
   -5.9263    1.5721    3.0913 C   0  0  0  0  0  0  0  0  0  0  0  0
   -5.4116    1.8797    1.0597 H   0  0  0  0  0  0  0  0  0  0  0  0
   -6.8445    0.9667    3.1137 H   0  0  0  0  0  0  0  0  0  0  0  0
   -5.2962    1.3142    3.9552 H   0  0  0  0  0  0  0  0  0  0  0  0
   -6.1897    2.6392    3.1351 H   0  0  0  0  0  0  0  0  0  0  0  0
  1  3  1  0  0  0  0
  1  7  1  0  0  0  0
  1  2  2  0  0  0  0
 42 43  1  0  0  0  0
 43 51  1  0  0  0  0
 43 44  2  0  0  0  0
  8  9  1  0  0  0  0
  9 17  1  0  0  0  0
  9 10  2  0  0  0  0
 18 19  1  0  0  0  0
 19 41  1  0  0  0  0
 19 20  2  0  0  0  0
 25 26  1  0  0  0  0
 25 27  1  0  0  0  0
 24 25  2  0  0  0  0
 42 45  1  0  0  0  0
  8 11  1  0  0  0  0
 51 52  1  0  0  0  0
 21 22  1  0  0  0  0
 22 23  1  0  0  0  0
 18 21  1  0  0  0  0
 23 24  1  0  0  0  0
 41 42  1  0  0  0  0
  7  8  1  0  0  0  0
 17 18  1  0  0  0  0
  3  4  1  0  0  0  0
  3  5  1  0  0  0  0
  3  6  1  0  0  0  0
 45 48  1  0  0  0  0
 45 49  1  0  0  0  0
 45 50  1  0  0  0  0
 11 14  1  0  0  0  0
 11 15  1  0  0  0  0
 11 16  1  0  0  0  0
 52 54  1  0  0  0  0
 52 55  1  0  0  0  0
 52 56  1  0  0  0  0
 22 32  1  0  0  0  0
 22 33  1  0  0  0  0
 21 30  1  0  0  0  0
 21 31  1  0  0  0  0
 23 34  1  0  0  0  0
 23 35  1  0  0  0  0
 42 47  1  0  0  0  0
  8 13  1  0  0  0  0
 18 29  1  0  0  0  0
 26 37  1  0  0  0  0
 26 38  1  0  0  0  0
 27 39  1  0  0  0  0
 27 40  1  0  0  0  0
 51 53  1  0  0  0  0
  7 12  1  0  0  0  0
 41 46  1  0  0  0  0
 17 28  1  0  0  0  0
 24 36  1  0  0  0  0
M  CHG  1  24   1
M  END
$$$$

  -OEChem-05262214473D

 56 55  0     1  0  0  0  0  0999 V2000
    0.7735   -5.8042   -2.0022 C   0  0  0  0  0  0  0  0  0  0  0  0
   -0.2086   -6.3825   -1.5519 O   0  0  0  0  0  0  0  0  0  0  0  0
    1.4751   -6.3646   -3.1946 C   0  0  0  0  0  0  0  0  0  0  0  0
    2.2765   -7.0687   -2.9186 H   0  0  0  0  0  0  0  0  0  0  0  0
    0.7988   -6.9360   -3.8504 H   0  0  0  0  0  0  0  0  0  0  0  0
    1.9556   -5.6216   -3.8511 H   0  0  0  0  0  0  0  0  0  0  0  0
    1.3322   -4.6359   -1.5106 N   0  0  0  0  0  0  0  0  0  0  0  0
    0.8124   -3.9290   -0.3698 C   0  0  2  0  0  0  0  0  0  0  0  0
    1.0666   -2.4424   -0.5818 C   0  0  0  0  0  0  0  0  0  0  0  0
    2.0598   -2.0076   -1.1610 O   0  0  0  0  0  0  0  0  0  0  0  0
    1.4560   -4.4118    0.9207 C   0  0  0  0  0  0  0  0  0  0  0  0
    2.1528   -4.2578   -1.9805 H   0  0  0  0  0  0  0  0  0  0  0  0
   -0.2667   -4.1160   -0.3467 H   0  0  0  0  0  0  0  0  0  0  0  0
    2.5374   -4.2329    0.9160 H   0  0  0  0  0  0  0  0  0  0  0  0
    1.0390   -3.8932    1.7903 H   0  0  0  0  0  0  0  0  0  0  0  0
    1.2976   -5.4871    1.0566 H   0  0  0  0  0  0  0  0  0  0  0  0
    0.0755   -1.6529   -0.0105 N   0  0  0  0  0  0  0  0  0  0  0  0
    0.1113   -0.2132   -0.0391 C   0  0  2  0  0  0  0  0  0  0  0  0
   -1.2828    0.2724   -0.4215 C   0  0  0  0  0  0  0  0  0  0  0  0
   -1.5461    0.7493   -1.5235 O   0  0  0  0  0  0  0  0  0  0  0  0
    1.1533    0.3173   -1.0292 C   0  0  0  0  0  0  0  0  0  0  0  0
    2.5884   -0.0038   -0.5949 C   0  0  0  0  0  0  0  0  0  0  0  0
    3.6212    0.5265   -1.5839 C   0  0  0  0  0  0  0  0  0  0  0  0
    4.9861    0.1983   -1.1786 N   0  3  0  0  0  0  0  0  0  0  0  0
    6.0966    0.5261   -1.9586 C   0  0  0  0  0  0  0  0  0  0  0  0
    7.3673    0.1820   -1.5096 N   0  0  0  0  0  0  0  0  0  0  0  0
    5.9634    1.1892   -3.1741 N   0  0  0  0  0  0  0  0  0  0  0  0
   -0.7323   -2.1024    0.4149 H   0  0  0  0  0  0  0  0  0  0  0  0
    0.3386    0.1192    0.9802 H   0  0  0  0  0  0  0  0  0  0  0  0
    1.0399    1.4032   -1.1317 H   0  0  0  0  0  0  0  0  0  0  0  0
    0.9703   -0.1083   -2.0248 H   0  0  0  0  0  0  0  0  0  0  0  0
    2.7769    0.4249    0.3967 H   0  0  0  0  0  0  0  0  0  0  0  0
    2.7135   -1.0895   -0.5118 H   0  0  0  0  0  0  0  0  0  0  0  0
    3.4564    0.0737   -2.5665 H   0  0  0  0  0  0  0  0  0  0  0  0
    3.5475    1.6140   -1.6807 H   0  0  0  0  0  0  0  0  0  0  0  0
    5.1464   -0.2871   -0.2977 H   0  0  0  0  0  0  0  0  0  0  0  0
    8.1970    0.4064   -2.0537 H   0  0  0  0  0  0  0  0  0  0  0  0
    7.5005   -0.3033   -0.6258 H   0  0  0  0  0  0  0  0  0  0  0  0
    6.7688    1.4302   -3.7459 H   0  0  0  0  0  0  0  0  0  0  0  0
    5.0468    1.4530   -3.5278 H   0  0  0  0  0  0  0  0  0  0  0  0
   -2.1830    0.1552    0.6284 N   0  0  0  0  0  0  0  0  0  0  0  0
   -3.5576    0.5907    0.5378 C   0  0  2  0  0  0  0  0  0  0  0  0
   -3.9903    1.0717    1.9166 C   0  0  0  0  0  0  0  0  0  0  0  0
   -3.5839    0.5671    2.9612 O   0  0  0  0  0  0  0  0  0  0  0  0
   -4.4612   -0.5284    0.0442 C   0  0  0  0  0  0  0  0  0  0  0  0
   -1.8837   -0.2823    1.4949 H   0  0  0  0  0  0  0  0  0  0  0  0
   -3.5776    1.4304   -0.1654 H   0  0  0  0  0  0  0  0  0  0  0  0
   -4.4541   -1.3786    0.7361 H   0  0  0  0  0  0  0  0  0  0  0  0
   -5.4978   -0.1885   -0.0511 H   0  0  0  0  0  0  0  0  0  0  0  0
   -4.1307   -0.8933   -0.9342 H   0  0  0  0  0  0  0  0  0  0  0  0
   -4.9168    2.1024    1.8427 N   0  0  0  0  0  0  0  0  0  0  0  0
   -5.5120    2.7012    3.0145 C   0  0  0  0  0  0  0  0  0  0  0  0
   -5.1665    2.4858    0.9358 H   0  0  0  0  0  0  0  0  0  0  0  0
   -6.4563    2.1884    3.2496 H   0  0  0  0  0  0  0  0  0  0  0  0
   -4.8215    2.6062    3.8655 H   0  0  0  0  0  0  0  0  0  0  0  0
   -5.7112    3.7656    2.8211 H   0  0  0  0  0  0  0  0  0  0  0  0
  1  3  1  0  0  0  0
  1  7  1  0  0  0  0
  1  2  2  0  0  0  0
 42 43  1  0  0  0  0
 43 51  1  0  0  0  0
 43 44  2  0  0  0  0
  8  9  1  0  0  0  0
  9 17  1  0  0  0  0
  9 10  2  0  0  0  0
 18 19  1  0  0  0  0
 19 41  1  0  0  0  0
 19 20  2  0  0  0  0
 25 26  1  0  0  0  0
 25 27  1  0  0  0  0
 24 25  2  0  0  0  0
 42 45  1  0  0  0  0
  8 11  1  0  0  0  0
 51 52  1  0  0  0  0
 21 22  1  0  0  0  0
 22 23  1  0  0  0  0
 18 21  1  0  0  0  0
 23 24  1  0  0  0  0
 41 42  1  0  0  0  0
  7  8  1  0  0  0  0
 17 18  1  0  0  0  0
  3  4  1  0  0  0  0
  3  5  1  0  0  0  0
  3  6  1  0  0  0  0
 45 48  1  0  0  0  0
 45 49  1  0  0  0  0
 45 50  1  0  0  0  0
 11 14  1  0  0  0  0
 11 15  1  0  0  0  0
 11 16  1  0  0  0  0
 52 54  1  0  0  0  0
 52 55  1  0  0  0  0
 52 56  1  0  0  0  0
 22 32  1  0  0  0  0
 22 33  1  0  0  0  0
 21 30  1  0  0  0  0
 21 31  1  0  0  0  0
 23 34  1  0  0  0  0
 23 35  1  0  0  0  0
 42 47  1  0  0  0  0
  8 13  1  0  0  0  0
 18 29  1  0  0  0  0
 26 37  1  0  0  0  0
 26 38  1  0  0  0  0
 27 39  1  0  0  0  0
 27 40  1  0  0  0  0
 51 53  1  0  0  0  0
  7 12  1  0  0  0  0
 41 46  1  0  0  0  0
 17 28  1  0  0  0  0
 24 36  1  0  0  0  0
M  CHG  1  24   1
M  END
$$$$

  -OEChem-05262214473D

 56 55  0     1  0  0  0  0  0999 V2000
    0.7735   -5.8042   -2.0022 C   0  0  0  0  0  0  0  0  0  0  0  0
   -0.2086   -6.3825   -1.5519 O   0  0  0  0  0  0  0  0  0  0  0  0
    1.4751   -6.3646   -3.1946 C   0  0  0  0  0  0  0  0  0  0  0  0
    2.2765   -7.0687   -2.9186 H   0  0  0  0  0  0  0  0  0  0  0  0
    0.7988   -6.9360   -3.8504 H   0  0  0  0  0  0  0  0  0  0  0  0
    1.9556   -5.6216   -3.8511 H   0  0  0  0  0  0  0  0  0  0  0  0
    1.3322   -4.6359   -1.5106 N   0  0  0  0  0  0  0  0  0  0  0  0
    0.8124   -3.9290   -0.3698 C   0  0  2  0  0  0  0  0  0  0  0  0
    1.0666   -2.4424   -0.5818 C   0  0  0  0  0  0  0  0  0  0  0  0
    2.0598   -2.0076   -1.1610 O   0  0  0  0  0  0  0  0  0  0  0  0
    1.4560   -4.4118    0.9207 C   0  0  0  0  0  0  0  0  0  0  0  0
    2.1528   -4.2578   -1.9805 H   0  0  0  0  0  0  0  0  0  0  0  0
   -0.2667   -4.1160   -0.3467 H   0  0  0  0  0  0  0  0  0  0  0  0
    2.5374   -4.2329    0.9160 H   0  0  0  0  0  0  0  0  0  0  0  0
    1.0390   -3.8932    1.7903 H   0  0  0  0  0  0  0  0  0  0  0  0
    1.2976   -5.4871    1.0566 H   0  0  0  0  0  0  0  0  0  0  0  0
    0.0755   -1.6529   -0.0105 N   0  0  0  0  0  0  0  0  0  0  0  0
    0.1113   -0.2132   -0.0391 C   0  0  2  0  0  0  0  0  0  0  0  0
   -1.2828    0.2724   -0.4215 C   0  0  0  0  0  0  0  0  0  0  0  0
   -1.6178    0.4967   -1.5828 O   0  0  0  0  0  0  0  0  0  0  0  0
    1.1533    0.3173   -1.0292 C   0  0  0  0  0  0  0  0  0  0  0  0
    2.5884   -0.0038   -0.5949 C   0  0  0  0  0  0  0  0  0  0  0  0
    3.6212    0.5265   -1.5839 C   0  0  0  0  0  0  0  0  0  0  0  0
    4.9861    0.1983   -1.1786 N   0  3  0  0  0  0  0  0  0  0  0  0
    6.0966    0.5261   -1.9586 C   0  0  0  0  0  0  0  0  0  0  0  0
    7.3673    0.1820   -1.5096 N   0  0  0  0  0  0  0  0  0  0  0  0
    5.9634    1.1892   -3.1741 N   0  0  0  0  0  0  0  0  0  0  0  0
   -0.7323   -2.1024    0.4149 H   0  0  0  0  0  0  0  0  0  0  0  0
    0.3386    0.1192    0.9802 H   0  0  0  0  0  0  0  0  0  0  0  0
    1.0399    1.4032   -1.1317 H   0  0  0  0  0  0  0  0  0  0  0  0
    0.9703   -0.1083   -2.0248 H   0  0  0  0  0  0  0  0  0  0  0  0
    2.7769    0.4249    0.3967 H   0  0  0  0  0  0  0  0  0  0  0  0
    2.7135   -1.0895   -0.5118 H   0  0  0  0  0  0  0  0  0  0  0  0
    3.4564    0.0737   -2.5665 H   0  0  0  0  0  0  0  0  0  0  0  0
    3.5475    1.6140   -1.6807 H   0  0  0  0  0  0  0  0  0  0  0  0
    5.1464   -0.2871   -0.2977 H   0  0  0  0  0  0  0  0  0  0  0  0
    8.1970    0.4064   -2.0537 H   0  0  0  0  0  0  0  0  0  0  0  0
    7.5005   -0.3033   -0.6258 H   0  0  0  0  0  0  0  0  0  0  0  0
    6.7688    1.4302   -3.7459 H   0  0  0  0  0  0  0  0  0  0  0  0
    5.0468    1.4530   -3.5278 H   0  0  0  0  0  0  0  0  0  0  0  0
   -2.0896    0.4717    0.6901 N   0  0  0  0  0  0  0  0  0  0  0  0
   -3.4408    0.9755    0.6007 C   0  0  2  0  0  0  0  0  0  0  0  0
   -3.7203    1.7967    1.8526 C   0  0  0  0  0  0  0  0  0  0  0  0
   -3.2496    1.5214    2.9543 O   0  0  0  0  0  0  0  0  0  0  0  0
   -4.4454   -0.1572    0.4581 C   0  0  0  0  0  0  0  0  0  0  0  0
   -1.7379    0.2279    1.6113 H   0  0  0  0  0  0  0  0  0  0  0  0
   -3.4780    1.6265   -0.2795 H   0  0  0  0  0  0  0  0  0  0  0  0
   -4.4227   -0.8200    1.3308 H   0  0  0  0  0  0  0  0  0  0  0  0
   -5.4661    0.2275    0.3619 H   0  0  0  0  0  0  0  0  0  0  0  0
   -4.2251   -0.7645   -0.4264 H   0  0  0  0  0  0  0  0  0  0  0  0
   -4.5916    2.8478    1.6035 N   0  0  0  0  0  0  0  0  0  0  0  0
   -5.0448    3.7469    2.6390 C   0  0  0  0  0  0  0  0  0  0  0  0
   -4.9006    3.0260    0.6525 H   0  0  0  0  0  0  0  0  0  0  0  0
   -5.9908    3.3753    3.0598 H   0  0  0  0  0  0  0  0  0  0  0  0
   -4.2866    3.8021    3.4341 H   0  0  0  0  0  0  0  0  0  0  0  0
   -5.2018    4.7484    2.2120 H   0  0  0  0  0  0  0  0  0  0  0  0
  1  3  1  0  0  0  0
  1  7  1  0  0  0  0
  1  2  2  0  0  0  0
 42 43  1  0  0  0  0
 43 51  1  0  0  0  0
 43 44  2  0  0  0  0
  8  9  1  0  0  0  0
  9 17  1  0  0  0  0
  9 10  2  0  0  0  0
 18 19  1  0  0  0  0
 19 41  1  0  0  0  0
 19 20  2  0  0  0  0
 25 26  1  0  0  0  0
 25 27  1  0  0  0  0
 24 25  2  0  0  0  0
 42 45  1  0  0  0  0
  8 11  1  0  0  0  0
 51 52  1  0  0  0  0
 21 22  1  0  0  0  0
 22 23  1  0  0  0  0
 18 21  1  0  0  0  0
 23 24  1  0  0  0  0
 41 42  1  0  0  0  0
  7  8  1  0  0  0  0
 17 18  1  0  0  0  0
  3  4  1  0  0  0  0
  3  5  1  0  0  0  0
  3  6  1  0  0  0  0
 45 48  1  0  0  0  0
 45 49  1  0  0  0  0
 45 50  1  0  0  0  0
 11 14  1  0  0  0  0
 11 15  1  0  0  0  0
 11 16  1  0  0  0  0
 52 54  1  0  0  0  0
 52 55  1  0  0  0  0
 52 56  1  0  0  0  0
 22 32  1  0  0  0  0
 22 33  1  0  0  0  0
 21 30  1  0  0  0  0
 21 31  1  0  0  0  0
 23 34  1  0  0  0  0
 23 35  1  0  0  0  0
 42 47  1  0  0  0  0
  8 13  1  0  0  0  0
 18 29  1  0  0  0  0
 26 37  1  0  0  0  0
 26 38  1  0  0  0  0
 27 39  1  0  0  0  0
 27 40  1  0  0  0  0
 51 53  1  0  0  0  0
  7 12  1  0  0  0  0
 41 46  1  0  0  0  0
 17 28  1  0  0  0  0
 24 36  1  0  0  0  0
M  CHG  1  24   1
M  END
$$$$

  -OEChem-05262214473D

 56 55  0     1  0  0  0  0  0999 V2000
    0.7735   -5.8042   -2.0022 C   0  0  0  0  0  0  0  0  0  0  0  0
   -0.2086   -6.3825   -1.5519 O   0  0  0  0  0  0  0  0  0  0  0  0
    1.4751   -6.3646   -3.1946 C   0  0  0  0  0  0  0  0  0  0  0  0
    2.2765   -7.0687   -2.9186 H   0  0  0  0  0  0  0  0  0  0  0  0
    0.7988   -6.9360   -3.8504 H   0  0  0  0  0  0  0  0  0  0  0  0
    1.9556   -5.6216   -3.8511 H   0  0  0  0  0  0  0  0  0  0  0  0
    1.3322   -4.6359   -1.5106 N   0  0  0  0  0  0  0  0  0  0  0  0
    0.8124   -3.9290   -0.3698 C   0  0  2  0  0  0  0  0  0  0  0  0
    1.0666   -2.4424   -0.5818 C   0  0  0  0  0  0  0  0  0  0  0  0
    2.0598   -2.0076   -1.1610 O   0  0  0  0  0  0  0  0  0  0  0  0
    1.4560   -4.4118    0.9207 C   0  0  0  0  0  0  0  0  0  0  0  0
    2.1528   -4.2578   -1.9805 H   0  0  0  0  0  0  0  0  0  0  0  0
   -0.2667   -4.1160   -0.3467 H   0  0  0  0  0  0  0  0  0  0  0  0
    2.5374   -4.2329    0.9160 H   0  0  0  0  0  0  0  0  0  0  0  0
    1.0390   -3.8932    1.7903 H   0  0  0  0  0  0  0  0  0  0  0  0
    1.2976   -5.4871    1.0566 H   0  0  0  0  0  0  0  0  0  0  0  0
    0.0755   -1.6529   -0.0105 N   0  0  0  0  0  0  0  0  0  0  0  0
    0.1113   -0.2132   -0.0391 C   0  0  2  0  0  0  0  0  0  0  0  0
   -1.2828    0.2724   -0.4215 C   0  0  0  0  0  0  0  0  0  0  0  0
   -1.7084    0.2433   -1.5744 O   0  0  0  0  0  0  0  0  0  0  0  0
    1.1533    0.3173   -1.0292 C   0  0  0  0  0  0  0  0  0  0  0  0
    2.5884   -0.0038   -0.5949 C   0  0  0  0  0  0  0  0  0  0  0  0
    3.6212    0.5265   -1.5839 C   0  0  0  0  0  0  0  0  0  0  0  0
    4.9861    0.1983   -1.1786 N   0  3  0  0  0  0  0  0  0  0  0  0
    6.0966    0.5261   -1.9586 C   0  0  0  0  0  0  0  0  0  0  0  0
    7.3673    0.1820   -1.5096 N   0  0  0  0  0  0  0  0  0  0  0  0
    5.9634    1.1892   -3.1741 N   0  0  0  0  0  0  0  0  0  0  0  0
   -0.7323   -2.1024    0.4149 H   0  0  0  0  0  0  0  0  0  0  0  0
    0.3386    0.1192    0.9802 H   0  0  0  0  0  0  0  0  0  0  0  0
    1.0399    1.4032   -1.1317 H   0  0  0  0  0  0  0  0  0  0  0  0
    0.9703   -0.1083   -2.0248 H   0  0  0  0  0  0  0  0  0  0  0  0
    2.7769    0.4249    0.3967 H   0  0  0  0  0  0  0  0  0  0  0  0
    2.7135   -1.0895   -0.5118 H   0  0  0  0  0  0  0  0  0  0  0  0
    3.4564    0.0737   -2.5665 H   0  0  0  0  0  0  0  0  0  0  0  0
    3.5475    1.6140   -1.6807 H   0  0  0  0  0  0  0  0  0  0  0  0
    5.1464   -0.2871   -0.2977 H   0  0  0  0  0  0  0  0  0  0  0  0
    8.1970    0.4064   -2.0537 H   0  0  0  0  0  0  0  0  0  0  0  0
    7.5005   -0.3033   -0.6258 H   0  0  0  0  0  0  0  0  0  0  0  0
    6.7688    1.4302   -3.7459 H   0  0  0  0  0  0  0  0  0  0  0  0
    5.0468    1.4530   -3.5278 H   0  0  0  0  0  0  0  0  0  0  0  0
   -1.9739    0.7859    0.6671 N   0  0  0  0  0  0  0  0  0  0  0  0
   -3.2978    1.3545    0.5608 C   0  0  2  0  0  0  0  0  0  0  0  0
   -3.4176    2.4642    1.5970 C   0  0  0  0  0  0  0  0  0  0  0  0
   -2.8653    2.4198    2.6943 O   0  0  0  0  0  0  0  0  0  0  0  0
   -4.3720    0.2983    0.7688 C   0  0  0  0  0  0  0  0  0  0  0  0
   -1.5544    0.7387    1.5910 H   0  0  0  0  0  0  0  0  0  0  0  0
   -3.3785    1.7824   -0.4444 H   0  0  0  0  0  0  0  0  0  0  0  0
   -4.3071   -0.1419    1.7706 H   0  0  0  0  0  0  0  0  0  0  0  0
   -5.3745    0.7251    0.6597 H   0  0  0  0  0  0  0  0  0  0  0  0
   -4.2660   -0.5138    0.0415 H   0  0  0  0  0  0  0  0  0  0  0  0
   -4.2488    3.4901    1.1694 N   0  0  0  0  0  0  0  0  0  0  0  0
   -4.5566    4.6377    1.9904 C   0  0  0  0  0  0  0  0  0  0  0  0
   -4.6321    3.4635    0.2291 H   0  0  0  0  0  0  0  0  0  0  0  0
   -5.4797    4.4467    2.5572 H   0  0  0  0  0  0  0  0  0  0  0  0
   -3.7279    4.8205    2.6904 H   0  0  0  0  0  0  0  0  0  0  0  0
   -4.6962    5.5204    1.3490 H   0  0  0  0  0  0  0  0  0  0  0  0
  1  3  1  0  0  0  0
  1  7  1  0  0  0  0
  1  2  2  0  0  0  0
 42 43  1  0  0  0  0
 43 51  1  0  0  0  0
 43 44  2  0  0  0  0
  8  9  1  0  0  0  0
  9 17  1  0  0  0  0
  9 10  2  0  0  0  0
 18 19  1  0  0  0  0
 19 41  1  0  0  0  0
 19 20  2  0  0  0  0
 25 26  1  0  0  0  0
 25 27  1  0  0  0  0
 24 25  2  0  0  0  0
 42 45  1  0  0  0  0
  8 11  1  0  0  0  0
 51 52  1  0  0  0  0
 21 22  1  0  0  0  0
 22 23  1  0  0  0  0
 18 21  1  0  0  0  0
 23 24  1  0  0  0  0
 41 42  1  0  0  0  0
  7  8  1  0  0  0  0
 17 18  1  0  0  0  0
  3  4  1  0  0  0  0
  3  5  1  0  0  0  0
  3  6  1  0  0  0  0
 45 48  1  0  0  0  0
 45 49  1  0  0  0  0
 45 50  1  0  0  0  0
 11 14  1  0  0  0  0
 11 15  1  0  0  0  0
 11 16  1  0  0  0  0
 52 54  1  0  0  0  0
 52 55  1  0  0  0  0
 52 56  1  0  0  0  0
 22 32  1  0  0  0  0
 22 33  1  0  0  0  0
 21 30  1  0  0  0  0
 21 31  1  0  0  0  0
 23 34  1  0  0  0  0
 23 35  1  0  0  0  0
 42 47  1  0  0  0  0
  8 13  1  0  0  0  0
 18 29  1  0  0  0  0
 26 37  1  0  0  0  0
 26 38  1  0  0  0  0
 27 39  1  0  0  0  0
 27 40  1  0  0  0  0
 51 53  1  0  0  0  0
  7 12  1  0  0  0  0
 41 46  1  0  0  0  0
 17 28  1  0  0  0  0
 24 36  1  0  0  0  0
M  CHG  1  24   1
M  END
$$$$

  -OEChem-05262214473D

 56 55  0     1  0  0  0  0  0999 V2000
    0.7735   -5.8042   -2.0022 C   0  0  0  0  0  0  0  0  0  0  0  0
   -0.2086   -6.3825   -1.5519 O   0  0  0  0  0  0  0  0  0  0  0  0
    1.4751   -6.3646   -3.1946 C   0  0  0  0  0  0  0  0  0  0  0  0
    2.2765   -7.0687   -2.9186 H   0  0  0  0  0  0  0  0  0  0  0  0
    0.7988   -6.9360   -3.8504 H   0  0  0  0  0  0  0  0  0  0  0  0
    1.9556   -5.6216   -3.8511 H   0  0  0  0  0  0  0  0  0  0  0  0
    1.3322   -4.6359   -1.5106 N   0  0  0  0  0  0  0  0  0  0  0  0
    0.8124   -3.9290   -0.3698 C   0  0  2  0  0  0  0  0  0  0  0  0
    1.0666   -2.4424   -0.5818 C   0  0  0  0  0  0  0  0  0  0  0  0
    2.0598   -2.0076   -1.1610 O   0  0  0  0  0  0  0  0  0  0  0  0
    1.4560   -4.4118    0.9207 C   0  0  0  0  0  0  0  0  0  0  0  0
    2.1528   -4.2578   -1.9805 H   0  0  0  0  0  0  0  0  0  0  0  0
   -0.2667   -4.1160   -0.3467 H   0  0  0  0  0  0  0  0  0  0  0  0
    2.5374   -4.2329    0.9160 H   0  0  0  0  0  0  0  0  0  0  0  0
    1.0390   -3.8932    1.7903 H   0  0  0  0  0  0  0  0  0  0  0  0
    1.2976   -5.4871    1.0566 H   0  0  0  0  0  0  0  0  0  0  0  0
    0.0755   -1.6529   -0.0105 N   0  0  0  0  0  0  0  0  0  0  0  0
    0.1113   -0.2132   -0.0391 C   0  0  2  0  0  0  0  0  0  0  0  0
   -1.2828    0.2724   -0.4215 C   0  0  0  0  0  0  0  0  0  0  0  0
   -1.8116    0.0063   -1.4988 O   0  0  0  0  0  0  0  0  0  0  0  0
    1.1533    0.3173   -1.0292 C   0  0  0  0  0  0  0  0  0  0  0  0
    2.5884   -0.0038   -0.5949 C   0  0  0  0  0  0  0  0  0  0  0  0
    3.6212    0.5265   -1.5839 C   0  0  0  0  0  0  0  0  0  0  0  0
    4.9861    0.1983   -1.1786 N   0  3  0  0  0  0  0  0  0  0  0  0
    6.0966    0.5261   -1.9586 C   0  0  0  0  0  0  0  0  0  0  0  0
    7.3673    0.1820   -1.5096 N   0  0  0  0  0  0  0  0  0  0  0  0
    5.9634    1.1892   -3.1741 N   0  0  0  0  0  0  0  0  0  0  0  0
   -0.7323   -2.1024    0.4149 H   0  0  0  0  0  0  0  0  0  0  0  0
    0.3386    0.1192    0.9802 H   0  0  0  0  0  0  0  0  0  0  0  0
    1.0399    1.4032   -1.1317 H   0  0  0  0  0  0  0  0  0  0  0  0
    0.9703   -0.1083   -2.0248 H   0  0  0  0  0  0  0  0  0  0  0  0
    2.7769    0.4249    0.3967 H   0  0  0  0  0  0  0  0  0  0  0  0
    2.7135   -1.0895   -0.5118 H   0  0  0  0  0  0  0  0  0  0  0  0
    3.4564    0.0737   -2.5665 H   0  0  0  0  0  0  0  0  0  0  0  0
    3.5475    1.6140   -1.6807 H   0  0  0  0  0  0  0  0  0  0  0  0
    5.1464   -0.2871   -0.2977 H   0  0  0  0  0  0  0  0  0  0  0  0
    8.1970    0.4064   -2.0537 H   0  0  0  0  0  0  0  0  0  0  0  0
    7.5005   -0.3033   -0.6258 H   0  0  0  0  0  0  0  0  0  0  0  0
    6.7688    1.4302   -3.7459 H   0  0  0  0  0  0  0  0  0  0  0  0
    5.0468    1.4530   -3.5278 H   0  0  0  0  0  0  0  0  0  0  0  0
   -1.8436    1.0765    0.5610 N   0  0  0  0  0  0  0  0  0  0  0  0
   -3.1384    1.7019    0.4208 C   0  0  2  0  0  0  0  0  0  0  0  0
   -3.1031    3.0289    1.1673 C   0  0  0  0  0  0  0  0  0  0  0  0
   -2.4573    3.2012    2.1990 O   0  0  0  0  0  0  0  0  0  0  0  0
   -4.2459    0.8070    0.9551 C   0  0  0  0  0  0  0  0  0  0  0  0
   -1.3457    1.2155    1.4354 H   0  0  0  0  0  0  0  0  0  0  0  0
   -3.2858    1.8876   -0.6487 H   0  0  0  0  0  0  0  0  0  0  0  0
   -4.1151    0.6098    2.0254 H   0  0  0  0  0  0  0  0  0  0  0  0
   -5.2291    1.2702    0.8221 H   0  0  0  0  0  0  0  0  0  0  0  0
   -4.2508   -0.1583    0.4374 H   0  0  0  0  0  0  0  0  0  0  0  0
   -3.9118    3.9855    0.5698 N   0  0  0  0  0  0  0  0  0  0  0  0
   -4.0807    5.3131    1.1129 C   0  0  0  0  0  0  0  0  0  0  0  0
   -4.3792    3.7685   -0.3055 H   0  0  0  0  0  0  0  0  0  0  0  0
   -4.9580    5.3296    1.7762 H   0  0  0  0  0  0  0  0  0  0  0  0
   -3.1834    5.5920    1.6849 H   0  0  0  0  0  0  0  0  0  0  0  0
   -4.2289    6.0292    0.2912 H   0  0  0  0  0  0  0  0  0  0  0  0
  1  3  1  0  0  0  0
  1  7  1  0  0  0  0
  1  2  2  0  0  0  0
 42 43  1  0  0  0  0
 43 51  1  0  0  0  0
 43 44  2  0  0  0  0
  8  9  1  0  0  0  0
  9 17  1  0  0  0  0
  9 10  2  0  0  0  0
 18 19  1  0  0  0  0
 19 41  1  0  0  0  0
 19 20  2  0  0  0  0
 25 26  1  0  0  0  0
 25 27  1  0  0  0  0
 24 25  2  0  0  0  0
 42 45  1  0  0  0  0
  8 11  1  0  0  0  0
 51 52  1  0  0  0  0
 21 22  1  0  0  0  0
 22 23  1  0  0  0  0
 18 21  1  0  0  0  0
 23 24  1  0  0  0  0
 41 42  1  0  0  0  0
  7  8  1  0  0  0  0
 17 18  1  0  0  0  0
  3  4  1  0  0  0  0
  3  5  1  0  0  0  0
  3  6  1  0  0  0  0
 45 48  1  0  0  0  0
 45 49  1  0  0  0  0
 45 50  1  0  0  0  0
 11 14  1  0  0  0  0
 11 15  1  0  0  0  0
 11 16  1  0  0  0  0
 52 54  1  0  0  0  0
 52 55  1  0  0  0  0
 52 56  1  0  0  0  0
 22 32  1  0  0  0  0
 22 33  1  0  0  0  0
 21 30  1  0  0  0  0
 21 31  1  0  0  0  0
 23 34  1  0  0  0  0
 23 35  1  0  0  0  0
 42 47  1  0  0  0  0
  8 13  1  0  0  0  0
 18 29  1  0  0  0  0
 26 37  1  0  0  0  0
 26 38  1  0  0  0  0
 27 39  1  0  0  0  0
 27 40  1  0  0  0  0
 51 53  1  0  0  0  0
  7 12  1  0  0  0  0
 41 46  1  0  0  0  0
 17 28  1  0  0  0  0
 24 36  1  0  0  0  0
M  CHG  1  24   1
M  END
$$$$

  -OEChem-05262214473D

 56 55  0     1  0  0  0  0  0999 V2000
    0.7735   -5.8042   -2.0022 C   0  0  0  0  0  0  0  0  0  0  0  0
   -0.2086   -6.3825   -1.5519 O   0  0  0  0  0  0  0  0  0  0  0  0
    1.4751   -6.3646   -3.1946 C   0  0  0  0  0  0  0  0  0  0  0  0
    2.2765   -7.0687   -2.9186 H   0  0  0  0  0  0  0  0  0  0  0  0
    0.7988   -6.9360   -3.8504 H   0  0  0  0  0  0  0  0  0  0  0  0
    1.9556   -5.6216   -3.8511 H   0  0  0  0  0  0  0  0  0  0  0  0
    1.3322   -4.6359   -1.5106 N   0  0  0  0  0  0  0  0  0  0  0  0
    0.8124   -3.9290   -0.3698 C   0  0  2  0  0  0  0  0  0  0  0  0
    1.0666   -2.4424   -0.5818 C   0  0  0  0  0  0  0  0  0  0  0  0
    2.0598   -2.0076   -1.1610 O   0  0  0  0  0  0  0  0  0  0  0  0
    1.4560   -4.4118    0.9207 C   0  0  0  0  0  0  0  0  0  0  0  0
    2.1528   -4.2578   -1.9805 H   0  0  0  0  0  0  0  0  0  0  0  0
   -0.2667   -4.1160   -0.3467 H   0  0  0  0  0  0  0  0  0  0  0  0
    2.5374   -4.2329    0.9160 H   0  0  0  0  0  0  0  0  0  0  0  0
    1.0390   -3.8932    1.7903 H   0  0  0  0  0  0  0  0  0  0  0  0
    1.2976   -5.4871    1.0566 H   0  0  0  0  0  0  0  0  0  0  0  0
    0.0755   -1.6529   -0.0105 N   0  0  0  0  0  0  0  0  0  0  0  0
    0.1113   -0.2132   -0.0391 C   0  0  2  0  0  0  0  0  0  0  0  0
   -1.2828    0.2724   -0.4215 C   0  0  0  0  0  0  0  0  0  0  0  0
   -1.9205   -0.1979   -1.3613 O   0  0  0  0  0  0  0  0  0  0  0  0
    1.1533    0.3173   -1.0292 C   0  0  0  0  0  0  0  0  0  0  0  0
    2.5884   -0.0038   -0.5949 C   0  0  0  0  0  0  0  0  0  0  0  0
    3.6212    0.5265   -1.5839 C   0  0  0  0  0  0  0  0  0  0  0  0
    4.9861    0.1983   -1.1786 N   0  3  0  0  0  0  0  0  0  0  0  0
    6.0966    0.5261   -1.9586 C   0  0  0  0  0  0  0  0  0  0  0  0
    7.3673    0.1820   -1.5096 N   0  0  0  0  0  0  0  0  0  0  0  0
    5.9634    1.1892   -3.1741 N   0  0  0  0  0  0  0  0  0  0  0  0
   -0.7323   -2.1024    0.4149 H   0  0  0  0  0  0  0  0  0  0  0  0
    0.3386    0.1192    0.9802 H   0  0  0  0  0  0  0  0  0  0  0  0
    1.0399    1.4032   -1.1317 H   0  0  0  0  0  0  0  0  0  0  0  0
    0.9703   -0.1083   -2.0248 H   0  0  0  0  0  0  0  0  0  0  0  0
    2.7769    0.4249    0.3967 H   0  0  0  0  0  0  0  0  0  0  0  0
    2.7135   -1.0895   -0.5118 H   0  0  0  0  0  0  0  0  0  0  0  0
    3.4564    0.0737   -2.5665 H   0  0  0  0  0  0  0  0  0  0  0  0
    3.5475    1.6140   -1.6807 H   0  0  0  0  0  0  0  0  0  0  0  0
    5.1464   -0.2871   -0.2977 H   0  0  0  0  0  0  0  0  0  0  0  0
    8.1970    0.4064   -2.0537 H   0  0  0  0  0  0  0  0  0  0  0  0
    7.5005   -0.3033   -0.6258 H   0  0  0  0  0  0  0  0  0  0  0  0
    6.7688    1.4302   -3.7459 H   0  0  0  0  0  0  0  0  0  0  0  0
    5.0468    1.4530   -3.5278 H   0  0  0  0  0  0  0  0  0  0  0  0
   -1.7076    1.3236    0.3790 N   0  0  0  0  0  0  0  0  0  0  0  0
   -2.9735    1.9939    0.1902 C   0  0  2  0  0  0  0  0  0  0  0  0
   -2.7980    3.4523    0.5927 C   0  0  0  0  0  0  0  0  0  0  0  0
   -2.0533    3.8123    1.5020 O   0  0  0  0  0  0  0  0  0  0  0  0
   -4.0757    1.3343    1.0043 C   0  0  0  0  0  0  0  0  0  0  0  0
   -1.1259    1.6256    1.1551 H   0  0  0  0  0  0  0  0  0  0  0  0
   -3.2063    1.9349   -0.8786 H   0  0  0  0  0  0  0  0  0  0  0  0
   -3.8599    1.3836    2.0778 H   0  0  0  0  0  0  0  0  0  0  0  0
   -5.0400    1.8257    0.8380 H   0  0  0  0  0  0  0  0  0  0  0  0
   -4.1803    0.2778    0.7345 H   0  0  0  0  0  0  0  0  0  0  0  0
   -3.6035    4.3003   -0.1544 N   0  0  0  0  0  0  0  0  0  0  0  0
   -3.6495    5.7269    0.0663 C   0  0  0  0  0  0  0  0  0  0  0  0
   -4.1593    3.9203   -0.9149 H   0  0  0  0  0  0  0  0  0  0  0  0
   -4.4612    5.9637    0.7699 H   0  0  0  0  0  0  0  0  0  0  0  0
   -2.6903    6.0640    0.4863 H   0  0  0  0  0  0  0  0  0  0  0  0
   -3.8317    6.2400   -0.8895 H   0  0  0  0  0  0  0  0  0  0  0  0
  1  3  1  0  0  0  0
  1  7  1  0  0  0  0
  1  2  2  0  0  0  0
 42 43  1  0  0  0  0
 43 51  1  0  0  0  0
 43 44  2  0  0  0  0
  8  9  1  0  0  0  0
  9 17  1  0  0  0  0
  9 10  2  0  0  0  0
 18 19  1  0  0  0  0
 19 41  1  0  0  0  0
 19 20  2  0  0  0  0
 25 26  1  0  0  0  0
 25 27  1  0  0  0  0
 24 25  2  0  0  0  0
 42 45  1  0  0  0  0
  8 11  1  0  0  0  0
 51 52  1  0  0  0  0
 21 22  1  0  0  0  0
 22 23  1  0  0  0  0
 18 21  1  0  0  0  0
 23 24  1  0  0  0  0
 41 42  1  0  0  0  0
  7  8  1  0  0  0  0
 17 18  1  0  0  0  0
  3  4  1  0  0  0  0
  3  5  1  0  0  0  0
  3  6  1  0  0  0  0
 45 48  1  0  0  0  0
 45 49  1  0  0  0  0
 45 50  1  0  0  0  0
 11 14  1  0  0  0  0
 11 15  1  0  0  0  0
 11 16  1  0  0  0  0
 52 54  1  0  0  0  0
 52 55  1  0  0  0  0
 52 56  1  0  0  0  0
 22 32  1  0  0  0  0
 22 33  1  0  0  0  0
 21 30  1  0  0  0  0
 21 31  1  0  0  0  0
 23 34  1  0  0  0  0
 23 35  1  0  0  0  0
 42 47  1  0  0  0  0
  8 13  1  0  0  0  0
 18 29  1  0  0  0  0
 26 37  1  0  0  0  0
 26 38  1  0  0  0  0
 27 39  1  0  0  0  0
 27 40  1  0  0  0  0
 51 53  1  0  0  0  0
  7 12  1  0  0  0  0
 41 46  1  0  0  0  0
 17 28  1  0  0  0  0
 24 36  1  0  0  0  0
M  CHG  1  24   1
M  END
$$$$

  -OEChem-05262214473D

 56 55  0     1  0  0  0  0  0999 V2000
    0.7735   -5.8042   -2.0022 C   0  0  0  0  0  0  0  0  0  0  0  0
   -0.2086   -6.3825   -1.5519 O   0  0  0  0  0  0  0  0  0  0  0  0
    1.4751   -6.3646   -3.1946 C   0  0  0  0  0  0  0  0  0  0  0  0
    2.2765   -7.0687   -2.9186 H   0  0  0  0  0  0  0  0  0  0  0  0
    0.7988   -6.9360   -3.8504 H   0  0  0  0  0  0  0  0  0  0  0  0
    1.9556   -5.6216   -3.8511 H   0  0  0  0  0  0  0  0  0  0  0  0
    1.3322   -4.6359   -1.5106 N   0  0  0  0  0  0  0  0  0  0  0  0
    0.8124   -3.9290   -0.3698 C   0  0  2  0  0  0  0  0  0  0  0  0
    1.0666   -2.4424   -0.5818 C   0  0  0  0  0  0  0  0  0  0  0  0
    2.0598   -2.0076   -1.1610 O   0  0  0  0  0  0  0  0  0  0  0  0
    1.4560   -4.4118    0.9207 C   0  0  0  0  0  0  0  0  0  0  0  0
    2.1528   -4.2578   -1.9805 H   0  0  0  0  0  0  0  0  0  0  0  0
   -0.2667   -4.1160   -0.3467 H   0  0  0  0  0  0  0  0  0  0  0  0
    2.5374   -4.2329    0.9160 H   0  0  0  0  0  0  0  0  0  0  0  0
    1.0390   -3.8932    1.7903 H   0  0  0  0  0  0  0  0  0  0  0  0
    1.2976   -5.4871    1.0566 H   0  0  0  0  0  0  0  0  0  0  0  0
    0.0755   -1.6529   -0.0105 N   0  0  0  0  0  0  0  0  0  0  0  0
    0.1113   -0.2132   -0.0391 C   0  0  2  0  0  0  0  0  0  0  0  0
   -1.2828    0.2724   -0.4215 C   0  0  0  0  0  0  0  0  0  0  0  0
   -2.0276   -0.3556   -1.1712 O   0  0  0  0  0  0  0  0  0  0  0  0
    1.1533    0.3173   -1.0292 C   0  0  0  0  0  0  0  0  0  0  0  0
    2.5884   -0.0038   -0.5949 C   0  0  0  0  0  0  0  0  0  0  0  0
    3.6212    0.5265   -1.5839 C   0  0  0  0  0  0  0  0  0  0  0  0
    4.9861    0.1983   -1.1786 N   0  3  0  0  0  0  0  0  0  0  0  0
    6.0966    0.5261   -1.9586 C   0  0  0  0  0  0  0  0  0  0  0  0
    7.3673    0.1820   -1.5096 N   0  0  0  0  0  0  0  0  0  0  0  0
    5.9634    1.1892   -3.1741 N   0  0  0  0  0  0  0  0  0  0  0  0
   -0.7323   -2.1024    0.4149 H   0  0  0  0  0  0  0  0  0  0  0  0
    0.3386    0.1192    0.9802 H   0  0  0  0  0  0  0  0  0  0  0  0
    1.0399    1.4032   -1.1317 H   0  0  0  0  0  0  0  0  0  0  0  0
    0.9703   -0.1083   -2.0248 H   0  0  0  0  0  0  0  0  0  0  0  0
    2.7769    0.4249    0.3967 H   0  0  0  0  0  0  0  0  0  0  0  0
    2.7135   -1.0895   -0.5118 H   0  0  0  0  0  0  0  0  0  0  0  0
    3.4564    0.0737   -2.5665 H   0  0  0  0  0  0  0  0  0  0  0  0
    3.5475    1.6140   -1.6807 H   0  0  0  0  0  0  0  0  0  0  0  0
    5.1464   -0.2871   -0.2977 H   0  0  0  0  0  0  0  0  0  0  0  0
    8.1970    0.4064   -2.0537 H   0  0  0  0  0  0  0  0  0  0  0  0
    7.5005   -0.3033   -0.6258 H   0  0  0  0  0  0  0  0  0  0  0  0
    6.7688    1.4302   -3.7459 H   0  0  0  0  0  0  0  0  0  0  0  0
    5.0468    1.4530   -3.5278 H   0  0  0  0  0  0  0  0  0  0  0  0
   -1.5752    1.5104    0.1336 N   0  0  0  0  0  0  0  0  0  0  0  0
   -2.8142    2.2108   -0.1152 C   0  0  2  0  0  0  0  0  0  0  0  0
   -2.5232    3.7054   -0.0877 C   0  0  0  0  0  0  0  0  0  0  0  0
   -1.6808    4.2114    0.6508 O   0  0  0  0  0  0  0  0  0  0  0  0
   -3.8730    1.8441    0.9130 C   0  0  0  0  0  0  0  0  0  0  0  0
   -0.9102    1.9412    0.7692 H   0  0  0  0  0  0  0  0  0  0  0  0
   -3.1454    1.9209   -1.1183 H   0  0  0  0  0  0  0  0  0  0  0  0
   -3.5589    2.1269    1.9243 H   0  0  0  0  0  0  0  0  0  0  0  0
   -4.8199    2.3538    0.7064 H   0  0  0  0  0  0  0  0  0  0  0  0
   -4.0595    0.7648    0.9125 H   0  0  0  0  0  0  0  0  0  0  0  0
   -3.3450    4.4131   -0.9538 N   0  0  0  0  0  0  0  0  0  0  0  0
   -3.2924    5.8510   -1.0782 C   0  0  0  0  0  0  0  0  0  0  0  0
   -3.9872    3.9083   -1.5576 H   0  0  0  0  0  0  0  0  0  0  0  0
   -4.0230    6.3058   -0.3931 H   0  0  0  0  0  0  0  0  0  0  0  0
   -2.2822    6.2042   -0.8238 H   0  0  0  0  0  0  0  0  0  0  0  0
   -3.5316    6.1385   -2.1127 H   0  0  0  0  0  0  0  0  0  0  0  0
  1  3  1  0  0  0  0
  1  7  1  0  0  0  0
  1  2  2  0  0  0  0
 42 43  1  0  0  0  0
 43 51  1  0  0  0  0
 43 44  2  0  0  0  0
  8  9  1  0  0  0  0
  9 17  1  0  0  0  0
  9 10  2  0  0  0  0
 18 19  1  0  0  0  0
 19 41  1  0  0  0  0
 19 20  2  0  0  0  0
 25 26  1  0  0  0  0
 25 27  1  0  0  0  0
 24 25  2  0  0  0  0
 42 45  1  0  0  0  0
  8 11  1  0  0  0  0
 51 52  1  0  0  0  0
 21 22  1  0  0  0  0
 22 23  1  0  0  0  0
 18 21  1  0  0  0  0
 23 24  1  0  0  0  0
 41 42  1  0  0  0  0
  7  8  1  0  0  0  0
 17 18  1  0  0  0  0
  3  4  1  0  0  0  0
  3  5  1  0  0  0  0
  3  6  1  0  0  0  0
 45 48  1  0  0  0  0
 45 49  1  0  0  0  0
 45 50  1  0  0  0  0
 11 14  1  0  0  0  0
 11 15  1  0  0  0  0
 11 16  1  0  0  0  0
 52 54  1  0  0  0  0
 52 55  1  0  0  0  0
 52 56  1  0  0  0  0
 22 32  1  0  0  0  0
 22 33  1  0  0  0  0
 21 30  1  0  0  0  0
 21 31  1  0  0  0  0
 23 34  1  0  0  0  0
 23 35  1  0  0  0  0
 42 47  1  0  0  0  0
  8 13  1  0  0  0  0
 18 29  1  0  0  0  0
 26 37  1  0  0  0  0
 26 38  1  0  0  0  0
 27 39  1  0  0  0  0
 27 40  1  0  0  0  0
 51 53  1  0  0  0  0
  7 12  1  0  0  0  0
 41 46  1  0  0  0  0
 17 28  1  0  0  0  0
 24 36  1  0  0  0  0
M  CHG  1  24   1
M  END
$$$$

  -OEChem-05262214473D

 56 55  0     1  0  0  0  0  0999 V2000
    0.7735   -5.8042   -2.0022 C   0  0  0  0  0  0  0  0  0  0  0  0
   -0.2086   -6.3825   -1.5519 O   0  0  0  0  0  0  0  0  0  0  0  0
    1.4751   -6.3646   -3.1946 C   0  0  0  0  0  0  0  0  0  0  0  0
    2.2765   -7.0687   -2.9186 H   0  0  0  0  0  0  0  0  0  0  0  0
    0.7988   -6.9360   -3.8504 H   0  0  0  0  0  0  0  0  0  0  0  0
    1.9556   -5.6216   -3.8511 H   0  0  0  0  0  0  0  0  0  0  0  0
    1.3322   -4.6359   -1.5106 N   0  0  0  0  0  0  0  0  0  0  0  0
    0.8124   -3.9290   -0.3698 C   0  0  2  0  0  0  0  0  0  0  0  0
    1.0666   -2.4424   -0.5818 C   0  0  0  0  0  0  0  0  0  0  0  0
    2.0598   -2.0076   -1.1610 O   0  0  0  0  0  0  0  0  0  0  0  0
    1.4560   -4.4118    0.9207 C   0  0  0  0  0  0  0  0  0  0  0  0
    2.1528   -4.2578   -1.9805 H   0  0  0  0  0  0  0  0  0  0  0  0
   -0.2667   -4.1160   -0.3467 H   0  0  0  0  0  0  0  0  0  0  0  0
    2.5374   -4.2329    0.9160 H   0  0  0  0  0  0  0  0  0  0  0  0
    1.0390   -3.8932    1.7903 H   0  0  0  0  0  0  0  0  0  0  0  0
    1.2976   -5.4871    1.0566 H   0  0  0  0  0  0  0  0  0  0  0  0
    0.0755   -1.6529   -0.0105 N   0  0  0  0  0  0  0  0  0  0  0  0
    0.1113   -0.2132   -0.0391 C   0  0  2  0  0  0  0  0  0  0  0  0
   -1.2828    0.2724   -0.4215 C   0  0  0  0  0  0  0  0  0  0  0  0
   -2.1256   -0.4560   -0.9413 O   0  0  0  0  0  0  0  0  0  0  0  0
    1.1533    0.3173   -1.0292 C   0  0  0  0  0  0  0  0  0  0  0  0
    2.5884   -0.0038   -0.5949 C   0  0  0  0  0  0  0  0  0  0  0  0
    3.6212    0.5265   -1.5839 C   0  0  0  0  0  0  0  0  0  0  0  0
    4.9861    0.1983   -1.1786 N   0  3  0  0  0  0  0  0  0  0  0  0
    6.0966    0.5261   -1.9586 C   0  0  0  0  0  0  0  0  0  0  0  0
    7.3673    0.1820   -1.5096 N   0  0  0  0  0  0  0  0  0  0  0  0
    5.9634    1.1892   -3.1741 N   0  0  0  0  0  0  0  0  0  0  0  0
   -0.7323   -2.1024    0.4149 H   0  0  0  0  0  0  0  0  0  0  0  0
    0.3386    0.1192    0.9802 H   0  0  0  0  0  0  0  0  0  0  0  0
    1.0399    1.4032   -1.1317 H   0  0  0  0  0  0  0  0  0  0  0  0
    0.9703   -0.1083   -2.0248 H   0  0  0  0  0  0  0  0  0  0  0  0
    2.7769    0.4249    0.3967 H   0  0  0  0  0  0  0  0  0  0  0  0
    2.7135   -1.0895   -0.5118 H   0  0  0  0  0  0  0  0  0  0  0  0
    3.4564    0.0737   -2.5665 H   0  0  0  0  0  0  0  0  0  0  0  0
    3.5475    1.6140   -1.6807 H   0  0  0  0  0  0  0  0  0  0  0  0
    5.1464   -0.2871   -0.2977 H   0  0  0  0  0  0  0  0  0  0  0  0
    8.1970    0.4064   -2.0537 H   0  0  0  0  0  0  0  0  0  0  0  0
    7.5005   -0.3033   -0.6258 H   0  0  0  0  0  0  0  0  0  0  0  0
    6.7688    1.4302   -3.7459 H   0  0  0  0  0  0  0  0  0  0  0  0
    5.0468    1.4530   -3.5278 H   0  0  0  0  0  0  0  0  0  0  0  0
   -1.4554    1.6242   -0.1586 N   0  0  0  0  0  0  0  0  0  0  0  0
   -2.6714    2.3376   -0.4746 C   0  0  2  0  0  0  0  0  0  0  0  0
   -2.2975    3.7712   -0.8275 C   0  0  0  0  0  0  0  0  0  0  0  0
   -1.3653    4.3714   -0.2964 O   0  0  0  0  0  0  0  0  0  0  0  0
   -3.6517    2.3019    0.6874 C   0  0  0  0  0  0  0  0  0  0  0  0
   -0.7131    2.1407    0.3039 H   0  0  0  0  0  0  0  0  0  0  0  0
   -3.1072    1.8468   -1.3517 H   0  0  0  0  0  0  0  0  0  0  0  0
   -3.2326    2.7891    1.5754 H   0  0  0  0  0  0  0  0  0  0  0  0
   -4.5840    2.8185    0.4361 H   0  0  0  0  0  0  0  0  0  0  0  0
   -3.8966    1.2694    0.9592 H   0  0  0  0  0  0  0  0  0  0  0  0
   -3.1539    4.3161   -1.7739 N   0  0  0  0  0  0  0  0  0  0  0  0
   -3.0337    5.6770   -2.2424 C   0  0  0  0  0  0  0  0  0  0  0  0
   -3.8747    3.7336   -2.1898 H   0  0  0  0  0  0  0  0  0  0  0  0
   -3.6735    6.3327   -1.6335 H   0  0  0  0  0  0  0  0  0  0  0  0
   -1.9868    6.0033   -2.1560 H   0  0  0  0  0  0  0  0  0  0  0  0
   -3.3491    5.7315   -3.2948 H   0  0  0  0  0  0  0  0  0  0  0  0
  1  3  1  0  0  0  0
  1  7  1  0  0  0  0
  1  2  2  0  0  0  0
 42 43  1  0  0  0  0
 43 51  1  0  0  0  0
 43 44  2  0  0  0  0
  8  9  1  0  0  0  0
  9 17  1  0  0  0  0
  9 10  2  0  0  0  0
 18 19  1  0  0  0  0
 19 41  1  0  0  0  0
 19 20  2  0  0  0  0
 25 26  1  0  0  0  0
 25 27  1  0  0  0  0
 24 25  2  0  0  0  0
 42 45  1  0  0  0  0
  8 11  1  0  0  0  0
 51 52  1  0  0  0  0
 21 22  1  0  0  0  0
 22 23  1  0  0  0  0
 18 21  1  0  0  0  0
 23 24  1  0  0  0  0
 41 42  1  0  0  0  0
  7  8  1  0  0  0  0
 17 18  1  0  0  0  0
  3  4  1  0  0  0  0
  3  5  1  0  0  0  0
  3  6  1  0  0  0  0
 45 48  1  0  0  0  0
 45 49  1  0  0  0  0
 45 50  1  0  0  0  0
 11 14  1  0  0  0  0
 11 15  1  0  0  0  0
 11 16  1  0  0  0  0
 52 54  1  0  0  0  0
 52 55  1  0  0  0  0
 52 56  1  0  0  0  0
 22 32  1  0  0  0  0
 22 33  1  0  0  0  0
 21 30  1  0  0  0  0
 21 31  1  0  0  0  0
 23 34  1  0  0  0  0
 23 35  1  0  0  0  0
 42 47  1  0  0  0  0
  8 13  1  0  0  0  0
 18 29  1  0  0  0  0
 26 37  1  0  0  0  0
 26 38  1  0  0  0  0
 27 39  1  0  0  0  0
 27 40  1  0  0  0  0
 51 53  1  0  0  0  0
  7 12  1  0  0  0  0
 41 46  1  0  0  0  0
 17 28  1  0  0  0  0
 24 36  1  0  0  0  0
M  CHG  1  24   1
M  END
$$$$

  -OEChem-05262214473D

 56 55  0     1  0  0  0  0  0999 V2000
    0.7735   -5.8042   -2.0022 C   0  0  0  0  0  0  0  0  0  0  0  0
   -0.2086   -6.3825   -1.5519 O   0  0  0  0  0  0  0  0  0  0  0  0
    1.4751   -6.3646   -3.1946 C   0  0  0  0  0  0  0  0  0  0  0  0
    2.2765   -7.0687   -2.9186 H   0  0  0  0  0  0  0  0  0  0  0  0
    0.7988   -6.9360   -3.8504 H   0  0  0  0  0  0  0  0  0  0  0  0
    1.9556   -5.6216   -3.8511 H   0  0  0  0  0  0  0  0  0  0  0  0
    1.3322   -4.6359   -1.5106 N   0  0  0  0  0  0  0  0  0  0  0  0
    0.8124   -3.9290   -0.3698 C   0  0  2  0  0  0  0  0  0  0  0  0
    1.0666   -2.4424   -0.5818 C   0  0  0  0  0  0  0  0  0  0  0  0
    2.0598   -2.0076   -1.1610 O   0  0  0  0  0  0  0  0  0  0  0  0
    1.4560   -4.4118    0.9207 C   0  0  0  0  0  0  0  0  0  0  0  0
    2.1528   -4.2578   -1.9805 H   0  0  0  0  0  0  0  0  0  0  0  0
   -0.2667   -4.1160   -0.3467 H   0  0  0  0  0  0  0  0  0  0  0  0
    2.5374   -4.2329    0.9160 H   0  0  0  0  0  0  0  0  0  0  0  0
    1.0390   -3.8932    1.7903 H   0  0  0  0  0  0  0  0  0  0  0  0
    1.2976   -5.4871    1.0566 H   0  0  0  0  0  0  0  0  0  0  0  0
    0.0755   -1.6529   -0.0105 N   0  0  0  0  0  0  0  0  0  0  0  0
    0.1113   -0.2132   -0.0391 C   0  0  2  0  0  0  0  0  0  0  0  0
   -1.3313    0.2811   -0.0450 C   0  0  0  0  0  0  0  0  0  0  0  0
   -2.2982   -0.4777   -0.0671 O   0  0  0  0  0  0  0  0  0  0  0  0
    0.8649    0.3198   -1.2620 C   0  0  0  0  0  0  0  0  0  0  0  0
    2.3615   -0.0105   -1.2156 C   0  0  0  0  0  0  0  0  0  0  0  0
    3.1065    0.5224   -2.4351 C   0  0  0  0  0  0  0  0  0  0  0  0
    4.5278    0.1855   -2.3985 N   0  3  0  0  0  0  0  0  0  0  0  0
    5.4007    0.5140   -3.4374 C   0  0  0  0  0  0  0  0  0  0  0  0
    6.7422    0.1612   -3.3344 N   0  0  0  0  0  0  0  0  0  0  0  0
    4.9616    1.1863   -4.5732 N   0  0  0  0  0  0  0  0  0  0  0  0
   -0.7323   -2.1024    0.4149 H   0  0  0  0  0  0  0  0  0  0  0  0
    0.5965    0.1109    0.8886 H   0  0  0  0  0  0  0  0  0  0  0  0
    0.7353    1.4069   -1.3253 H   0  0  0  0  0  0  0  0  0  0  0  0
    0.4280   -0.0978   -2.1787 H   0  0  0  0  0  0  0  0  0  0  0  0
    2.8027    0.4103   -0.3041 H   0  0  0  0  0  0  0  0  0  0  0  0
    2.4973   -1.0973   -1.1740 H   0  0  0  0  0  0  0  0  0  0  0  0
    2.6904    0.0773   -3.3441 H   0  0  0  0  0  0  0  0  0  0  0  0
    3.0168    1.6109   -2.5032 H   0  0  0  0  0  0  0  0  0  0  0  0
    4.9076   -0.3069   -1.5919 H   0  0  0  0  0  0  0  0  0  0  0  0
    7.4042    0.3860   -4.0733 H   0  0  0  0  0  0  0  0  0  0  0  0
    7.0966   -0.3309   -2.5179 H   0  0  0  0  0  0  0  0  0  0  0  0
    5.5931    1.4279   -5.3325 H   0  0  0  0  0  0  0  0  0  0  0  0
    3.9863    1.4565   -4.6762 H   0  0  0  0  0  0  0  0  0  0  0  0
   -1.4087    1.6666   -0.0722 N   0  0  0  0  0  0  0  0  0  0  0  0
   -2.6619    2.3831   -0.1308 C   0  0  2  0  0  0  0  0  0  0  0  0
   -2.4340    3.6655   -0.9201 C   0  0  0  0  0  0  0  0  0  0  0  0
   -1.3789    4.2953   -0.8865 O   0  0  0  0  0  0  0  0  0  0  0  0
   -3.1902    2.6887    1.2621 C   0  0  0  0  0  0  0  0  0  0  0  0
   -0.5551    2.2145   -0.0185 H   0  0  0  0  0  0  0  0  0  0  0  0
   -3.3677    1.7421   -0.6703 H   0  0  0  0  0  0  0  0  0  0  0  0
   -2.4963    3.3300    1.8178 H   0  0  0  0  0  0  0  0  0  0  0  0
   -4.1540    3.2065    1.2161 H   0  0  0  0  0  0  0  0  0  0  0  0
   -3.3253    1.7672    1.8385 H   0  0  0  0  0  0  0  0  0  0  0  0
   -3.5622    4.0473   -1.6326 N   0  0  0  0  0  0  0  0  0  0  0  0
   -3.6120    5.2529   -2.4263 C   0  0  0  0  0  0  0  0  0  0  0  0
   -4.3795    3.4442   -1.6349 H   0  0  0  0  0  0  0  0  0  0  0  0
   -4.0095    6.0777   -1.8167 H   0  0  0  0  0  0  0  0  0  0  0  0
   -2.5988    5.5070   -2.7709 H   0  0  0  0  0  0  0  0  0  0  0  0
   -4.2657    5.0922   -3.2964 H   0  0  0  0  0  0  0  0  0  0  0  0
  1  3  1  0  0  0  0
  1  7  1  0  0  0  0
  1  2  2  0  0  0  0
 42 43  1  0  0  0  0
 43 51  1  0  0  0  0
 43 44  2  0  0  0  0
  8  9  1  0  0  0  0
  9 17  1  0  0  0  0
  9 10  2  0  0  0  0
 18 19  1  0  0  0  0
 19 41  1  0  0  0  0
 19 20  2  0  0  0  0
 25 26  1  0  0  0  0
 25 27  1  0  0  0  0
 24 25  2  0  0  0  0
 42 45  1  0  0  0  0
  8 11  1  0  0  0  0
 51 52  1  0  0  0  0
 21 22  1  0  0  0  0
 22 23  1  0  0  0  0
 18 21  1  0  0  0  0
 23 24  1  0  0  0  0
 41 42  1  0  0  0  0
  7  8  1  0  0  0  0
 17 18  1  0  0  0  0
  3  4  1  0  0  0  0
  3  5  1  0  0  0  0
  3  6  1  0  0  0  0
 45 48  1  0  0  0  0
 45 49  1  0  0  0  0
 45 50  1  0  0  0  0
 11 14  1  0  0  0  0
 11 15  1  0  0  0  0
 11 16  1  0  0  0  0
 52 54  1  0  0  0  0
 52 55  1  0  0  0  0
 52 56  1  0  0  0  0
 22 32  1  0  0  0  0
 22 33  1  0  0  0  0
 21 30  1  0  0  0  0
 21 31  1  0  0  0  0
 23 34  1  0  0  0  0
 23 35  1  0  0  0  0
 42 47  1  0  0  0  0
  8 13  1  0  0  0  0
 18 29  1  0  0  0  0
 26 37  1  0  0  0  0
 26 38  1  0  0  0  0
 27 39  1  0  0  0  0
 27 40  1  0  0  0  0
 51 53  1  0  0  0  0
  7 12  1  0  0  0  0
 41 46  1  0  0  0  0
 17 28  1  0  0  0  0
 24 36  1  0  0  0  0
M  CHG  1  24   1
M  END
$$$$

  -OEChem-05262214473D

 56 55  0     1  0  0  0  0  0999 V2000
    0.7735   -5.8042   -2.0022 C   0  0  0  0  0  0  0  0  0  0  0  0
   -0.2086   -6.3825   -1.5519 O   0  0  0  0  0  0  0  0  0  0  0  0
    1.4751   -6.3646   -3.1946 C   0  0  0  0  0  0  0  0  0  0  0  0
    2.2765   -7.0687   -2.9186 H   0  0  0  0  0  0  0  0  0  0  0  0
    0.7988   -6.9360   -3.8504 H   0  0  0  0  0  0  0  0  0  0  0  0
    1.9556   -5.6216   -3.8511 H   0  0  0  0  0  0  0  0  0  0  0  0
    1.3322   -4.6359   -1.5106 N   0  0  0  0  0  0  0  0  0  0  0  0
    0.8124   -3.9290   -0.3698 C   0  0  2  0  0  0  0  0  0  0  0  0
    1.0666   -2.4424   -0.5818 C   0  0  0  0  0  0  0  0  0  0  0  0
    2.0598   -2.0076   -1.1610 O   0  0  0  0  0  0  0  0  0  0  0  0
    1.4560   -4.4118    0.9207 C   0  0  0  0  0  0  0  0  0  0  0  0
    2.1528   -4.2578   -1.9805 H   0  0  0  0  0  0  0  0  0  0  0  0
   -0.2667   -4.1160   -0.3467 H   0  0  0  0  0  0  0  0  0  0  0  0
    2.5374   -4.2329    0.9160 H   0  0  0  0  0  0  0  0  0  0  0  0
    1.0390   -3.8932    1.7903 H   0  0  0  0  0  0  0  0  0  0  0  0
    1.2976   -5.4871    1.0566 H   0  0  0  0  0  0  0  0  0  0  0  0
    0.0755   -1.6529   -0.0105 N   0  0  0  0  0  0  0  0  0  0  0  0
    0.1113   -0.2132   -0.0391 C   0  0  2  0  0  0  0  0  0  0  0  0
   -1.3313    0.2811   -0.0450 C   0  0  0  0  0  0  0  0  0  0  0  0
   -2.2895   -0.4489    0.2005 O   0  0  0  0  0  0  0  0  0  0  0  0
    0.8649    0.3198   -1.2620 C   0  0  0  0  0  0  0  0  0  0  0  0
    2.3615   -0.0105   -1.2156 C   0  0  0  0  0  0  0  0  0  0  0  0
    3.1065    0.5224   -2.4351 C   0  0  0  0  0  0  0  0  0  0  0  0
    4.5278    0.1855   -2.3985 N   0  3  0  0  0  0  0  0  0  0  0  0
    5.4007    0.5140   -3.4374 C   0  0  0  0  0  0  0  0  0  0  0  0
    6.7422    0.1612   -3.3344 N   0  0  0  0  0  0  0  0  0  0  0  0
    4.9616    1.1863   -4.5732 N   0  0  0  0  0  0  0  0  0  0  0  0
   -0.7323   -2.1024    0.4149 H   0  0  0  0  0  0  0  0  0  0  0  0
    0.5965    0.1109    0.8886 H   0  0  0  0  0  0  0  0  0  0  0  0
    0.7353    1.4069   -1.3253 H   0  0  0  0  0  0  0  0  0  0  0  0
    0.4280   -0.0978   -2.1787 H   0  0  0  0  0  0  0  0  0  0  0  0
    2.8027    0.4103   -0.3041 H   0  0  0  0  0  0  0  0  0  0  0  0
    2.4973   -1.0973   -1.1740 H   0  0  0  0  0  0  0  0  0  0  0  0
    2.6904    0.0773   -3.3441 H   0  0  0  0  0  0  0  0  0  0  0  0
    3.0168    1.6109   -2.5032 H   0  0  0  0  0  0  0  0  0  0  0  0
    4.9076   -0.3069   -1.5919 H   0  0  0  0  0  0  0  0  0  0  0  0
    7.4042    0.3860   -4.0733 H   0  0  0  0  0  0  0  0  0  0  0  0
    7.0966   -0.3309   -2.5179 H   0  0  0  0  0  0  0  0  0  0  0  0
    5.5931    1.4279   -5.3325 H   0  0  0  0  0  0  0  0  0  0  0  0
    3.9863    1.4565   -4.6762 H   0  0  0  0  0  0  0  0  0  0  0  0
   -1.4238    1.6185   -0.4041 N   0  0  0  0  0  0  0  0  0  0  0  0
   -2.6842    2.3132   -0.5312 C   0  0  2  0  0  0  0  0  0  0  0  0
   -2.5356    3.3607   -1.6267 C   0  0  0  0  0  0  0  0  0  0  0  0
   -1.4874    3.9674   -1.8369 O   0  0  0  0  0  0  0  0  0  0  0  0
   -3.0965    2.9565    0.7837 C   0  0  0  0  0  0  0  0  0  0  0  0
   -0.5739    2.1531   -0.5579 H   0  0  0  0  0  0  0  0  0  0  0  0
   -3.4268    1.5678   -0.8361 H   0  0  0  0  0  0  0  0  0  0  0  0
   -2.3645    3.7063    1.1053 H   0  0  0  0  0  0  0  0  0  0  0  0
   -4.0656    3.4583    0.6932 H   0  0  0  0  0  0  0  0  0  0  0  0
   -3.1740    2.2058    1.5775 H   0  0  0  0  0  0  0  0  0  0  0  0
   -3.7232    3.5693   -2.3139 N   0  0  0  0  0  0  0  0  0  0  0  0
   -3.8510    4.5444   -3.3717 C   0  0  0  0  0  0  0  0  0  0  0  0
   -4.5321    2.9934   -2.1000 H   0  0  0  0  0  0  0  0  0  0  0  0
   -4.2036    5.4979   -2.9515 H   0  0  0  0  0  0  0  0  0  0  0  0
   -2.8727    4.6948   -3.8516 H   0  0  0  0  0  0  0  0  0  0  0  0
   -4.5738    4.1831   -4.1179 H   0  0  0  0  0  0  0  0  0  0  0  0
  1  3  1  0  0  0  0
  1  7  1  0  0  0  0
  1  2  2  0  0  0  0
 42 43  1  0  0  0  0
 43 51  1  0  0  0  0
 43 44  2  0  0  0  0
  8  9  1  0  0  0  0
  9 17  1  0  0  0  0
  9 10  2  0  0  0  0
 18 19  1  0  0  0  0
 19 41  1  0  0  0  0
 19 20  2  0  0  0  0
 25 26  1  0  0  0  0
 25 27  1  0  0  0  0
 24 25  2  0  0  0  0
 42 45  1  0  0  0  0
  8 11  1  0  0  0  0
 51 52  1  0  0  0  0
 21 22  1  0  0  0  0
 22 23  1  0  0  0  0
 18 21  1  0  0  0  0
 23 24  1  0  0  0  0
 41 42  1  0  0  0  0
  7  8  1  0  0  0  0
 17 18  1  0  0  0  0
  3  4  1  0  0  0  0
  3  5  1  0  0  0  0
  3  6  1  0  0  0  0
 45 48  1  0  0  0  0
 45 49  1  0  0  0  0
 45 50  1  0  0  0  0
 11 14  1  0  0  0  0
 11 15  1  0  0  0  0
 11 16  1  0  0  0  0
 52 54  1  0  0  0  0
 52 55  1  0  0  0  0
 52 56  1  0  0  0  0
 22 32  1  0  0  0  0
 22 33  1  0  0  0  0
 21 30  1  0  0  0  0
 21 31  1  0  0  0  0
 23 34  1  0  0  0  0
 23 35  1  0  0  0  0
 42 47  1  0  0  0  0
  8 13  1  0  0  0  0
 18 29  1  0  0  0  0
 26 37  1  0  0  0  0
 26 38  1  0  0  0  0
 27 39  1  0  0  0  0
 27 40  1  0  0  0  0
 51 53  1  0  0  0  0
  7 12  1  0  0  0  0
 41 46  1  0  0  0  0
 17 28  1  0  0  0  0
 24 36  1  0  0  0  0
M  CHG  1  24   1
M  END
$$$$

  -OEChem-05262214473D

 56 55  0     1  0  0  0  0  0999 V2000
    0.7735   -5.8042   -2.0022 C   0  0  0  0  0  0  0  0  0  0  0  0
   -0.2086   -6.3825   -1.5519 O   0  0  0  0  0  0  0  0  0  0  0  0
    1.4751   -6.3646   -3.1946 C   0  0  0  0  0  0  0  0  0  0  0  0
    2.2765   -7.0687   -2.9186 H   0  0  0  0  0  0  0  0  0  0  0  0
    0.7988   -6.9360   -3.8504 H   0  0  0  0  0  0  0  0  0  0  0  0
    1.9556   -5.6216   -3.8511 H   0  0  0  0  0  0  0  0  0  0  0  0
    1.3322   -4.6359   -1.5106 N   0  0  0  0  0  0  0  0  0  0  0  0
    0.8124   -3.9290   -0.3698 C   0  0  2  0  0  0  0  0  0  0  0  0
    1.0666   -2.4424   -0.5818 C   0  0  0  0  0  0  0  0  0  0  0  0
    2.0598   -2.0076   -1.1610 O   0  0  0  0  0  0  0  0  0  0  0  0
    1.4560   -4.4118    0.9207 C   0  0  0  0  0  0  0  0  0  0  0  0
    2.1528   -4.2578   -1.9805 H   0  0  0  0  0  0  0  0  0  0  0  0
   -0.2667   -4.1160   -0.3467 H   0  0  0  0  0  0  0  0  0  0  0  0
    2.5374   -4.2329    0.9160 H   0  0  0  0  0  0  0  0  0  0  0  0
    1.0390   -3.8932    1.7903 H   0  0  0  0  0  0  0  0  0  0  0  0
    1.2976   -5.4871    1.0566 H   0  0  0  0  0  0  0  0  0  0  0  0
    0.0755   -1.6529   -0.0105 N   0  0  0  0  0  0  0  0  0  0  0  0
    0.1113   -0.2132   -0.0391 C   0  0  2  0  0  0  0  0  0  0  0  0
   -1.3313    0.2811   -0.0450 C   0  0  0  0  0  0  0  0  0  0  0  0
   -2.2585   -0.3556    0.4512 O   0  0  0  0  0  0  0  0  0  0  0  0
    0.8649    0.3198   -1.2620 C   0  0  0  0  0  0  0  0  0  0  0  0
    2.3615   -0.0105   -1.2156 C   0  0  0  0  0  0  0  0  0  0  0  0
    3.1065    0.5224   -2.4351 C   0  0  0  0  0  0  0  0  0  0  0  0
    4.5278    0.1855   -2.3985 N   0  3  0  0  0  0  0  0  0  0  0  0
    5.4007    0.5140   -3.4374 C   0  0  0  0  0  0  0  0  0  0  0  0
    6.7422    0.1612   -3.3344 N   0  0  0  0  0  0  0  0  0  0  0  0
    4.9616    1.1863   -4.5732 N   0  0  0  0  0  0  0  0  0  0  0  0
   -0.7323   -2.1024    0.4149 H   0  0  0  0  0  0  0  0  0  0  0  0
    0.5965    0.1109    0.8886 H   0  0  0  0  0  0  0  0  0  0  0  0
    0.7353    1.4069   -1.3253 H   0  0  0  0  0  0  0  0  0  0  0  0
    0.4280   -0.0978   -2.1787 H   0  0  0  0  0  0  0  0  0  0  0  0
    2.8027    0.4103   -0.3041 H   0  0  0  0  0  0  0  0  0  0  0  0
    2.4973   -1.0973   -1.1740 H   0  0  0  0  0  0  0  0  0  0  0  0
    2.6904    0.0773   -3.3441 H   0  0  0  0  0  0  0  0  0  0  0  0
    3.0168    1.6109   -2.5032 H   0  0  0  0  0  0  0  0  0  0  0  0
    4.9076   -0.3069   -1.5919 H   0  0  0  0  0  0  0  0  0  0  0  0
    7.4042    0.3860   -4.0733 H   0  0  0  0  0  0  0  0  0  0  0  0
    7.0966   -0.3309   -2.5179 H   0  0  0  0  0  0  0  0  0  0  0  0
    5.5931    1.4279   -5.3325 H   0  0  0  0  0  0  0  0  0  0  0  0
    3.9863    1.4565   -4.6762 H   0  0  0  0  0  0  0  0  0  0  0  0
   -1.4663    1.4909   -0.7117 N   0  0  0  0  0  0  0  0  0  0  0  0
   -2.7395    2.1477   -0.8989 C   0  0  2  0  0  0  0  0  0  0  0  0
   -2.6933    2.8933   -2.2261 C   0  0  0  0  0  0  0  0  0  0  0  0
   -1.6722    3.4181   -2.6655 O   0  0  0  0  0  0  0  0  0  0  0  0
   -3.0458    3.0980    0.2481 C   0  0  0  0  0  0  0  0  0  0  0  0
   -0.6374    1.9618   -1.0623 H   0  0  0  0  0  0  0  0  0  0  0  0
   -3.4979    1.3588   -0.9487 H   0  0  0  0  0  0  0  0  0  0  0  0
   -2.2965    3.8953    0.3139 H   0  0  0  0  0  0  0  0  0  0  0  0
   -4.0238    3.5734    0.1191 H   0  0  0  0  0  0  0  0  0  0  0  0
   -3.0492    2.5653    1.2052 H   0  0  0  0  0  0  0  0  0  0  0  0
   -3.9364    2.9409   -2.8415 N   0  0  0  0  0  0  0  0  0  0  0  0
   -4.1618    3.6288   -4.0912 C   0  0  0  0  0  0  0  0  0  0  0  0
   -4.7189    2.4442   -2.4260 H   0  0  0  0  0  0  0  0  0  0  0  0
   -4.4868    4.6601   -3.8893 H   0  0  0  0  0  0  0  0  0  0  0  0
   -3.2287    3.6460   -4.6736 H   0  0  0  0  0  0  0  0  0  0  0  0
   -4.9413    3.1041   -4.6630 H   0  0  0  0  0  0  0  0  0  0  0  0
  1  3  1  0  0  0  0
  1  7  1  0  0  0  0
  1  2  2  0  0  0  0
 42 43  1  0  0  0  0
 43 51  1  0  0  0  0
 43 44  2  0  0  0  0
  8  9  1  0  0  0  0
  9 17  1  0  0  0  0
  9 10  2  0  0  0  0
 18 19  1  0  0  0  0
 19 41  1  0  0  0  0
 19 20  2  0  0  0  0
 25 26  1  0  0  0  0
 25 27  1  0  0  0  0
 24 25  2  0  0  0  0
 42 45  1  0  0  0  0
  8 11  1  0  0  0  0
 51 52  1  0  0  0  0
 21 22  1  0  0  0  0
 22 23  1  0  0  0  0
 18 21  1  0  0  0  0
 23 24  1  0  0  0  0
 41 42  1  0  0  0  0
  7  8  1  0  0  0  0
 17 18  1  0  0  0  0
  3  4  1  0  0  0  0
  3  5  1  0  0  0  0
  3  6  1  0  0  0  0
 45 48  1  0  0  0  0
 45 49  1  0  0  0  0
 45 50  1  0  0  0  0
 11 14  1  0  0  0  0
 11 15  1  0  0  0  0
 11 16  1  0  0  0  0
 52 54  1  0  0  0  0
 52 55  1  0  0  0  0
 52 56  1  0  0  0  0
 22 32  1  0  0  0  0
 22 33  1  0  0  0  0
 21 30  1  0  0  0  0
 21 31  1  0  0  0  0
 23 34  1  0  0  0  0
 23 35  1  0  0  0  0
 42 47  1  0  0  0  0
  8 13  1  0  0  0  0
 18 29  1  0  0  0  0
 26 37  1  0  0  0  0
 26 38  1  0  0  0  0
 27 39  1  0  0  0  0
 27 40  1  0  0  0  0
 51 53  1  0  0  0  0
  7 12  1  0  0  0  0
 41 46  1  0  0  0  0
 17 28  1  0  0  0  0
 24 36  1  0  0  0  0
M  CHG  1  24   1
M  END
$$$$

  -OEChem-05262214473D

 56 55  0     1  0  0  0  0  0999 V2000
    0.7735   -5.8042   -2.0022 C   0  0  0  0  0  0  0  0  0  0  0  0
   -0.2086   -6.3825   -1.5519 O   0  0  0  0  0  0  0  0  0  0  0  0
    1.4751   -6.3646   -3.1946 C   0  0  0  0  0  0  0  0  0  0  0  0
    2.2765   -7.0687   -2.9186 H   0  0  0  0  0  0  0  0  0  0  0  0
    0.7988   -6.9360   -3.8504 H   0  0  0  0  0  0  0  0  0  0  0  0
    1.9556   -5.6216   -3.8511 H   0  0  0  0  0  0  0  0  0  0  0  0
    1.3322   -4.6359   -1.5106 N   0  0  0  0  0  0  0  0  0  0  0  0
    0.8124   -3.9290   -0.3698 C   0  0  2  0  0  0  0  0  0  0  0  0
    1.0666   -2.4424   -0.5818 C   0  0  0  0  0  0  0  0  0  0  0  0
    2.0598   -2.0076   -1.1610 O   0  0  0  0  0  0  0  0  0  0  0  0
    1.4560   -4.4118    0.9207 C   0  0  0  0  0  0  0  0  0  0  0  0
    2.1528   -4.2578   -1.9805 H   0  0  0  0  0  0  0  0  0  0  0  0
   -0.2667   -4.1160   -0.3467 H   0  0  0  0  0  0  0  0  0  0  0  0
    2.5374   -4.2329    0.9160 H   0  0  0  0  0  0  0  0  0  0  0  0
    1.0390   -3.8932    1.7903 H   0  0  0  0  0  0  0  0  0  0  0  0
    1.2976   -5.4871    1.0566 H   0  0  0  0  0  0  0  0  0  0  0  0
    0.0755   -1.6529   -0.0105 N   0  0  0  0  0  0  0  0  0  0  0  0
    0.1113   -0.2132   -0.0391 C   0  0  2  0  0  0  0  0  0  0  0  0
   -1.3313    0.2811   -0.0450 C   0  0  0  0  0  0  0  0  0  0  0  0
   -2.2075   -0.2041    0.6678 O   0  0  0  0  0  0  0  0  0  0  0  0
    0.8649    0.3198   -1.2620 C   0  0  0  0  0  0  0  0  0  0  0  0
    2.3615   -0.0105   -1.2156 C   0  0  0  0  0  0  0  0  0  0  0  0
    3.1065    0.5224   -2.4351 C   0  0  0  0  0  0  0  0  0  0  0  0
    4.5278    0.1855   -2.3985 N   0  3  0  0  0  0  0  0  0  0  0  0
    5.4007    0.5140   -3.4374 C   0  0  0  0  0  0  0  0  0  0  0  0
    6.7422    0.1612   -3.3344 N   0  0  0  0  0  0  0  0  0  0  0  0
    4.9616    1.1863   -4.5732 N   0  0  0  0  0  0  0  0  0  0  0  0
   -0.7323   -2.1024    0.4149 H   0  0  0  0  0  0  0  0  0  0  0  0
    0.5965    0.1109    0.8886 H   0  0  0  0  0  0  0  0  0  0  0  0
    0.7353    1.4069   -1.3253 H   0  0  0  0  0  0  0  0  0  0  0  0
    0.4280   -0.0978   -2.1787 H   0  0  0  0  0  0  0  0  0  0  0  0
    2.8027    0.4103   -0.3041 H   0  0  0  0  0  0  0  0  0  0  0  0
    2.4973   -1.0973   -1.1740 H   0  0  0  0  0  0  0  0  0  0  0  0
    2.6904    0.0773   -3.3441 H   0  0  0  0  0  0  0  0  0  0  0  0
    3.0168    1.6109   -2.5032 H   0  0  0  0  0  0  0  0  0  0  0  0
    4.9076   -0.3069   -1.5919 H   0  0  0  0  0  0  0  0  0  0  0  0
    7.4042    0.3860   -4.0733 H   0  0  0  0  0  0  0  0  0  0  0  0
    7.0966   -0.3309   -2.5179 H   0  0  0  0  0  0  0  0  0  0  0  0
    5.5931    1.4279   -5.3325 H   0  0  0  0  0  0  0  0  0  0  0  0
    3.9863    1.4565   -4.6762 H   0  0  0  0  0  0  0  0  0  0  0  0
   -1.5332    1.2923   -0.9739 N   0  0  0  0  0  0  0  0  0  0  0  0
   -2.8238    1.8978   -1.2089 C   0  0  2  0  0  0  0  0  0  0  0  0
   -2.8964    2.2953   -2.6774 C   0  0  0  0  0  0  0  0  0  0  0  0
   -1.9208    2.6848   -3.3158 O   0  0  0  0  0  0  0  0  0  0  0  0
   -3.0417    3.1035   -0.3081 C   0  0  0  0  0  0  0  0  0  0  0  0
   -0.7413    1.6536   -1.4973 H   0  0  0  0  0  0  0  0  0  0  0  0
   -3.5763    1.1295   -1.0004 H   0  0  0  0  0  0  0  0  0  0  0  0
   -2.2971    3.8840   -0.5026 H   0  0  0  0  0  0  0  0  0  0  0  0
   -4.0315    3.5440   -0.4672 H   0  0  0  0  0  0  0  0  0  0  0  0
   -2.9596    2.8214    0.7472 H   0  0  0  0  0  0  0  0  0  0  0  0
   -4.1871    2.2051   -3.1793 N   0  0  0  0  0  0  0  0  0  0  0  0
   -4.5232    2.5686   -4.5361 C   0  0  0  0  0  0  0  0  0  0  0  0
   -4.9273    1.8341   -2.5908 H   0  0  0  0  0  0  0  0  0  0  0  0
   -4.8399    3.6216   -4.5663 H   0  0  0  0  0  0  0  0  0  0  0  0
   -3.6427    2.4320   -5.1810 H   0  0  0  0  0  0  0  0  0  0  0  0
   -5.3431    1.9288   -4.8946 H   0  0  0  0  0  0  0  0  0  0  0  0
  1  3  1  0  0  0  0
  1  7  1  0  0  0  0
  1  2  2  0  0  0  0
 42 43  1  0  0  0  0
 43 51  1  0  0  0  0
 43 44  2  0  0  0  0
  8  9  1  0  0  0  0
  9 17  1  0  0  0  0
  9 10  2  0  0  0  0
 18 19  1  0  0  0  0
 19 41  1  0  0  0  0
 19 20  2  0  0  0  0
 25 26  1  0  0  0  0
 25 27  1  0  0  0  0
 24 25  2  0  0  0  0
 42 45  1  0  0  0  0
  8 11  1  0  0  0  0
 51 52  1  0  0  0  0
 21 22  1  0  0  0  0
 22 23  1  0  0  0  0
 18 21  1  0  0  0  0
 23 24  1  0  0  0  0
 41 42  1  0  0  0  0
  7  8  1  0  0  0  0
 17 18  1  0  0  0  0
  3  4  1  0  0  0  0
  3  5  1  0  0  0  0
  3  6  1  0  0  0  0
 45 48  1  0  0  0  0
 45 49  1  0  0  0  0
 45 50  1  0  0  0  0
 11 14  1  0  0  0  0
 11 15  1  0  0  0  0
 11 16  1  0  0  0  0
 52 54  1  0  0  0  0
 52 55  1  0  0  0  0
 52 56  1  0  0  0  0
 22 32  1  0  0  0  0
 22 33  1  0  0  0  0
 21 30  1  0  0  0  0
 21 31  1  0  0  0  0
 23 34  1  0  0  0  0
 23 35  1  0  0  0  0
 42 47  1  0  0  0  0
  8 13  1  0  0  0  0
 18 29  1  0  0  0  0
 26 37  1  0  0  0  0
 26 38  1  0  0  0  0
 27 39  1  0  0  0  0
 27 40  1  0  0  0  0
 51 53  1  0  0  0  0
  7 12  1  0  0  0  0
 41 46  1  0  0  0  0
 17 28  1  0  0  0  0
 24 36  1  0  0  0  0
M  CHG  1  24   1
M  END
$$$$

  -OEChem-05262214473D

 56 55  0     1  0  0  0  0  0999 V2000
    0.7735   -5.8042   -2.0022 C   0  0  0  0  0  0  0  0  0  0  0  0
   -0.2086   -6.3825   -1.5519 O   0  0  0  0  0  0  0  0  0  0  0  0
    1.4751   -6.3646   -3.1946 C   0  0  0  0  0  0  0  0  0  0  0  0
    2.2765   -7.0687   -2.9186 H   0  0  0  0  0  0  0  0  0  0  0  0
    0.7988   -6.9360   -3.8504 H   0  0  0  0  0  0  0  0  0  0  0  0
    1.9556   -5.6216   -3.8511 H   0  0  0  0  0  0  0  0  0  0  0  0
    1.3322   -4.6359   -1.5106 N   0  0  0  0  0  0  0  0  0  0  0  0
    0.8124   -3.9290   -0.3698 C   0  0  2  0  0  0  0  0  0  0  0  0
    1.0666   -2.4424   -0.5818 C   0  0  0  0  0  0  0  0  0  0  0  0
    2.0598   -2.0076   -1.1610 O   0  0  0  0  0  0  0  0  0  0  0  0
    1.4560   -4.4118    0.9207 C   0  0  0  0  0  0  0  0  0  0  0  0
    2.1528   -4.2578   -1.9805 H   0  0  0  0  0  0  0  0  0  0  0  0
   -0.2667   -4.1160   -0.3467 H   0  0  0  0  0  0  0  0  0  0  0  0
    2.5374   -4.2329    0.9160 H   0  0  0  0  0  0  0  0  0  0  0  0
    1.0390   -3.8932    1.7903 H   0  0  0  0  0  0  0  0  0  0  0  0
    1.2976   -5.4871    1.0566 H   0  0  0  0  0  0  0  0  0  0  0  0
    0.0755   -1.6529   -0.0105 N   0  0  0  0  0  0  0  0  0  0  0  0
    0.1113   -0.2132   -0.0391 C   0  0  2  0  0  0  0  0  0  0  0  0
   -1.3313    0.2811   -0.0450 C   0  0  0  0  0  0  0  0  0  0  0  0
   -2.1399   -0.0048    0.8358 O   0  0  0  0  0  0  0  0  0  0  0  0
    0.8649    0.3198   -1.2620 C   0  0  0  0  0  0  0  0  0  0  0  0
    2.3615   -0.0105   -1.2156 C   0  0  0  0  0  0  0  0  0  0  0  0
    3.1065    0.5224   -2.4351 C   0  0  0  0  0  0  0  0  0  0  0  0
    4.5278    0.1855   -2.3985 N   0  3  0  0  0  0  0  0  0  0  0  0
    5.4007    0.5140   -3.4374 C   0  0  0  0  0  0  0  0  0  0  0  0
    6.7422    0.1612   -3.3344 N   0  0  0  0  0  0  0  0  0  0  0  0
    4.9616    1.1863   -4.5732 N   0  0  0  0  0  0  0  0  0  0  0  0
   -0.7323   -2.1024    0.4149 H   0  0  0  0  0  0  0  0  0  0  0  0
    0.5965    0.1109    0.8886 H   0  0  0  0  0  0  0  0  0  0  0  0
    0.7353    1.4069   -1.3253 H   0  0  0  0  0  0  0  0  0  0  0  0
    0.4280   -0.0978   -2.1787 H   0  0  0  0  0  0  0  0  0  0  0  0
    2.8027    0.4103   -0.3041 H   0  0  0  0  0  0  0  0  0  0  0  0
    2.4973   -1.0973   -1.1740 H   0  0  0  0  0  0  0  0  0  0  0  0
    2.6904    0.0773   -3.3441 H   0  0  0  0  0  0  0  0  0  0  0  0
    3.0168    1.6109   -2.5032 H   0  0  0  0  0  0  0  0  0  0  0  0
    4.9076   -0.3069   -1.5919 H   0  0  0  0  0  0  0  0  0  0  0  0
    7.4042    0.3860   -4.0733 H   0  0  0  0  0  0  0  0  0  0  0  0
    7.0966   -0.3309   -2.5179 H   0  0  0  0  0  0  0  0  0  0  0  0
    5.5931    1.4279   -5.3325 H   0  0  0  0  0  0  0  0  0  0  0  0
    3.9863    1.4565   -4.6762 H   0  0  0  0  0  0  0  0  0  0  0  0
   -1.6201    1.0364   -1.1730 N   0  0  0  0  0  0  0  0  0  0  0  0
   -2.9316    1.5806   -1.4402 C   0  0  2  0  0  0  0  0  0  0  0  0
   -3.1310    1.6074   -2.9498 C   0  0  0  0  0  0  0  0  0  0  0  0
   -2.2163    1.8176   -3.7436 O   0  0  0  0  0  0  0  0  0  0  0  0
   -3.0844    2.9726   -0.8470 C   0  0  0  0  0  0  0  0  0  0  0  0
   -0.8784    1.2495   -1.8334 H   0  0  0  0  0  0  0  0  0  0  0  0
   -3.6566    0.8954   -0.9875 H   0  0  0  0  0  0  0  0  0  0  0  0
   -2.3662    3.6731   -1.2883 H   0  0  0  0  0  0  0  0  0  0  0  0
   -4.0882    3.3720   -1.0256 H   0  0  0  0  0  0  0  0  0  0  0  0
   -2.9113    2.9565    0.2345 H   0  0  0  0  0  0  0  0  0  0  0  0
   -4.4585    1.4118   -3.3044 N   0  0  0  0  0  0  0  0  0  0  0  0
   -4.9108    1.4359   -4.6758 C   0  0  0  0  0  0  0  0  0  0  0  0
   -5.1430    1.2047   -2.5831 H   0  0  0  0  0  0  0  0  0  0  0  0
   -5.2388    2.4531   -4.9364 H   0  0  0  0  0  0  0  0  0  0  0  0
   -4.0863    1.1356   -5.3391 H   0  0  0  0  0  0  0  0  0  0  0  0
   -5.7518    0.7373   -4.7968 H   0  0  0  0  0  0  0  0  0  0  0  0
  1  3  1  0  0  0  0
  1  7  1  0  0  0  0
  1  2  2  0  0  0  0
 42 43  1  0  0  0  0
 43 51  1  0  0  0  0
 43 44  2  0  0  0  0
  8  9  1  0  0  0  0
  9 17  1  0  0  0  0
  9 10  2  0  0  0  0
 18 19  1  0  0  0  0
 19 41  1  0  0  0  0
 19 20  2  0  0  0  0
 25 26  1  0  0  0  0
 25 27  1  0  0  0  0
 24 25  2  0  0  0  0
 42 45  1  0  0  0  0
  8 11  1  0  0  0  0
 51 52  1  0  0  0  0
 21 22  1  0  0  0  0
 22 23  1  0  0  0  0
 18 21  1  0  0  0  0
 23 24  1  0  0  0  0
 41 42  1  0  0  0  0
  7  8  1  0  0  0  0
 17 18  1  0  0  0  0
  3  4  1  0  0  0  0
  3  5  1  0  0  0  0
  3  6  1  0  0  0  0
 45 48  1  0  0  0  0
 45 49  1  0  0  0  0
 45 50  1  0  0  0  0
 11 14  1  0  0  0  0
 11 15  1  0  0  0  0
 11 16  1  0  0  0  0
 52 54  1  0  0  0  0
 52 55  1  0  0  0  0
 52 56  1  0  0  0  0
 22 32  1  0  0  0  0
 22 33  1  0  0  0  0
 21 30  1  0  0  0  0
 21 31  1  0  0  0  0
 23 34  1  0  0  0  0
 23 35  1  0  0  0  0
 42 47  1  0  0  0  0
  8 13  1  0  0  0  0
 18 29  1  0  0  0  0
 26 37  1  0  0  0  0
 26 38  1  0  0  0  0
 27 39  1  0  0  0  0
 27 40  1  0  0  0  0
 51 53  1  0  0  0  0
  7 12  1  0  0  0  0
 41 46  1  0  0  0  0
 17 28  1  0  0  0  0
 24 36  1  0  0  0  0
M  CHG  1  24   1
M  END
$$$$

  -OEChem-05262214473D

 56 55  0     1  0  0  0  0  0999 V2000
    0.7735   -5.8042   -2.0022 C   0  0  0  0  0  0  0  0  0  0  0  0
   -0.2086   -6.3825   -1.5519 O   0  0  0  0  0  0  0  0  0  0  0  0
    1.4751   -6.3646   -3.1946 C   0  0  0  0  0  0  0  0  0  0  0  0
    2.2765   -7.0687   -2.9186 H   0  0  0  0  0  0  0  0  0  0  0  0
    0.7988   -6.9360   -3.8504 H   0  0  0  0  0  0  0  0  0  0  0  0
    1.9556   -5.6216   -3.8511 H   0  0  0  0  0  0  0  0  0  0  0  0
    1.3322   -4.6359   -1.5106 N   0  0  0  0  0  0  0  0  0  0  0  0
    0.8124   -3.9290   -0.3698 C   0  0  2  0  0  0  0  0  0  0  0  0
    1.0666   -2.4424   -0.5818 C   0  0  0  0  0  0  0  0  0  0  0  0
    2.0598   -2.0076   -1.1610 O   0  0  0  0  0  0  0  0  0  0  0  0
    1.4560   -4.4118    0.9207 C   0  0  0  0  0  0  0  0  0  0  0  0
    2.1528   -4.2578   -1.9805 H   0  0  0  0  0  0  0  0  0  0  0  0
   -0.2667   -4.1160   -0.3467 H   0  0  0  0  0  0  0  0  0  0  0  0
    2.5374   -4.2329    0.9160 H   0  0  0  0  0  0  0  0  0  0  0  0
    1.0390   -3.8932    1.7903 H   0  0  0  0  0  0  0  0  0  0  0  0
    1.2976   -5.4871    1.0566 H   0  0  0  0  0  0  0  0  0  0  0  0
    0.0755   -1.6529   -0.0105 N   0  0  0  0  0  0  0  0  0  0  0  0
    0.1113   -0.2132   -0.0391 C   0  0  2  0  0  0  0  0  0  0  0  0
   -1.3313    0.2811   -0.0450 C   0  0  0  0  0  0  0  0  0  0  0  0
   -2.0603    0.2288    0.9435 O   0  0  0  0  0  0  0  0  0  0  0  0
    0.8649    0.3198   -1.2620 C   0  0  0  0  0  0  0  0  0  0  0  0
    2.3615   -0.0105   -1.2156 C   0  0  0  0  0  0  0  0  0  0  0  0
    3.1065    0.5224   -2.4351 C   0  0  0  0  0  0  0  0  0  0  0  0
    4.5278    0.1855   -2.3985 N   0  3  0  0  0  0  0  0  0  0  0  0
    5.4007    0.5140   -3.4374 C   0  0  0  0  0  0  0  0  0  0  0  0
    6.7422    0.1612   -3.3344 N   0  0  0  0  0  0  0  0  0  0  0  0
    4.9616    1.1863   -4.5732 N   0  0  0  0  0  0  0  0  0  0  0  0
   -0.7323   -2.1024    0.4149 H   0  0  0  0  0  0  0  0  0  0  0  0
    0.5965    0.1109    0.8886 H   0  0  0  0  0  0  0  0  0  0  0  0
    0.7353    1.4069   -1.3253 H   0  0  0  0  0  0  0  0  0  0  0  0
    0.4280   -0.0978   -2.1787 H   0  0  0  0  0  0  0  0  0  0  0  0
    2.8027    0.4103   -0.3041 H   0  0  0  0  0  0  0  0  0  0  0  0
    2.4973   -1.0973   -1.1740 H   0  0  0  0  0  0  0  0  0  0  0  0
    2.6904    0.0773   -3.3441 H   0  0  0  0  0  0  0  0  0  0  0  0
    3.0168    1.6109   -2.5032 H   0  0  0  0  0  0  0  0  0  0  0  0
    4.9076   -0.3069   -1.5919 H   0  0  0  0  0  0  0  0  0  0  0  0
    7.4042    0.3860   -4.0733 H   0  0  0  0  0  0  0  0  0  0  0  0
    7.0966   -0.3309   -2.5179 H   0  0  0  0  0  0  0  0  0  0  0  0
    5.5931    1.4279   -5.3325 H   0  0  0  0  0  0  0  0  0  0  0  0
    3.9863    1.4565   -4.6762 H   0  0  0  0  0  0  0  0  0  0  0  0
   -1.7210    0.7406   -1.2953 N   0  0  0  0  0  0  0  0  0  0  0  0
   -3.0553    1.2178   -1.5768 C   0  0  2  0  0  0  0  0  0  0  0  0
   -3.3812    0.8764   -3.0249 C   0  0  0  0  0  0  0  0  0  0  0  0
   -2.5384    0.8754   -3.9197 O   0  0  0  0  0  0  0  0  0  0  0  0
   -3.1710    2.7142   -1.3319 C   0  0  0  0  0  0  0  0  0  0  0  0
   -1.0394    0.7769   -2.0475 H   0  0  0  0  0  0  0  0  0  0  0  0
   -3.7332    0.6726   -0.9110 H   0  0  0  0  0  0  0  0  0  0  0  0
   -2.4990    3.2772   -1.9899 H   0  0  0  0  0  0  0  0  0  0  0  0
   -4.1899    3.0692   -1.5182 H   0  0  0  0  0  0  0  0  0  0  0  0
   -2.9074    2.9614   -0.2978 H   0  0  0  0  0  0  0  0  0  0  0  0
   -4.7318    0.6152   -3.2083 N   0  0  0  0  0  0  0  0  0  0  0  0
   -5.2980    0.3081   -4.5010 C   0  0  0  0  0  0  0  0  0  0  0  0
   -5.3514    0.5988   -2.4035 H   0  0  0  0  0  0  0  0  0  0  0  0
   -5.6564    1.2341   -4.9743 H   0  0  0  0  0  0  0  0  0  0  0  0
   -4.5293   -0.1550   -5.1372 H   0  0  0  0  0  0  0  0  0  0  0  0
   -6.1395   -0.3893   -4.3763 H   0  0  0  0  0  0  0  0  0  0  0  0
  1  3  1  0  0  0  0
  1  7  1  0  0  0  0
  1  2  2  0  0  0  0
 42 43  1  0  0  0  0
 43 51  1  0  0  0  0
 43 44  2  0  0  0  0
  8  9  1  0  0  0  0
  9 17  1  0  0  0  0
  9 10  2  0  0  0  0
 18 19  1  0  0  0  0
 19 41  1  0  0  0  0
 19 20  2  0  0  0  0
 25 26  1  0  0  0  0
 25 27  1  0  0  0  0
 24 25  2  0  0  0  0
 42 45  1  0  0  0  0
  8 11  1  0  0  0  0
 51 52  1  0  0  0  0
 21 22  1  0  0  0  0
 22 23  1  0  0  0  0
 18 21  1  0  0  0  0
 23 24  1  0  0  0  0
 41 42  1  0  0  0  0
  7  8  1  0  0  0  0
 17 18  1  0  0  0  0
  3  4  1  0  0  0  0
  3  5  1  0  0  0  0
  3  6  1  0  0  0  0
 45 48  1  0  0  0  0
 45 49  1  0  0  0  0
 45 50  1  0  0  0  0
 11 14  1  0  0  0  0
 11 15  1  0  0  0  0
 11 16  1  0  0  0  0
 52 54  1  0  0  0  0
 52 55  1  0  0  0  0
 52 56  1  0  0  0  0
 22 32  1  0  0  0  0
 22 33  1  0  0  0  0
 21 30  1  0  0  0  0
 21 31  1  0  0  0  0
 23 34  1  0  0  0  0
 23 35  1  0  0  0  0
 42 47  1  0  0  0  0
  8 13  1  0  0  0  0
 18 29  1  0  0  0  0
 26 37  1  0  0  0  0
 26 38  1  0  0  0  0
 27 39  1  0  0  0  0
 27 40  1  0  0  0  0
 51 53  1  0  0  0  0
  7 12  1  0  0  0  0
 41 46  1  0  0  0  0
 17 28  1  0  0  0  0
 24 36  1  0  0  0  0
M  CHG  1  24   1
M  END
$$$$

  -OEChem-05262214473D

 56 55  0     1  0  0  0  0  0999 V2000
    0.7735   -5.8042   -2.0022 C   0  0  0  0  0  0  0  0  0  0  0  0
   -0.2086   -6.3825   -1.5519 O   0  0  0  0  0  0  0  0  0  0  0  0
    1.4751   -6.3646   -3.1946 C   0  0  0  0  0  0  0  0  0  0  0  0
    2.2765   -7.0687   -2.9186 H   0  0  0  0  0  0  0  0  0  0  0  0
    0.7988   -6.9360   -3.8504 H   0  0  0  0  0  0  0  0  0  0  0  0
    1.9556   -5.6216   -3.8511 H   0  0  0  0  0  0  0  0  0  0  0  0
    1.3322   -4.6359   -1.5106 N   0  0  0  0  0  0  0  0  0  0  0  0
    0.8124   -3.9290   -0.3698 C   0  0  2  0  0  0  0  0  0  0  0  0
    1.0666   -2.4424   -0.5818 C   0  0  0  0  0  0  0  0  0  0  0  0
    2.0598   -2.0076   -1.1610 O   0  0  0  0  0  0  0  0  0  0  0  0
    1.4560   -4.4118    0.9207 C   0  0  0  0  0  0  0  0  0  0  0  0
    2.1528   -4.2578   -1.9805 H   0  0  0  0  0  0  0  0  0  0  0  0
   -0.2667   -4.1160   -0.3467 H   0  0  0  0  0  0  0  0  0  0  0  0
    2.5374   -4.2329    0.9160 H   0  0  0  0  0  0  0  0  0  0  0  0
    1.0390   -3.8932    1.7903 H   0  0  0  0  0  0  0  0  0  0  0  0
    1.2976   -5.4871    1.0566 H   0  0  0  0  0  0  0  0  0  0  0  0
    0.0755   -1.6529   -0.0105 N   0  0  0  0  0  0  0  0  0  0  0  0
    0.1113   -0.2132   -0.0391 C   0  0  2  0  0  0  0  0  0  0  0  0
   -1.3313    0.2811   -0.0450 C   0  0  0  0  0  0  0  0  0  0  0  0
   -1.9741    0.4807    0.9837 O   0  0  0  0  0  0  0  0  0  0  0  0
    0.8649    0.3198   -1.2620 C   0  0  0  0  0  0  0  0  0  0  0  0
    2.3615   -0.0105   -1.2156 C   0  0  0  0  0  0  0  0  0  0  0  0
    3.1065    0.5224   -2.4351 C   0  0  0  0  0  0  0  0  0  0  0  0
    4.5278    0.1855   -2.3985 N   0  3  0  0  0  0  0  0  0  0  0  0
    5.4007    0.5140   -3.4374 C   0  0  0  0  0  0  0  0  0  0  0  0
    6.7422    0.1612   -3.3344 N   0  0  0  0  0  0  0  0  0  0  0  0
    4.9616    1.1863   -4.5732 N   0  0  0  0  0  0  0  0  0  0  0  0
   -0.7323   -2.1024    0.4149 H   0  0  0  0  0  0  0  0  0  0  0  0
    0.5965    0.1109    0.8886 H   0  0  0  0  0  0  0  0  0  0  0  0
    0.7353    1.4069   -1.3253 H   0  0  0  0  0  0  0  0  0  0  0  0
    0.4280   -0.0978   -2.1787 H   0  0  0  0  0  0  0  0  0  0  0  0
    2.8027    0.4103   -0.3041 H   0  0  0  0  0  0  0  0  0  0  0  0
    2.4973   -1.0973   -1.1740 H   0  0  0  0  0  0  0  0  0  0  0  0
    2.6904    0.0773   -3.3441 H   0  0  0  0  0  0  0  0  0  0  0  0
    3.0168    1.6109   -2.5032 H   0  0  0  0  0  0  0  0  0  0  0  0
    4.9076   -0.3069   -1.5919 H   0  0  0  0  0  0  0  0  0  0  0  0
    7.4042    0.3860   -4.0733 H   0  0  0  0  0  0  0  0  0  0  0  0
    7.0966   -0.3309   -2.5179 H   0  0  0  0  0  0  0  0  0  0  0  0
    5.5931    1.4279   -5.3325 H   0  0  0  0  0  0  0  0  0  0  0  0
    3.9863    1.4565   -4.6762 H   0  0  0  0  0  0  0  0  0  0  0  0
   -1.8290    0.4249   -1.3326 N   0  0  0  0  0  0  0  0  0  0  0  0
   -3.1867    0.8339   -1.6096 C   0  0  2  0  0  0  0  0  0  0  0  0
   -3.6298    0.1523   -2.8974 C   0  0  0  0  0  0  0  0  0  0  0  0
   -2.8652   -0.0774   -3.8321 O   0  0  0  0  0  0  0  0  0  0  0  0
   -3.2955    2.3460   -1.7298 C   0  0  0  0  0  0  0  0  0  0  0  0
   -1.2134    0.2683   -2.1252 H   0  0  0  0  0  0  0  0  0  0  0  0
   -3.8011    0.4761   -0.7762 H   0  0  0  0  0  0  0  0  0  0  0  0
   -2.6866    2.7230   -2.5595 H   0  0  0  0  0  0  0  0  0  0  0  0
   -4.3298    2.6563   -1.9113 H   0  0  0  0  0  0  0  0  0  0  0  0
   -2.9484    2.8358   -0.8135 H   0  0  0  0  0  0  0  0  0  0  0  0
   -4.9886   -0.1305   -2.8974 N   0  0  0  0  0  0  0  0  0  0  0  0
   -5.6584   -0.7382   -4.0235 C   0  0  0  0  0  0  0  0  0  0  0  0
   -5.5381    0.0577   -2.0642 H   0  0  0  0  0  0  0  0  0  0  0  0
   -6.0640    0.0478   -4.6774 H   0  0  0  0  0  0  0  0  0  0  0  0
   -4.9415   -1.3517   -4.5890 H   0  0  0  0  0  0  0  0  0  0  0  0
   -6.4799   -1.3741   -3.6617 H   0  0  0  0  0  0  0  0  0  0  0  0
  1  3  1  0  0  0  0
  1  7  1  0  0  0  0
  1  2  2  0  0  0  0
 42 43  1  0  0  0  0
 43 51  1  0  0  0  0
 43 44  2  0  0  0  0
  8  9  1  0  0  0  0
  9 17  1  0  0  0  0
  9 10  2  0  0  0  0
 18 19  1  0  0  0  0
 19 41  1  0  0  0  0
 19 20  2  0  0  0  0
 25 26  1  0  0  0  0
 25 27  1  0  0  0  0
 24 25  2  0  0  0  0
 42 45  1  0  0  0  0
  8 11  1  0  0  0  0
 51 52  1  0  0  0  0
 21 22  1  0  0  0  0
 22 23  1  0  0  0  0
 18 21  1  0  0  0  0
 23 24  1  0  0  0  0
 41 42  1  0  0  0  0
  7  8  1  0  0  0  0
 17 18  1  0  0  0  0
  3  4  1  0  0  0  0
  3  5  1  0  0  0  0
  3  6  1  0  0  0  0
 45 48  1  0  0  0  0
 45 49  1  0  0  0  0
 45 50  1  0  0  0  0
 11 14  1  0  0  0  0
 11 15  1  0  0  0  0
 11 16  1  0  0  0  0
 52 54  1  0  0  0  0
 52 55  1  0  0  0  0
 52 56  1  0  0  0  0
 22 32  1  0  0  0  0
 22 33  1  0  0  0  0
 21 30  1  0  0  0  0
 21 31  1  0  0  0  0
 23 34  1  0  0  0  0
 23 35  1  0  0  0  0
 42 47  1  0  0  0  0
  8 13  1  0  0  0  0
 18 29  1  0  0  0  0
 26 37  1  0  0  0  0
 26 38  1  0  0  0  0
 27 39  1  0  0  0  0
 27 40  1  0  0  0  0
 51 53  1  0  0  0  0
  7 12  1  0  0  0  0
 41 46  1  0  0  0  0
 17 28  1  0  0  0  0
 24 36  1  0  0  0  0
M  CHG  1  24   1
M  END
$$$$

  -OEChem-05262214473D

 56 55  0     1  0  0  0  0  0999 V2000
    0.7735   -5.8042   -2.0022 C   0  0  0  0  0  0  0  0  0  0  0  0
   -0.2086   -6.3825   -1.5519 O   0  0  0  0  0  0  0  0  0  0  0  0
    1.4751   -6.3646   -3.1946 C   0  0  0  0  0  0  0  0  0  0  0  0
    2.2765   -7.0687   -2.9186 H   0  0  0  0  0  0  0  0  0  0  0  0
    0.7988   -6.9360   -3.8504 H   0  0  0  0  0  0  0  0  0  0  0  0
    1.9556   -5.6216   -3.8511 H   0  0  0  0  0  0  0  0  0  0  0  0
    1.3322   -4.6359   -1.5106 N   0  0  0  0  0  0  0  0  0  0  0  0
    0.8124   -3.9290   -0.3698 C   0  0  2  0  0  0  0  0  0  0  0  0
    1.0666   -2.4424   -0.5818 C   0  0  0  0  0  0  0  0  0  0  0  0
    2.0598   -2.0076   -1.1610 O   0  0  0  0  0  0  0  0  0  0  0  0
    1.4560   -4.4118    0.9207 C   0  0  0  0  0  0  0  0  0  0  0  0
    2.1528   -4.2578   -1.9805 H   0  0  0  0  0  0  0  0  0  0  0  0
   -0.2667   -4.1160   -0.3467 H   0  0  0  0  0  0  0  0  0  0  0  0
    2.5374   -4.2329    0.9160 H   0  0  0  0  0  0  0  0  0  0  0  0
    1.0390   -3.8932    1.7903 H   0  0  0  0  0  0  0  0  0  0  0  0
    1.2976   -5.4871    1.0566 H   0  0  0  0  0  0  0  0  0  0  0  0
    0.0755   -1.6529   -0.0105 N   0  0  0  0  0  0  0  0  0  0  0  0
    0.1113   -0.2132   -0.0391 C   0  0  2  0  0  0  0  0  0  0  0  0
   -1.3313    0.2811   -0.0450 C   0  0  0  0  0  0  0  0  0  0  0  0
   -1.8873    0.7338    0.9536 O   0  0  0  0  0  0  0  0  0  0  0  0
    0.8649    0.3198   -1.2620 C   0  0  0  0  0  0  0  0  0  0  0  0
    2.3615   -0.0105   -1.2156 C   0  0  0  0  0  0  0  0  0  0  0  0
    3.1065    0.5224   -2.4351 C   0  0  0  0  0  0  0  0  0  0  0  0
    4.5278    0.1855   -2.3985 N   0  3  0  0  0  0  0  0  0  0  0  0
    5.4007    0.5140   -3.4374 C   0  0  0  0  0  0  0  0  0  0  0  0
    6.7422    0.1612   -3.3344 N   0  0  0  0  0  0  0  0  0  0  0  0
    4.9616    1.1863   -4.5732 N   0  0  0  0  0  0  0  0  0  0  0  0
   -0.7323   -2.1024    0.4149 H   0  0  0  0  0  0  0  0  0  0  0  0
    0.5965    0.1109    0.8886 H   0  0  0  0  0  0  0  0  0  0  0  0
    0.7353    1.4069   -1.3253 H   0  0  0  0  0  0  0  0  0  0  0  0
    0.4280   -0.0978   -2.1787 H   0  0  0  0  0  0  0  0  0  0  0  0
    2.8027    0.4103   -0.3041 H   0  0  0  0  0  0  0  0  0  0  0  0
    2.4973   -1.0973   -1.1740 H   0  0  0  0  0  0  0  0  0  0  0  0
    2.6904    0.0773   -3.3441 H   0  0  0  0  0  0  0  0  0  0  0  0
    3.0168    1.6109   -2.5032 H   0  0  0  0  0  0  0  0  0  0  0  0
    4.9076   -0.3069   -1.5919 H   0  0  0  0  0  0  0  0  0  0  0  0
    7.4042    0.3860   -4.0733 H   0  0  0  0  0  0  0  0  0  0  0  0
    7.0966   -0.3309   -2.5179 H   0  0  0  0  0  0  0  0  0  0  0  0
    5.5931    1.4279   -5.3325 H   0  0  0  0  0  0  0  0  0  0  0  0
    3.9863    1.4565   -4.6762 H   0  0  0  0  0  0  0  0  0  0  0  0
   -1.9368    0.1110   -1.2822 N   0  0  0  0  0  0  0  0  0  0  0  0
   -3.3168    0.4553   -1.5362 C   0  0  2  0  0  0  0  0  0  0  0  0
   -3.8600   -0.5158   -2.5761 C   0  0  0  0  0  0  0  0  0  0  0  0
   -3.1746   -0.9761   -3.4868 O   0  0  0  0  0  0  0  0  0  0  0  0
   -3.4496    1.8931   -2.0135 C   0  0  0  0  0  0  0  0  0  0  0  0
   -1.3885   -0.2419   -2.0610 H   0  0  0  0  0  0  0  0  0  0  0  0
   -3.8555    0.3194   -0.5921 H   0  0  0  0  0  0  0  0  0  0  0  0
   -2.9161    2.0485   -2.9583 H   0  0  0  0  0  0  0  0  0  0  0  0
   -4.4984    2.1613   -2.1781 H   0  0  0  0  0  0  0  0  0  0  0  0
   -3.0313    2.5882   -1.2775 H   0  0  0  0  0  0  0  0  0  0  0  0
   -5.2112   -0.7744   -2.3931 N   0  0  0  0  0  0  0  0  0  0  0  0
   -5.9675   -1.6316   -3.2758 C   0  0  0  0  0  0  0  0  0  0  0  0
   -5.6906   -0.3817   -1.5883 H   0  0  0  0  0  0  0  0  0  0  0  0
   -6.4341   -1.0249   -4.0659 H   0  0  0  0  0  0  0  0  0  0  0  0
   -5.2950   -2.3729   -3.7318 H   0  0  0  0  0  0  0  0  0  0  0  0
   -6.7496   -2.1501   -2.7018 H   0  0  0  0  0  0  0  0  0  0  0  0
  1  3  1  0  0  0  0
  1  7  1  0  0  0  0
  1  2  2  0  0  0  0
 42 43  1  0  0  0  0
 43 51  1  0  0  0  0
 43 44  2  0  0  0  0
  8  9  1  0  0  0  0
  9 17  1  0  0  0  0
  9 10  2  0  0  0  0
 18 19  1  0  0  0  0
 19 41  1  0  0  0  0
 19 20  2  0  0  0  0
 25 26  1  0  0  0  0
 25 27  1  0  0  0  0
 24 25  2  0  0  0  0
 42 45  1  0  0  0  0
  8 11  1  0  0  0  0
 51 52  1  0  0  0  0
 21 22  1  0  0  0  0
 22 23  1  0  0  0  0
 18 21  1  0  0  0  0
 23 24  1  0  0  0  0
 41 42  1  0  0  0  0
  7  8  1  0  0  0  0
 17 18  1  0  0  0  0
  3  4  1  0  0  0  0
  3  5  1  0  0  0  0
  3  6  1  0  0  0  0
 45 48  1  0  0  0  0
 45 49  1  0  0  0  0
 45 50  1  0  0  0  0
 11 14  1  0  0  0  0
 11 15  1  0  0  0  0
 11 16  1  0  0  0  0
 52 54  1  0  0  0  0
 52 55  1  0  0  0  0
 52 56  1  0  0  0  0
 22 32  1  0  0  0  0
 22 33  1  0  0  0  0
 21 30  1  0  0  0  0
 21 31  1  0  0  0  0
 23 34  1  0  0  0  0
 23 35  1  0  0  0  0
 42 47  1  0  0  0  0
  8 13  1  0  0  0  0
 18 29  1  0  0  0  0
 26 37  1  0  0  0  0
 26 38  1  0  0  0  0
 27 39  1  0  0  0  0
 27 40  1  0  0  0  0
 51 53  1  0  0  0  0
  7 12  1  0  0  0  0
 41 46  1  0  0  0  0
 17 28  1  0  0  0  0
 24 36  1  0  0  0  0
M  CHG  1  24   1
M  END
$$$$

  -OEChem-05262214473D

 56 55  0     1  0  0  0  0  0999 V2000
    0.7735   -5.8042   -2.0022 C   0  0  0  0  0  0  0  0  0  0  0  0
   -0.2086   -6.3825   -1.5519 O   0  0  0  0  0  0  0  0  0  0  0  0
    1.4751   -6.3646   -3.1946 C   0  0  0  0  0  0  0  0  0  0  0  0
    2.2765   -7.0687   -2.9186 H   0  0  0  0  0  0  0  0  0  0  0  0
    0.7988   -6.9360   -3.8504 H   0  0  0  0  0  0  0  0  0  0  0  0
    1.9556   -5.6216   -3.8511 H   0  0  0  0  0  0  0  0  0  0  0  0
    1.3322   -4.6359   -1.5106 N   0  0  0  0  0  0  0  0  0  0  0  0
    0.8124   -3.9290   -0.3698 C   0  0  2  0  0  0  0  0  0  0  0  0
    1.0666   -2.4424   -0.5818 C   0  0  0  0  0  0  0  0  0  0  0  0
    2.0598   -2.0076   -1.1610 O   0  0  0  0  0  0  0  0  0  0  0  0
    1.4560   -4.4118    0.9207 C   0  0  0  0  0  0  0  0  0  0  0  0
    2.1528   -4.2578   -1.9805 H   0  0  0  0  0  0  0  0  0  0  0  0
   -0.2667   -4.1160   -0.3467 H   0  0  0  0  0  0  0  0  0  0  0  0
    2.5374   -4.2329    0.9160 H   0  0  0  0  0  0  0  0  0  0  0  0
    1.0390   -3.8932    1.7903 H   0  0  0  0  0  0  0  0  0  0  0  0
    1.2976   -5.4871    1.0566 H   0  0  0  0  0  0  0  0  0  0  0  0
    0.0755   -1.6529   -0.0105 N   0  0  0  0  0  0  0  0  0  0  0  0
    0.1113   -0.2132   -0.0391 C   0  0  2  0  0  0  0  0  0  0  0  0
   -1.3313    0.2811   -0.0450 C   0  0  0  0  0  0  0  0  0  0  0  0
   -1.8057    0.9708    0.8553 O   0  0  0  0  0  0  0  0  0  0  0  0
    0.8649    0.3198   -1.2620 C   0  0  0  0  0  0  0  0  0  0  0  0
    2.3615   -0.0105   -1.2156 C   0  0  0  0  0  0  0  0  0  0  0  0
    3.1065    0.5224   -2.4351 C   0  0  0  0  0  0  0  0  0  0  0  0
    4.5278    0.1855   -2.3985 N   0  3  0  0  0  0  0  0  0  0  0  0
    5.4007    0.5140   -3.4374 C   0  0  0  0  0  0  0  0  0  0  0  0
    6.7422    0.1612   -3.3344 N   0  0  0  0  0  0  0  0  0  0  0  0
    4.9616    1.1863   -4.5732 N   0  0  0  0  0  0  0  0  0  0  0  0
   -0.7323   -2.1024    0.4149 H   0  0  0  0  0  0  0  0  0  0  0  0
    0.5965    0.1109    0.8886 H   0  0  0  0  0  0  0  0  0  0  0  0
    0.7353    1.4069   -1.3253 H   0  0  0  0  0  0  0  0  0  0  0  0
    0.4280   -0.0978   -2.1787 H   0  0  0  0  0  0  0  0  0  0  0  0
    2.8027    0.4103   -0.3041 H   0  0  0  0  0  0  0  0  0  0  0  0
    2.4973   -1.0973   -1.1740 H   0  0  0  0  0  0  0  0  0  0  0  0
    2.6904    0.0773   -3.3441 H   0  0  0  0  0  0  0  0  0  0  0  0
    3.0168    1.6109   -2.5032 H   0  0  0  0  0  0  0  0  0  0  0  0
    4.9076   -0.3069   -1.5919 H   0  0  0  0  0  0  0  0  0  0  0  0
    7.4042    0.3860   -4.0733 H   0  0  0  0  0  0  0  0  0  0  0  0
    7.0966   -0.3309   -2.5179 H   0  0  0  0  0  0  0  0  0  0  0  0
    5.5931    1.4279   -5.3325 H   0  0  0  0  0  0  0  0  0  0  0  0
    3.9863    1.4565   -4.6762 H   0  0  0  0  0  0  0  0  0  0  0  0
   -2.0369   -0.1797   -1.1477 N   0  0  0  0  0  0  0  0  0  0  0  0
   -3.4366    0.1076   -1.3617 C   0  0  2  0  0  0  0  0  0  0  0  0
   -4.0561   -1.0822   -2.0829 C   0  0  0  0  0  0  0  0  0  0  0  0
   -3.4452   -1.7592   -2.9072 O   0  0  0  0  0  0  0  0  0  0  0  0
   -3.6226    1.3863   -2.1637 C   0  0  0  0  0  0  0  0  0  0  0  0
   -1.5527   -0.7188   -1.8595 H   0  0  0  0  0  0  0  0  0  0  0  0
   -3.8928    0.2132   -0.3714 H   0  0  0  0  0  0  0  0  0  0  0  0
   -3.1719    1.2995   -3.1591 H   0  0  0  0  0  0  0  0  0  0  0  0
   -4.6840    1.6180   -2.3006 H   0  0  0  0  0  0  0  0  0  0  0  0
   -3.1506    2.2356   -1.6581 H   0  0  0  0  0  0  0  0  0  0  0  0
   -5.3847   -1.2726   -1.7296 N   0  0  0  0  0  0  0  0  0  0  0  0
   -6.2043   -2.3111   -2.3089 C   0  0  0  0  0  0  0  0  0  0  0  0
   -5.7984   -0.6894   -1.0082 H   0  0  0  0  0  0  0  0  0  0  0  0
   -6.7413   -1.9111   -3.1816 H   0  0  0  0  0  0  0  0  0  0  0  0
   -5.5654   -3.1492   -2.6242 H   0  0  0  0  0  0  0  0  0  0  0  0
   -6.9305   -2.6644   -1.5620 H   0  0  0  0  0  0  0  0  0  0  0  0
  1  3  1  0  0  0  0
  1  7  1  0  0  0  0
  1  2  2  0  0  0  0
 42 43  1  0  0  0  0
 43 51  1  0  0  0  0
 43 44  2  0  0  0  0
  8  9  1  0  0  0  0
  9 17  1  0  0  0  0
  9 10  2  0  0  0  0
 18 19  1  0  0  0  0
 19 41  1  0  0  0  0
 19 20  2  0  0  0  0
 25 26  1  0  0  0  0
 25 27  1  0  0  0  0
 24 25  2  0  0  0  0
 42 45  1  0  0  0  0
  8 11  1  0  0  0  0
 51 52  1  0  0  0  0
 21 22  1  0  0  0  0
 22 23  1  0  0  0  0
 18 21  1  0  0  0  0
 23 24  1  0  0  0  0
 41 42  1  0  0  0  0
  7  8  1  0  0  0  0
 17 18  1  0  0  0  0
  3  4  1  0  0  0  0
  3  5  1  0  0  0  0
  3  6  1  0  0  0  0
 45 48  1  0  0  0  0
 45 49  1  0  0  0  0
 45 50  1  0  0  0  0
 11 14  1  0  0  0  0
 11 15  1  0  0  0  0
 11 16  1  0  0  0  0
 52 54  1  0  0  0  0
 52 55  1  0  0  0  0
 52 56  1  0  0  0  0
 22 32  1  0  0  0  0
 22 33  1  0  0  0  0
 21 30  1  0  0  0  0
 21 31  1  0  0  0  0
 23 34  1  0  0  0  0
 23 35  1  0  0  0  0
 42 47  1  0  0  0  0
  8 13  1  0  0  0  0
 18 29  1  0  0  0  0
 26 37  1  0  0  0  0
 26 38  1  0  0  0  0
 27 39  1  0  0  0  0
 27 40  1  0  0  0  0
 51 53  1  0  0  0  0
  7 12  1  0  0  0  0
 41 46  1  0  0  0  0
 17 28  1  0  0  0  0
 24 36  1  0  0  0  0
M  CHG  1  24   1
M  END
$$$$

  -OEChem-05262214473D

 56 55  0     1  0  0  0  0  0999 V2000
    0.7735   -5.8042   -2.0022 C   0  0  0  0  0  0  0  0  0  0  0  0
   -0.2086   -6.3825   -1.5519 O   0  0  0  0  0  0  0  0  0  0  0  0
    1.4751   -6.3646   -3.1946 C   0  0  0  0  0  0  0  0  0  0  0  0
    2.2765   -7.0687   -2.9186 H   0  0  0  0  0  0  0  0  0  0  0  0
    0.7988   -6.9360   -3.8504 H   0  0  0  0  0  0  0  0  0  0  0  0
    1.9556   -5.6216   -3.8511 H   0  0  0  0  0  0  0  0  0  0  0  0
    1.3322   -4.6359   -1.5106 N   0  0  0  0  0  0  0  0  0  0  0  0
    0.8124   -3.9290   -0.3698 C   0  0  2  0  0  0  0  0  0  0  0  0
    1.0666   -2.4424   -0.5818 C   0  0  0  0  0  0  0  0  0  0  0  0
    2.0598   -2.0076   -1.1610 O   0  0  0  0  0  0  0  0  0  0  0  0
    1.4560   -4.4118    0.9207 C   0  0  0  0  0  0  0  0  0  0  0  0
    2.1528   -4.2578   -1.9805 H   0  0  0  0  0  0  0  0  0  0  0  0
   -0.2667   -4.1160   -0.3467 H   0  0  0  0  0  0  0  0  0  0  0  0
    2.5374   -4.2329    0.9160 H   0  0  0  0  0  0  0  0  0  0  0  0
    1.0390   -3.8932    1.7903 H   0  0  0  0  0  0  0  0  0  0  0  0
    1.2976   -5.4871    1.0566 H   0  0  0  0  0  0  0  0  0  0  0  0
    0.0755   -1.6529   -0.0105 N   0  0  0  0  0  0  0  0  0  0  0  0
    0.1113   -0.2132   -0.0391 C   0  0  2  0  0  0  0  0  0  0  0  0
   -1.3313    0.2811   -0.0450 C   0  0  0  0  0  0  0  0  0  0  0  0
   -1.7348    1.1756    0.6955 O   0  0  0  0  0  0  0  0  0  0  0  0
    0.8649    0.3198   -1.2620 C   0  0  0  0  0  0  0  0  0  0  0  0
    2.3615   -0.0105   -1.2156 C   0  0  0  0  0  0  0  0  0  0  0  0
    3.1065    0.5224   -2.4351 C   0  0  0  0  0  0  0  0  0  0  0  0
    4.5278    0.1855   -2.3985 N   0  3  0  0  0  0  0  0  0  0  0  0
    5.4007    0.5140   -3.4374 C   0  0  0  0  0  0  0  0  0  0  0  0
    6.7422    0.1612   -3.3344 N   0  0  0  0  0  0  0  0  0  0  0  0
    4.9616    1.1863   -4.5732 N   0  0  0  0  0  0  0  0  0  0  0  0
   -0.7323   -2.1024    0.4149 H   0  0  0  0  0  0  0  0  0  0  0  0
    0.5965    0.1109    0.8886 H   0  0  0  0  0  0  0  0  0  0  0  0
    0.7353    1.4069   -1.3253 H   0  0  0  0  0  0  0  0  0  0  0  0
    0.4280   -0.0978   -2.1787 H   0  0  0  0  0  0  0  0  0  0  0  0
    2.8027    0.4103   -0.3041 H   0  0  0  0  0  0  0  0  0  0  0  0
    2.4973   -1.0973   -1.1740 H   0  0  0  0  0  0  0  0  0  0  0  0
    2.6904    0.0773   -3.3441 H   0  0  0  0  0  0  0  0  0  0  0  0
    3.0168    1.6109   -2.5032 H   0  0  0  0  0  0  0  0  0  0  0  0
    4.9076   -0.3069   -1.5919 H   0  0  0  0  0  0  0  0  0  0  0  0
    7.4042    0.3860   -4.0733 H   0  0  0  0  0  0  0  0  0  0  0  0
    7.0966   -0.3309   -2.5179 H   0  0  0  0  0  0  0  0  0  0  0  0
    5.5931    1.4279   -5.3325 H   0  0  0  0  0  0  0  0  0  0  0  0
    3.9863    1.4565   -4.6762 H   0  0  0  0  0  0  0  0  0  0  0  0
   -2.1227   -0.4276   -0.9382 N   0  0  0  0  0  0  0  0  0  0  0  0
   -3.5381   -0.1853   -1.0980 C   0  0  2  0  0  0  0  0  0  0  0  0
   -4.2047   -1.5083   -1.4513 C   0  0  0  0  0  0  0  0  0  0  0  0
   -3.6589   -2.3735   -2.1330 O   0  0  0  0  0  0  0  0  0  0  0  0
   -3.8029    0.8601   -2.1702 C   0  0  0  0  0  0  0  0  0  0  0  0
   -1.6949   -1.1300   -1.5342 H   0  0  0  0  0  0  0  0  0  0  0  0
   -3.9104    0.1646   -0.1291 H   0  0  0  0  0  0  0  0  0  0  0  0
   -3.4366    0.5272   -3.1482 H   0  0  0  0  0  0  0  0  0  0  0  0
   -4.8742    1.0634   -2.2702 H   0  0  0  0  0  0  0  0  0  0  0  0
   -3.2981    1.8020   -1.9293 H   0  0  0  0  0  0  0  0  0  0  0  0
   -5.4970   -1.5913   -0.9521 N   0  0  0  0  0  0  0  0  0  0  0  0
   -6.3526   -2.7305   -1.1888 C   0  0  0  0  0  0  0  0  0  0  0  0
   -5.8542   -0.8445   -0.3635 H   0  0  0  0  0  0  0  0  0  0  0  0
   -6.9647   -2.5502   -2.0847 H   0  0  0  0  0  0  0  0  0  0  0  0
   -5.7345   -3.6276   -1.3416 H   0  0  0  0  0  0  0  0  0  0  0  0
   -7.0100   -2.8819   -0.3200 H   0  0  0  0  0  0  0  0  0  0  0  0
  1  3  1  0  0  0  0
  1  7  1  0  0  0  0
  1  2  2  0  0  0  0
 42 43  1  0  0  0  0
 43 51  1  0  0  0  0
 43 44  2  0  0  0  0
  8  9  1  0  0  0  0
  9 17  1  0  0  0  0
  9 10  2  0  0  0  0
 18 19  1  0  0  0  0
 19 41  1  0  0  0  0
 19 20  2  0  0  0  0
 25 26  1  0  0  0  0
 25 27  1  0  0  0  0
 24 25  2  0  0  0  0
 42 45  1  0  0  0  0
  8 11  1  0  0  0  0
 51 52  1  0  0  0  0
 21 22  1  0  0  0  0
 22 23  1  0  0  0  0
 18 21  1  0  0  0  0
 23 24  1  0  0  0  0
 41 42  1  0  0  0  0
  7  8  1  0  0  0  0
 17 18  1  0  0  0  0
  3  4  1  0  0  0  0
  3  5  1  0  0  0  0
  3  6  1  0  0  0  0
 45 48  1  0  0  0  0
 45 49  1  0  0  0  0
 45 50  1  0  0  0  0
 11 14  1  0  0  0  0
 11 15  1  0  0  0  0
 11 16  1  0  0  0  0
 52 54  1  0  0  0  0
 52 55  1  0  0  0  0
 52 56  1  0  0  0  0
 22 32  1  0  0  0  0
 22 33  1  0  0  0  0
 21 30  1  0  0  0  0
 21 31  1  0  0  0  0
 23 34  1  0  0  0  0
 23 35  1  0  0  0  0
 42 47  1  0  0  0  0
  8 13  1  0  0  0  0
 18 29  1  0  0  0  0
 26 37  1  0  0  0  0
 26 38  1  0  0  0  0
 27 39  1  0  0  0  0
 27 40  1  0  0  0  0
 51 53  1  0  0  0  0
  7 12  1  0  0  0  0
 41 46  1  0  0  0  0
 17 28  1  0  0  0  0
 24 36  1  0  0  0  0
M  CHG  1  24   1
M  END
$$$$

  -OEChem-05262214473D

 56 55  0     1  0  0  0  0  0999 V2000
    0.7735   -5.8042   -2.0022 C   0  0  0  0  0  0  0  0  0  0  0  0
   -0.2086   -6.3825   -1.5519 O   0  0  0  0  0  0  0  0  0  0  0  0
    1.4751   -6.3646   -3.1946 C   0  0  0  0  0  0  0  0  0  0  0  0
    2.2765   -7.0687   -2.9186 H   0  0  0  0  0  0  0  0  0  0  0  0
    0.7988   -6.9360   -3.8504 H   0  0  0  0  0  0  0  0  0  0  0  0
    1.9556   -5.6216   -3.8511 H   0  0  0  0  0  0  0  0  0  0  0  0
    1.3322   -4.6359   -1.5106 N   0  0  0  0  0  0  0  0  0  0  0  0
    0.8124   -3.9290   -0.3698 C   0  0  2  0  0  0  0  0  0  0  0  0
    1.0666   -2.4424   -0.5818 C   0  0  0  0  0  0  0  0  0  0  0  0
    2.0598   -2.0076   -1.1610 O   0  0  0  0  0  0  0  0  0  0  0  0
    1.4560   -4.4118    0.9207 C   0  0  0  0  0  0  0  0  0  0  0  0
    2.1528   -4.2578   -1.9805 H   0  0  0  0  0  0  0  0  0  0  0  0
   -0.2667   -4.1160   -0.3467 H   0  0  0  0  0  0  0  0  0  0  0  0
    2.5374   -4.2329    0.9160 H   0  0  0  0  0  0  0  0  0  0  0  0
    1.0390   -3.8932    1.7903 H   0  0  0  0  0  0  0  0  0  0  0  0
    1.2976   -5.4871    1.0566 H   0  0  0  0  0  0  0  0  0  0  0  0
    0.0755   -1.6529   -0.0105 N   0  0  0  0  0  0  0  0  0  0  0  0
    0.1113   -0.2132   -0.0391 C   0  0  2  0  0  0  0  0  0  0  0  0
   -1.3313    0.2811   -0.0450 C   0  0  0  0  0  0  0  0  0  0  0  0
   -1.6796    1.3342    0.4850 O   0  0  0  0  0  0  0  0  0  0  0  0
    0.8649    0.3198   -1.2620 C   0  0  0  0  0  0  0  0  0  0  0  0
    2.3615   -0.0105   -1.2156 C   0  0  0  0  0  0  0  0  0  0  0  0
    3.1065    0.5224   -2.4351 C   0  0  0  0  0  0  0  0  0  0  0  0
    4.5278    0.1855   -2.3985 N   0  3  0  0  0  0  0  0  0  0  0  0
    5.4007    0.5140   -3.4374 C   0  0  0  0  0  0  0  0  0  0  0  0
    6.7422    0.1612   -3.3344 N   0  0  0  0  0  0  0  0  0  0  0  0
    4.9616    1.1863   -4.5732 N   0  0  0  0  0  0  0  0  0  0  0  0
   -0.7323   -2.1024    0.4149 H   0  0  0  0  0  0  0  0  0  0  0  0
    0.5965    0.1109    0.8886 H   0  0  0  0  0  0  0  0  0  0  0  0
    0.7353    1.4069   -1.3253 H   0  0  0  0  0  0  0  0  0  0  0  0
    0.4280   -0.0978   -2.1787 H   0  0  0  0  0  0  0  0  0  0  0  0
    2.8027    0.4103   -0.3041 H   0  0  0  0  0  0  0  0  0  0  0  0
    2.4973   -1.0973   -1.1740 H   0  0  0  0  0  0  0  0  0  0  0  0
    2.6904    0.0773   -3.3441 H   0  0  0  0  0  0  0  0  0  0  0  0
    3.0168    1.6109   -2.5032 H   0  0  0  0  0  0  0  0  0  0  0  0
    4.9076   -0.3069   -1.5919 H   0  0  0  0  0  0  0  0  0  0  0  0
    7.4042    0.3860   -4.0733 H   0  0  0  0  0  0  0  0  0  0  0  0
    7.0966   -0.3309   -2.5179 H   0  0  0  0  0  0  0  0  0  0  0  0
    5.5931    1.4279   -5.3325 H   0  0  0  0  0  0  0  0  0  0  0  0
    3.9863    1.4565   -4.6762 H   0  0  0  0  0  0  0  0  0  0  0  0
   -2.1882   -0.6156   -0.6679 N   0  0  0  0  0  0  0  0  0  0  0  0
   -3.6142   -0.4036   -0.7631 C   0  0  2  0  0  0  0  0  0  0  0  0
   -4.2956   -1.7652   -0.7245 C   0  0  0  0  0  0  0  0  0  0  0  0
   -3.8009   -2.7770   -1.2168 O   0  0  0  0  0  0  0  0  0  0  0  0
   -3.9781    0.3505   -2.0326 C   0  0  0  0  0  0  0  0  0  0  0  0
   -1.8054   -1.4474   -1.1075 H   0  0  0  0  0  0  0  0  0  0  0  0
   -3.9072    0.1771    0.1184 H   0  0  0  0  0  0  0  0  0  0  0  0
   -3.6921   -0.2159   -2.9264 H   0  0  0  0  0  0  0  0  0  0  0  0
   -5.0559    0.5353   -2.0892 H   0  0  0  0  0  0  0  0  0  0  0  0
   -3.4638    1.3168   -2.0728 H   0  0  0  0  0  0  0  0  0  0  0  0
   -5.5406   -1.7086   -0.1137 N   0  0  0  0  0  0  0  0  0  0  0  0
   -6.4022   -2.8613    0.0083 C   0  0  0  0  0  0  0  0  0  0  0  0
   -5.8541   -0.8364    0.3019 H   0  0  0  0  0  0  0  0  0  0  0  0
   -7.0892   -2.8987   -0.8500 H   0  0  0  0  0  0  0  0  0  0  0  0
   -5.7908   -3.7754    0.0286 H   0  0  0  0  0  0  0  0  0  0  0  0
   -6.9829   -2.7878    0.9397 H   0  0  0  0  0  0  0  0  0  0  0  0
  1  3  1  0  0  0  0
  1  7  1  0  0  0  0
  1  2  2  0  0  0  0
 42 43  1  0  0  0  0
 43 51  1  0  0  0  0
 43 44  2  0  0  0  0
  8  9  1  0  0  0  0
  9 17  1  0  0  0  0
  9 10  2  0  0  0  0
 18 19  1  0  0  0  0
 19 41  1  0  0  0  0
 19 20  2  0  0  0  0
 25 26  1  0  0  0  0
 25 27  1  0  0  0  0
 24 25  2  0  0  0  0
 42 45  1  0  0  0  0
  8 11  1  0  0  0  0
 51 52  1  0  0  0  0
 21 22  1  0  0  0  0
 22 23  1  0  0  0  0
 18 21  1  0  0  0  0
 23 24  1  0  0  0  0
 41 42  1  0  0  0  0
  7  8  1  0  0  0  0
 17 18  1  0  0  0  0
  3  4  1  0  0  0  0
  3  5  1  0  0  0  0
  3  6  1  0  0  0  0
 45 48  1  0  0  0  0
 45 49  1  0  0  0  0
 45 50  1  0  0  0  0
 11 14  1  0  0  0  0
 11 15  1  0  0  0  0
 11 16  1  0  0  0  0
 52 54  1  0  0  0  0
 52 55  1  0  0  0  0
 52 56  1  0  0  0  0
 22 32  1  0  0  0  0
 22 33  1  0  0  0  0
 21 30  1  0  0  0  0
 21 31  1  0  0  0  0
 23 34  1  0  0  0  0
 23 35  1  0  0  0  0
 42 47  1  0  0  0  0
  8 13  1  0  0  0  0
 18 29  1  0  0  0  0
 26 37  1  0  0  0  0
 26 38  1  0  0  0  0
 27 39  1  0  0  0  0
 27 40  1  0  0  0  0
 51 53  1  0  0  0  0
  7 12  1  0  0  0  0
 41 46  1  0  0  0  0
 17 28  1  0  0  0  0
 24 36  1  0  0  0  0
M  CHG  1  24   1
M  END
$$$$

  -OEChem-05262214473D

 56 55  0     1  0  0  0  0  0999 V2000
    0.7735   -5.8042   -2.0022 C   0  0  0  0  0  0  0  0  0  0  0  0
   -0.2086   -6.3825   -1.5519 O   0  0  0  0  0  0  0  0  0  0  0  0
    1.4751   -6.3646   -3.1946 C   0  0  0  0  0  0  0  0  0  0  0  0
    2.2765   -7.0687   -2.9186 H   0  0  0  0  0  0  0  0  0  0  0  0
    0.7988   -6.9360   -3.8504 H   0  0  0  0  0  0  0  0  0  0  0  0
    1.9556   -5.6216   -3.8511 H   0  0  0  0  0  0  0  0  0  0  0  0
    1.3322   -4.6359   -1.5106 N   0  0  0  0  0  0  0  0  0  0  0  0
    0.8124   -3.9290   -0.3698 C   0  0  2  0  0  0  0  0  0  0  0  0
    1.0666   -2.4424   -0.5818 C   0  0  0  0  0  0  0  0  0  0  0  0
    2.0598   -2.0076   -1.1610 O   0  0  0  0  0  0  0  0  0  0  0  0
    1.4560   -4.4118    0.9207 C   0  0  0  0  0  0  0  0  0  0  0  0
    2.1528   -4.2578   -1.9805 H   0  0  0  0  0  0  0  0  0  0  0  0
   -0.2667   -4.1160   -0.3467 H   0  0  0  0  0  0  0  0  0  0  0  0
    2.5374   -4.2329    0.9160 H   0  0  0  0  0  0  0  0  0  0  0  0
    1.0390   -3.8932    1.7903 H   0  0  0  0  0  0  0  0  0  0  0  0
    1.2976   -5.4871    1.0566 H   0  0  0  0  0  0  0  0  0  0  0  0
    0.0755   -1.6529   -0.0105 N   0  0  0  0  0  0  0  0  0  0  0  0
    0.1113   -0.2132   -0.0391 C   0  0  2  0  0  0  0  0  0  0  0  0
   -1.3313    0.2811   -0.0450 C   0  0  0  0  0  0  0  0  0  0  0  0
   -1.6438    1.4358    0.2382 O   0  0  0  0  0  0  0  0  0  0  0  0
    0.8649    0.3198   -1.2620 C   0  0  0  0  0  0  0  0  0  0  0  0
    2.3615   -0.0105   -1.2156 C   0  0  0  0  0  0  0  0  0  0  0  0
    3.1065    0.5224   -2.4351 C   0  0  0  0  0  0  0  0  0  0  0  0
    4.5278    0.1855   -2.3985 N   0  3  0  0  0  0  0  0  0  0  0  0
    5.4007    0.5140   -3.4374 C   0  0  0  0  0  0  0  0  0  0  0  0
    6.7422    0.1612   -3.3344 N   0  0  0  0  0  0  0  0  0  0  0  0
    4.9616    1.1863   -4.5732 N   0  0  0  0  0  0  0  0  0  0  0  0
   -0.7323   -2.1024    0.4149 H   0  0  0  0  0  0  0  0  0  0  0  0
    0.5965    0.1109    0.8886 H   0  0  0  0  0  0  0  0  0  0  0  0
    0.7353    1.4069   -1.3253 H   0  0  0  0  0  0  0  0  0  0  0  0
    0.4280   -0.0978   -2.1787 H   0  0  0  0  0  0  0  0  0  0  0  0
    2.8027    0.4103   -0.3041 H   0  0  0  0  0  0  0  0  0  0  0  0
    2.4973   -1.0973   -1.1740 H   0  0  0  0  0  0  0  0  0  0  0  0
    2.6904    0.0773   -3.3441 H   0  0  0  0  0  0  0  0  0  0  0  0
    3.0168    1.6109   -2.5032 H   0  0  0  0  0  0  0  0  0  0  0  0
    4.9076   -0.3069   -1.5919 H   0  0  0  0  0  0  0  0  0  0  0  0
    7.4042    0.3860   -4.0733 H   0  0  0  0  0  0  0  0  0  0  0  0
    7.0966   -0.3309   -2.5179 H   0  0  0  0  0  0  0  0  0  0  0  0
    5.5931    1.4279   -5.3325 H   0  0  0  0  0  0  0  0  0  0  0  0
    3.9863    1.4565   -4.6762 H   0  0  0  0  0  0  0  0  0  0  0  0
   -2.2290   -0.7309   -0.3553 N   0  0  0  0  0  0  0  0  0  0  0  0
   -3.6599   -0.5324   -0.3797 C   0  0  2  0  0  0  0  0  0  0  0  0
   -4.3227   -1.8352    0.0481 C   0  0  0  0  0  0  0  0  0  0  0  0
   -3.8616   -2.9424   -0.2211 O   0  0  0  0  0  0  0  0  0  0  0  0
   -4.1362   -0.1079   -1.7601 C   0  0  0  0  0  0  0  0  0  0  0  0
   -1.8766   -1.6493   -0.6083 H   0  0  0  0  0  0  0  0  0  0  0  0
   -3.8832    0.2497    0.3540 H   0  0  0  0  0  0  0  0  0  0  0  0
   -3.9210   -0.8791   -2.5087 H   0  0  0  0  0  0  0  0  0  0  0  0
   -5.2167    0.0697   -1.7698 H   0  0  0  0  0  0  0  0  0  0  0  0
   -3.6363    0.8132   -2.0787 H   0  0  0  0  0  0  0  0  0  0  0  0
   -5.5125   -1.6166    0.7285 N   0  0  0  0  0  0  0  0  0  0  0  0
   -6.3498   -2.6944    1.2008 C   0  0  0  0  0  0  0  0  0  0  0  0
   -5.7982   -0.6656    0.9426 H   0  0  0  0  0  0  0  0  0  0  0  0
   -7.1061   -2.9329    0.4385 H   0  0  0  0  0  0  0  0  0  0  0  0
   -5.7302   -3.5827    1.3930 H   0  0  0  0  0  0  0  0  0  0  0  0
   -6.8509   -2.3885    2.1311 H   0  0  0  0  0  0  0  0  0  0  0  0
  1  3  1  0  0  0  0
  1  7  1  0  0  0  0
  1  2  2  0  0  0  0
 42 43  1  0  0  0  0
 43 51  1  0  0  0  0
 43 44  2  0  0  0  0
  8  9  1  0  0  0  0
  9 17  1  0  0  0  0
  9 10  2  0  0  0  0
 18 19  1  0  0  0  0
 19 41  1  0  0  0  0
 19 20  2  0  0  0  0
 25 26  1  0  0  0  0
 25 27  1  0  0  0  0
 24 25  2  0  0  0  0
 42 45  1  0  0  0  0
  8 11  1  0  0  0  0
 51 52  1  0  0  0  0
 21 22  1  0  0  0  0
 22 23  1  0  0  0  0
 18 21  1  0  0  0  0
 23 24  1  0  0  0  0
 41 42  1  0  0  0  0
  7  8  1  0  0  0  0
 17 18  1  0  0  0  0
  3  4  1  0  0  0  0
  3  5  1  0  0  0  0
  3  6  1  0  0  0  0
 45 48  1  0  0  0  0
 45 49  1  0  0  0  0
 45 50  1  0  0  0  0
 11 14  1  0  0  0  0
 11 15  1  0  0  0  0
 11 16  1  0  0  0  0
 52 54  1  0  0  0  0
 52 55  1  0  0  0  0
 52 56  1  0  0  0  0
 22 32  1  0  0  0  0
 22 33  1  0  0  0  0
 21 30  1  0  0  0  0
 21 31  1  0  0  0  0
 23 34  1  0  0  0  0
 23 35  1  0  0  0  0
 42 47  1  0  0  0  0
  8 13  1  0  0  0  0
 18 29  1  0  0  0  0
 26 37  1  0  0  0  0
 26 38  1  0  0  0  0
 27 39  1  0  0  0  0
 27 40  1  0  0  0  0
 51 53  1  0  0  0  0
  7 12  1  0  0  0  0
 41 46  1  0  0  0  0
 17 28  1  0  0  0  0
 24 36  1  0  0  0  0
M  CHG  1  24   1
M  END
$$$$

  -OEChem-05262214473D

 56 55  0     1  0  0  0  0  0999 V2000
    0.7735   -5.8042   -2.0022 C   0  0  0  0  0  0  0  0  0  0  0  0
   -0.2086   -6.3825   -1.5519 O   0  0  0  0  0  0  0  0  0  0  0  0
    1.4751   -6.3646   -3.1946 C   0  0  0  0  0  0  0  0  0  0  0  0
    2.2765   -7.0687   -2.9186 H   0  0  0  0  0  0  0  0  0  0  0  0
    0.7988   -6.9360   -3.8504 H   0  0  0  0  0  0  0  0  0  0  0  0
    1.9556   -5.6216   -3.8511 H   0  0  0  0  0  0  0  0  0  0  0  0
    1.3322   -4.6359   -1.5106 N   0  0  0  0  0  0  0  0  0  0  0  0
    0.8124   -3.9290   -0.3698 C   0  0  2  0  0  0  0  0  0  0  0  0
    1.0666   -2.4424   -0.5818 C   0  0  0  0  0  0  0  0  0  0  0  0
    2.0598   -2.0076   -1.1610 O   0  0  0  0  0  0  0  0  0  0  0  0
    1.4560   -4.4118    0.9207 C   0  0  0  0  0  0  0  0  0  0  0  0
    2.1528   -4.2578   -1.9805 H   0  0  0  0  0  0  0  0  0  0  0  0
   -0.2667   -4.1160   -0.3467 H   0  0  0  0  0  0  0  0  0  0  0  0
    2.5374   -4.2329    0.9160 H   0  0  0  0  0  0  0  0  0  0  0  0
    1.0390   -3.8932    1.7903 H   0  0  0  0  0  0  0  0  0  0  0  0
    1.2976   -5.4871    1.0566 H   0  0  0  0  0  0  0  0  0  0  0  0
    0.0755   -1.6529   -0.0105 N   0  0  0  0  0  0  0  0  0  0  0  0
    0.1113   -0.2132   -0.0391 C   0  0  2  0  0  0  0  0  0  0  0  0
   -1.3313    0.2811   -0.0450 C   0  0  0  0  0  0  0  0  0  0  0  0
   -1.6298    1.4735   -0.0280 O   0  0  0  0  0  0  0  0  0  0  0  0
    0.8649    0.3198   -1.2620 C   0  0  0  0  0  0  0  0  0  0  0  0
    2.3615   -0.0105   -1.2156 C   0  0  0  0  0  0  0  0  0  0  0  0
    3.1065    0.5224   -2.4351 C   0  0  0  0  0  0  0  0  0  0  0  0
    4.5278    0.1855   -2.3985 N   0  3  0  0  0  0  0  0  0  0  0  0
    5.4007    0.5140   -3.4374 C   0  0  0  0  0  0  0  0  0  0  0  0
    6.7422    0.1612   -3.3344 N   0  0  0  0  0  0  0  0  0  0  0  0
    4.9616    1.1863   -4.5732 N   0  0  0  0  0  0  0  0  0  0  0  0
   -0.7323   -2.1024    0.4149 H   0  0  0  0  0  0  0  0  0  0  0  0
    0.5965    0.1109    0.8886 H   0  0  0  0  0  0  0  0  0  0  0  0
    0.7353    1.4069   -1.3253 H   0  0  0  0  0  0  0  0  0  0  0  0
    0.4280   -0.0978   -2.1787 H   0  0  0  0  0  0  0  0  0  0  0  0
    2.8027    0.4103   -0.3041 H   0  0  0  0  0  0  0  0  0  0  0  0
    2.4973   -1.0973   -1.1740 H   0  0  0  0  0  0  0  0  0  0  0  0
    2.6904    0.0773   -3.3441 H   0  0  0  0  0  0  0  0  0  0  0  0
    3.0168    1.6109   -2.5032 H   0  0  0  0  0  0  0  0  0  0  0  0
    4.9076   -0.3069   -1.5919 H   0  0  0  0  0  0  0  0  0  0  0  0
    7.4042    0.3860   -4.0733 H   0  0  0  0  0  0  0  0  0  0  0  0
    7.0966   -0.3309   -2.5179 H   0  0  0  0  0  0  0  0  0  0  0  0
    5.5931    1.4279   -5.3325 H   0  0  0  0  0  0  0  0  0  0  0  0
    3.9863    1.4565   -4.6762 H   0  0  0  0  0  0  0  0  0  0  0  0
   -2.2423   -0.7657   -0.0217 N   0  0  0  0  0  0  0  0  0  0  0  0
   -3.6720   -0.5629    0.0260 C   0  0  2  0  0  0  0  0  0  0  0  0
   -4.2842   -1.7137    0.8137 C   0  0  0  0  0  0  0  0  0  0  0  0
   -3.8368   -2.8583    0.7862 O   0  0  0  0  0  0  0  0  0  0  0  0
   -4.2666   -0.4838   -1.3714 C   0  0  0  0  0  0  0  0  0  0  0  0
   -1.9037   -1.7221   -0.0707 H   0  0  0  0  0  0  0  0  0  0  0  0
   -3.8403    0.3776    0.5619 H   0  0  0  0  0  0  0  0  0  0  0  0
   -4.1078   -1.4172   -1.9237 H   0  0  0  0  0  0  0  0  0  0  0  0
   -5.3457   -0.3016   -1.3338 H   0  0  0  0  0  0  0  0  0  0  0  0
   -3.8040    0.3255   -1.9466 H   0  0  0  0  0  0  0  0  0  0  0  0
   -5.4146   -1.3215    1.5171 N   0  0  0  0  0  0  0  0  0  0  0  0
   -6.1991   -2.2413    2.3074 C   0  0  0  0  0  0  0  0  0  0  0  0
   -5.6902   -0.3439    1.5150 H   0  0  0  0  0  0  0  0  0  0  0  0
   -7.0144   -2.6505    1.6929 H   0  0  0  0  0  0  0  0  0  0  0  0
   -5.5571   -3.0625    2.6587 H   0  0  0  0  0  0  0  0  0  0  0  0
   -6.6231   -1.7113    3.1731 H   0  0  0  0  0  0  0  0  0  0  0  0
  1  3  1  0  0  0  0
  1  7  1  0  0  0  0
  1  2  2  0  0  0  0
 42 43  1  0  0  0  0
 43 51  1  0  0  0  0
 43 44  2  0  0  0  0
  8  9  1  0  0  0  0
  9 17  1  0  0  0  0
  9 10  2  0  0  0  0
 18 19  1  0  0  0  0
 19 41  1  0  0  0  0
 19 20  2  0  0  0  0
 25 26  1  0  0  0  0
 25 27  1  0  0  0  0
 24 25  2  0  0  0  0
 42 45  1  0  0  0  0
  8 11  1  0  0  0  0
 51 52  1  0  0  0  0
 21 22  1  0  0  0  0
 22 23  1  0  0  0  0
 18 21  1  0  0  0  0
 23 24  1  0  0  0  0
 41 42  1  0  0  0  0
  7  8  1  0  0  0  0
 17 18  1  0  0  0  0
  3  4  1  0  0  0  0
  3  5  1  0  0  0  0
  3  6  1  0  0  0  0
 45 48  1  0  0  0  0
 45 49  1  0  0  0  0
 45 50  1  0  0  0  0
 11 14  1  0  0  0  0
 11 15  1  0  0  0  0
 11 16  1  0  0  0  0
 52 54  1  0  0  0  0
 52 55  1  0  0  0  0
 52 56  1  0  0  0  0
 22 32  1  0  0  0  0
 22 33  1  0  0  0  0
 21 30  1  0  0  0  0
 21 31  1  0  0  0  0
 23 34  1  0  0  0  0
 23 35  1  0  0  0  0
 42 47  1  0  0  0  0
  8 13  1  0  0  0  0
 18 29  1  0  0  0  0
 26 37  1  0  0  0  0
 26 38  1  0  0  0  0
 27 39  1  0  0  0  0
 27 40  1  0  0  0  0
 51 53  1  0  0  0  0
  7 12  1  0  0  0  0
 41 46  1  0  0  0  0
 17 28  1  0  0  0  0
 24 36  1  0  0  0  0
M  CHG  1  24   1
M  END
$$$$

  -OEChem-05262214473D

 56 55  0     1  0  0  0  0  0999 V2000
    0.7735   -5.8042   -2.0022 C   0  0  0  0  0  0  0  0  0  0  0  0
   -0.2086   -6.3825   -1.5519 O   0  0  0  0  0  0  0  0  0  0  0  0
    1.4751   -6.3646   -3.1946 C   0  0  0  0  0  0  0  0  0  0  0  0
    2.2765   -7.0687   -2.9186 H   0  0  0  0  0  0  0  0  0  0  0  0
    0.7988   -6.9360   -3.8504 H   0  0  0  0  0  0  0  0  0  0  0  0
    1.9556   -5.6216   -3.8511 H   0  0  0  0  0  0  0  0  0  0  0  0
    1.3322   -4.6359   -1.5106 N   0  0  0  0  0  0  0  0  0  0  0  0
    0.8124   -3.9290   -0.3698 C   0  0  2  0  0  0  0  0  0  0  0  0
    1.0666   -2.4424   -0.5818 C   0  0  0  0  0  0  0  0  0  0  0  0
    2.0598   -2.0076   -1.1610 O   0  0  0  0  0  0  0  0  0  0  0  0
    1.4560   -4.4118    0.9207 C   0  0  0  0  0  0  0  0  0  0  0  0
    2.1528   -4.2578   -1.9805 H   0  0  0  0  0  0  0  0  0  0  0  0
   -0.2667   -4.1160   -0.3467 H   0  0  0  0  0  0  0  0  0  0  0  0
    2.5374   -4.2329    0.9160 H   0  0  0  0  0  0  0  0  0  0  0  0
    1.0390   -3.8932    1.7903 H   0  0  0  0  0  0  0  0  0  0  0  0
    1.2976   -5.4871    1.0566 H   0  0  0  0  0  0  0  0  0  0  0  0
    0.0755   -1.6529   -0.0105 N   0  0  0  0  0  0  0  0  0  0  0  0
    0.1113   -0.2132   -0.0391 C   0  0  2  0  0  0  0  0  0  0  0  0
   -1.3313    0.2811   -0.0450 C   0  0  0  0  0  0  0  0  0  0  0  0
   -1.6386    1.4447   -0.2956 O   0  0  0  0  0  0  0  0  0  0  0  0
    0.8649    0.3198   -1.2620 C   0  0  0  0  0  0  0  0  0  0  0  0
    2.3615   -0.0105   -1.2156 C   0  0  0  0  0  0  0  0  0  0  0  0
    3.1065    0.5224   -2.4351 C   0  0  0  0  0  0  0  0  0  0  0  0
    4.5278    0.1855   -2.3985 N   0  3  0  0  0  0  0  0  0  0  0  0
    5.4007    0.5140   -3.4374 C   0  0  0  0  0  0  0  0  0  0  0  0
    6.7422    0.1612   -3.3344 N   0  0  0  0  0  0  0  0  0  0  0  0
    4.9616    1.1863   -4.5732 N   0  0  0  0  0  0  0  0  0  0  0  0
   -0.7323   -2.1024    0.4149 H   0  0  0  0  0  0  0  0  0  0  0  0
    0.5965    0.1109    0.8886 H   0  0  0  0  0  0  0  0  0  0  0  0
    0.7353    1.4069   -1.3253 H   0  0  0  0  0  0  0  0  0  0  0  0
    0.4280   -0.0978   -2.1787 H   0  0  0  0  0  0  0  0  0  0  0  0
    2.8027    0.4103   -0.3041 H   0  0  0  0  0  0  0  0  0  0  0  0
    2.4973   -1.0973   -1.1740 H   0  0  0  0  0  0  0  0  0  0  0  0
    2.6904    0.0773   -3.3441 H   0  0  0  0  0  0  0  0  0  0  0  0
    3.0168    1.6109   -2.5032 H   0  0  0  0  0  0  0  0  0  0  0  0
    4.9076   -0.3069   -1.5919 H   0  0  0  0  0  0  0  0  0  0  0  0
    7.4042    0.3860   -4.0733 H   0  0  0  0  0  0  0  0  0  0  0  0
    7.0966   -0.3309   -2.5179 H   0  0  0  0  0  0  0  0  0  0  0  0
    5.5931    1.4279   -5.3325 H   0  0  0  0  0  0  0  0  0  0  0  0
    3.9863    1.4565   -4.6762 H   0  0  0  0  0  0  0  0  0  0  0  0
   -2.2272   -0.7177    0.3102 N   0  0  0  0  0  0  0  0  0  0  0  0
   -3.6497   -0.4930    0.4264 C   0  0  2  0  0  0  0  0  0  0  0  0
   -4.1826   -1.4088    1.5203 C   0  0  0  0  0  0  0  0  0  0  0  0
   -3.7283   -2.5304    1.7366 O   0  0  0  0  0  0  0  0  0  0  0  0
   -4.3603   -0.7516   -0.8930 C   0  0  0  0  0  0  0  0  0  0  0  0
   -1.8849   -1.6608    0.4687 H   0  0  0  0  0  0  0  0  0  0  0  0
   -3.7812    0.5519    0.7278 H   0  0  0  0  0  0  0  0  0  0  0  0
   -4.2396   -1.7936   -1.2112 H   0  0  0  0  0  0  0  0  0  0  0  0
   -5.4341   -0.5534   -0.8109 H   0  0  0  0  0  0  0  0  0  0  0  0
   -3.9553   -0.1131   -1.6855 H   0  0  0  0  0  0  0  0  0  0  0  0
   -5.2535   -0.8436    2.1984 N   0  0  0  0  0  0  0  0  0  0  0  0
   -5.9601   -1.5328    3.2528 C   0  0  0  0  0  0  0  0  0  0  0  0
   -5.5377    0.1069    1.9800 H   0  0  0  0  0  0  0  0  0  0  0  0
   -6.8203   -2.0707    2.8276 H   0  0  0  0  0  0  0  0  0  0  0  0
   -5.2832   -2.2504    3.7394 H   0  0  0  0  0  0  0  0  0  0  0  0
   -6.3149   -0.8022    3.9946 H   0  0  0  0  0  0  0  0  0  0  0  0
  1  3  1  0  0  0  0
  1  7  1  0  0  0  0
  1  2  2  0  0  0  0
 42 43  1  0  0  0  0
 43 51  1  0  0  0  0
 43 44  2  0  0  0  0
  8  9  1  0  0  0  0
  9 17  1  0  0  0  0
  9 10  2  0  0  0  0
 18 19  1  0  0  0  0
 19 41  1  0  0  0  0
 19 20  2  0  0  0  0
 25 26  1  0  0  0  0
 25 27  1  0  0  0  0
 24 25  2  0  0  0  0
 42 45  1  0  0  0  0
  8 11  1  0  0  0  0
 51 52  1  0  0  0  0
 21 22  1  0  0  0  0
 22 23  1  0  0  0  0
 18 21  1  0  0  0  0
 23 24  1  0  0  0  0
 41 42  1  0  0  0  0
  7  8  1  0  0  0  0
 17 18  1  0  0  0  0
  3  4  1  0  0  0  0
  3  5  1  0  0  0  0
  3  6  1  0  0  0  0
 45 48  1  0  0  0  0
 45 49  1  0  0  0  0
 45 50  1  0  0  0  0
 11 14  1  0  0  0  0
 11 15  1  0  0  0  0
 11 16  1  0  0  0  0
 52 54  1  0  0  0  0
 52 55  1  0  0  0  0
 52 56  1  0  0  0  0
 22 32  1  0  0  0  0
 22 33  1  0  0  0  0
 21 30  1  0  0  0  0
 21 31  1  0  0  0  0
 23 34  1  0  0  0  0
 23 35  1  0  0  0  0
 42 47  1  0  0  0  0
  8 13  1  0  0  0  0
 18 29  1  0  0  0  0
 26 37  1  0  0  0  0
 26 38  1  0  0  0  0
 27 39  1  0  0  0  0
 27 40  1  0  0  0  0
 51 53  1  0  0  0  0
  7 12  1  0  0  0  0
 41 46  1  0  0  0  0
 17 28  1  0  0  0  0
 24 36  1  0  0  0  0
M  CHG  1  24   1
M  END
$$$$

  -OEChem-05262214473D

 56 55  0     1  0  0  0  0  0999 V2000
    0.7735   -5.8042   -2.0022 C   0  0  0  0  0  0  0  0  0  0  0  0
   -0.2086   -6.3825   -1.5519 O   0  0  0  0  0  0  0  0  0  0  0  0
    1.4751   -6.3646   -3.1946 C   0  0  0  0  0  0  0  0  0  0  0  0
    2.2765   -7.0687   -2.9186 H   0  0  0  0  0  0  0  0  0  0  0  0
    0.7988   -6.9360   -3.8504 H   0  0  0  0  0  0  0  0  0  0  0  0
    1.9556   -5.6216   -3.8511 H   0  0  0  0  0  0  0  0  0  0  0  0
    1.3322   -4.6359   -1.5106 N   0  0  0  0  0  0  0  0  0  0  0  0
    0.8124   -3.9290   -0.3698 C   0  0  2  0  0  0  0  0  0  0  0  0
    1.0666   -2.4424   -0.5818 C   0  0  0  0  0  0  0  0  0  0  0  0
    2.0598   -2.0076   -1.1610 O   0  0  0  0  0  0  0  0  0  0  0  0
    1.4560   -4.4118    0.9207 C   0  0  0  0  0  0  0  0  0  0  0  0
    2.1528   -4.2578   -1.9805 H   0  0  0  0  0  0  0  0  0  0  0  0
   -0.2667   -4.1160   -0.3467 H   0  0  0  0  0  0  0  0  0  0  0  0
    2.5374   -4.2329    0.9160 H   0  0  0  0  0  0  0  0  0  0  0  0
    1.0390   -3.8932    1.7903 H   0  0  0  0  0  0  0  0  0  0  0  0
    1.2976   -5.4871    1.0566 H   0  0  0  0  0  0  0  0  0  0  0  0
    0.0755   -1.6529   -0.0105 N   0  0  0  0  0  0  0  0  0  0  0  0
    0.1113   -0.2132   -0.0391 C   0  0  2  0  0  0  0  0  0  0  0  0
   -1.3313    0.2811   -0.0450 C   0  0  0  0  0  0  0  0  0  0  0  0
   -1.6696    1.3514   -0.5462 O   0  0  0  0  0  0  0  0  0  0  0  0
    0.8649    0.3198   -1.2620 C   0  0  0  0  0  0  0  0  0  0  0  0
    2.3615   -0.0105   -1.2156 C   0  0  0  0  0  0  0  0  0  0  0  0
    3.1065    0.5224   -2.4351 C   0  0  0  0  0  0  0  0  0  0  0  0
    4.5278    0.1855   -2.3985 N   0  3  0  0  0  0  0  0  0  0  0  0
    5.4007    0.5140   -3.4374 C   0  0  0  0  0  0  0  0  0  0  0  0
    6.7422    0.1612   -3.3344 N   0  0  0  0  0  0  0  0  0  0  0  0
    4.9616    1.1863   -4.5732 N   0  0  0  0  0  0  0  0  0  0  0  0
   -0.7323   -2.1024    0.4149 H   0  0  0  0  0  0  0  0  0  0  0  0
    0.5965    0.1109    0.8886 H   0  0  0  0  0  0  0  0  0  0  0  0
    0.7353    1.4069   -1.3253 H   0  0  0  0  0  0  0  0  0  0  0  0
    0.4280   -0.0978   -2.1787 H   0  0  0  0  0  0  0  0  0  0  0  0
    2.8027    0.4103   -0.3041 H   0  0  0  0  0  0  0  0  0  0  0  0
    2.4973   -1.0973   -1.1740 H   0  0  0  0  0  0  0  0  0  0  0  0
    2.6904    0.0773   -3.3441 H   0  0  0  0  0  0  0  0  0  0  0  0
    3.0168    1.6109   -2.5032 H   0  0  0  0  0  0  0  0  0  0  0  0
    4.9076   -0.3069   -1.5919 H   0  0  0  0  0  0  0  0  0  0  0  0
    7.4042    0.3860   -4.0733 H   0  0  0  0  0  0  0  0  0  0  0  0
    7.0966   -0.3309   -2.5179 H   0  0  0  0  0  0  0  0  0  0  0  0
    5.5931    1.4279   -5.3325 H   0  0  0  0  0  0  0  0  0  0  0  0
    3.9863    1.4565   -4.6762 H   0  0  0  0  0  0  0  0  0  0  0  0
   -2.1847   -0.5901    0.6177 N   0  0  0  0  0  0  0  0  0  0  0  0
   -3.5944   -0.3275    0.7941 C   0  0  2  0  0  0  0  0  0  0  0  0
   -4.0249   -0.9415    2.1197 C   0  0  0  0  0  0  0  0  0  0  0  0
   -3.5434   -1.9811    2.5652 O   0  0  0  0  0  0  0  0  0  0  0  0
   -4.4110   -0.8931   -0.3575 C   0  0  0  0  0  0  0  0  0  0  0  0
   -1.8214   -1.4695    0.9731 H   0  0  0  0  0  0  0  0  0  0  0  0
   -3.7101    0.7608    0.8404 H   0  0  0  0  0  0  0  0  0  0  0  0
   -4.3076   -1.9825   -0.4198 H   0  0  0  0  0  0  0  0  0  0  0  0
   -5.4758   -0.6685   -0.2367 H   0  0  0  0  0  0  0  0  0  0  0  0
   -4.0800   -0.4727   -1.3133 H   0  0  0  0  0  0  0  0  0  0  0  0
   -5.0404   -0.2152    2.7259 N   0  0  0  0  0  0  0  0  0  0  0  0
   -5.6493   -0.6172    3.9723 C   0  0  0  0  0  0  0  0  0  0  0  0
   -5.3508    0.6560    2.3061 H   0  0  0  0  0  0  0  0  0  0  0  0
   -6.5371   -1.2330    3.7655 H   0  0  0  0  0  0  0  0  0  0  0  0
   -4.9272   -1.2015    4.5614 H   0  0  0  0  0  0  0  0  0  0  0  0
   -5.9474    0.2767    4.5398 H   0  0  0  0  0  0  0  0  0  0  0  0
  1  3  1  0  0  0  0
  1  7  1  0  0  0  0
  1  2  2  0  0  0  0
 42 43  1  0  0  0  0
 43 51  1  0  0  0  0
 43 44  2  0  0  0  0
  8  9  1  0  0  0  0
  9 17  1  0  0  0  0
  9 10  2  0  0  0  0
 18 19  1  0  0  0  0
 19 41  1  0  0  0  0
 19 20  2  0  0  0  0
 25 26  1  0  0  0  0
 25 27  1  0  0  0  0
 24 25  2  0  0  0  0
 42 45  1  0  0  0  0
  8 11  1  0  0  0  0
 51 52  1  0  0  0  0
 21 22  1  0  0  0  0
 22 23  1  0  0  0  0
 18 21  1  0  0  0  0
 23 24  1  0  0  0  0
 41 42  1  0  0  0  0
  7  8  1  0  0  0  0
 17 18  1  0  0  0  0
  3  4  1  0  0  0  0
  3  5  1  0  0  0  0
  3  6  1  0  0  0  0
 45 48  1  0  0  0  0
 45 49  1  0  0  0  0
 45 50  1  0  0  0  0
 11 14  1  0  0  0  0
 11 15  1  0  0  0  0
 11 16  1  0  0  0  0
 52 54  1  0  0  0  0
 52 55  1  0  0  0  0
 52 56  1  0  0  0  0
 22 32  1  0  0  0  0
 22 33  1  0  0  0  0
 21 30  1  0  0  0  0
 21 31  1  0  0  0  0
 23 34  1  0  0  0  0
 23 35  1  0  0  0  0
 42 47  1  0  0  0  0
  8 13  1  0  0  0  0
 18 29  1  0  0  0  0
 26 37  1  0  0  0  0
 26 38  1  0  0  0  0
 27 39  1  0  0  0  0
 27 40  1  0  0  0  0
 51 53  1  0  0  0  0
  7 12  1  0  0  0  0
 41 46  1  0  0  0  0
 17 28  1  0  0  0  0
 24 36  1  0  0  0  0
M  CHG  1  24   1
M  END
$$$$

  -OEChem-05262214473D

 56 55  0     1  0  0  0  0  0999 V2000
    0.7735   -5.8042   -2.0022 C   0  0  0  0  0  0  0  0  0  0  0  0
   -0.2086   -6.3825   -1.5519 O   0  0  0  0  0  0  0  0  0  0  0  0
    1.4751   -6.3646   -3.1946 C   0  0  0  0  0  0  0  0  0  0  0  0
    2.2765   -7.0687   -2.9186 H   0  0  0  0  0  0  0  0  0  0  0  0
    0.7988   -6.9360   -3.8504 H   0  0  0  0  0  0  0  0  0  0  0  0
    1.9556   -5.6216   -3.8511 H   0  0  0  0  0  0  0  0  0  0  0  0
    1.3322   -4.6359   -1.5106 N   0  0  0  0  0  0  0  0  0  0  0  0
    0.8124   -3.9290   -0.3698 C   0  0  2  0  0  0  0  0  0  0  0  0
    1.0666   -2.4424   -0.5818 C   0  0  0  0  0  0  0  0  0  0  0  0
    2.0598   -2.0076   -1.1610 O   0  0  0  0  0  0  0  0  0  0  0  0
    1.4560   -4.4118    0.9207 C   0  0  0  0  0  0  0  0  0  0  0  0
    2.1528   -4.2578   -1.9805 H   0  0  0  0  0  0  0  0  0  0  0  0
   -0.2667   -4.1160   -0.3467 H   0  0  0  0  0  0  0  0  0  0  0  0
    2.5374   -4.2329    0.9160 H   0  0  0  0  0  0  0  0  0  0  0  0
    1.0390   -3.8932    1.7903 H   0  0  0  0  0  0  0  0  0  0  0  0
    1.2976   -5.4871    1.0566 H   0  0  0  0  0  0  0  0  0  0  0  0
    0.0755   -1.6529   -0.0105 N   0  0  0  0  0  0  0  0  0  0  0  0
    0.1113   -0.2132   -0.0391 C   0  0  2  0  0  0  0  0  0  0  0  0
   -1.3313    0.2811   -0.0450 C   0  0  0  0  0  0  0  0  0  0  0  0
   -1.7206    1.1999   -0.7629 O   0  0  0  0  0  0  0  0  0  0  0  0
    0.8649    0.3198   -1.2620 C   0  0  0  0  0  0  0  0  0  0  0  0
    2.3615   -0.0105   -1.2156 C   0  0  0  0  0  0  0  0  0  0  0  0
    3.1065    0.5224   -2.4351 C   0  0  0  0  0  0  0  0  0  0  0  0
    4.5278    0.1855   -2.3985 N   0  3  0  0  0  0  0  0  0  0  0  0
    5.4007    0.5140   -3.4374 C   0  0  0  0  0  0  0  0  0  0  0  0
    6.7422    0.1612   -3.3344 N   0  0  0  0  0  0  0  0  0  0  0  0
    4.9616    1.1863   -4.5732 N   0  0  0  0  0  0  0  0  0  0  0  0
   -0.7323   -2.1024    0.4149 H   0  0  0  0  0  0  0  0  0  0  0  0
    0.5965    0.1109    0.8886 H   0  0  0  0  0  0  0  0  0  0  0  0
    0.7353    1.4069   -1.3253 H   0  0  0  0  0  0  0  0  0  0  0  0
    0.4280   -0.0978   -2.1787 H   0  0  0  0  0  0  0  0  0  0  0  0
    2.8027    0.4103   -0.3041 H   0  0  0  0  0  0  0  0  0  0  0  0
    2.4973   -1.0973   -1.1740 H   0  0  0  0  0  0  0  0  0  0  0  0
    2.6904    0.0773   -3.3441 H   0  0  0  0  0  0  0  0  0  0  0  0
    3.0168    1.6109   -2.5032 H   0  0  0  0  0  0  0  0  0  0  0  0
    4.9076   -0.3069   -1.5919 H   0  0  0  0  0  0  0  0  0  0  0  0
    7.4042    0.3860   -4.0733 H   0  0  0  0  0  0  0  0  0  0  0  0
    7.0966   -0.3309   -2.5179 H   0  0  0  0  0  0  0  0  0  0  0  0
    5.5931    1.4279   -5.3325 H   0  0  0  0  0  0  0  0  0  0  0  0
    3.9863    1.4565   -4.6762 H   0  0  0  0  0  0  0  0  0  0  0  0
   -2.1177   -0.3915    0.8799 N   0  0  0  0  0  0  0  0  0  0  0  0
   -3.5101   -0.0777    1.1041 C   0  0  2  0  0  0  0  0  0  0  0  0
   -3.8218   -0.3435    2.5710 C   0  0  0  0  0  0  0  0  0  0  0  0
   -3.2948   -1.2479    3.2155 O   0  0  0  0  0  0  0  0  0  0  0  0
   -4.4151   -0.8985    0.1987 C   0  0  0  0  0  0  0  0  0  0  0  0
   -1.7175   -1.1613    1.4082 H   0  0  0  0  0  0  0  0  0  0  0  0
   -3.6317    0.9902    0.8920 H   0  0  0  0  0  0  0  0  0  0  0  0
   -4.3070   -1.9712    0.3966 H   0  0  0  0  0  0  0  0  0  0  0  0
   -5.4681   -0.6391    0.3496 H   0  0  0  0  0  0  0  0  0  0  0  0
   -4.1696   -0.7287   -0.8552 H   0  0  0  0  0  0  0  0  0  0  0  0
   -4.7896    0.5207    3.0638 N   0  0  0  0  0  0  0  0  0  0  0  0
   -5.2878    0.4430    4.4172 C   0  0  0  0  0  0  0  0  0  0  0  0
   -5.1424    1.2661    2.4709 H   0  0  0  0  0  0  0  0  0  0  0  0
   -6.1840   -0.1944    4.4425 H   0  0  0  0  0  0  0  0  0  0  0  0
   -4.5132    0.0125    5.0688 H   0  0  0  0  0  0  0  0  0  0  0  0
   -5.5456    1.4520    4.7713 H   0  0  0  0  0  0  0  0  0  0  0  0
  1  3  1  0  0  0  0
  1  7  1  0  0  0  0
  1  2  2  0  0  0  0
 42 43  1  0  0  0  0
 43 51  1  0  0  0  0
 43 44  2  0  0  0  0
  8  9  1  0  0  0  0
  9 17  1  0  0  0  0
  9 10  2  0  0  0  0
 18 19  1  0  0  0  0
 19 41  1  0  0  0  0
 19 20  2  0  0  0  0
 25 26  1  0  0  0  0
 25 27  1  0  0  0  0
 24 25  2  0  0  0  0
 42 45  1  0  0  0  0
  8 11  1  0  0  0  0
 51 52  1  0  0  0  0
 21 22  1  0  0  0  0
 22 23  1  0  0  0  0
 18 21  1  0  0  0  0
 23 24  1  0  0  0  0
 41 42  1  0  0  0  0
  7  8  1  0  0  0  0
 17 18  1  0  0  0  0
  3  4  1  0  0  0  0
  3  5  1  0  0  0  0
  3  6  1  0  0  0  0
 45 48  1  0  0  0  0
 45 49  1  0  0  0  0
 45 50  1  0  0  0  0
 11 14  1  0  0  0  0
 11 15  1  0  0  0  0
 11 16  1  0  0  0  0
 52 54  1  0  0  0  0
 52 55  1  0  0  0  0
 52 56  1  0  0  0  0
 22 32  1  0  0  0  0
 22 33  1  0  0  0  0
 21 30  1  0  0  0  0
 21 31  1  0  0  0  0
 23 34  1  0  0  0  0
 23 35  1  0  0  0  0
 42 47  1  0  0  0  0
  8 13  1  0  0  0  0
 18 29  1  0  0  0  0
 26 37  1  0  0  0  0
 26 38  1  0  0  0  0
 27 39  1  0  0  0  0
 27 40  1  0  0  0  0
 51 53  1  0  0  0  0
  7 12  1  0  0  0  0
 41 46  1  0  0  0  0
 17 28  1  0  0  0  0
 24 36  1  0  0  0  0
M  CHG  1  24   1
M  END
$$$$

  -OEChem-05262214473D

 56 55  0     1  0  0  0  0  0999 V2000
    0.7735   -5.8042   -2.0022 C   0  0  0  0  0  0  0  0  0  0  0  0
   -0.2086   -6.3825   -1.5519 O   0  0  0  0  0  0  0  0  0  0  0  0
    1.4751   -6.3646   -3.1946 C   0  0  0  0  0  0  0  0  0  0  0  0
    2.2765   -7.0687   -2.9186 H   0  0  0  0  0  0  0  0  0  0  0  0
    0.7988   -6.9360   -3.8504 H   0  0  0  0  0  0  0  0  0  0  0  0
    1.9556   -5.6216   -3.8511 H   0  0  0  0  0  0  0  0  0  0  0  0
    1.3322   -4.6359   -1.5106 N   0  0  0  0  0  0  0  0  0  0  0  0
    0.8124   -3.9290   -0.3698 C   0  0  2  0  0  0  0  0  0  0  0  0
    1.0666   -2.4424   -0.5818 C   0  0  0  0  0  0  0  0  0  0  0  0
    2.0598   -2.0076   -1.1610 O   0  0  0  0  0  0  0  0  0  0  0  0
    1.4560   -4.4118    0.9207 C   0  0  0  0  0  0  0  0  0  0  0  0
    2.1528   -4.2578   -1.9805 H   0  0  0  0  0  0  0  0  0  0  0  0
   -0.2667   -4.1160   -0.3467 H   0  0  0  0  0  0  0  0  0  0  0  0
    2.5374   -4.2329    0.9160 H   0  0  0  0  0  0  0  0  0  0  0  0
    1.0390   -3.8932    1.7903 H   0  0  0  0  0  0  0  0  0  0  0  0
    1.2976   -5.4871    1.0566 H   0  0  0  0  0  0  0  0  0  0  0  0
    0.0755   -1.6529   -0.0105 N   0  0  0  0  0  0  0  0  0  0  0  0
    0.1113   -0.2132   -0.0391 C   0  0  2  0  0  0  0  0  0  0  0  0
   -1.3313    0.2811   -0.0450 C   0  0  0  0  0  0  0  0  0  0  0  0
   -1.7882    1.0006   -0.9308 O   0  0  0  0  0  0  0  0  0  0  0  0
    0.8649    0.3198   -1.2620 C   0  0  0  0  0  0  0  0  0  0  0  0
    2.3615   -0.0105   -1.2156 C   0  0  0  0  0  0  0  0  0  0  0  0
    3.1065    0.5224   -2.4351 C   0  0  0  0  0  0  0  0  0  0  0  0
    4.5278    0.1855   -2.3985 N   0  3  0  0  0  0  0  0  0  0  0  0
    5.4007    0.5140   -3.4374 C   0  0  0  0  0  0  0  0  0  0  0  0
    6.7422    0.1612   -3.3344 N   0  0  0  0  0  0  0  0  0  0  0  0
    4.9616    1.1863   -4.5732 N   0  0  0  0  0  0  0  0  0  0  0  0
   -0.7323   -2.1024    0.4149 H   0  0  0  0  0  0  0  0  0  0  0  0
    0.5965    0.1109    0.8886 H   0  0  0  0  0  0  0  0  0  0  0  0
    0.7353    1.4069   -1.3253 H   0  0  0  0  0  0  0  0  0  0  0  0
    0.4280   -0.0978   -2.1787 H   0  0  0  0  0  0  0  0  0  0  0  0
    2.8027    0.4103   -0.3041 H   0  0  0  0  0  0  0  0  0  0  0  0
    2.4973   -1.0973   -1.1740 H   0  0  0  0  0  0  0  0  0  0  0  0
    2.6904    0.0773   -3.3441 H   0  0  0  0  0  0  0  0  0  0  0  0
    3.0168    1.6109   -2.5032 H   0  0  0  0  0  0  0  0  0  0  0  0
    4.9076   -0.3069   -1.5919 H   0  0  0  0  0  0  0  0  0  0  0  0
    7.4042    0.3860   -4.0733 H   0  0  0  0  0  0  0  0  0  0  0  0
    7.0966   -0.3309   -2.5179 H   0  0  0  0  0  0  0  0  0  0  0  0
    5.5931    1.4279   -5.3325 H   0  0  0  0  0  0  0  0  0  0  0  0
    3.9863    1.4565   -4.6762 H   0  0  0  0  0  0  0  0  0  0  0  0
   -2.0308   -0.1356    1.0790 N   0  0  0  0  0  0  0  0  0  0  0  0
   -3.4023    0.2395    1.3353 C   0  0  2  0  0  0  0  0  0  0  0  0
   -3.5872    0.3444    2.8434 C   0  0  0  0  0  0  0  0  0  0  0  0
   -2.9994   -0.3806    3.6433 O   0  0  0  0  0  0  0  0  0  0  0  0
   -4.3724   -0.7677    0.7376 C   0  0  0  0  0  0  0  0  0  0  0  0
   -1.5804   -0.7571    1.7442 H   0  0  0  0  0  0  0  0  0  0  0  0
   -3.5515    1.2242    0.8791 H   0  0  0  0  0  0  0  0  0  0  0  0
   -4.2380   -1.7604    1.1824 H   0  0  0  0  0  0  0  0  0  0  0  0
   -5.4115   -0.4671    0.9080 H   0  0  0  0  0  0  0  0  0  0  0  0
   -4.2180   -0.8638   -0.3425 H   0  0  0  0  0  0  0  0  0  0  0  0
   -4.5183    1.3139    3.1889 N   0  0  0  0  0  0  0  0  0  0  0  0
   -4.9003    1.5757    4.5569 C   0  0  0  0  0  0  0  0  0  0  0  0
   -4.9267    1.8956    2.4632 H   0  0  0  0  0  0  0  0  0  0  0  0
   -5.7851    0.9741    4.8126 H   0  0  0  0  0  0  0  0  0  0  0  0
   -4.0696    1.3089    5.2269 H   0  0  0  0  0  0  0  0  0  0  0  0
   -5.1369    2.6436    4.6735 H   0  0  0  0  0  0  0  0  0  0  0  0
  1  3  1  0  0  0  0
  1  7  1  0  0  0  0
  1  2  2  0  0  0  0
 42 43  1  0  0  0  0
 43 51  1  0  0  0  0
 43 44  2  0  0  0  0
  8  9  1  0  0  0  0
  9 17  1  0  0  0  0
  9 10  2  0  0  0  0
 18 19  1  0  0  0  0
 19 41  1  0  0  0  0
 19 20  2  0  0  0  0
 25 26  1  0  0  0  0
 25 27  1  0  0  0  0
 24 25  2  0  0  0  0
 42 45  1  0  0  0  0
  8 11  1  0  0  0  0
 51 52  1  0  0  0  0
 21 22  1  0  0  0  0
 22 23  1  0  0  0  0
 18 21  1  0  0  0  0
 23 24  1  0  0  0  0
 41 42  1  0  0  0  0
  7  8  1  0  0  0  0
 17 18  1  0  0  0  0
  3  4  1  0  0  0  0
  3  5  1  0  0  0  0
  3  6  1  0  0  0  0
 45 48  1  0  0  0  0
 45 49  1  0  0  0  0
 45 50  1  0  0  0  0
 11 14  1  0  0  0  0
 11 15  1  0  0  0  0
 11 16  1  0  0  0  0
 52 54  1  0  0  0  0
 52 55  1  0  0  0  0
 52 56  1  0  0  0  0
 22 32  1  0  0  0  0
 22 33  1  0  0  0  0
 21 30  1  0  0  0  0
 21 31  1  0  0  0  0
 23 34  1  0  0  0  0
 23 35  1  0  0  0  0
 42 47  1  0  0  0  0
  8 13  1  0  0  0  0
 18 29  1  0  0  0  0
 26 37  1  0  0  0  0
 26 38  1  0  0  0  0
 27 39  1  0  0  0  0
 27 40  1  0  0  0  0
 51 53  1  0  0  0  0
  7 12  1  0  0  0  0
 41 46  1  0  0  0  0
 17 28  1  0  0  0  0
 24 36  1  0  0  0  0
M  CHG  1  24   1
M  END
$$$$

  -OEChem-05262214473D

 56 55  0     1  0  0  0  0  0999 V2000
    0.7735   -5.8042   -2.0022 C   0  0  0  0  0  0  0  0  0  0  0  0
   -0.2086   -6.3825   -1.5519 O   0  0  0  0  0  0  0  0  0  0  0  0
    1.4751   -6.3646   -3.1946 C   0  0  0  0  0  0  0  0  0  0  0  0
    2.2765   -7.0687   -2.9186 H   0  0  0  0  0  0  0  0  0  0  0  0
    0.7988   -6.9360   -3.8504 H   0  0  0  0  0  0  0  0  0  0  0  0
    1.9556   -5.6216   -3.8511 H   0  0  0  0  0  0  0  0  0  0  0  0
    1.3322   -4.6359   -1.5106 N   0  0  0  0  0  0  0  0  0  0  0  0
    0.8124   -3.9290   -0.3698 C   0  0  2  0  0  0  0  0  0  0  0  0
    1.0666   -2.4424   -0.5818 C   0  0  0  0  0  0  0  0  0  0  0  0
    2.0598   -2.0076   -1.1610 O   0  0  0  0  0  0  0  0  0  0  0  0
    1.4560   -4.4118    0.9207 C   0  0  0  0  0  0  0  0  0  0  0  0
    2.1528   -4.2578   -1.9805 H   0  0  0  0  0  0  0  0  0  0  0  0
   -0.2667   -4.1160   -0.3467 H   0  0  0  0  0  0  0  0  0  0  0  0
    2.5374   -4.2329    0.9160 H   0  0  0  0  0  0  0  0  0  0  0  0
    1.0390   -3.8932    1.7903 H   0  0  0  0  0  0  0  0  0  0  0  0
    1.2976   -5.4871    1.0566 H   0  0  0  0  0  0  0  0  0  0  0  0
    0.0755   -1.6529   -0.0105 N   0  0  0  0  0  0  0  0  0  0  0  0
    0.1113   -0.2132   -0.0391 C   0  0  2  0  0  0  0  0  0  0  0  0
   -1.3313    0.2811   -0.0450 C   0  0  0  0  0  0  0  0  0  0  0  0
   -1.8678    0.7670   -1.0386 O   0  0  0  0  0  0  0  0  0  0  0  0
    0.8649    0.3198   -1.2620 C   0  0  0  0  0  0  0  0  0  0  0  0
    2.3615   -0.0105   -1.2156 C   0  0  0  0  0  0  0  0  0  0  0  0
    3.1065    0.5224   -2.4351 C   0  0  0  0  0  0  0  0  0  0  0  0
    4.5278    0.1855   -2.3985 N   0  3  0  0  0  0  0  0  0  0  0  0
    5.4007    0.5140   -3.4374 C   0  0  0  0  0  0  0  0  0  0  0  0
    6.7422    0.1612   -3.3344 N   0  0  0  0  0  0  0  0  0  0  0  0
    4.9616    1.1863   -4.5732 N   0  0  0  0  0  0  0  0  0  0  0  0
   -0.7323   -2.1024    0.4149 H   0  0  0  0  0  0  0  0  0  0  0  0
    0.5965    0.1109    0.8886 H   0  0  0  0  0  0  0  0  0  0  0  0
    0.7353    1.4069   -1.3253 H   0  0  0  0  0  0  0  0  0  0  0  0
    0.4280   -0.0978   -2.1787 H   0  0  0  0  0  0  0  0  0  0  0  0
    2.8027    0.4103   -0.3041 H   0  0  0  0  0  0  0  0  0  0  0  0
    2.4973   -1.0973   -1.1740 H   0  0  0  0  0  0  0  0  0  0  0  0
    2.6904    0.0773   -3.3441 H   0  0  0  0  0  0  0  0  0  0  0  0
    3.0168    1.6109   -2.5032 H   0  0  0  0  0  0  0  0  0  0  0  0
    4.9076   -0.3069   -1.5919 H   0  0  0  0  0  0  0  0  0  0  0  0
    7.4042    0.3860   -4.0733 H   0  0  0  0  0  0  0  0  0  0  0  0
    7.0966   -0.3309   -2.5179 H   0  0  0  0  0  0  0  0  0  0  0  0
    5.5931    1.4279   -5.3325 H   0  0  0  0  0  0  0  0  0  0  0  0
    3.9863    1.4565   -4.6762 H   0  0  0  0  0  0  0  0  0  0  0  0
   -1.9299    0.1603    1.2013 N   0  0  0  0  0  0  0  0  0  0  0  0
   -3.2786    0.6024    1.4720 C   0  0  2  0  0  0  0  0  0  0  0  0
   -3.3370    1.0754    2.9185 C   0  0  0  0  0  0  0  0  0  0  0  0
   -2.6773    0.5616    3.8194 O   0  0  0  0  0  0  0  0  0  0  0  0
   -4.2858   -0.5093    1.2225 C   0  0  0  0  0  0  0  0  0  0  0  0
   -1.4194   -0.2846    1.9584 H   0  0  0  0  0  0  0  0  0  0  0  0
   -3.4748    1.4471    0.8027 H   0  0  0  0  0  0  0  0  0  0  0  0
   -4.1051   -1.3644    1.8840 H   0  0  0  0  0  0  0  0  0  0  0  0
   -5.3097   -0.1643    1.4006 H   0  0  0  0  0  0  0  0  0  0  0  0
   -4.2218   -0.8687    0.1898 H   0  0  0  0  0  0  0  0  0  0  0  0
   -4.2449    2.1106    3.0927 N   0  0  0  0  0  0  0  0  0  0  0  0
   -4.5131    2.7036    4.3821 C   0  0  0  0  0  0  0  0  0  0  0  0
   -4.7184    2.5015    2.2836 H   0  0  0  0  0  0  0  0  0  0  0  0
   -5.3675    2.1931    4.8505 H   0  0  0  0  0  0  0  0  0  0  0  0
   -3.6266    2.5994    5.0250 H   0  0  0  0  0  0  0  0  0  0  0  0
   -4.7492    3.7701    4.2530 H   0  0  0  0  0  0  0  0  0  0  0  0
  1  3  1  0  0  0  0
  1  7  1  0  0  0  0
  1  2  2  0  0  0  0
 42 43  1  0  0  0  0
 43 51  1  0  0  0  0
 43 44  2  0  0  0  0
  8  9  1  0  0  0  0
  9 17  1  0  0  0  0
  9 10  2  0  0  0  0
 18 19  1  0  0  0  0
 19 41  1  0  0  0  0
 19 20  2  0  0  0  0
 25 26  1  0  0  0  0
 25 27  1  0  0  0  0
 24 25  2  0  0  0  0
 42 45  1  0  0  0  0
  8 11  1  0  0  0  0
 51 52  1  0  0  0  0
 21 22  1  0  0  0  0
 22 23  1  0  0  0  0
 18 21  1  0  0  0  0
 23 24  1  0  0  0  0
 41 42  1  0  0  0  0
  7  8  1  0  0  0  0
 17 18  1  0  0  0  0
  3  4  1  0  0  0  0
  3  5  1  0  0  0  0
  3  6  1  0  0  0  0
 45 48  1  0  0  0  0
 45 49  1  0  0  0  0
 45 50  1  0  0  0  0
 11 14  1  0  0  0  0
 11 15  1  0  0  0  0
 11 16  1  0  0  0  0
 52 54  1  0  0  0  0
 52 55  1  0  0  0  0
 52 56  1  0  0  0  0
 22 32  1  0  0  0  0
 22 33  1  0  0  0  0
 21 30  1  0  0  0  0
 21 31  1  0  0  0  0
 23 34  1  0  0  0  0
 23 35  1  0  0  0  0
 42 47  1  0  0  0  0
  8 13  1  0  0  0  0
 18 29  1  0  0  0  0
 26 37  1  0  0  0  0
 26 38  1  0  0  0  0
 27 39  1  0  0  0  0
 27 40  1  0  0  0  0
 51 53  1  0  0  0  0
  7 12  1  0  0  0  0
 41 46  1  0  0  0  0
 17 28  1  0  0  0  0
 24 36  1  0  0  0  0
M  CHG  1  24   1
M  END
$$$$

  -OEChem-05262214473D

 56 55  0     1  0  0  0  0  0999 V2000
    0.7735   -5.8042   -2.0022 C   0  0  0  0  0  0  0  0  0  0  0  0
   -0.2086   -6.3825   -1.5519 O   0  0  0  0  0  0  0  0  0  0  0  0
    1.4751   -6.3646   -3.1946 C   0  0  0  0  0  0  0  0  0  0  0  0
    2.2765   -7.0687   -2.9186 H   0  0  0  0  0  0  0  0  0  0  0  0
    0.7988   -6.9360   -3.8504 H   0  0  0  0  0  0  0  0  0  0  0  0
    1.9556   -5.6216   -3.8511 H   0  0  0  0  0  0  0  0  0  0  0  0
    1.3322   -4.6359   -1.5106 N   0  0  0  0  0  0  0  0  0  0  0  0
    0.8124   -3.9290   -0.3698 C   0  0  2  0  0  0  0  0  0  0  0  0
    1.0666   -2.4424   -0.5818 C   0  0  0  0  0  0  0  0  0  0  0  0
    2.0598   -2.0076   -1.1610 O   0  0  0  0  0  0  0  0  0  0  0  0
    1.4560   -4.4118    0.9207 C   0  0  0  0  0  0  0  0  0  0  0  0
    2.1528   -4.2578   -1.9805 H   0  0  0  0  0  0  0  0  0  0  0  0
   -0.2667   -4.1160   -0.3467 H   0  0  0  0  0  0  0  0  0  0  0  0
    2.5374   -4.2329    0.9160 H   0  0  0  0  0  0  0  0  0  0  0  0
    1.0390   -3.8932    1.7903 H   0  0  0  0  0  0  0  0  0  0  0  0
    1.2976   -5.4871    1.0566 H   0  0  0  0  0  0  0  0  0  0  0  0
    0.0755   -1.6529   -0.0105 N   0  0  0  0  0  0  0  0  0  0  0  0
    0.1113   -0.2132   -0.0391 C   0  0  2  0  0  0  0  0  0  0  0  0
   -1.3313    0.2811   -0.0450 C   0  0  0  0  0  0  0  0  0  0  0  0
   -1.9540    0.5151   -1.0788 O   0  0  0  0  0  0  0  0  0  0  0  0
    0.8649    0.3198   -1.2620 C   0  0  0  0  0  0  0  0  0  0  0  0
    2.3615   -0.0105   -1.2156 C   0  0  0  0  0  0  0  0  0  0  0  0
    3.1065    0.5224   -2.4351 C   0  0  0  0  0  0  0  0  0  0  0  0
    4.5278    0.1855   -2.3985 N   0  3  0  0  0  0  0  0  0  0  0  0
    5.4007    0.5140   -3.4374 C   0  0  0  0  0  0  0  0  0  0  0  0
    6.7422    0.1612   -3.3344 N   0  0  0  0  0  0  0  0  0  0  0  0
    4.9616    1.1863   -4.5732 N   0  0  0  0  0  0  0  0  0  0  0  0
   -0.7323   -2.1024    0.4149 H   0  0  0  0  0  0  0  0  0  0  0  0
    0.5965    0.1109    0.8886 H   0  0  0  0  0  0  0  0  0  0  0  0
    0.7353    1.4069   -1.3253 H   0  0  0  0  0  0  0  0  0  0  0  0
    0.4280   -0.0978   -2.1787 H   0  0  0  0  0  0  0  0  0  0  0  0
    2.8027    0.4103   -0.3041 H   0  0  0  0  0  0  0  0  0  0  0  0
    2.4973   -1.0973   -1.1740 H   0  0  0  0  0  0  0  0  0  0  0  0
    2.6904    0.0773   -3.3441 H   0  0  0  0  0  0  0  0  0  0  0  0
    3.0168    1.6109   -2.5032 H   0  0  0  0  0  0  0  0  0  0  0  0
    4.9076   -0.3069   -1.5919 H   0  0  0  0  0  0  0  0  0  0  0  0
    7.4042    0.3860   -4.0733 H   0  0  0  0  0  0  0  0  0  0  0  0
    7.0966   -0.3309   -2.5179 H   0  0  0  0  0  0  0  0  0  0  0  0
    5.5931    1.4279   -5.3325 H   0  0  0  0  0  0  0  0  0  0  0  0
    3.9863    1.4565   -4.6762 H   0  0  0  0  0  0  0  0  0  0  0  0
   -1.8219    0.4759    1.2386 N   0  0  0  0  0  0  0  0  0  0  0  0
   -3.1472    0.9862    1.5048 C   0  0  2  0  0  0  0  0  0  0  0  0
   -3.0884    1.7996    2.7910 C   0  0  0  0  0  0  0  0  0  0  0  0
   -2.3504    1.5144    3.7318 O   0  0  0  0  0  0  0  0  0  0  0  0
   -4.1613   -0.1411    1.6204 C   0  0  0  0  0  0  0  0  0  0  0  0
   -1.2454    0.2241    2.0360 H   0  0  0  0  0  0  0  0  0  0  0  0
   -3.4069    1.6436    0.6678 H   0  0  0  0  0  0  0  0  0  0  0  0
   -3.9176   -0.8103    2.4536 H   0  0  0  0  0  0  0  0  0  0  0  0
   -5.1698    0.2486    1.7937 H   0  0  0  0  0  0  0  0  0  0  0  0
   -4.1809   -0.7431    0.7055 H   0  0  0  0  0  0  0  0  0  0  0  0
   -3.9882    2.8562    2.7819 N   0  0  0  0  0  0  0  0  0  0  0  0
   -4.1527    3.7498    3.9046 C   0  0  0  0  0  0  0  0  0  0  0  0
   -4.5316    3.0425    1.9442 H   0  0  0  0  0  0  0  0  0  0  0  0
   -4.9599    3.3794    4.5536 H   0  0  0  0  0  0  0  0  0  0  0  0
   -3.2143    3.7961    4.4768 H   0  0  0  0  0  0  0  0  0  0  0  0
   -4.4089    4.7550    3.5385 H   0  0  0  0  0  0  0  0  0  0  0  0
  1  3  1  0  0  0  0
  1  7  1  0  0  0  0
  1  2  2  0  0  0  0
 42 43  1  0  0  0  0
 43 51  1  0  0  0  0
 43 44  2  0  0  0  0
  8  9  1  0  0  0  0
  9 17  1  0  0  0  0
  9 10  2  0  0  0  0
 18 19  1  0  0  0  0
 19 41  1  0  0  0  0
 19 20  2  0  0  0  0
 25 26  1  0  0  0  0
 25 27  1  0  0  0  0
 24 25  2  0  0  0  0
 42 45  1  0  0  0  0
  8 11  1  0  0  0  0
 51 52  1  0  0  0  0
 21 22  1  0  0  0  0
 22 23  1  0  0  0  0
 18 21  1  0  0  0  0
 23 24  1  0  0  0  0
 41 42  1  0  0  0  0
  7  8  1  0  0  0  0
 17 18  1  0  0  0  0
  3  4  1  0  0  0  0
  3  5  1  0  0  0  0
  3  6  1  0  0  0  0
 45 48  1  0  0  0  0
 45 49  1  0  0  0  0
 45 50  1  0  0  0  0
 11 14  1  0  0  0  0
 11 15  1  0  0  0  0
 11 16  1  0  0  0  0
 52 54  1  0  0  0  0
 52 55  1  0  0  0  0
 52 56  1  0  0  0  0
 22 32  1  0  0  0  0
 22 33  1  0  0  0  0
 21 30  1  0  0  0  0
 21 31  1  0  0  0  0
 23 34  1  0  0  0  0
 23 35  1  0  0  0  0
 42 47  1  0  0  0  0
  8 13  1  0  0  0  0
 18 29  1  0  0  0  0
 26 37  1  0  0  0  0
 26 38  1  0  0  0  0
 27 39  1  0  0  0  0
 27 40  1  0  0  0  0
 51 53  1  0  0  0  0
  7 12  1  0  0  0  0
 41 46  1  0  0  0  0
 17 28  1  0  0  0  0
 24 36  1  0  0  0  0
M  CHG  1  24   1
M  END
$$$$

  -OEChem-05262214473D

 56 55  0     1  0  0  0  0  0999 V2000
    0.7735   -5.8042   -2.0022 C   0  0  0  0  0  0  0  0  0  0  0  0
   -0.2086   -6.3825   -1.5519 O   0  0  0  0  0  0  0  0  0  0  0  0
    1.4751   -6.3646   -3.1946 C   0  0  0  0  0  0  0  0  0  0  0  0
    2.2765   -7.0687   -2.9186 H   0  0  0  0  0  0  0  0  0  0  0  0
    0.7988   -6.9360   -3.8504 H   0  0  0  0  0  0  0  0  0  0  0  0
    1.9556   -5.6216   -3.8511 H   0  0  0  0  0  0  0  0  0  0  0  0
    1.3322   -4.6359   -1.5106 N   0  0  0  0  0  0  0  0  0  0  0  0
    0.8124   -3.9290   -0.3698 C   0  0  2  0  0  0  0  0  0  0  0  0
    1.0666   -2.4424   -0.5818 C   0  0  0  0  0  0  0  0  0  0  0  0
    2.0598   -2.0076   -1.1610 O   0  0  0  0  0  0  0  0  0  0  0  0
    1.4560   -4.4118    0.9207 C   0  0  0  0  0  0  0  0  0  0  0  0
    2.1528   -4.2578   -1.9805 H   0  0  0  0  0  0  0  0  0  0  0  0
   -0.2667   -4.1160   -0.3467 H   0  0  0  0  0  0  0  0  0  0  0  0
    2.5374   -4.2329    0.9160 H   0  0  0  0  0  0  0  0  0  0  0  0
    1.0390   -3.8932    1.7903 H   0  0  0  0  0  0  0  0  0  0  0  0
    1.2976   -5.4871    1.0566 H   0  0  0  0  0  0  0  0  0  0  0  0
    0.0755   -1.6529   -0.0105 N   0  0  0  0  0  0  0  0  0  0  0  0
    0.1113   -0.2132   -0.0391 C   0  0  2  0  0  0  0  0  0  0  0  0
   -1.3313    0.2811   -0.0450 C   0  0  0  0  0  0  0  0  0  0  0  0
   -2.0408    0.2620   -1.0487 O   0  0  0  0  0  0  0  0  0  0  0  0
    0.8649    0.3198   -1.2620 C   0  0  0  0  0  0  0  0  0  0  0  0
    2.3615   -0.0105   -1.2156 C   0  0  0  0  0  0  0  0  0  0  0  0
    3.1065    0.5224   -2.4351 C   0  0  0  0  0  0  0  0  0  0  0  0
    4.5278    0.1855   -2.3985 N   0  3  0  0  0  0  0  0  0  0  0  0
    5.4007    0.5140   -3.4374 C   0  0  0  0  0  0  0  0  0  0  0  0
    6.7422    0.1612   -3.3344 N   0  0  0  0  0  0  0  0  0  0  0  0
    4.9616    1.1863   -4.5732 N   0  0  0  0  0  0  0  0  0  0  0  0
   -0.7323   -2.1024    0.4149 H   0  0  0  0  0  0  0  0  0  0  0  0
    0.5965    0.1109    0.8886 H   0  0  0  0  0  0  0  0  0  0  0  0
    0.7353    1.4069   -1.3253 H   0  0  0  0  0  0  0  0  0  0  0  0
    0.4280   -0.0978   -2.1787 H   0  0  0  0  0  0  0  0  0  0  0  0
    2.8027    0.4103   -0.3041 H   0  0  0  0  0  0  0  0  0  0  0  0
    2.4973   -1.0973   -1.1740 H   0  0  0  0  0  0  0  0  0  0  0  0
    2.6904    0.0773   -3.3441 H   0  0  0  0  0  0  0  0  0  0  0  0
    3.0168    1.6109   -2.5032 H   0  0  0  0  0  0  0  0  0  0  0  0
    4.9076   -0.3069   -1.5919 H   0  0  0  0  0  0  0  0  0  0  0  0
    7.4042    0.3860   -4.0733 H   0  0  0  0  0  0  0  0  0  0  0  0
    7.0966   -0.3309   -2.5179 H   0  0  0  0  0  0  0  0  0  0  0  0
    5.5931    1.4279   -5.3325 H   0  0  0  0  0  0  0  0  0  0  0  0
    3.9863    1.4565   -4.6762 H   0  0  0  0  0  0  0  0  0  0  0  0
   -1.7142    0.7898    1.1883 N   0  0  0  0  0  0  0  0  0  0  0  0
   -3.0171    1.3649    1.4314 C   0  0  2  0  0  0  0  0  0  0  0  0
   -2.8582    2.4676    2.4697 C   0  0  0  0  0  0  0  0  0  0  0  0
   -2.0411    2.4130    3.3865 O   0  0  0  0  0  0  0  0  0  0  0  0
   -4.0073    0.3118    1.9041 C   0  0  0  0  0  0  0  0  0  0  0  0
   -1.0703    0.7343    1.9719 H   0  0  0  0  0  0  0  0  0  0  0  0
   -3.3525    1.8003    0.4838 H   0  0  0  0  0  0  0  0  0  0  0  0
   -3.6880   -0.1358    2.8524 H   0  0  0  0  0  0  0  0  0  0  0  0
   -5.0013    0.7436    2.0605 H   0  0  0  0  0  0  0  0  0  0  0  0
   -4.0979   -0.4956    1.1694 H   0  0  0  0  0  0  0  0  0  0  0  0
   -3.7655    3.5001    2.2775 N   0  0  0  0  0  0  0  0  0  0  0  0
   -3.8435    4.6432    3.1569 C   0  0  0  0  0  0  0  0  0  0  0  0
   -4.3791    3.4819    1.4683 H   0  0  0  0  0  0  0  0  0  0  0  0
   -4.5898    4.4521    3.9421 H   0  0  0  0  0  0  0  0  0  0  0  0
   -2.8609    4.8174    3.6197 H   0  0  0  0  0  0  0  0  0  0  0  0
   -4.1391    5.5310    2.5786 H   0  0  0  0  0  0  0  0  0  0  0  0
  1  3  1  0  0  0  0
  1  7  1  0  0  0  0
  1  2  2  0  0  0  0
 42 43  1  0  0  0  0
 43 51  1  0  0  0  0
 43 44  2  0  0  0  0
  8  9  1  0  0  0  0
  9 17  1  0  0  0  0
  9 10  2  0  0  0  0
 18 19  1  0  0  0  0
 19 41  1  0  0  0  0
 19 20  2  0  0  0  0
 25 26  1  0  0  0  0
 25 27  1  0  0  0  0
 24 25  2  0  0  0  0
 42 45  1  0  0  0  0
  8 11  1  0  0  0  0
 51 52  1  0  0  0  0
 21 22  1  0  0  0  0
 22 23  1  0  0  0  0
 18 21  1  0  0  0  0
 23 24  1  0  0  0  0
 41 42  1  0  0  0  0
  7  8  1  0  0  0  0
 17 18  1  0  0  0  0
  3  4  1  0  0  0  0
  3  5  1  0  0  0  0
  3  6  1  0  0  0  0
 45 48  1  0  0  0  0
 45 49  1  0  0  0  0
 45 50  1  0  0  0  0
 11 14  1  0  0  0  0
 11 15  1  0  0  0  0
 11 16  1  0  0  0  0
 52 54  1  0  0  0  0
 52 55  1  0  0  0  0
 52 56  1  0  0  0  0
 22 32  1  0  0  0  0
 22 33  1  0  0  0  0
 21 30  1  0  0  0  0
 21 31  1  0  0  0  0
 23 34  1  0  0  0  0
 23 35  1  0  0  0  0
 42 47  1  0  0  0  0
  8 13  1  0  0  0  0
 18 29  1  0  0  0  0
 26 37  1  0  0  0  0
 26 38  1  0  0  0  0
 27 39  1  0  0  0  0
 27 40  1  0  0  0  0
 51 53  1  0  0  0  0
  7 12  1  0  0  0  0
 41 46  1  0  0  0  0
 17 28  1  0  0  0  0
 24 36  1  0  0  0  0
M  CHG  1  24   1
M  END
$$$$

  -OEChem-05262214473D

 56 55  0     1  0  0  0  0  0999 V2000
    0.7735   -5.8042   -2.0022 C   0  0  0  0  0  0  0  0  0  0  0  0
   -0.2086   -6.3825   -1.5519 O   0  0  0  0  0  0  0  0  0  0  0  0
    1.4751   -6.3646   -3.1946 C   0  0  0  0  0  0  0  0  0  0  0  0
    2.2765   -7.0687   -2.9186 H   0  0  0  0  0  0  0  0  0  0  0  0
    0.7988   -6.9360   -3.8504 H   0  0  0  0  0  0  0  0  0  0  0  0
    1.9556   -5.6216   -3.8511 H   0  0  0  0  0  0  0  0  0  0  0  0
    1.3322   -4.6359   -1.5106 N   0  0  0  0  0  0  0  0  0  0  0  0
    0.8124   -3.9290   -0.3698 C   0  0  2  0  0  0  0  0  0  0  0  0
    1.0666   -2.4424   -0.5818 C   0  0  0  0  0  0  0  0  0  0  0  0
    2.0598   -2.0076   -1.1610 O   0  0  0  0  0  0  0  0  0  0  0  0
    1.4560   -4.4118    0.9207 C   0  0  0  0  0  0  0  0  0  0  0  0
    2.1528   -4.2578   -1.9805 H   0  0  0  0  0  0  0  0  0  0  0  0
   -0.2667   -4.1160   -0.3467 H   0  0  0  0  0  0  0  0  0  0  0  0
    2.5374   -4.2329    0.9160 H   0  0  0  0  0  0  0  0  0  0  0  0
    1.0390   -3.8932    1.7903 H   0  0  0  0  0  0  0  0  0  0  0  0
    1.2976   -5.4871    1.0566 H   0  0  0  0  0  0  0  0  0  0  0  0
    0.0755   -1.6529   -0.0105 N   0  0  0  0  0  0  0  0  0  0  0  0
    0.1113   -0.2132   -0.0391 C   0  0  2  0  0  0  0  0  0  0  0  0
   -1.3313    0.2811   -0.0450 C   0  0  0  0  0  0  0  0  0  0  0  0
   -2.1224    0.0250   -0.9504 O   0  0  0  0  0  0  0  0  0  0  0  0
    0.8649    0.3198   -1.2620 C   0  0  0  0  0  0  0  0  0  0  0  0
    2.3615   -0.0105   -1.2156 C   0  0  0  0  0  0  0  0  0  0  0  0
    3.1065    0.5224   -2.4351 C   0  0  0  0  0  0  0  0  0  0  0  0
    4.5278    0.1855   -2.3985 N   0  3  0  0  0  0  0  0  0  0  0  0
    5.4007    0.5140   -3.4374 C   0  0  0  0  0  0  0  0  0  0  0  0
    6.7422    0.1612   -3.3344 N   0  0  0  0  0  0  0  0  0  0  0  0
    4.9616    1.1863   -4.5732 N   0  0  0  0  0  0  0  0  0  0  0  0
   -0.7323   -2.1024    0.4149 H   0  0  0  0  0  0  0  0  0  0  0  0
    0.5965    0.1109    0.8886 H   0  0  0  0  0  0  0  0  0  0  0  0
    0.7353    1.4069   -1.3253 H   0  0  0  0  0  0  0  0  0  0  0  0
    0.4280   -0.0978   -2.1787 H   0  0  0  0  0  0  0  0  0  0  0  0
    2.8027    0.4103   -0.3041 H   0  0  0  0  0  0  0  0  0  0  0  0
    2.4973   -1.0973   -1.1740 H   0  0  0  0  0  0  0  0  0  0  0  0
    2.6904    0.0773   -3.3441 H   0  0  0  0  0  0  0  0  0  0  0  0
    3.0168    1.6109   -2.5032 H   0  0  0  0  0  0  0  0  0  0  0  0
    4.9076   -0.3069   -1.5919 H   0  0  0  0  0  0  0  0  0  0  0  0
    7.4042    0.3860   -4.0733 H   0  0  0  0  0  0  0  0  0  0  0  0
    7.0966   -0.3309   -2.5179 H   0  0  0  0  0  0  0  0  0  0  0  0
    5.5931    1.4279   -5.3325 H   0  0  0  0  0  0  0  0  0  0  0  0
    3.9863    1.4565   -4.6762 H   0  0  0  0  0  0  0  0  0  0  0  0
   -1.6140    1.0806    1.0537 N   0  0  0  0  0  0  0  0  0  0  0  0
   -2.8973    1.7125    1.2569 C   0  0  2  0  0  0  0  0  0  0  0  0
   -2.6621    3.0340    1.9765 C   0  0  0  0  0  0  0  0  0  0  0  0
   -1.7704    3.1962    2.8070 O   0  0  0  0  0  0  0  0  0  0  0  0
   -3.8342    0.8186    2.0543 C   0  0  0  0  0  0  0  0  0  0  0  0
   -0.9061    1.2112    1.7703 H   0  0  0  0  0  0  0  0  0  0  0  0
   -3.3152    1.9065    0.2631 H   0  0  0  0  0  0  0  0  0  0  0  0
   -3.4322    0.6132    3.0532 H   0  0  0  0  0  0  0  0  0  0  0  0
   -4.8156    1.2869    2.1829 H   0  0  0  0  0  0  0  0  0  0  0  0
   -3.9786   -0.1429    1.5500 H   0  0  0  0  0  0  0  0  0  0  0  0
   -3.5921    3.9983    1.6140 N   0  0  0  0  0  0  0  0  0  0  0  0
   -3.6068    5.3227    2.1900 C   0  0  0  0  0  0  0  0  0  0  0  0
   -4.2713    3.7896    0.8882 H   0  0  0  0  0  0  0  0  0  0  0  0
   -4.2826    5.3382    3.0578 H   0  0  0  0  0  0  0  0  0  0  0  0
   -2.5905    5.5937    2.5120 H   0  0  0  0  0  0  0  0  0  0  0  0
   -3.9582    6.0453    1.4388 H   0  0  0  0  0  0  0  0  0  0  0  0
  1  3  1  0  0  0  0
  1  7  1  0  0  0  0
  1  2  2  0  0  0  0
 42 43  1  0  0  0  0
 43 51  1  0  0  0  0
 43 44  2  0  0  0  0
  8  9  1  0  0  0  0
  9 17  1  0  0  0  0
  9 10  2  0  0  0  0
 18 19  1  0  0  0  0
 19 41  1  0  0  0  0
 19 20  2  0  0  0  0
 25 26  1  0  0  0  0
 25 27  1  0  0  0  0
 24 25  2  0  0  0  0
 42 45  1  0  0  0  0
  8 11  1  0  0  0  0
 51 52  1  0  0  0  0
 21 22  1  0  0  0  0
 22 23  1  0  0  0  0
 18 21  1  0  0  0  0
 23 24  1  0  0  0  0
 41 42  1  0  0  0  0
  7  8  1  0  0  0  0
 17 18  1  0  0  0  0
  3  4  1  0  0  0  0
  3  5  1  0  0  0  0
  3  6  1  0  0  0  0
 45 48  1  0  0  0  0
 45 49  1  0  0  0  0
 45 50  1  0  0  0  0
 11 14  1  0  0  0  0
 11 15  1  0  0  0  0
 11 16  1  0  0  0  0
 52 54  1  0  0  0  0
 52 55  1  0  0  0  0
 52 56  1  0  0  0  0
 22 32  1  0  0  0  0
 22 33  1  0  0  0  0
 21 30  1  0  0  0  0
 21 31  1  0  0  0  0
 23 34  1  0  0  0  0
 23 35  1  0  0  0  0
 42 47  1  0  0  0  0
  8 13  1  0  0  0  0
 18 29  1  0  0  0  0
 26 37  1  0  0  0  0
 26 38  1  0  0  0  0
 27 39  1  0  0  0  0
 27 40  1  0  0  0  0
 51 53  1  0  0  0  0
  7 12  1  0  0  0  0
 41 46  1  0  0  0  0
 17 28  1  0  0  0  0
 24 36  1  0  0  0  0
M  CHG  1  24   1
M  END
$$$$

  -OEChem-05262214473D

 56 55  0     1  0  0  0  0  0999 V2000
    0.7735   -5.8042   -2.0022 C   0  0  0  0  0  0  0  0  0  0  0  0
   -0.2086   -6.3825   -1.5519 O   0  0  0  0  0  0  0  0  0  0  0  0
    1.4751   -6.3646   -3.1946 C   0  0  0  0  0  0  0  0  0  0  0  0
    2.2765   -7.0687   -2.9186 H   0  0  0  0  0  0  0  0  0  0  0  0
    0.7988   -6.9360   -3.8504 H   0  0  0  0  0  0  0  0  0  0  0  0
    1.9556   -5.6216   -3.8511 H   0  0  0  0  0  0  0  0  0  0  0  0
    1.3322   -4.6359   -1.5106 N   0  0  0  0  0  0  0  0  0  0  0  0
    0.8124   -3.9290   -0.3698 C   0  0  2  0  0  0  0  0  0  0  0  0
    1.0666   -2.4424   -0.5818 C   0  0  0  0  0  0  0  0  0  0  0  0
    2.0598   -2.0076   -1.1610 O   0  0  0  0  0  0  0  0  0  0  0  0
    1.4560   -4.4118    0.9207 C   0  0  0  0  0  0  0  0  0  0  0  0
    2.1528   -4.2578   -1.9805 H   0  0  0  0  0  0  0  0  0  0  0  0
   -0.2667   -4.1160   -0.3467 H   0  0  0  0  0  0  0  0  0  0  0  0
    2.5374   -4.2329    0.9160 H   0  0  0  0  0  0  0  0  0  0  0  0
    1.0390   -3.8932    1.7903 H   0  0  0  0  0  0  0  0  0  0  0  0
    1.2976   -5.4871    1.0566 H   0  0  0  0  0  0  0  0  0  0  0  0
    0.0755   -1.6529   -0.0105 N   0  0  0  0  0  0  0  0  0  0  0  0
    0.1113   -0.2132   -0.0391 C   0  0  2  0  0  0  0  0  0  0  0  0
   -1.3313    0.2811   -0.0450 C   0  0  0  0  0  0  0  0  0  0  0  0
   -2.1932   -0.1798   -0.7905 O   0  0  0  0  0  0  0  0  0  0  0  0
    0.8649    0.3198   -1.2620 C   0  0  0  0  0  0  0  0  0  0  0  0
    2.3615   -0.0105   -1.2156 C   0  0  0  0  0  0  0  0  0  0  0  0
    3.1065    0.5224   -2.4351 C   0  0  0  0  0  0  0  0  0  0  0  0
    4.5278    0.1855   -2.3985 N   0  3  0  0  0  0  0  0  0  0  0  0
    5.4007    0.5140   -3.4374 C   0  0  0  0  0  0  0  0  0  0  0  0
    6.7422    0.1612   -3.3344 N   0  0  0  0  0  0  0  0  0  0  0  0
    4.9616    1.1863   -4.5732 N   0  0  0  0  0  0  0  0  0  0  0  0
   -0.7323   -2.1024    0.4149 H   0  0  0  0  0  0  0  0  0  0  0  0
    0.5965    0.1109    0.8886 H   0  0  0  0  0  0  0  0  0  0  0  0
    0.7353    1.4069   -1.3253 H   0  0  0  0  0  0  0  0  0  0  0  0
    0.4280   -0.0978   -2.1787 H   0  0  0  0  0  0  0  0  0  0  0  0
    2.8027    0.4103   -0.3041 H   0  0  0  0  0  0  0  0  0  0  0  0
    2.4973   -1.0973   -1.1740 H   0  0  0  0  0  0  0  0  0  0  0  0
    2.6904    0.0773   -3.3441 H   0  0  0  0  0  0  0  0  0  0  0  0
    3.0168    1.6109   -2.5032 H   0  0  0  0  0  0  0  0  0  0  0  0
    4.9076   -0.3069   -1.5919 H   0  0  0  0  0  0  0  0  0  0  0  0
    7.4042    0.3860   -4.0733 H   0  0  0  0  0  0  0  0  0  0  0  0
    7.0966   -0.3309   -2.5179 H   0  0  0  0  0  0  0  0  0  0  0  0
    5.5931    1.4279   -5.3325 H   0  0  0  0  0  0  0  0  0  0  0  0
    3.9863    1.4565   -4.6762 H   0  0  0  0  0  0  0  0  0  0  0  0
   -1.5282    1.3284    0.8442 N   0  0  0  0  0  0  0  0  0  0  0  0
   -2.7958    2.0055    0.9932 C   0  0  2  0  0  0  0  0  0  0  0  0
   -2.5135    3.4601    1.3450 C   0  0  0  0  0  0  0  0  0  0  0  0
   -1.5568    3.8105    2.0327 O   0  0  0  0  0  0  0  0  0  0  0  0
   -3.6539    1.3448    2.0609 C   0  0  0  0  0  0  0  0  0  0  0  0
   -0.7639    1.6223    1.4451 H   0  0  0  0  0  0  0  0  0  0  0  0
   -3.2976    1.9550    0.0207 H   0  0  0  0  0  0  0  0  0  0  0  0
   -3.1675    1.3855    3.0423 H   0  0  0  0  0  0  0  0  0  0  0  0
   -4.6255    1.8415    2.1526 H   0  0  0  0  0  0  0  0  0  0  0  0
   -3.8311    0.2907    1.8213 H   0  0  0  0  0  0  0  0  0  0  0  0
   -3.4797    4.3170    0.8366 N   0  0  0  0  0  0  0  0  0  0  0  0
   -3.4585    5.7421    1.0699 C   0  0  0  0  0  0  0  0  0  0  0  0
   -4.2156    3.9447    0.2436 H   0  0  0  0  0  0  0  0  0  0  0  0
   -4.0591    5.9774    1.9609 H   0  0  0  0  0  0  0  0  0  0  0  0
   -2.4214    6.0720    1.2294 H   0  0  0  0  0  0  0  0  0  0  0  0
   -3.8787    6.2628    0.1967 H   0  0  0  0  0  0  0  0  0  0  0  0
  1  3  1  0  0  0  0
  1  7  1  0  0  0  0
  1  2  2  0  0  0  0
 42 43  1  0  0  0  0
 43 51  1  0  0  0  0
 43 44  2  0  0  0  0
  8  9  1  0  0  0  0
  9 17  1  0  0  0  0
  9 10  2  0  0  0  0
 18 19  1  0  0  0  0
 19 41  1  0  0  0  0
 19 20  2  0  0  0  0
 25 26  1  0  0  0  0
 25 27  1  0  0  0  0
 24 25  2  0  0  0  0
 42 45  1  0  0  0  0
  8 11  1  0  0  0  0
 51 52  1  0  0  0  0
 21 22  1  0  0  0  0
 22 23  1  0  0  0  0
 18 21  1  0  0  0  0
 23 24  1  0  0  0  0
 41 42  1  0  0  0  0
  7  8  1  0  0  0  0
 17 18  1  0  0  0  0
  3  4  1  0  0  0  0
  3  5  1  0  0  0  0
  3  6  1  0  0  0  0
 45 48  1  0  0  0  0
 45 49  1  0  0  0  0
 45 50  1  0  0  0  0
 11 14  1  0  0  0  0
 11 15  1  0  0  0  0
 11 16  1  0  0  0  0
 52 54  1  0  0  0  0
 52 55  1  0  0  0  0
 52 56  1  0  0  0  0
 22 32  1  0  0  0  0
 22 33  1  0  0  0  0
 21 30  1  0  0  0  0
 21 31  1  0  0  0  0
 23 34  1  0  0  0  0
 23 35  1  0  0  0  0
 42 47  1  0  0  0  0
  8 13  1  0  0  0  0
 18 29  1  0  0  0  0
 26 37  1  0  0  0  0
 26 38  1  0  0  0  0
 27 39  1  0  0  0  0
 27 40  1  0  0  0  0
 51 53  1  0  0  0  0
  7 12  1  0  0  0  0
 41 46  1  0  0  0  0
 17 28  1  0  0  0  0
 24 36  1  0  0  0  0
M  CHG  1  24   1
M  END
$$$$

  -OEChem-05262214473D

 56 55  0     1  0  0  0  0  0999 V2000
    0.7735   -5.8042   -2.0022 C   0  0  0  0  0  0  0  0  0  0  0  0
   -0.2086   -6.3825   -1.5519 O   0  0  0  0  0  0  0  0  0  0  0  0
    1.4751   -6.3646   -3.1946 C   0  0  0  0  0  0  0  0  0  0  0  0
    2.2765   -7.0687   -2.9186 H   0  0  0  0  0  0  0  0  0  0  0  0
    0.7988   -6.9360   -3.8504 H   0  0  0  0  0  0  0  0  0  0  0  0
    1.9556   -5.6216   -3.8511 H   0  0  0  0  0  0  0  0  0  0  0  0
    1.3322   -4.6359   -1.5106 N   0  0  0  0  0  0  0  0  0  0  0  0
    0.8124   -3.9290   -0.3698 C   0  0  2  0  0  0  0  0  0  0  0  0
    1.0666   -2.4424   -0.5818 C   0  0  0  0  0  0  0  0  0  0  0  0
    2.0598   -2.0076   -1.1610 O   0  0  0  0  0  0  0  0  0  0  0  0
    1.4560   -4.4118    0.9207 C   0  0  0  0  0  0  0  0  0  0  0  0
    2.1528   -4.2578   -1.9805 H   0  0  0  0  0  0  0  0  0  0  0  0
   -0.2667   -4.1160   -0.3467 H   0  0  0  0  0  0  0  0  0  0  0  0
    2.5374   -4.2329    0.9160 H   0  0  0  0  0  0  0  0  0  0  0  0
    1.0390   -3.8932    1.7903 H   0  0  0  0  0  0  0  0  0  0  0  0
    1.2976   -5.4871    1.0566 H   0  0  0  0  0  0  0  0  0  0  0  0
    0.0755   -1.6529   -0.0105 N   0  0  0  0  0  0  0  0  0  0  0  0
    0.1113   -0.2132   -0.0391 C   0  0  2  0  0  0  0  0  0  0  0  0
   -1.3313    0.2811   -0.0450 C   0  0  0  0  0  0  0  0  0  0  0  0
   -2.2484   -0.3384   -0.5801 O   0  0  0  0  0  0  0  0  0  0  0  0
    0.8649    0.3198   -1.2620 C   0  0  0  0  0  0  0  0  0  0  0  0
    2.3615   -0.0105   -1.2156 C   0  0  0  0  0  0  0  0  0  0  0  0
    3.1065    0.5224   -2.4351 C   0  0  0  0  0  0  0  0  0  0  0  0
    4.5278    0.1855   -2.3985 N   0  3  0  0  0  0  0  0  0  0  0  0
    5.4007    0.5140   -3.4374 C   0  0  0  0  0  0  0  0  0  0  0  0
    6.7422    0.1612   -3.3344 N   0  0  0  0  0  0  0  0  0  0  0  0
    4.9616    1.1863   -4.5732 N   0  0  0  0  0  0  0  0  0  0  0  0
   -0.7323   -2.1024    0.4149 H   0  0  0  0  0  0  0  0  0  0  0  0
    0.5965    0.1109    0.8886 H   0  0  0  0  0  0  0  0  0  0  0  0
    0.7353    1.4069   -1.3253 H   0  0  0  0  0  0  0  0  0  0  0  0
    0.4280   -0.0978   -2.1787 H   0  0  0  0  0  0  0  0  0  0  0  0
    2.8027    0.4103   -0.3041 H   0  0  0  0  0  0  0  0  0  0  0  0
    2.4973   -1.0973   -1.1740 H   0  0  0  0  0  0  0  0  0  0  0  0
    2.6904    0.0773   -3.3441 H   0  0  0  0  0  0  0  0  0  0  0  0
    3.0168    1.6109   -2.5032 H   0  0  0  0  0  0  0  0  0  0  0  0
    4.9076   -0.3069   -1.5919 H   0  0  0  0  0  0  0  0  0  0  0  0
    7.4042    0.3860   -4.0733 H   0  0  0  0  0  0  0  0  0  0  0  0
    7.0966   -0.3309   -2.5179 H   0  0  0  0  0  0  0  0  0  0  0  0
    5.5931    1.4279   -5.3325 H   0  0  0  0  0  0  0  0  0  0  0  0
    3.9863    1.4565   -4.6762 H   0  0  0  0  0  0  0  0  0  0  0  0
   -1.4627    1.5164    0.5739 N   0  0  0  0  0  0  0  0  0  0  0  0
   -2.7197    2.2238    0.6582 C   0  0  2  0  0  0  0  0  0  0  0  0
   -2.4226    3.7170    0.6181 C   0  0  0  0  0  0  0  0  0  0  0  0
   -1.4148    4.2140    1.1165 O   0  0  0  0  0  0  0  0  0  0  0  0
   -3.4787    1.8544    1.9232 C   0  0  0  0  0  0  0  0  0  0  0  0
   -0.6534    1.9397    1.0183 H   0  0  0  0  0  0  0  0  0  0  0  0
   -3.3008    1.9426   -0.2267 H   0  0  0  0  0  0  0  0  0  0  0  0
   -2.9120    2.1286    2.8205 H   0  0  0  0  0  0  0  0  0  0  0  0
   -4.4438    2.3696    1.9715 H   0  0  0  0  0  0  0  0  0  0  0  0
   -3.6655    0.7759    1.9647 H   0  0  0  0  0  0  0  0  0  0  0  0
   -3.4362    4.4343   -0.0018 N   0  0  0  0  0  0  0  0  0  0  0  0
   -3.4089    5.8729   -0.1272 C   0  0  0  0  0  0  0  0  0  0  0  0
   -4.2157    3.9366   -0.4218 H   0  0  0  0  0  0  0  0  0  0  0  0
   -3.9347    6.3259    0.7261 H   0  0  0  0  0  0  0  0  0  0  0  0
   -2.3651    6.2199   -0.1408 H   0  0  0  0  0  0  0  0  0  0  0  0
   -3.9058    6.1687   -1.0629 H   0  0  0  0  0  0  0  0  0  0  0  0
  1  3  1  0  0  0  0
  1  7  1  0  0  0  0
  1  2  2  0  0  0  0
 42 43  1  0  0  0  0
 43 51  1  0  0  0  0
 43 44  2  0  0  0  0
  8  9  1  0  0  0  0
  9 17  1  0  0  0  0
  9 10  2  0  0  0  0
 18 19  1  0  0  0  0
 19 41  1  0  0  0  0
 19 20  2  0  0  0  0
 25 26  1  0  0  0  0
 25 27  1  0  0  0  0
 24 25  2  0  0  0  0
 42 45  1  0  0  0  0
  8 11  1  0  0  0  0
 51 52  1  0  0  0  0
 21 22  1  0  0  0  0
 22 23  1  0  0  0  0
 18 21  1  0  0  0  0
 23 24  1  0  0  0  0
 41 42  1  0  0  0  0
  7  8  1  0  0  0  0
 17 18  1  0  0  0  0
  3  4  1  0  0  0  0
  3  5  1  0  0  0  0
  3  6  1  0  0  0  0
 45 48  1  0  0  0  0
 45 49  1  0  0  0  0
 45 50  1  0  0  0  0
 11 14  1  0  0  0  0
 11 15  1  0  0  0  0
 11 16  1  0  0  0  0
 52 54  1  0  0  0  0
 52 55  1  0  0  0  0
 52 56  1  0  0  0  0
 22 32  1  0  0  0  0
 22 33  1  0  0  0  0
 21 30  1  0  0  0  0
 21 31  1  0  0  0  0
 23 34  1  0  0  0  0
 23 35  1  0  0  0  0
 42 47  1  0  0  0  0
  8 13  1  0  0  0  0
 18 29  1  0  0  0  0
 26 37  1  0  0  0  0
 26 38  1  0  0  0  0
 27 39  1  0  0  0  0
 27 40  1  0  0  0  0
 51 53  1  0  0  0  0
  7 12  1  0  0  0  0
 41 46  1  0  0  0  0
 17 28  1  0  0  0  0
 24 36  1  0  0  0  0
M  CHG  1  24   1
M  END
$$$$

  -OEChem-05262214473D

 56 55  0     1  0  0  0  0  0999 V2000
    0.7735   -5.8042   -2.0022 C   0  0  0  0  0  0  0  0  0  0  0  0
   -0.2086   -6.3825   -1.5519 O   0  0  0  0  0  0  0  0  0  0  0  0
    1.4751   -6.3646   -3.1946 C   0  0  0  0  0  0  0  0  0  0  0  0
    2.2765   -7.0687   -2.9186 H   0  0  0  0  0  0  0  0  0  0  0  0
    0.7988   -6.9360   -3.8504 H   0  0  0  0  0  0  0  0  0  0  0  0
    1.9556   -5.6216   -3.8511 H   0  0  0  0  0  0  0  0  0  0  0  0
    1.3322   -4.6359   -1.5106 N   0  0  0  0  0  0  0  0  0  0  0  0
    0.8124   -3.9290   -0.3698 C   0  0  2  0  0  0  0  0  0  0  0  0
    1.0666   -2.4424   -0.5818 C   0  0  0  0  0  0  0  0  0  0  0  0
    2.0598   -2.0076   -1.1610 O   0  0  0  0  0  0  0  0  0  0  0  0
    1.4560   -4.4118    0.9207 C   0  0  0  0  0  0  0  0  0  0  0  0
    2.1528   -4.2578   -1.9805 H   0  0  0  0  0  0  0  0  0  0  0  0
   -0.2667   -4.1160   -0.3467 H   0  0  0  0  0  0  0  0  0  0  0  0
    2.5374   -4.2329    0.9160 H   0  0  0  0  0  0  0  0  0  0  0  0
    1.0390   -3.8932    1.7903 H   0  0  0  0  0  0  0  0  0  0  0  0
    1.2976   -5.4871    1.0566 H   0  0  0  0  0  0  0  0  0  0  0  0
    0.0755   -1.6529   -0.0105 N   0  0  0  0  0  0  0  0  0  0  0  0
    0.1113   -0.2132   -0.0391 C   0  0  2  0  0  0  0  0  0  0  0  0
   -1.3313    0.2811   -0.0450 C   0  0  0  0  0  0  0  0  0  0  0  0
   -2.2842   -0.4400   -0.3333 O   0  0  0  0  0  0  0  0  0  0  0  0
    0.8649    0.3198   -1.2620 C   0  0  0  0  0  0  0  0  0  0  0  0
    2.3615   -0.0105   -1.2156 C   0  0  0  0  0  0  0  0  0  0  0  0
    3.1065    0.5224   -2.4351 C   0  0  0  0  0  0  0  0  0  0  0  0
    4.5278    0.1855   -2.3985 N   0  3  0  0  0  0  0  0  0  0  0  0
    5.4007    0.5140   -3.4374 C   0  0  0  0  0  0  0  0  0  0  0  0
    6.7422    0.1612   -3.3344 N   0  0  0  0  0  0  0  0  0  0  0  0
    4.9616    1.1863   -4.5732 N   0  0  0  0  0  0  0  0  0  0  0  0
   -0.7323   -2.1024    0.4149 H   0  0  0  0  0  0  0  0  0  0  0  0
    0.5965    0.1109    0.8886 H   0  0  0  0  0  0  0  0  0  0  0  0
    0.7353    1.4069   -1.3253 H   0  0  0  0  0  0  0  0  0  0  0  0
    0.4280   -0.0978   -2.1787 H   0  0  0  0  0  0  0  0  0  0  0  0
    2.8027    0.4103   -0.3041 H   0  0  0  0  0  0  0  0  0  0  0  0
    2.4973   -1.0973   -1.1740 H   0  0  0  0  0  0  0  0  0  0  0  0
    2.6904    0.0773   -3.3441 H   0  0  0  0  0  0  0  0  0  0  0  0
    3.0168    1.6109   -2.5032 H   0  0  0  0  0  0  0  0  0  0  0  0
    4.9076   -0.3069   -1.5919 H   0  0  0  0  0  0  0  0  0  0  0  0
    7.4042    0.3860   -4.0733 H   0  0  0  0  0  0  0  0  0  0  0  0
    7.0966   -0.3309   -2.5179 H   0  0  0  0  0  0  0  0  0  0  0  0
    5.5931    1.4279   -5.3325 H   0  0  0  0  0  0  0  0  0  0  0  0
    3.9863    1.4565   -4.6762 H   0  0  0  0  0  0  0  0  0  0  0  0
   -1.4219    1.6317    0.2614 N   0  0  0  0  0  0  0  0  0  0  0  0
   -2.6740    2.3526    0.2749 C   0  0  2  0  0  0  0  0  0  0  0  0
   -2.3955    3.7870   -0.1544 C   0  0  0  0  0  0  0  0  0  0  0  0
   -1.3541    4.3794    0.1208 O   0  0  0  0  0  0  0  0  0  0  0  0
   -3.3206    2.3128    1.6507 C   0  0  0  0  0  0  0  0  0  0  0  0
   -0.5822    2.1417    0.5191 H   0  0  0  0  0  0  0  0  0  0  0  0
   -3.3248    1.8699   -0.4624 H   0  0  0  0  0  0  0  0  0  0  0  0
   -2.6831    2.7918    2.4028 H   0  0  0  0  0  0  0  0  0  0  0  0
   -4.2830    2.8352    1.6521 H   0  0  0  0  0  0  0  0  0  0  0  0
   -3.4929    1.2795    1.9706 H   0  0  0  0  0  0  0  0  0  0  0  0
   -3.4643    4.3423   -0.8440 N   0  0  0  0  0  0  0  0  0  0  0  0
   -3.4612    5.7060   -1.3197 C   0  0  0  0  0  0  0  0  0  0  0  0
   -4.2716    3.7659   -1.0625 H   0  0  0  0  0  0  0  0  0  0  0  0
   -3.9178    6.3601   -0.5623 H   0  0  0  0  0  0  0  0  0  0  0  0
   -2.4257    6.0272   -1.5052 H   0  0  0  0  0  0  0  0  0  0  0  0
   -4.0378    5.7694   -2.2544 H   0  0  0  0  0  0  0  0  0  0  0  0
  1  3  1  0  0  0  0
  1  7  1  0  0  0  0
  1  2  2  0  0  0  0
 42 43  1  0  0  0  0
 43 51  1  0  0  0  0
 43 44  2  0  0  0  0
  8  9  1  0  0  0  0
  9 17  1  0  0  0  0
  9 10  2  0  0  0  0
 18 19  1  0  0  0  0
 19 41  1  0  0  0  0
 19 20  2  0  0  0  0
 25 26  1  0  0  0  0
 25 27  1  0  0  0  0
 24 25  2  0  0  0  0
 42 45  1  0  0  0  0
  8 11  1  0  0  0  0
 51 52  1  0  0  0  0
 21 22  1  0  0  0  0
 22 23  1  0  0  0  0
 18 21  1  0  0  0  0
 23 24  1  0  0  0  0
 41 42  1  0  0  0  0
  7  8  1  0  0  0  0
 17 18  1  0  0  0  0
  3  4  1  0  0  0  0
  3  5  1  0  0  0  0
  3  6  1  0  0  0  0
 45 48  1  0  0  0  0
 45 49  1  0  0  0  0
 45 50  1  0  0  0  0
 11 14  1  0  0  0  0
 11 15  1  0  0  0  0
 11 16  1  0  0  0  0
 52 54  1  0  0  0  0
 52 55  1  0  0  0  0
 52 56  1  0  0  0  0
 22 32  1  0  0  0  0
 22 33  1  0  0  0  0
 21 30  1  0  0  0  0
 21 31  1  0  0  0  0
 23 34  1  0  0  0  0
 23 35  1  0  0  0  0
 42 47  1  0  0  0  0
  8 13  1  0  0  0  0
 18 29  1  0  0  0  0
 26 37  1  0  0  0  0
 26 38  1  0  0  0  0
 27 39  1  0  0  0  0
 27 40  1  0  0  0  0
 51 53  1  0  0  0  0
  7 12  1  0  0  0  0
 41 46  1  0  0  0  0
 17 28  1  0  0  0  0
 24 36  1  0  0  0  0
M  CHG  1  24   1
M  END
$$$$

  -OEChem-05262214473D

 56 55  0     1  0  0  0  0  0999 V2000
    0.7735   -5.8042   -2.0022 C   0  0  0  0  0  0  0  0  0  0  0  0
   -0.2086   -6.3825   -1.5519 O   0  0  0  0  0  0  0  0  0  0  0  0
    1.4751   -6.3646   -3.1946 C   0  0  0  0  0  0  0  0  0  0  0  0
    2.2765   -7.0687   -2.9186 H   0  0  0  0  0  0  0  0  0  0  0  0
    0.7988   -6.9360   -3.8504 H   0  0  0  0  0  0  0  0  0  0  0  0
    1.9556   -5.6216   -3.8511 H   0  0  0  0  0  0  0  0  0  0  0  0
    1.3322   -4.6359   -1.5106 N   0  0  0  0  0  0  0  0  0  0  0  0
    0.8124   -3.9290   -0.3698 C   0  0  2  0  0  0  0  0  0  0  0  0
    1.0666   -2.4424   -0.5818 C   0  0  0  0  0  0  0  0  0  0  0  0
    2.0598   -2.0076   -1.1610 O   0  0  0  0  0  0  0  0  0  0  0  0
    1.4560   -4.4118    0.9207 C   0  0  0  0  0  0  0  0  0  0  0  0
    2.1528   -4.2578   -1.9805 H   0  0  0  0  0  0  0  0  0  0  0  0
   -0.2667   -4.1160   -0.3467 H   0  0  0  0  0  0  0  0  0  0  0  0
    2.5374   -4.2329    0.9160 H   0  0  0  0  0  0  0  0  0  0  0  0
    1.0390   -3.8932    1.7903 H   0  0  0  0  0  0  0  0  0  0  0  0
    1.2976   -5.4871    1.0566 H   0  0  0  0  0  0  0  0  0  0  0  0
    0.0755   -1.6529   -0.0105 N   0  0  0  0  0  0  0  0  0  0  0  0
    0.1113   -0.2132   -0.0391 C   0  0  2  0  0  0  0  0  0  0  0  0
   -1.2807    0.2873    0.3313 C   0  0  0  0  0  0  0  0  0  0  0  0
   -2.2250   -0.4671    0.5557 O   0  0  0  0  0  0  0  0  0  0  0  0
    0.5261    0.3253   -1.4122 C   0  0  0  0  0  0  0  0  0  0  0  0
    1.9818   -0.0118   -1.7565 C   0  0  0  0  0  0  0  0  0  0  0  0
    2.3892    0.5266   -3.1241 C   0  0  0  0  0  0  0  0  0  0  0  0
    3.7695    0.1833   -3.4584 N   0  3  0  0  0  0  0  0  0  0  0  0
    4.3460    0.5154   -4.6858 C   0  0  0  0  0  0  0  0  0  0  0  0
    5.6662    0.1562   -4.9354 N   0  0  0  0  0  0  0  0  0  0  0  0
    3.6320    1.1977   -5.6655 N   0  0  0  0  0  0  0  0  0  0  0  0
   -0.7323   -2.1024    0.4149 H   0  0  0  0  0  0  0  0  0  0  0  0
    0.8219    0.1022    0.7334 H   0  0  0  0  0  0  0  0  0  0  0  0
    0.3911    1.4134   -1.4336 H   0  0  0  0  0  0  0  0  0  0  0  0
   -0.1355   -0.0840   -2.1871 H   0  0  0  0  0  0  0  0  0  0  0  0
    2.6463    0.4006   -0.9877 H   0  0  0  0  0  0  0  0  0  0  0  0
    2.1172   -1.0995   -1.7577 H   0  0  0  0  0  0  0  0  0  0  0  0
    1.7495    0.0898   -3.8971 H   0  0  0  0  0  0  0  0  0  0  0  0
    2.2914    1.6159   -3.1604 H   0  0  0  0  0  0  0  0  0  0  0  0
    4.3421   -0.3165   -2.7804 H   0  0  0  0  0  0  0  0  0  0  0  0
    6.1160    0.3833   -5.8192 H   0  0  0  0  0  0  0  0  0  0  0  0
    6.2168   -0.3433   -4.2413 H   0  0  0  0  0  0  0  0  0  0  0  0
    4.0471    1.4420   -6.5609 H   0  0  0  0  0  0  0  0  0  0  0  0
    2.6649    1.4729   -5.5111 H   0  0  0  0  0  0  0  0  0  0  0  0
   -1.3542    1.6733    0.3330 N   0  0  0  0  0  0  0  0  0  0  0  0
   -2.5756    2.3956    0.6047 C   0  0  2  0  0  0  0  0  0  0  0  0
   -2.5520    3.6826   -0.2092 C   0  0  0  0  0  0  0  0  0  0  0  0
   -1.5203    4.3075   -0.4461 O   0  0  0  0  0  0  0  0  0  0  0  0
   -2.7238    2.6936    2.0886 C   0  0  0  0  0  0  0  0  0  0  0  0
   -0.5125    2.2171    0.1672 H   0  0  0  0  0  0  0  0  0  0  0  0
   -3.4008    1.7615    0.2626 H   0  0  0  0  0  0  0  0  0  0  0  0
   -1.9059    3.3278    2.4496 H   0  0  0  0  0  0  0  0  0  0  0  0
   -3.6635    3.2158    2.2965 H   0  0  0  0  0  0  0  0  0  0  0  0
   -2.7107    1.7685    2.6751 H   0  0  0  0  0  0  0  0  0  0  0  0
   -3.8237    4.0743   -0.6034 N   0  0  0  0  0  0  0  0  0  0  0  0
   -4.0700    5.2857   -1.3502 C   0  0  0  0  0  0  0  0  0  0  0  0
   -4.6174    3.4747   -0.3977 H   0  0  0  0  0  0  0  0  0  0  0  0
   -4.2912    6.1079   -0.6538 H   0  0  0  0  0  0  0  0  0  0  0  0
   -3.1788    5.5379   -1.9438 H   0  0  0  0  0  0  0  0  0  0  0  0
   -4.9273    5.1340   -2.0225 H   0  0  0  0  0  0  0  0  0  0  0  0
  1  3  1  0  0  0  0
  1  7  1  0  0  0  0
  1  2  2  0  0  0  0
 42 43  1  0  0  0  0
 43 51  1  0  0  0  0
 43 44  2  0  0  0  0
  8  9  1  0  0  0  0
  9 17  1  0  0  0  0
  9 10  2  0  0  0  0
 18 19  1  0  0  0  0
 19 41  1  0  0  0  0
 19 20  2  0  0  0  0
 25 26  1  0  0  0  0
 25 27  1  0  0  0  0
 24 25  2  0  0  0  0
 42 45  1  0  0  0  0
  8 11  1  0  0  0  0
 51 52  1  0  0  0  0
 21 22  1  0  0  0  0
 22 23  1  0  0  0  0
 18 21  1  0  0  0  0
 23 24  1  0  0  0  0
 41 42  1  0  0  0  0
  7  8  1  0  0  0  0
 17 18  1  0  0  0  0
  3  4  1  0  0  0  0
  3  5  1  0  0  0  0
  3  6  1  0  0  0  0
 45 48  1  0  0  0  0
 45 49  1  0  0  0  0
 45 50  1  0  0  0  0
 11 14  1  0  0  0  0
 11 15  1  0  0  0  0
 11 16  1  0  0  0  0
 52 54  1  0  0  0  0
 52 55  1  0  0  0  0
 52 56  1  0  0  0  0
 22 32  1  0  0  0  0
 22 33  1  0  0  0  0
 21 30  1  0  0  0  0
 21 31  1  0  0  0  0
 23 34  1  0  0  0  0
 23 35  1  0  0  0  0
 42 47  1  0  0  0  0
  8 13  1  0  0  0  0
 18 29  1  0  0  0  0
 26 37  1  0  0  0  0
 26 38  1  0  0  0  0
 27 39  1  0  0  0  0
 27 40  1  0  0  0  0
 51 53  1  0  0  0  0
  7 12  1  0  0  0  0
 41 46  1  0  0  0  0
 17 28  1  0  0  0  0
 24 36  1  0  0  0  0
M  CHG  1  24   1
M  END
$$$$

  -OEChem-05262214473D

 56 55  0     1  0  0  0  0  0999 V2000
    0.7735   -5.8042   -2.0022 C   0  0  0  0  0  0  0  0  0  0  0  0
   -0.2086   -6.3825   -1.5519 O   0  0  0  0  0  0  0  0  0  0  0  0
    1.4751   -6.3646   -3.1946 C   0  0  0  0  0  0  0  0  0  0  0  0
    2.2765   -7.0687   -2.9186 H   0  0  0  0  0  0  0  0  0  0  0  0
    0.7988   -6.9360   -3.8504 H   0  0  0  0  0  0  0  0  0  0  0  0
    1.9556   -5.6216   -3.8511 H   0  0  0  0  0  0  0  0  0  0  0  0
    1.3322   -4.6359   -1.5106 N   0  0  0  0  0  0  0  0  0  0  0  0
    0.8124   -3.9290   -0.3698 C   0  0  2  0  0  0  0  0  0  0  0  0
    1.0666   -2.4424   -0.5818 C   0  0  0  0  0  0  0  0  0  0  0  0
    2.0598   -2.0076   -1.1610 O   0  0  0  0  0  0  0  0  0  0  0  0
    1.4560   -4.4118    0.9207 C   0  0  0  0  0  0  0  0  0  0  0  0
    2.1528   -4.2578   -1.9805 H   0  0  0  0  0  0  0  0  0  0  0  0
   -0.2667   -4.1160   -0.3467 H   0  0  0  0  0  0  0  0  0  0  0  0
    2.5374   -4.2329    0.9160 H   0  0  0  0  0  0  0  0  0  0  0  0
    1.0390   -3.8932    1.7903 H   0  0  0  0  0  0  0  0  0  0  0  0
    1.2976   -5.4871    1.0566 H   0  0  0  0  0  0  0  0  0  0  0  0
    0.0755   -1.6529   -0.0105 N   0  0  0  0  0  0  0  0  0  0  0  0
    0.1113   -0.2132   -0.0391 C   0  0  2  0  0  0  0  0  0  0  0  0
   -1.2807    0.2873    0.3313 C   0  0  0  0  0  0  0  0  0  0  0  0
   -2.1471   -0.4403    0.8121 O   0  0  0  0  0  0  0  0  0  0  0  0
    0.5261    0.3253   -1.4122 C   0  0  0  0  0  0  0  0  0  0  0  0
    1.9818   -0.0118   -1.7565 C   0  0  0  0  0  0  0  0  0  0  0  0
    2.3892    0.5266   -3.1241 C   0  0  0  0  0  0  0  0  0  0  0  0
    3.7695    0.1833   -3.4584 N   0  3  0  0  0  0  0  0  0  0  0  0
    4.3460    0.5154   -4.6858 C   0  0  0  0  0  0  0  0  0  0  0  0
    5.6662    0.1562   -4.9354 N   0  0  0  0  0  0  0  0  0  0  0  0
    3.6320    1.1977   -5.6655 N   0  0  0  0  0  0  0  0  0  0  0  0
   -0.7323   -2.1024    0.4149 H   0  0  0  0  0  0  0  0  0  0  0  0
    0.8219    0.1022    0.7334 H   0  0  0  0  0  0  0  0  0  0  0  0
    0.3911    1.4134   -1.4336 H   0  0  0  0  0  0  0  0  0  0  0  0
   -0.1355   -0.0840   -2.1871 H   0  0  0  0  0  0  0  0  0  0  0  0
    2.6463    0.4006   -0.9877 H   0  0  0  0  0  0  0  0  0  0  0  0
    2.1172   -1.0995   -1.7577 H   0  0  0  0  0  0  0  0  0  0  0  0
    1.7495    0.0898   -3.8971 H   0  0  0  0  0  0  0  0  0  0  0  0
    2.2914    1.6159   -3.1604 H   0  0  0  0  0  0  0  0  0  0  0  0
    4.3421   -0.3165   -2.7804 H   0  0  0  0  0  0  0  0  0  0  0  0
    6.1160    0.3833   -5.8192 H   0  0  0  0  0  0  0  0  0  0  0  0
    6.2168   -0.3433   -4.2413 H   0  0  0  0  0  0  0  0  0  0  0  0
    4.0471    1.4420   -6.5609 H   0  0  0  0  0  0  0  0  0  0  0  0
    2.6649    1.4729   -5.5111 H   0  0  0  0  0  0  0  0  0  0  0  0
   -1.4549    1.6277    0.0160 N   0  0  0  0  0  0  0  0  0  0  0  0
   -2.7012    2.3286    0.2234 C   0  0  2  0  0  0  0  0  0  0  0  0
   -2.8347    3.3832   -0.8672 C   0  0  0  0  0  0  0  0  0  0  0  0
   -1.8729    3.9869   -1.3379 O   0  0  0  0  0  0  0  0  0  0  0  0
   -2.7554    2.9644    1.6038 C   0  0  0  0  0  0  0  0  0  0  0  0
   -0.6706    2.1597   -0.3493 H   0  0  0  0  0  0  0  0  0  0  0  0
   -3.5018    1.5886    0.1166 H   0  0  0  0  0  0  0  0  0  0  0  0
   -1.9606    3.7087    1.7294 H   0  0  0  0  0  0  0  0  0  0  0  0
   -3.7119    3.4709    1.7700 H   0  0  0  0  0  0  0  0  0  0  0  0
   -2.6294    2.2083    2.3863 H   0  0  0  0  0  0  0  0  0  0  0  0
   -4.1584    3.6018   -1.2226 N   0  0  0  0  0  0  0  0  0  0  0  0
   -4.5495    4.5850   -2.2056 C   0  0  0  0  0  0  0  0  0  0  0  0
   -4.8878    3.0279   -0.8100 H   0  0  0  0  0  0  0  0  0  0  0  0
   -4.7757    5.5370   -1.7030 H   0  0  0  0  0  0  0  0  0  0  0  0
   -3.7278    4.7346   -2.9215 H   0  0  0  0  0  0  0  0  0  0  0  0
   -5.4430    4.2321   -2.7415 H   0  0  0  0  0  0  0  0  0  0  0  0
  1  3  1  0  0  0  0
  1  7  1  0  0  0  0
  1  2  2  0  0  0  0
 42 43  1  0  0  0  0
 43 51  1  0  0  0  0
 43 44  2  0  0  0  0
  8  9  1  0  0  0  0
  9 17  1  0  0  0  0
  9 10  2  0  0  0  0
 18 19  1  0  0  0  0
 19 41  1  0  0  0  0
 19 20  2  0  0  0  0
 25 26  1  0  0  0  0
 25 27  1  0  0  0  0
 24 25  2  0  0  0  0
 42 45  1  0  0  0  0
  8 11  1  0  0  0  0
 51 52  1  0  0  0  0
 21 22  1  0  0  0  0
 22 23  1  0  0  0  0
 18 21  1  0  0  0  0
 23 24  1  0  0  0  0
 41 42  1  0  0  0  0
  7  8  1  0  0  0  0
 17 18  1  0  0  0  0
  3  4  1  0  0  0  0
  3  5  1  0  0  0  0
  3  6  1  0  0  0  0
 45 48  1  0  0  0  0
 45 49  1  0  0  0  0
 45 50  1  0  0  0  0
 11 14  1  0  0  0  0
 11 15  1  0  0  0  0
 11 16  1  0  0  0  0
 52 54  1  0  0  0  0
 52 55  1  0  0  0  0
 52 56  1  0  0  0  0
 22 32  1  0  0  0  0
 22 33  1  0  0  0  0
 21 30  1  0  0  0  0
 21 31  1  0  0  0  0
 23 34  1  0  0  0  0
 23 35  1  0  0  0  0
 42 47  1  0  0  0  0
  8 13  1  0  0  0  0
 18 29  1  0  0  0  0
 26 37  1  0  0  0  0
 26 38  1  0  0  0  0
 27 39  1  0  0  0  0
 27 40  1  0  0  0  0
 51 53  1  0  0  0  0
  7 12  1  0  0  0  0
 41 46  1  0  0  0  0
 17 28  1  0  0  0  0
 24 36  1  0  0  0  0
M  CHG  1  24   1
M  END
$$$$

  -OEChem-05262214473D

 56 55  0     1  0  0  0  0  0999 V2000
    0.7735   -5.8042   -2.0022 C   0  0  0  0  0  0  0  0  0  0  0  0
   -0.2086   -6.3825   -1.5519 O   0  0  0  0  0  0  0  0  0  0  0  0
    1.4751   -6.3646   -3.1946 C   0  0  0  0  0  0  0  0  0  0  0  0
    2.2765   -7.0687   -2.9186 H   0  0  0  0  0  0  0  0  0  0  0  0
    0.7988   -6.9360   -3.8504 H   0  0  0  0  0  0  0  0  0  0  0  0
    1.9556   -5.6216   -3.8511 H   0  0  0  0  0  0  0  0  0  0  0  0
    1.3322   -4.6359   -1.5106 N   0  0  0  0  0  0  0  0  0  0  0  0
    0.8124   -3.9290   -0.3698 C   0  0  2  0  0  0  0  0  0  0  0  0
    1.0666   -2.4424   -0.5818 C   0  0  0  0  0  0  0  0  0  0  0  0
    2.0598   -2.0076   -1.1610 O   0  0  0  0  0  0  0  0  0  0  0  0
    1.4560   -4.4118    0.9207 C   0  0  0  0  0  0  0  0  0  0  0  0
    2.1528   -4.2578   -1.9805 H   0  0  0  0  0  0  0  0  0  0  0  0
   -0.2667   -4.1160   -0.3467 H   0  0  0  0  0  0  0  0  0  0  0  0
    2.5374   -4.2329    0.9160 H   0  0  0  0  0  0  0  0  0  0  0  0
    1.0390   -3.8932    1.7903 H   0  0  0  0  0  0  0  0  0  0  0  0
    1.2976   -5.4871    1.0566 H   0  0  0  0  0  0  0  0  0  0  0  0
    0.0755   -1.6529   -0.0105 N   0  0  0  0  0  0  0  0  0  0  0  0
    0.1113   -0.2132   -0.0391 C   0  0  2  0  0  0  0  0  0  0  0  0
   -1.2807    0.2873    0.3313 C   0  0  0  0  0  0  0  0  0  0  0  0
   -2.0518   -0.3489    1.0467 O   0  0  0  0  0  0  0  0  0  0  0  0
    0.5261    0.3253   -1.4122 C   0  0  0  0  0  0  0  0  0  0  0  0
    1.9818   -0.0118   -1.7565 C   0  0  0  0  0  0  0  0  0  0  0  0
    2.3892    0.5266   -3.1241 C   0  0  0  0  0  0  0  0  0  0  0  0
    3.7695    0.1833   -3.4584 N   0  3  0  0  0  0  0  0  0  0  0  0
    4.3460    0.5154   -4.6858 C   0  0  0  0  0  0  0  0  0  0  0  0
    5.6662    0.1562   -4.9354 N   0  0  0  0  0  0  0  0  0  0  0  0
    3.6320    1.1977   -5.6655 N   0  0  0  0  0  0  0  0  0  0  0  0
   -0.7323   -2.1024    0.4149 H   0  0  0  0  0  0  0  0  0  0  0  0
    0.8219    0.1022    0.7334 H   0  0  0  0  0  0  0  0  0  0  0  0
    0.3911    1.4134   -1.4336 H   0  0  0  0  0  0  0  0  0  0  0  0
   -0.1355   -0.0840   -2.1871 H   0  0  0  0  0  0  0  0  0  0  0  0
    2.6463    0.4006   -0.9877 H   0  0  0  0  0  0  0  0  0  0  0  0
    2.1172   -1.0995   -1.7577 H   0  0  0  0  0  0  0  0  0  0  0  0
    1.7495    0.0898   -3.8971 H   0  0  0  0  0  0  0  0  0  0  0  0
    2.2914    1.6159   -3.1604 H   0  0  0  0  0  0  0  0  0  0  0  0
    4.3421   -0.3165   -2.7804 H   0  0  0  0  0  0  0  0  0  0  0  0
    6.1160    0.3833   -5.8192 H   0  0  0  0  0  0  0  0  0  0  0  0
    6.2168   -0.3433   -4.2413 H   0  0  0  0  0  0  0  0  0  0  0  0
    4.0471    1.4420   -6.5609 H   0  0  0  0  0  0  0  0  0  0  0  0
    2.6649    1.4729   -5.5111 H   0  0  0  0  0  0  0  0  0  0  0  0
   -1.5763    1.5024   -0.2708 N   0  0  0  0  0  0  0  0  0  0  0  0
   -2.8506    2.1660   -0.1185 C   0  0  2  0  0  0  0  0  0  0  0  0
   -3.1449    2.9209   -1.4081 C   0  0  0  0  0  0  0  0  0  0  0  0
   -2.2691    3.4443   -2.0937 O   0  0  0  0  0  0  0  0  0  0  0  0
   -2.8442    3.1094    1.0742 C   0  0  0  0  0  0  0  0  0  0  0  0
   -0.8635    1.9723   -0.8212 H   0  0  0  0  0  0  0  0  0  0  0  0
   -3.6009    1.3808    0.0251 H   0  0  0  0  0  0  0  0  0  0  0  0
   -2.0986    3.9030    0.9485 H   0  0  0  0  0  0  0  0  0  0  0  0
   -3.8194    3.5899    1.2053 H   0  0  0  0  0  0  0  0  0  0  0  0
   -2.6031    2.5700    1.9965 H   0  0  0  0  0  0  0  0  0  0  0  0
   -4.5045    2.9782   -1.6806 N   0  0  0  0  0  0  0  0  0  0  0  0
   -5.0414    3.6759   -2.8256 C   0  0  0  0  0  0  0  0  0  0  0  0
   -5.1559    2.4819   -1.0798 H   0  0  0  0  0  0  0  0  0  0  0  0
   -5.2969    4.7072   -2.5405 H   0  0  0  0  0  0  0  0  0  0  0  0
   -4.2907    3.6932   -3.6294 H   0  0  0  0  0  0  0  0  0  0  0  0
   -5.9454    3.1587   -3.1793 H   0  0  0  0  0  0  0  0  0  0  0  0
  1  3  1  0  0  0  0
  1  7  1  0  0  0  0
  1  2  2  0  0  0  0
 42 43  1  0  0  0  0
 43 51  1  0  0  0  0
 43 44  2  0  0  0  0
  8  9  1  0  0  0  0
  9 17  1  0  0  0  0
  9 10  2  0  0  0  0
 18 19  1  0  0  0  0
 19 41  1  0  0  0  0
 19 20  2  0  0  0  0
 25 26  1  0  0  0  0
 25 27  1  0  0  0  0
 24 25  2  0  0  0  0
 42 45  1  0  0  0  0
  8 11  1  0  0  0  0
 51 52  1  0  0  0  0
 21 22  1  0  0  0  0
 22 23  1  0  0  0  0
 18 21  1  0  0  0  0
 23 24  1  0  0  0  0
 41 42  1  0  0  0  0
  7  8  1  0  0  0  0
 17 18  1  0  0  0  0
  3  4  1  0  0  0  0
  3  5  1  0  0  0  0
  3  6  1  0  0  0  0
 45 48  1  0  0  0  0
 45 49  1  0  0  0  0
 45 50  1  0  0  0  0
 11 14  1  0  0  0  0
 11 15  1  0  0  0  0
 11 16  1  0  0  0  0
 52 54  1  0  0  0  0
 52 55  1  0  0  0  0
 52 56  1  0  0  0  0
 22 32  1  0  0  0  0
 22 33  1  0  0  0  0
 21 30  1  0  0  0  0
 21 31  1  0  0  0  0
 23 34  1  0  0  0  0
 23 35  1  0  0  0  0
 42 47  1  0  0  0  0
  8 13  1  0  0  0  0
 18 29  1  0  0  0  0
 26 37  1  0  0  0  0
 26 38  1  0  0  0  0
 27 39  1  0  0  0  0
 27 40  1  0  0  0  0
 51 53  1  0  0  0  0
  7 12  1  0  0  0  0
 41 46  1  0  0  0  0
 17 28  1  0  0  0  0
 24 36  1  0  0  0  0
M  CHG  1  24   1
M  END
$$$$

  -OEChem-05262214473D

 56 55  0     1  0  0  0  0  0999 V2000
    0.7735   -5.8042   -2.0022 C   0  0  0  0  0  0  0  0  0  0  0  0
   -0.2086   -6.3825   -1.5519 O   0  0  0  0  0  0  0  0  0  0  0  0
    1.4751   -6.3646   -3.1946 C   0  0  0  0  0  0  0  0  0  0  0  0
    2.2765   -7.0687   -2.9186 H   0  0  0  0  0  0  0  0  0  0  0  0
    0.7988   -6.9360   -3.8504 H   0  0  0  0  0  0  0  0  0  0  0  0
    1.9556   -5.6216   -3.8511 H   0  0  0  0  0  0  0  0  0  0  0  0
    1.3322   -4.6359   -1.5106 N   0  0  0  0  0  0  0  0  0  0  0  0
    0.8124   -3.9290   -0.3698 C   0  0  2  0  0  0  0  0  0  0  0  0
    1.0666   -2.4424   -0.5818 C   0  0  0  0  0  0  0  0  0  0  0  0
    2.0598   -2.0076   -1.1610 O   0  0  0  0  0  0  0  0  0  0  0  0
    1.4560   -4.4118    0.9207 C   0  0  0  0  0  0  0  0  0  0  0  0
    2.1528   -4.2578   -1.9805 H   0  0  0  0  0  0  0  0  0  0  0  0
   -0.2667   -4.1160   -0.3467 H   0  0  0  0  0  0  0  0  0  0  0  0
    2.5374   -4.2329    0.9160 H   0  0  0  0  0  0  0  0  0  0  0  0
    1.0390   -3.8932    1.7903 H   0  0  0  0  0  0  0  0  0  0  0  0
    1.2976   -5.4871    1.0566 H   0  0  0  0  0  0  0  0  0  0  0  0
    0.0755   -1.6529   -0.0105 N   0  0  0  0  0  0  0  0  0  0  0  0
    0.1113   -0.2132   -0.0391 C   0  0  2  0  0  0  0  0  0  0  0  0
   -1.2807    0.2873    0.3313 C   0  0  0  0  0  0  0  0  0  0  0  0
   -1.9456   -0.1992    1.2437 O   0  0  0  0  0  0  0  0  0  0  0  0
    0.5261    0.3253   -1.4122 C   0  0  0  0  0  0  0  0  0  0  0  0
    1.9818   -0.0118   -1.7565 C   0  0  0  0  0  0  0  0  0  0  0  0
    2.3892    0.5266   -3.1241 C   0  0  0  0  0  0  0  0  0  0  0  0
    3.7695    0.1833   -3.4584 N   0  3  0  0  0  0  0  0  0  0  0  0
    4.3460    0.5154   -4.6858 C   0  0  0  0  0  0  0  0  0  0  0  0
    5.6662    0.1562   -4.9354 N   0  0  0  0  0  0  0  0  0  0  0  0
    3.6320    1.1977   -5.6655 N   0  0  0  0  0  0  0  0  0  0  0  0
   -0.7323   -2.1024    0.4149 H   0  0  0  0  0  0  0  0  0  0  0  0
    0.8219    0.1022    0.7334 H   0  0  0  0  0  0  0  0  0  0  0  0
    0.3911    1.4134   -1.4336 H   0  0  0  0  0  0  0  0  0  0  0  0
   -0.1355   -0.0840   -2.1871 H   0  0  0  0  0  0  0  0  0  0  0  0
    2.6463    0.4006   -0.9877 H   0  0  0  0  0  0  0  0  0  0  0  0
    2.1172   -1.0995   -1.7577 H   0  0  0  0  0  0  0  0  0  0  0  0
    1.7495    0.0898   -3.8971 H   0  0  0  0  0  0  0  0  0  0  0  0
    2.2914    1.6159   -3.1604 H   0  0  0  0  0  0  0  0  0  0  0  0
    4.3421   -0.3165   -2.7804 H   0  0  0  0  0  0  0  0  0  0  0  0
    6.1160    0.3833   -5.8192 H   0  0  0  0  0  0  0  0  0  0  0  0
    6.2168   -0.3433   -4.2413 H   0  0  0  0  0  0  0  0  0  0  0  0
    4.0471    1.4420   -6.5609 H   0  0  0  0  0  0  0  0  0  0  0  0
    2.6649    1.4729   -5.5111 H   0  0  0  0  0  0  0  0  0  0  0  0
   -1.7100    1.3060   -0.5079 N   0  0  0  0  0  0  0  0  0  0  0  0
   -3.0138    1.9187   -0.3976 C   0  0  2  0  0  0  0  0  0  0  0  0
   -3.4613    2.3270   -1.7949 C   0  0  0  0  0  0  0  0  0  0  0  0
   -2.6818    2.7168   -2.6618 O   0  0  0  0  0  0  0  0  0  0  0  0
   -2.9840    3.1188    0.5360 C   0  0  0  0  0  0  0  0  0  0  0  0
   -1.0782    1.6676   -1.2163 H   0  0  0  0  0  0  0  0  0  0  0  0
   -3.6913    1.1522   -0.0059 H   0  0  0  0  0  0  0  0  0  0  0  0
   -2.3104    3.8975    0.1599 H   0  0  0  0  0  0  0  0  0  0  0  0
   -3.9786    3.5647    0.6408 H   0  0  0  0  0  0  0  0  0  0  0  0
   -2.6335    2.8289    1.5324 H   0  0  0  0  0  0  0  0  0  0  0  0
   -4.8385    2.2458   -1.9463 N   0  0  0  0  0  0  0  0  0  0  0  0
   -5.5120    2.6205   -3.1679 C   0  0  0  0  0  0  0  0  0  0  0  0
   -5.4035    1.8739   -1.1886 H   0  0  0  0  0  0  0  0  0  0  0  0
   -5.8194    3.6750   -3.1091 H   0  0  0  0  0  0  0  0  0  0  0  0
   -4.8290    2.4847   -4.0194 H   0  0  0  0  0  0  0  0  0  0  0  0
   -6.4005    1.9868   -3.3058 H   0  0  0  0  0  0  0  0  0  0  0  0
  1  3  1  0  0  0  0
  1  7  1  0  0  0  0
  1  2  2  0  0  0  0
 42 43  1  0  0  0  0
 43 51  1  0  0  0  0
 43 44  2  0  0  0  0
  8  9  1  0  0  0  0
  9 17  1  0  0  0  0
  9 10  2  0  0  0  0
 18 19  1  0  0  0  0
 19 41  1  0  0  0  0
 19 20  2  0  0  0  0
 25 26  1  0  0  0  0
 25 27  1  0  0  0  0
 24 25  2  0  0  0  0
 42 45  1  0  0  0  0
  8 11  1  0  0  0  0
 51 52  1  0  0  0  0
 21 22  1  0  0  0  0
 22 23  1  0  0  0  0
 18 21  1  0  0  0  0
 23 24  1  0  0  0  0
 41 42  1  0  0  0  0
  7  8  1  0  0  0  0
 17 18  1  0  0  0  0
  3  4  1  0  0  0  0
  3  5  1  0  0  0  0
  3  6  1  0  0  0  0
 45 48  1  0  0  0  0
 45 49  1  0  0  0  0
 45 50  1  0  0  0  0
 11 14  1  0  0  0  0
 11 15  1  0  0  0  0
 11 16  1  0  0  0  0
 52 54  1  0  0  0  0
 52 55  1  0  0  0  0
 52 56  1  0  0  0  0
 22 32  1  0  0  0  0
 22 33  1  0  0  0  0
 21 30  1  0  0  0  0
 21 31  1  0  0  0  0
 23 34  1  0  0  0  0
 23 35  1  0  0  0  0
 42 47  1  0  0  0  0
  8 13  1  0  0  0  0
 18 29  1  0  0  0  0
 26 37  1  0  0  0  0
 26 38  1  0  0  0  0
 27 39  1  0  0  0  0
 27 40  1  0  0  0  0
 51 53  1  0  0  0  0
  7 12  1  0  0  0  0
 41 46  1  0  0  0  0
 17 28  1  0  0  0  0
 24 36  1  0  0  0  0
M  CHG  1  24   1
M  END
$$$$

  -OEChem-05262214473D

 56 55  0     1  0  0  0  0  0999 V2000
    0.7735   -5.8042   -2.0022 C   0  0  0  0  0  0  0  0  0  0  0  0
   -0.2086   -6.3825   -1.5519 O   0  0  0  0  0  0  0  0  0  0  0  0
    1.4751   -6.3646   -3.1946 C   0  0  0  0  0  0  0  0  0  0  0  0
    2.2765   -7.0687   -2.9186 H   0  0  0  0  0  0  0  0  0  0  0  0
    0.7988   -6.9360   -3.8504 H   0  0  0  0  0  0  0  0  0  0  0  0
    1.9556   -5.6216   -3.8511 H   0  0  0  0  0  0  0  0  0  0  0  0
    1.3322   -4.6359   -1.5106 N   0  0  0  0  0  0  0  0  0  0  0  0
    0.8124   -3.9290   -0.3698 C   0  0  2  0  0  0  0  0  0  0  0  0
    1.0666   -2.4424   -0.5818 C   0  0  0  0  0  0  0  0  0  0  0  0
    2.0598   -2.0076   -1.1610 O   0  0  0  0  0  0  0  0  0  0  0  0
    1.4560   -4.4118    0.9207 C   0  0  0  0  0  0  0  0  0  0  0  0
    2.1528   -4.2578   -1.9805 H   0  0  0  0  0  0  0  0  0  0  0  0
   -0.2667   -4.1160   -0.3467 H   0  0  0  0  0  0  0  0  0  0  0  0
    2.5374   -4.2329    0.9160 H   0  0  0  0  0  0  0  0  0  0  0  0
    1.0390   -3.8932    1.7903 H   0  0  0  0  0  0  0  0  0  0  0  0
    1.2976   -5.4871    1.0566 H   0  0  0  0  0  0  0  0  0  0  0  0
    0.0755   -1.6529   -0.0105 N   0  0  0  0  0  0  0  0  0  0  0  0
    0.1113   -0.2132   -0.0391 C   0  0  2  0  0  0  0  0  0  0  0  0
   -1.2807    0.2873    0.3313 C   0  0  0  0  0  0  0  0  0  0  0  0
   -1.8356   -0.0013    1.3896 O   0  0  0  0  0  0  0  0  0  0  0  0
    0.5261    0.3253   -1.4122 C   0  0  0  0  0  0  0  0  0  0  0  0
    1.9818   -0.0118   -1.7565 C   0  0  0  0  0  0  0  0  0  0  0  0
    2.3892    0.5266   -3.1241 C   0  0  0  0  0  0  0  0  0  0  0  0
    3.7695    0.1833   -3.4584 N   0  3  0  0  0  0  0  0  0  0  0  0
    4.3460    0.5154   -4.6858 C   0  0  0  0  0  0  0  0  0  0  0  0
    5.6662    0.1562   -4.9354 N   0  0  0  0  0  0  0  0  0  0  0  0
    3.6320    1.1977   -5.6655 N   0  0  0  0  0  0  0  0  0  0  0  0
   -0.7323   -2.1024    0.4149 H   0  0  0  0  0  0  0  0  0  0  0  0
    0.8219    0.1022    0.7334 H   0  0  0  0  0  0  0  0  0  0  0  0
    0.3911    1.4134   -1.4336 H   0  0  0  0  0  0  0  0  0  0  0  0
   -0.1355   -0.0840   -2.1871 H   0  0  0  0  0  0  0  0  0  0  0  0
    2.6463    0.4006   -0.9877 H   0  0  0  0  0  0  0  0  0  0  0  0
    2.1172   -1.0995   -1.7577 H   0  0  0  0  0  0  0  0  0  0  0  0
    1.7495    0.0898   -3.8971 H   0  0  0  0  0  0  0  0  0  0  0  0
    2.2914    1.6159   -3.1604 H   0  0  0  0  0  0  0  0  0  0  0  0
    4.3421   -0.3165   -2.7804 H   0  0  0  0  0  0  0  0  0  0  0  0
    6.1160    0.3833   -5.8192 H   0  0  0  0  0  0  0  0  0  0  0  0
    6.2168   -0.3433   -4.2413 H   0  0  0  0  0  0  0  0  0  0  0  0
    4.0471    1.4420   -6.5609 H   0  0  0  0  0  0  0  0  0  0  0  0
    2.6649    1.4729   -5.5111 H   0  0  0  0  0  0  0  0  0  0  0  0
   -1.8470    1.0519   -0.6792 N   0  0  0  0  0  0  0  0  0  0  0  0
   -3.1796    1.6036   -0.5949 C   0  0  2  0  0  0  0  0  0  0  0  0
   -3.7626    1.6420   -2.0014 C   0  0  0  0  0  0  0  0  0  0  0  0
   -3.0831    1.8539   -3.0036 O   0  0  0  0  0  0  0  0  0  0  0  0
   -3.1654    2.9919    0.0257 C   0  0  0  0  0  0  0  0  0  0  0  0
   -1.3000    1.2664   -1.5078 H   0  0  0  0  0  0  0  0  0  0  0  0
   -3.7669    0.9184    0.0260 H   0  0  0  0  0  0  0  0  0  0  0  0
   -2.5816    3.6925   -0.5824 H   0  0  0  0  0  0  0  0  0  0  0  0
   -4.1788    3.3970    0.1151 H   0  0  0  0  0  0  0  0  0  0  0  0
   -2.7186    2.9674    1.0254 H   0  0  0  0  0  0  0  0  0  0  0  0
   -5.1377    1.4546   -2.0016 N   0  0  0  0  0  0  0  0  0  0  0  0
   -5.9293    1.4905   -3.2091 C   0  0  0  0  0  0  0  0  0  0  0  0
   -5.6137    1.2453   -1.1290 H   0  0  0  0  0  0  0  0  0  0  0  0
   -6.3074    2.5108   -3.3701 H   0  0  0  0  0  0  0  0  0  0  0  0
   -5.3062    1.1913   -4.0648 H   0  0  0  0  0  0  0  0  0  0  0  0
   -6.7771    0.7964   -3.1124 H   0  0  0  0  0  0  0  0  0  0  0  0
  1  3  1  0  0  0  0
  1  7  1  0  0  0  0
  1  2  2  0  0  0  0
 42 43  1  0  0  0  0
 43 51  1  0  0  0  0
 43 44  2  0  0  0  0
  8  9  1  0  0  0  0
  9 17  1  0  0  0  0
  9 10  2  0  0  0  0
 18 19  1  0  0  0  0
 19 41  1  0  0  0  0
 19 20  2  0  0  0  0
 25 26  1  0  0  0  0
 25 27  1  0  0  0  0
 24 25  2  0  0  0  0
 42 45  1  0  0  0  0
  8 11  1  0  0  0  0
 51 52  1  0  0  0  0
 21 22  1  0  0  0  0
 22 23  1  0  0  0  0
 18 21  1  0  0  0  0
 23 24  1  0  0  0  0
 41 42  1  0  0  0  0
  7  8  1  0  0  0  0
 17 18  1  0  0  0  0
  3  4  1  0  0  0  0
  3  5  1  0  0  0  0
  3  6  1  0  0  0  0
 45 48  1  0  0  0  0
 45 49  1  0  0  0  0
 45 50  1  0  0  0  0
 11 14  1  0  0  0  0
 11 15  1  0  0  0  0
 11 16  1  0  0  0  0
 52 54  1  0  0  0  0
 52 55  1  0  0  0  0
 52 56  1  0  0  0  0
 22 32  1  0  0  0  0
 22 33  1  0  0  0  0
 21 30  1  0  0  0  0
 21 31  1  0  0  0  0
 23 34  1  0  0  0  0
 23 35  1  0  0  0  0
 42 47  1  0  0  0  0
  8 13  1  0  0  0  0
 18 29  1  0  0  0  0
 26 37  1  0  0  0  0
 26 38  1  0  0  0  0
 27 39  1  0  0  0  0
 27 40  1  0  0  0  0
 51 53  1  0  0  0  0
  7 12  1  0  0  0  0
 41 46  1  0  0  0  0
 17 28  1  0  0  0  0
 24 36  1  0  0  0  0
M  CHG  1  24   1
M  END
$$$$

  -OEChem-05262214473D

 56 55  0     1  0  0  0  0  0999 V2000
    0.7735   -5.8042   -2.0022 C   0  0  0  0  0  0  0  0  0  0  0  0
   -0.2086   -6.3825   -1.5519 O   0  0  0  0  0  0  0  0  0  0  0  0
    1.4751   -6.3646   -3.1946 C   0  0  0  0  0  0  0  0  0  0  0  0
    2.2765   -7.0687   -2.9186 H   0  0  0  0  0  0  0  0  0  0  0  0
    0.7988   -6.9360   -3.8504 H   0  0  0  0  0  0  0  0  0  0  0  0
    1.9556   -5.6216   -3.8511 H   0  0  0  0  0  0  0  0  0  0  0  0
    1.3322   -4.6359   -1.5106 N   0  0  0  0  0  0  0  0  0  0  0  0
    0.8124   -3.9290   -0.3698 C   0  0  2  0  0  0  0  0  0  0  0  0
    1.0666   -2.4424   -0.5818 C   0  0  0  0  0  0  0  0  0  0  0  0
    2.0598   -2.0076   -1.1610 O   0  0  0  0  0  0  0  0  0  0  0  0
    1.4560   -4.4118    0.9207 C   0  0  0  0  0  0  0  0  0  0  0  0
    2.1528   -4.2578   -1.9805 H   0  0  0  0  0  0  0  0  0  0  0  0
   -0.2667   -4.1160   -0.3467 H   0  0  0  0  0  0  0  0  0  0  0  0
    2.5374   -4.2329    0.9160 H   0  0  0  0  0  0  0  0  0  0  0  0
    1.0390   -3.8932    1.7903 H   0  0  0  0  0  0  0  0  0  0  0  0
    1.2976   -5.4871    1.0566 H   0  0  0  0  0  0  0  0  0  0  0  0
    0.0755   -1.6529   -0.0105 N   0  0  0  0  0  0  0  0  0  0  0  0
    0.1113   -0.2132   -0.0391 C   0  0  2  0  0  0  0  0  0  0  0  0
   -1.2807    0.2873    0.3313 C   0  0  0  0  0  0  0  0  0  0  0  0
   -1.7295    0.2311    1.4744 O   0  0  0  0  0  0  0  0  0  0  0  0
    0.5261    0.3253   -1.4122 C   0  0  0  0  0  0  0  0  0  0  0  0
    1.9818   -0.0118   -1.7565 C   0  0  0  0  0  0  0  0  0  0  0  0
    2.3892    0.5266   -3.1241 C   0  0  0  0  0  0  0  0  0  0  0  0
    3.7695    0.1833   -3.4584 N   0  3  0  0  0  0  0  0  0  0  0  0
    4.3460    0.5154   -4.6858 C   0  0  0  0  0  0  0  0  0  0  0  0
    5.6662    0.1562   -4.9354 N   0  0  0  0  0  0  0  0  0  0  0  0
    3.6320    1.1977   -5.6655 N   0  0  0  0  0  0  0  0  0  0  0  0
   -0.7323   -2.1024    0.4149 H   0  0  0  0  0  0  0  0  0  0  0  0
    0.8219    0.1022    0.7334 H   0  0  0  0  0  0  0  0  0  0  0  0
    0.3911    1.4134   -1.4336 H   0  0  0  0  0  0  0  0  0  0  0  0
   -0.1355   -0.0840   -2.1871 H   0  0  0  0  0  0  0  0  0  0  0  0
    2.6463    0.4006   -0.9877 H   0  0  0  0  0  0  0  0  0  0  0  0
    2.1172   -1.0995   -1.7577 H   0  0  0  0  0  0  0  0  0  0  0  0
    1.7495    0.0898   -3.8971 H   0  0  0  0  0  0  0  0  0  0  0  0
    2.2914    1.6159   -3.1604 H   0  0  0  0  0  0  0  0  0  0  0  0
    4.3421   -0.3165   -2.7804 H   0  0  0  0  0  0  0  0  0  0  0  0
    6.1160    0.3833   -5.8192 H   0  0  0  0  0  0  0  0  0  0  0  0
    6.2168   -0.3433   -4.2413 H   0  0  0  0  0  0  0  0  0  0  0  0
    4.0471    1.4420   -6.5609 H   0  0  0  0  0  0  0  0  0  0  0  0
    2.6649    1.4729   -5.5111 H   0  0  0  0  0  0  0  0  0  0  0  0
   -1.9778    0.7573   -0.7730 N   0  0  0  0  0  0  0  0  0  0  0  0
   -3.3367    1.2423   -0.6969 C   0  0  2  0  0  0  0  0  0  0  0  0
   -4.0280    0.9127   -2.0133 C   0  0  0  0  0  0  0  0  0  0  0  0
   -3.4454    0.9144   -3.0958 O   0  0  0  0  0  0  0  0  0  0  0  0
   -3.3760    2.7374   -0.4218 C   0  0  0  0  0  0  0  0  0  0  0  0
   -1.5138    0.7962   -1.6757 H   0  0  0  0  0  0  0  0  0  0  0  0
   -3.8225    0.6953    0.1184 H   0  0  0  0  0  0  0  0  0  0  0  0
   -2.8938    3.3022   -1.2281 H   0  0  0  0  0  0  0  0  0  0  0  0
   -4.4064    3.0981   -0.3361 H   0  0  0  0  0  0  0  0  0  0  0  0
   -2.8525    2.9761    0.5103 H   0  0  0  0  0  0  0  0  0  0  0  0
   -5.3817    0.6585   -1.8426 N   0  0  0  0  0  0  0  0  0  0  0  0
   -6.2648    0.3631   -2.9466 C   0  0  0  0  0  0  0  0  0  0  0  0
   -5.7721    0.6391   -0.9051 H   0  0  0  0  0  0  0  0  0  0  0  0
   -6.7278    1.2940   -3.3057 H   0  0  0  0  0  0  0  0  0  0  0  0
   -5.6896   -0.0987   -3.7626 H   0  0  0  0  0  0  0  0  0  0  0  0
   -7.0496   -0.3315   -2.6124 H   0  0  0  0  0  0  0  0  0  0  0  0
  1  3  1  0  0  0  0
  1  7  1  0  0  0  0
  1  2  2  0  0  0  0
 42 43  1  0  0  0  0
 43 51  1  0  0  0  0
 43 44  2  0  0  0  0
  8  9  1  0  0  0  0
  9 17  1  0  0  0  0
  9 10  2  0  0  0  0
 18 19  1  0  0  0  0
 19 41  1  0  0  0  0
 19 20  2  0  0  0  0
 25 26  1  0  0  0  0
 25 27  1  0  0  0  0
 24 25  2  0  0  0  0
 42 45  1  0  0  0  0
  8 11  1  0  0  0  0
 51 52  1  0  0  0  0
 21 22  1  0  0  0  0
 22 23  1  0  0  0  0
 18 21  1  0  0  0  0
 23 24  1  0  0  0  0
 41 42  1  0  0  0  0
  7  8  1  0  0  0  0
 17 18  1  0  0  0  0
  3  4  1  0  0  0  0
  3  5  1  0  0  0  0
  3  6  1  0  0  0  0
 45 48  1  0  0  0  0
 45 49  1  0  0  0  0
 45 50  1  0  0  0  0
 11 14  1  0  0  0  0
 11 15  1  0  0  0  0
 11 16  1  0  0  0  0
 52 54  1  0  0  0  0
 52 55  1  0  0  0  0
 52 56  1  0  0  0  0
 22 32  1  0  0  0  0
 22 33  1  0  0  0  0
 21 30  1  0  0  0  0
 21 31  1  0  0  0  0
 23 34  1  0  0  0  0
 23 35  1  0  0  0  0
 42 47  1  0  0  0  0
  8 13  1  0  0  0  0
 18 29  1  0  0  0  0
 26 37  1  0  0  0  0
 26 38  1  0  0  0  0
 27 39  1  0  0  0  0
 27 40  1  0  0  0  0
 51 53  1  0  0  0  0
  7 12  1  0  0  0  0
 41 46  1  0  0  0  0
 17 28  1  0  0  0  0
 24 36  1  0  0  0  0
M  CHG  1  24   1
M  END
$$$$

  -OEChem-05262214473D

 56 55  0     1  0  0  0  0  0999 V2000
    0.7735   -5.8042   -2.0022 C   0  0  0  0  0  0  0  0  0  0  0  0
   -0.2086   -6.3825   -1.5519 O   0  0  0  0  0  0  0  0  0  0  0  0
    1.4751   -6.3646   -3.1946 C   0  0  0  0  0  0  0  0  0  0  0  0
    2.2765   -7.0687   -2.9186 H   0  0  0  0  0  0  0  0  0  0  0  0
    0.7988   -6.9360   -3.8504 H   0  0  0  0  0  0  0  0  0  0  0  0
    1.9556   -5.6216   -3.8511 H   0  0  0  0  0  0  0  0  0  0  0  0
    1.3322   -4.6359   -1.5106 N   0  0  0  0  0  0  0  0  0  0  0  0
    0.8124   -3.9290   -0.3698 C   0  0  2  0  0  0  0  0  0  0  0  0
    1.0666   -2.4424   -0.5818 C   0  0  0  0  0  0  0  0  0  0  0  0
    2.0598   -2.0076   -1.1610 O   0  0  0  0  0  0  0  0  0  0  0  0
    1.4560   -4.4118    0.9207 C   0  0  0  0  0  0  0  0  0  0  0  0
    2.1528   -4.2578   -1.9805 H   0  0  0  0  0  0  0  0  0  0  0  0
   -0.2667   -4.1160   -0.3467 H   0  0  0  0  0  0  0  0  0  0  0  0
    2.5374   -4.2329    0.9160 H   0  0  0  0  0  0  0  0  0  0  0  0
    1.0390   -3.8932    1.7903 H   0  0  0  0  0  0  0  0  0  0  0  0
    1.2976   -5.4871    1.0566 H   0  0  0  0  0  0  0  0  0  0  0  0
    0.0755   -1.6529   -0.0105 N   0  0  0  0  0  0  0  0  0  0  0  0
    0.1113   -0.2132   -0.0391 C   0  0  2  0  0  0  0  0  0  0  0  0
   -1.2807    0.2873    0.3313 C   0  0  0  0  0  0  0  0  0  0  0  0
   -1.6344    0.4823    1.4924 O   0  0  0  0  0  0  0  0  0  0  0  0
    0.5261    0.3253   -1.4122 C   0  0  0  0  0  0  0  0  0  0  0  0
    1.9818   -0.0118   -1.7565 C   0  0  0  0  0  0  0  0  0  0  0  0
    2.3892    0.5266   -3.1241 C   0  0  0  0  0  0  0  0  0  0  0  0
    3.7695    0.1833   -3.4584 N   0  3  0  0  0  0  0  0  0  0  0  0
    4.3460    0.5154   -4.6858 C   0  0  0  0  0  0  0  0  0  0  0  0
    5.6662    0.1562   -4.9354 N   0  0  0  0  0  0  0  0  0  0  0  0
    3.6320    1.1977   -5.6655 N   0  0  0  0  0  0  0  0  0  0  0  0
   -0.7323   -2.1024    0.4149 H   0  0  0  0  0  0  0  0  0  0  0  0
    0.8219    0.1022    0.7334 H   0  0  0  0  0  0  0  0  0  0  0  0
    0.3911    1.4134   -1.4336 H   0  0  0  0  0  0  0  0  0  0  0  0
   -0.1355   -0.0840   -2.1871 H   0  0  0  0  0  0  0  0  0  0  0  0
    2.6463    0.4006   -0.9877 H   0  0  0  0  0  0  0  0  0  0  0  0
    2.1172   -1.0995   -1.7577 H   0  0  0  0  0  0  0  0  0  0  0  0
    1.7495    0.0898   -3.8971 H   0  0  0  0  0  0  0  0  0  0  0  0
    2.2914    1.6159   -3.1604 H   0  0  0  0  0  0  0  0  0  0  0  0
    4.3421   -0.3165   -2.7804 H   0  0  0  0  0  0  0  0  0  0  0  0
    6.1160    0.3833   -5.8192 H   0  0  0  0  0  0  0  0  0  0  0  0
    6.2168   -0.3433   -4.2413 H   0  0  0  0  0  0  0  0  0  0  0  0
    4.0471    1.4420   -6.5609 H   0  0  0  0  0  0  0  0  0  0  0  0
    2.6649    1.4729   -5.5111 H   0  0  0  0  0  0  0  0  0  0  0  0
   -2.0937    0.4425   -0.7829 N   0  0  0  0  0  0  0  0  0  0  0  0
   -3.4744    0.8593   -0.6968 C   0  0  2  0  0  0  0  0  0  0  0  0
   -4.2396    0.1887   -1.8301 C   0  0  0  0  0  0  0  0  0  0  0  0
   -3.7442   -0.0376   -2.9321 O   0  0  0  0  0  0  0  0  0  0  0  0
   -3.6015    2.3726   -0.7760 C   0  0  0  0  0  0  0  0  0  0  0  0
   -1.7050    0.2888   -1.7086 H   0  0  0  0  0  0  0  0  0  0  0  0
   -3.8544    0.4982    0.2651 H   0  0  0  0  0  0  0  0  0  0  0  0
   -3.2256    2.7529   -1.7329 H   0  0  0  0  0  0  0  0  0  0  0  0
   -4.6457    2.6886   -0.6820 H   0  0  0  0  0  0  0  0  0  0  0  0
   -3.0262    2.8544    0.0220 H   0  0  0  0  0  0  0  0  0  0  0  0
   -5.5538   -0.0882   -1.4802 N   0  0  0  0  0  0  0  0  0  0  0  0
   -6.4957   -0.6850   -2.3981 C   0  0  0  0  0  0  0  0  0  0  0  0
   -5.8679    0.0964   -0.5321 H   0  0  0  0  0  0  0  0  0  0  0  0
   -7.0520    0.1074   -2.9203 H   0  0  0  0  0  0  0  0  0  0  0  0
   -5.9532   -1.2975   -3.1333 H   0  0  0  0  0  0  0  0  0  0  0  0
   -7.1994   -1.3199   -1.8399 H   0  0  0  0  0  0  0  0  0  0  0  0
  1  3  1  0  0  0  0
  1  7  1  0  0  0  0
  1  2  2  0  0  0  0
 42 43  1  0  0  0  0
 43 51  1  0  0  0  0
 43 44  2  0  0  0  0
  8  9  1  0  0  0  0
  9 17  1  0  0  0  0
  9 10  2  0  0  0  0
 18 19  1  0  0  0  0
 19 41  1  0  0  0  0
 19 20  2  0  0  0  0
 25 26  1  0  0  0  0
 25 27  1  0  0  0  0
 24 25  2  0  0  0  0
 42 45  1  0  0  0  0
  8 11  1  0  0  0  0
 51 52  1  0  0  0  0
 21 22  1  0  0  0  0
 22 23  1  0  0  0  0
 18 21  1  0  0  0  0
 23 24  1  0  0  0  0
 41 42  1  0  0  0  0
  7  8  1  0  0  0  0
 17 18  1  0  0  0  0
  3  4  1  0  0  0  0
  3  5  1  0  0  0  0
  3  6  1  0  0  0  0
 45 48  1  0  0  0  0
 45 49  1  0  0  0  0
 45 50  1  0  0  0  0
 11 14  1  0  0  0  0
 11 15  1  0  0  0  0
 11 16  1  0  0  0  0
 52 54  1  0  0  0  0
 52 55  1  0  0  0  0
 52 56  1  0  0  0  0
 22 32  1  0  0  0  0
 22 33  1  0  0  0  0
 21 30  1  0  0  0  0
 21 31  1  0  0  0  0
 23 34  1  0  0  0  0
 23 35  1  0  0  0  0
 42 47  1  0  0  0  0
  8 13  1  0  0  0  0
 18 29  1  0  0  0  0
 26 37  1  0  0  0  0
 26 38  1  0  0  0  0
 27 39  1  0  0  0  0
 27 40  1  0  0  0  0
 51 53  1  0  0  0  0
  7 12  1  0  0  0  0
 41 46  1  0  0  0  0
 17 28  1  0  0  0  0
 24 36  1  0  0  0  0
M  CHG  1  24   1
M  END
$$$$

  -OEChem-05262214473D

 56 55  0     1  0  0  0  0  0999 V2000
    0.7735   -5.8042   -2.0022 C   0  0  0  0  0  0  0  0  0  0  0  0
   -0.2086   -6.3825   -1.5519 O   0  0  0  0  0  0  0  0  0  0  0  0
    1.4751   -6.3646   -3.1946 C   0  0  0  0  0  0  0  0  0  0  0  0
    2.2765   -7.0687   -2.9186 H   0  0  0  0  0  0  0  0  0  0  0  0
    0.7988   -6.9360   -3.8504 H   0  0  0  0  0  0  0  0  0  0  0  0
    1.9556   -5.6216   -3.8511 H   0  0  0  0  0  0  0  0  0  0  0  0
    1.3322   -4.6359   -1.5106 N   0  0  0  0  0  0  0  0  0  0  0  0
    0.8124   -3.9290   -0.3698 C   0  0  2  0  0  0  0  0  0  0  0  0
    1.0666   -2.4424   -0.5818 C   0  0  0  0  0  0  0  0  0  0  0  0
    2.0598   -2.0076   -1.1610 O   0  0  0  0  0  0  0  0  0  0  0  0
    1.4560   -4.4118    0.9207 C   0  0  0  0  0  0  0  0  0  0  0  0
    2.1528   -4.2578   -1.9805 H   0  0  0  0  0  0  0  0  0  0  0  0
   -0.2667   -4.1160   -0.3467 H   0  0  0  0  0  0  0  0  0  0  0  0
    2.5374   -4.2329    0.9160 H   0  0  0  0  0  0  0  0  0  0  0  0
    1.0390   -3.8932    1.7903 H   0  0  0  0  0  0  0  0  0  0  0  0
    1.2976   -5.4871    1.0566 H   0  0  0  0  0  0  0  0  0  0  0  0
    0.0755   -1.6529   -0.0105 N   0  0  0  0  0  0  0  0  0  0  0  0
    0.1113   -0.2132   -0.0391 C   0  0  2  0  0  0  0  0  0  0  0  0
   -1.2807    0.2873    0.3313 C   0  0  0  0  0  0  0  0  0  0  0  0
   -1.5567    0.7353    1.4423 O   0  0  0  0  0  0  0  0  0  0  0  0
    0.5261    0.3253   -1.4122 C   0  0  0  0  0  0  0  0  0  0  0  0
    1.9818   -0.0118   -1.7565 C   0  0  0  0  0  0  0  0  0  0  0  0
    2.3892    0.5266   -3.1241 C   0  0  0  0  0  0  0  0  0  0  0  0
    3.7695    0.1833   -3.4584 N   0  3  0  0  0  0  0  0  0  0  0  0
    4.3460    0.5154   -4.6858 C   0  0  0  0  0  0  0  0  0  0  0  0
    5.6662    0.1562   -4.9354 N   0  0  0  0  0  0  0  0  0  0  0  0
    3.6320    1.1977   -5.6655 N   0  0  0  0  0  0  0  0  0  0  0  0
   -0.7323   -2.1024    0.4149 H   0  0  0  0  0  0  0  0  0  0  0  0
    0.8219    0.1022    0.7334 H   0  0  0  0  0  0  0  0  0  0  0  0
    0.3911    1.4134   -1.4336 H   0  0  0  0  0  0  0  0  0  0  0  0
   -0.1355   -0.0840   -2.1871 H   0  0  0  0  0  0  0  0  0  0  0  0
    2.6463    0.4006   -0.9877 H   0  0  0  0  0  0  0  0  0  0  0  0
    2.1172   -1.0995   -1.7577 H   0  0  0  0  0  0  0  0  0  0  0  0
    1.7495    0.0898   -3.8971 H   0  0  0  0  0  0  0  0  0  0  0  0
    2.2914    1.6159   -3.1604 H   0  0  0  0  0  0  0  0  0  0  0  0
    4.3421   -0.3165   -2.7804 H   0  0  0  0  0  0  0  0  0  0  0  0
    6.1160    0.3833   -5.8192 H   0  0  0  0  0  0  0  0  0  0  0  0
    6.2168   -0.3433   -4.2413 H   0  0  0  0  0  0  0  0  0  0  0  0
    4.0471    1.4420   -6.5609 H   0  0  0  0  0  0  0  0  0  0  0  0
    2.6649    1.4729   -5.5111 H   0  0  0  0  0  0  0  0  0  0  0  0
   -2.1866    0.1287   -0.7082 N   0  0  0  0  0  0  0  0  0  0  0  0
   -3.5833    0.4807   -0.5945 C   0  0  2  0  0  0  0  0  0  0  0  0
   -4.3828   -0.4806   -1.4640 C   0  0  0  0  0  0  0  0  0  0  0  0
   -3.9590   -0.9373   -2.5237 O   0  0  0  0  0  0  0  0  0  0  0  0
   -3.8264    1.9224   -1.0129 C   0  0  0  0  0  0  0  0  0  0  0  0
   -1.8606   -0.2211   -1.6043 H   0  0  0  0  0  0  0  0  0  0  0  0
   -3.8603    0.3404    0.4560 H   0  0  0  0  0  0  0  0  0  0  0  0
   -3.5545    2.0822   -2.0626 H   0  0  0  0  0  0  0  0  0  0  0  0
   -4.8805    2.1962   -0.8990 H   0  0  0  0  0  0  0  0  0  0  0  0
   -3.2278    2.6105   -0.4061 H   0  0  0  0  0  0  0  0  0  0  0  0
   -5.6422   -0.7347   -0.9392 N   0  0  0  0  0  0  0  0  0  0  0  0
   -6.6063   -1.5823   -1.6011 C   0  0  0  0  0  0  0  0  0  0  0  0
   -5.8948   -0.3457   -0.0355 H   0  0  0  0  0  0  0  0  0  0  0  0
   -7.2577   -0.9681   -2.2401 H   0  0  0  0  0  0  0  0  0  0  0  0
   -6.0790   -2.3233   -2.2199 H   0  0  0  0  0  0  0  0  0  0  0  0
   -7.2164   -2.1016   -0.8474 H   0  0  0  0  0  0  0  0  0  0  0  0
  1  3  1  0  0  0  0
  1  7  1  0  0  0  0
  1  2  2  0  0  0  0
 42 43  1  0  0  0  0
 43 51  1  0  0  0  0
 43 44  2  0  0  0  0
  8  9  1  0  0  0  0
  9 17  1  0  0  0  0
  9 10  2  0  0  0  0
 18 19  1  0  0  0  0
 19 41  1  0  0  0  0
 19 20  2  0  0  0  0
 25 26  1  0  0  0  0
 25 27  1  0  0  0  0
 24 25  2  0  0  0  0
 42 45  1  0  0  0  0
  8 11  1  0  0  0  0
 51 52  1  0  0  0  0
 21 22  1  0  0  0  0
 22 23  1  0  0  0  0
 18 21  1  0  0  0  0
 23 24  1  0  0  0  0
 41 42  1  0  0  0  0
  7  8  1  0  0  0  0
 17 18  1  0  0  0  0
  3  4  1  0  0  0  0
  3  5  1  0  0  0  0
  3  6  1  0  0  0  0
 45 48  1  0  0  0  0
 45 49  1  0  0  0  0
 45 50  1  0  0  0  0
 11 14  1  0  0  0  0
 11 15  1  0  0  0  0
 11 16  1  0  0  0  0
 52 54  1  0  0  0  0
 52 55  1  0  0  0  0
 52 56  1  0  0  0  0
 22 32  1  0  0  0  0
 22 33  1  0  0  0  0
 21 30  1  0  0  0  0
 21 31  1  0  0  0  0
 23 34  1  0  0  0  0
 23 35  1  0  0  0  0
 42 47  1  0  0  0  0
  8 13  1  0  0  0  0
 18 29  1  0  0  0  0
 26 37  1  0  0  0  0
 26 38  1  0  0  0  0
 27 39  1  0  0  0  0
 27 40  1  0  0  0  0
 51 53  1  0  0  0  0
  7 12  1  0  0  0  0
 41 46  1  0  0  0  0
 17 28  1  0  0  0  0
 24 36  1  0  0  0  0
M  CHG  1  24   1
M  END
$$$$

  -OEChem-05262214473D

 56 55  0     1  0  0  0  0  0999 V2000
    0.7735   -5.8042   -2.0022 C   0  0  0  0  0  0  0  0  0  0  0  0
   -0.2086   -6.3825   -1.5519 O   0  0  0  0  0  0  0  0  0  0  0  0
    1.4751   -6.3646   -3.1946 C   0  0  0  0  0  0  0  0  0  0  0  0
    2.2765   -7.0687   -2.9186 H   0  0  0  0  0  0  0  0  0  0  0  0
    0.7988   -6.9360   -3.8504 H   0  0  0  0  0  0  0  0  0  0  0  0
    1.9556   -5.6216   -3.8511 H   0  0  0  0  0  0  0  0  0  0  0  0
    1.3322   -4.6359   -1.5106 N   0  0  0  0  0  0  0  0  0  0  0  0
    0.8124   -3.9290   -0.3698 C   0  0  2  0  0  0  0  0  0  0  0  0
    1.0666   -2.4424   -0.5818 C   0  0  0  0  0  0  0  0  0  0  0  0
    2.0598   -2.0076   -1.1610 O   0  0  0  0  0  0  0  0  0  0  0  0
    1.4560   -4.4118    0.9207 C   0  0  0  0  0  0  0  0  0  0  0  0
    2.1528   -4.2578   -1.9805 H   0  0  0  0  0  0  0  0  0  0  0  0
   -0.2667   -4.1160   -0.3467 H   0  0  0  0  0  0  0  0  0  0  0  0
    2.5374   -4.2329    0.9160 H   0  0  0  0  0  0  0  0  0  0  0  0
    1.0390   -3.8932    1.7903 H   0  0  0  0  0  0  0  0  0  0  0  0
    1.2976   -5.4871    1.0566 H   0  0  0  0  0  0  0  0  0  0  0  0
    0.0755   -1.6529   -0.0105 N   0  0  0  0  0  0  0  0  0  0  0  0
    0.1113   -0.2132   -0.0391 C   0  0  2  0  0  0  0  0  0  0  0  0
   -1.2807    0.2873    0.3313 C   0  0  0  0  0  0  0  0  0  0  0  0
   -1.5019    0.9726    1.3276 O   0  0  0  0  0  0  0  0  0  0  0  0
    0.5261    0.3253   -1.4122 C   0  0  0  0  0  0  0  0  0  0  0  0
    1.9818   -0.0118   -1.7565 C   0  0  0  0  0  0  0  0  0  0  0  0
    2.3892    0.5266   -3.1241 C   0  0  0  0  0  0  0  0  0  0  0  0
    3.7695    0.1833   -3.4584 N   0  3  0  0  0  0  0  0  0  0  0  0
    4.3460    0.5154   -4.6858 C   0  0  0  0  0  0  0  0  0  0  0  0
    5.6662    0.1562   -4.9354 N   0  0  0  0  0  0  0  0  0  0  0  0
    3.6320    1.1977   -5.6655 N   0  0  0  0  0  0  0  0  0  0  0  0
   -0.7323   -2.1024    0.4149 H   0  0  0  0  0  0  0  0  0  0  0  0
    0.8219    0.1022    0.7334 H   0  0  0  0  0  0  0  0  0  0  0  0
    0.3911    1.4134   -1.4336 H   0  0  0  0  0  0  0  0  0  0  0  0
   -0.1355   -0.0840   -2.1871 H   0  0  0  0  0  0  0  0  0  0  0  0
    2.6463    0.4006   -0.9877 H   0  0  0  0  0  0  0  0  0  0  0  0
    2.1172   -1.0995   -1.7577 H   0  0  0  0  0  0  0  0  0  0  0  0
    1.7495    0.0898   -3.8971 H   0  0  0  0  0  0  0  0  0  0  0  0
    2.2914    1.6159   -3.1604 H   0  0  0  0  0  0  0  0  0  0  0  0
    4.3421   -0.3165   -2.7804 H   0  0  0  0  0  0  0  0  0  0  0  0
    6.1160    0.3833   -5.8192 H   0  0  0  0  0  0  0  0  0  0  0  0
    6.2168   -0.3433   -4.2413 H   0  0  0  0  0  0  0  0  0  0  0  0
    4.0471    1.4420   -6.5609 H   0  0  0  0  0  0  0  0  0  0  0  0
    2.6649    1.4729   -5.5111 H   0  0  0  0  0  0  0  0  0  0  0  0
   -2.2503   -0.1626   -0.5540 N   0  0  0  0  0  0  0  0  0  0  0  0
   -3.6560    0.1323   -0.3970 C   0  0  2  0  0  0  0  0  0  0  0  0
   -4.4480   -1.0497   -0.9401 C   0  0  0  0  0  0  0  0  0  0  0  0
   -4.0753   -1.7234   -1.8984 O   0  0  0  0  0  0  0  0  0  0  0  0
   -4.0354    1.4174   -1.1161 C   0  0  0  0  0  0  0  0  0  0  0  0
   -1.9700   -0.6987   -1.3699 H   0  0  0  0  0  0  0  0  0  0  0  0
   -3.8399    0.2327    0.6783 H   0  0  0  0  0  0  0  0  0  0  0  0
   -3.8581    1.3358   -2.1947 H   0  0  0  0  0  0  0  0  0  0  0  0
   -5.0947    1.6546   -0.9724 H   0  0  0  0  0  0  0  0  0  0  0  0
   -3.4436    2.2611   -0.7449 H   0  0  0  0  0  0  0  0  0  0  0  0
   -5.6411   -1.2369   -0.2563 N   0  0  0  0  0  0  0  0  0  0  0  0
   -6.5889   -2.2677   -0.6098 C   0  0  0  0  0  0  0  0  0  0  0  0
   -5.8507   -0.6570    0.5509 H   0  0  0  0  0  0  0  0  0  0  0  0
   -7.3310   -1.8592   -1.3116 H   0  0  0  0  0  0  0  0  0  0  0  0
   -6.0584   -3.1063   -1.0845 H   0  0  0  0  0  0  0  0  0  0  0  0
   -7.0993   -2.6232    0.2974 H   0  0  0  0  0  0  0  0  0  0  0  0
  1  3  1  0  0  0  0
  1  7  1  0  0  0  0
  1  2  2  0  0  0  0
 42 43  1  0  0  0  0
 43 51  1  0  0  0  0
 43 44  2  0  0  0  0
  8  9  1  0  0  0  0
  9 17  1  0  0  0  0
  9 10  2  0  0  0  0
 18 19  1  0  0  0  0
 19 41  1  0  0  0  0
 19 20  2  0  0  0  0
 25 26  1  0  0  0  0
 25 27  1  0  0  0  0
 24 25  2  0  0  0  0
 42 45  1  0  0  0  0
  8 11  1  0  0  0  0
 51 52  1  0  0  0  0
 21 22  1  0  0  0  0
 22 23  1  0  0  0  0
 18 21  1  0  0  0  0
 23 24  1  0  0  0  0
 41 42  1  0  0  0  0
  7  8  1  0  0  0  0
 17 18  1  0  0  0  0
  3  4  1  0  0  0  0
  3  5  1  0  0  0  0
  3  6  1  0  0  0  0
 45 48  1  0  0  0  0
 45 49  1  0  0  0  0
 45 50  1  0  0  0  0
 11 14  1  0  0  0  0
 11 15  1  0  0  0  0
 11 16  1  0  0  0  0
 52 54  1  0  0  0  0
 52 55  1  0  0  0  0
 52 56  1  0  0  0  0
 22 32  1  0  0  0  0
 22 33  1  0  0  0  0
 21 30  1  0  0  0  0
 21 31  1  0  0  0  0
 23 34  1  0  0  0  0
 23 35  1  0  0  0  0
 42 47  1  0  0  0  0
  8 13  1  0  0  0  0
 18 29  1  0  0  0  0
 26 37  1  0  0  0  0
 26 38  1  0  0  0  0
 27 39  1  0  0  0  0
 27 40  1  0  0  0  0
 51 53  1  0  0  0  0
  7 12  1  0  0  0  0
 41 46  1  0  0  0  0
 17 28  1  0  0  0  0
 24 36  1  0  0  0  0
M  CHG  1  24   1
M  END
$$$$

  -OEChem-05262214473D

 56 55  0     1  0  0  0  0  0999 V2000
    0.7735   -5.8042   -2.0022 C   0  0  0  0  0  0  0  0  0  0  0  0
   -0.2086   -6.3825   -1.5519 O   0  0  0  0  0  0  0  0  0  0  0  0
    1.4751   -6.3646   -3.1946 C   0  0  0  0  0  0  0  0  0  0  0  0
    2.2765   -7.0687   -2.9186 H   0  0  0  0  0  0  0  0  0  0  0  0
    0.7988   -6.9360   -3.8504 H   0  0  0  0  0  0  0  0  0  0  0  0
    1.9556   -5.6216   -3.8511 H   0  0  0  0  0  0  0  0  0  0  0  0
    1.3322   -4.6359   -1.5106 N   0  0  0  0  0  0  0  0  0  0  0  0
    0.8124   -3.9290   -0.3698 C   0  0  2  0  0  0  0  0  0  0  0  0
    1.0666   -2.4424   -0.5818 C   0  0  0  0  0  0  0  0  0  0  0  0
    2.0598   -2.0076   -1.1610 O   0  0  0  0  0  0  0  0  0  0  0  0
    1.4560   -4.4118    0.9207 C   0  0  0  0  0  0  0  0  0  0  0  0
    2.1528   -4.2578   -1.9805 H   0  0  0  0  0  0  0  0  0  0  0  0
   -0.2667   -4.1160   -0.3467 H   0  0  0  0  0  0  0  0  0  0  0  0
    2.5374   -4.2329    0.9160 H   0  0  0  0  0  0  0  0  0  0  0  0
    1.0390   -3.8932    1.7903 H   0  0  0  0  0  0  0  0  0  0  0  0
    1.2976   -5.4871    1.0566 H   0  0  0  0  0  0  0  0  0  0  0  0
    0.0755   -1.6529   -0.0105 N   0  0  0  0  0  0  0  0  0  0  0  0
    0.1113   -0.2132   -0.0391 C   0  0  2  0  0  0  0  0  0  0  0  0
   -1.2807    0.2873    0.3313 C   0  0  0  0  0  0  0  0  0  0  0  0
   -1.4736    1.1782    1.1561 O   0  0  0  0  0  0  0  0  0  0  0  0
    0.5261    0.3253   -1.4122 C   0  0  0  0  0  0  0  0  0  0  0  0
    1.9818   -0.0118   -1.7565 C   0  0  0  0  0  0  0  0  0  0  0  0
    2.3892    0.5266   -3.1241 C   0  0  0  0  0  0  0  0  0  0  0  0
    3.7695    0.1833   -3.4584 N   0  3  0  0  0  0  0  0  0  0  0  0
    4.3460    0.5154   -4.6858 C   0  0  0  0  0  0  0  0  0  0  0  0
    5.6662    0.1562   -4.9354 N   0  0  0  0  0  0  0  0  0  0  0  0
    3.6320    1.1977   -5.6655 N   0  0  0  0  0  0  0  0  0  0  0  0
   -0.7323   -2.1024    0.4149 H   0  0  0  0  0  0  0  0  0  0  0  0
    0.8219    0.1022    0.7334 H   0  0  0  0  0  0  0  0  0  0  0  0
    0.3911    1.4134   -1.4336 H   0  0  0  0  0  0  0  0  0  0  0  0
   -0.1355   -0.0840   -2.1871 H   0  0  0  0  0  0  0  0  0  0  0  0
    2.6463    0.4006   -0.9877 H   0  0  0  0  0  0  0  0  0  0  0  0
    2.1172   -1.0995   -1.7577 H   0  0  0  0  0  0  0  0  0  0  0  0
    1.7495    0.0898   -3.8971 H   0  0  0  0  0  0  0  0  0  0  0  0
    2.2914    1.6159   -3.1604 H   0  0  0  0  0  0  0  0  0  0  0  0
    4.3421   -0.3165   -2.7804 H   0  0  0  0  0  0  0  0  0  0  0  0
    6.1160    0.3833   -5.8192 H   0  0  0  0  0  0  0  0  0  0  0  0
    6.2168   -0.3433   -4.2413 H   0  0  0  0  0  0  0  0  0  0  0  0
    4.0471    1.4420   -6.5609 H   0  0  0  0  0  0  0  0  0  0  0  0
    2.6649    1.4729   -5.5111 H   0  0  0  0  0  0  0  0  0  0  0  0
   -2.2805   -0.4115   -0.3308 N   0  0  0  0  0  0  0  0  0  0  0  0
   -3.6875   -0.1621   -0.1177 C   0  0  2  0  0  0  0  0  0  0  0  0
   -4.4308   -1.4797   -0.2941 C   0  0  0  0  0  0  0  0  0  0  0  0
   -4.0850   -2.3423   -1.0988 O   0  0  0  0  0  0  0  0  0  0  0  0
   -4.2144    0.8921   -1.0788 C   0  0  0  0  0  0  0  0  0  0  0  0
   -2.0256   -1.1116   -1.0213 H   0  0  0  0  0  0  0  0  0  0  0  0
   -3.7945    0.1826    0.9166 H   0  0  0  0  0  0  0  0  0  0  0  0
   -4.1156    0.5646   -2.1202 H   0  0  0  0  0  0  0  0  0  0  0  0
   -5.2739    1.1007   -0.8971 H   0  0  0  0  0  0  0  0  0  0  0  0
   -3.6589    1.8300   -0.9713 H   0  0  0  0  0  0  0  0  0  0  0  0
   -5.5504   -1.5606    0.5219 N   0  0  0  0  0  0  0  0  0  0  0  0
   -6.4449   -2.6945    0.5081 C   0  0  0  0  0  0  0  0  0  0  0  0
   -5.7387   -0.8165    1.1872 H   0  0  0  0  0  0  0  0  0  0  0  0
   -7.2669   -2.5051   -0.1979 H   0  0  0  0  0  0  0  0  0  0  0  0
   -5.8929   -3.5930    0.1954 H   0  0  0  0  0  0  0  0  0  0  0  0
   -6.8562   -2.8492    1.5165 H   0  0  0  0  0  0  0  0  0  0  0  0
  1  3  1  0  0  0  0
  1  7  1  0  0  0  0
  1  2  2  0  0  0  0
 42 43  1  0  0  0  0
 43 51  1  0  0  0  0
 43 44  2  0  0  0  0
  8  9  1  0  0  0  0
  9 17  1  0  0  0  0
  9 10  2  0  0  0  0
 18 19  1  0  0  0  0
 19 41  1  0  0  0  0
 19 20  2  0  0  0  0
 25 26  1  0  0  0  0
 25 27  1  0  0  0  0
 24 25  2  0  0  0  0
 42 45  1  0  0  0  0
  8 11  1  0  0  0  0
 51 52  1  0  0  0  0
 21 22  1  0  0  0  0
 22 23  1  0  0  0  0
 18 21  1  0  0  0  0
 23 24  1  0  0  0  0
 41 42  1  0  0  0  0
  7  8  1  0  0  0  0
 17 18  1  0  0  0  0
  3  4  1  0  0  0  0
  3  5  1  0  0  0  0
  3  6  1  0  0  0  0
 45 48  1  0  0  0  0
 45 49  1  0  0  0  0
 45 50  1  0  0  0  0
 11 14  1  0  0  0  0
 11 15  1  0  0  0  0
 11 16  1  0  0  0  0
 52 54  1  0  0  0  0
 52 55  1  0  0  0  0
 52 56  1  0  0  0  0
 22 32  1  0  0  0  0
 22 33  1  0  0  0  0
 21 30  1  0  0  0  0
 21 31  1  0  0  0  0
 23 34  1  0  0  0  0
 23 35  1  0  0  0  0
 42 47  1  0  0  0  0
  8 13  1  0  0  0  0
 18 29  1  0  0  0  0
 26 37  1  0  0  0  0
 26 38  1  0  0  0  0
 27 39  1  0  0  0  0
 27 40  1  0  0  0  0
 51 53  1  0  0  0  0
  7 12  1  0  0  0  0
 41 46  1  0  0  0  0
 17 28  1  0  0  0  0
 24 36  1  0  0  0  0
M  CHG  1  24   1
M  END
$$$$

  -OEChem-05262214473D

 56 55  0     1  0  0  0  0  0999 V2000
    0.7735   -5.8042   -2.0022 C   0  0  0  0  0  0  0  0  0  0  0  0
   -0.2086   -6.3825   -1.5519 O   0  0  0  0  0  0  0  0  0  0  0  0
    1.4751   -6.3646   -3.1946 C   0  0  0  0  0  0  0  0  0  0  0  0
    2.2765   -7.0687   -2.9186 H   0  0  0  0  0  0  0  0  0  0  0  0
    0.7988   -6.9360   -3.8504 H   0  0  0  0  0  0  0  0  0  0  0  0
    1.9556   -5.6216   -3.8511 H   0  0  0  0  0  0  0  0  0  0  0  0
    1.3322   -4.6359   -1.5106 N   0  0  0  0  0  0  0  0  0  0  0  0
    0.8124   -3.9290   -0.3698 C   0  0  2  0  0  0  0  0  0  0  0  0
    1.0666   -2.4424   -0.5818 C   0  0  0  0  0  0  0  0  0  0  0  0
    2.0598   -2.0076   -1.1610 O   0  0  0  0  0  0  0  0  0  0  0  0
    1.4560   -4.4118    0.9207 C   0  0  0  0  0  0  0  0  0  0  0  0
    2.1528   -4.2578   -1.9805 H   0  0  0  0  0  0  0  0  0  0  0  0
   -0.2667   -4.1160   -0.3467 H   0  0  0  0  0  0  0  0  0  0  0  0
    2.5374   -4.2329    0.9160 H   0  0  0  0  0  0  0  0  0  0  0  0
    1.0390   -3.8932    1.7903 H   0  0  0  0  0  0  0  0  0  0  0  0
    1.2976   -5.4871    1.0566 H   0  0  0  0  0  0  0  0  0  0  0  0
    0.0755   -1.6529   -0.0105 N   0  0  0  0  0  0  0  0  0  0  0  0
    0.1113   -0.2132   -0.0391 C   0  0  2  0  0  0  0  0  0  0  0  0
   -1.2807    0.2873    0.3313 C   0  0  0  0  0  0  0  0  0  0  0  0
   -1.4738    1.3381    0.9394 O   0  0  0  0  0  0  0  0  0  0  0  0
    0.5261    0.3253   -1.4122 C   0  0  0  0  0  0  0  0  0  0  0  0
    1.9818   -0.0118   -1.7565 C   0  0  0  0  0  0  0  0  0  0  0  0
    2.3892    0.5266   -3.1241 C   0  0  0  0  0  0  0  0  0  0  0  0
    3.7695    0.1833   -3.4584 N   0  3  0  0  0  0  0  0  0  0  0  0
    4.3460    0.5154   -4.6858 C   0  0  0  0  0  0  0  0  0  0  0  0
    5.6662    0.1562   -4.9354 N   0  0  0  0  0  0  0  0  0  0  0  0
    3.6320    1.1977   -5.6655 N   0  0  0  0  0  0  0  0  0  0  0  0
   -0.7323   -2.1024    0.4149 H   0  0  0  0  0  0  0  0  0  0  0  0
    0.8219    0.1022    0.7334 H   0  0  0  0  0  0  0  0  0  0  0  0
    0.3911    1.4134   -1.4336 H   0  0  0  0  0  0  0  0  0  0  0  0
   -0.1355   -0.0840   -2.1871 H   0  0  0  0  0  0  0  0  0  0  0  0
    2.6463    0.4006   -0.9877 H   0  0  0  0  0  0  0  0  0  0  0  0
    2.1172   -1.0995   -1.7577 H   0  0  0  0  0  0  0  0  0  0  0  0
    1.7495    0.0898   -3.8971 H   0  0  0  0  0  0  0  0  0  0  0  0
    2.2914    1.6159   -3.1604 H   0  0  0  0  0  0  0  0  0  0  0  0
    4.3421   -0.3165   -2.7804 H   0  0  0  0  0  0  0  0  0  0  0  0
    6.1160    0.3833   -5.8192 H   0  0  0  0  0  0  0  0  0  0  0  0
    6.2168   -0.3433   -4.2413 H   0  0  0  0  0  0  0  0  0  0  0  0
    4.0471    1.4420   -6.5609 H   0  0  0  0  0  0  0  0  0  0  0  0
    2.6649    1.4729   -5.5111 H   0  0  0  0  0  0  0  0  0  0  0  0
   -2.2750   -0.6012   -0.0539 N   0  0  0  0  0  0  0  0  0  0  0  0
   -3.6758   -0.3825    0.2243 C   0  0  2  0  0  0  0  0  0  0  0  0
   -4.3321   -1.7413    0.4300 C   0  0  0  0  0  0  0  0  0  0  0  0
   -3.9876   -2.7518   -0.1794 O   0  0  0  0  0  0  0  0  0  0  0  0
   -4.3511    0.3823   -0.9035 C   0  0  0  0  0  0  0  0  0  0  0  0
   -2.0239   -1.4315   -0.5823 H   0  0  0  0  0  0  0  0  0  0  0  0
   -3.7273    0.1933    1.1549 H   0  0  0  0  0  0  0  0  0  0  0  0
   -4.3094   -0.1790   -1.8441 H   0  0  0  0  0  0  0  0  0  0  0  0
   -5.4057    0.5721   -0.6783 H   0  0  0  0  0  0  0  0  0  0  0  0
   -3.8589    1.3466   -1.0698 H   0  0  0  0  0  0  0  0  0  0  0  0
   -5.3764   -1.6837    1.3424 N   0  0  0  0  0  0  0  0  0  0  0  0
   -6.1840   -2.8335    1.6765 C   0  0  0  0  0  0  0  0  0  0  0  0
   -5.5665   -0.8131    1.8299 H   0  0  0  0  0  0  0  0  0  0  0  0
   -7.0698   -2.8619    1.0250 H   0  0  0  0  0  0  0  0  0  0  0  0
   -5.5936   -3.7504    1.5326 H   0  0  0  0  0  0  0  0  0  0  0  0
   -6.5036   -2.7642    2.7268 H   0  0  0  0  0  0  0  0  0  0  0  0
  1  3  1  0  0  0  0
  1  7  1  0  0  0  0
  1  2  2  0  0  0  0
 42 43  1  0  0  0  0
 43 51  1  0  0  0  0
 43 44  2  0  0  0  0
  8  9  1  0  0  0  0
  9 17  1  0  0  0  0
  9 10  2  0  0  0  0
 18 19  1  0  0  0  0
 19 41  1  0  0  0  0
 19 20  2  0  0  0  0
 25 26  1  0  0  0  0
 25 27  1  0  0  0  0
 24 25  2  0  0  0  0
 42 45  1  0  0  0  0
  8 11  1  0  0  0  0
 51 52  1  0  0  0  0
 21 22  1  0  0  0  0
 22 23  1  0  0  0  0
 18 21  1  0  0  0  0
 23 24  1  0  0  0  0
 41 42  1  0  0  0  0
  7  8  1  0  0  0  0
 17 18  1  0  0  0  0
  3  4  1  0  0  0  0
  3  5  1  0  0  0  0
  3  6  1  0  0  0  0
 45 48  1  0  0  0  0
 45 49  1  0  0  0  0
 45 50  1  0  0  0  0
 11 14  1  0  0  0  0
 11 15  1  0  0  0  0
 11 16  1  0  0  0  0
 52 54  1  0  0  0  0
 52 55  1  0  0  0  0
 52 56  1  0  0  0  0
 22 32  1  0  0  0  0
 22 33  1  0  0  0  0
 21 30  1  0  0  0  0
 21 31  1  0  0  0  0
 23 34  1  0  0  0  0
 23 35  1  0  0  0  0
 42 47  1  0  0  0  0
  8 13  1  0  0  0  0
 18 29  1  0  0  0  0
 26 37  1  0  0  0  0
 26 38  1  0  0  0  0
 27 39  1  0  0  0  0
 27 40  1  0  0  0  0
 51 53  1  0  0  0  0
  7 12  1  0  0  0  0
 41 46  1  0  0  0  0
 17 28  1  0  0  0  0
 24 36  1  0  0  0  0
M  CHG  1  24   1
M  END
$$$$

  -OEChem-05262214473D

 56 55  0     1  0  0  0  0  0999 V2000
    0.7735   -5.8042   -2.0022 C   0  0  0  0  0  0  0  0  0  0  0  0
   -0.2086   -6.3825   -1.5519 O   0  0  0  0  0  0  0  0  0  0  0  0
    1.4751   -6.3646   -3.1946 C   0  0  0  0  0  0  0  0  0  0  0  0
    2.2765   -7.0687   -2.9186 H   0  0  0  0  0  0  0  0  0  0  0  0
    0.7988   -6.9360   -3.8504 H   0  0  0  0  0  0  0  0  0  0  0  0
    1.9556   -5.6216   -3.8511 H   0  0  0  0  0  0  0  0  0  0  0  0
    1.3322   -4.6359   -1.5106 N   0  0  0  0  0  0  0  0  0  0  0  0
    0.8124   -3.9290   -0.3698 C   0  0  2  0  0  0  0  0  0  0  0  0
    1.0666   -2.4424   -0.5818 C   0  0  0  0  0  0  0  0  0  0  0  0
    2.0598   -2.0076   -1.1610 O   0  0  0  0  0  0  0  0  0  0  0  0
    1.4560   -4.4118    0.9207 C   0  0  0  0  0  0  0  0  0  0  0  0
    2.1528   -4.2578   -1.9805 H   0  0  0  0  0  0  0  0  0  0  0  0
   -0.2667   -4.1160   -0.3467 H   0  0  0  0  0  0  0  0  0  0  0  0
    2.5374   -4.2329    0.9160 H   0  0  0  0  0  0  0  0  0  0  0  0
    1.0390   -3.8932    1.7903 H   0  0  0  0  0  0  0  0  0  0  0  0
    1.2976   -5.4871    1.0566 H   0  0  0  0  0  0  0  0  0  0  0  0
    0.0755   -1.6529   -0.0105 N   0  0  0  0  0  0  0  0  0  0  0  0
    0.1113   -0.2132   -0.0391 C   0  0  2  0  0  0  0  0  0  0  0  0
   -1.2807    0.2873    0.3313 C   0  0  0  0  0  0  0  0  0  0  0  0
   -1.5024    1.4413    0.6924 O   0  0  0  0  0  0  0  0  0  0  0  0
    0.5261    0.3253   -1.4122 C   0  0  0  0  0  0  0  0  0  0  0  0
    1.9818   -0.0118   -1.7565 C   0  0  0  0  0  0  0  0  0  0  0  0
    2.3892    0.5266   -3.1241 C   0  0  0  0  0  0  0  0  0  0  0  0
    3.7695    0.1833   -3.4584 N   0  3  0  0  0  0  0  0  0  0  0  0
    4.3460    0.5154   -4.6858 C   0  0  0  0  0  0  0  0  0  0  0  0
    5.6662    0.1562   -4.9354 N   0  0  0  0  0  0  0  0  0  0  0  0
    3.6320    1.1977   -5.6655 N   0  0  0  0  0  0  0  0  0  0  0  0
   -0.7323   -2.1024    0.4149 H   0  0  0  0  0  0  0  0  0  0  0  0
    0.8219    0.1022    0.7334 H   0  0  0  0  0  0  0  0  0  0  0  0
    0.3911    1.4134   -1.4336 H   0  0  0  0  0  0  0  0  0  0  0  0
   -0.1355   -0.0840   -2.1871 H   0  0  0  0  0  0  0  0  0  0  0  0
    2.6463    0.4006   -0.9877 H   0  0  0  0  0  0  0  0  0  0  0  0
    2.1172   -1.0995   -1.7577 H   0  0  0  0  0  0  0  0  0  0  0  0
    1.7495    0.0898   -3.8971 H   0  0  0  0  0  0  0  0  0  0  0  0
    2.2914    1.6159   -3.1604 H   0  0  0  0  0  0  0  0  0  0  0  0
    4.3421   -0.3165   -2.7804 H   0  0  0  0  0  0  0  0  0  0  0  0
    6.1160    0.3833   -5.8192 H   0  0  0  0  0  0  0  0  0  0  0  0
    6.2168   -0.3433   -4.2413 H   0  0  0  0  0  0  0  0  0  0  0  0
    4.0471    1.4420   -6.5609 H   0  0  0  0  0  0  0  0  0  0  0  0
    2.6649    1.4729   -5.5111 H   0  0  0  0  0  0  0  0  0  0  0  0
   -2.2342   -0.7186    0.2579 N   0  0  0  0  0  0  0  0  0  0  0  0
   -3.6215   -0.5138    0.6057 C   0  0  2  0  0  0  0  0  0  0  0  0
   -4.1589   -1.8167    1.1829 C   0  0  0  0  0  0  0  0  0  0  0  0
   -3.7897   -2.9239    0.7972 O   0  0  0  0  0  0  0  0  0  0  0  0
   -4.4361   -0.0774   -0.6020 C   0  0  0  0  0  0  0  0  0  0  0  0
   -1.9648   -1.6367   -0.0829 H   0  0  0  0  0  0  0  0  0  0  0  0
   -3.6427    0.2641    1.3767 H   0  0  0  0  0  0  0  0  0  0  0  0
   -4.4265   -0.8441   -1.3853 H   0  0  0  0  0  0  0  0  0  0  0  0
   -5.4812    0.1050   -0.3308 H   0  0  0  0  0  0  0  0  0  0  0  0
   -4.0301    0.8438   -1.0338 H   0  0  0  0  0  0  0  0  0  0  0  0
   -5.1308   -1.5978    2.1491 N   0  0  0  0  0  0  0  0  0  0  0  0
   -5.8240   -2.6753    2.8158 C   0  0  0  0  0  0  0  0  0  0  0  0
   -5.3457   -0.6472    2.4354 H   0  0  0  0  0  0  0  0  0  0  0  0
   -6.7531   -2.9052    2.2737 H   0  0  0  0  0  0  0  0  0  0  0  0
   -5.1811   -3.5677    2.8361 H   0  0  0  0  0  0  0  0  0  0  0  0
   -6.0655   -2.3740    3.8458 H   0  0  0  0  0  0  0  0  0  0  0  0
  1  3  1  0  0  0  0
  1  7  1  0  0  0  0
  1  2  2  0  0  0  0
 42 43  1  0  0  0  0
 43 51  1  0  0  0  0
 43 44  2  0  0  0  0
  8  9  1  0  0  0  0
  9 17  1  0  0  0  0
  9 10  2  0  0  0  0
 18 19  1  0  0  0  0
 19 41  1  0  0  0  0
 19 20  2  0  0  0  0
 25 26  1  0  0  0  0
 25 27  1  0  0  0  0
 24 25  2  0  0  0  0
 42 45  1  0  0  0  0
  8 11  1  0  0  0  0
 51 52  1  0  0  0  0
 21 22  1  0  0  0  0
 22 23  1  0  0  0  0
 18 21  1  0  0  0  0
 23 24  1  0  0  0  0
 41 42  1  0  0  0  0
  7  8  1  0  0  0  0
 17 18  1  0  0  0  0
  3  4  1  0  0  0  0
  3  5  1  0  0  0  0
  3  6  1  0  0  0  0
 45 48  1  0  0  0  0
 45 49  1  0  0  0  0
 45 50  1  0  0  0  0
 11 14  1  0  0  0  0
 11 15  1  0  0  0  0
 11 16  1  0  0  0  0
 52 54  1  0  0  0  0
 52 55  1  0  0  0  0
 52 56  1  0  0  0  0
 22 32  1  0  0  0  0
 22 33  1  0  0  0  0
 21 30  1  0  0  0  0
 21 31  1  0  0  0  0
 23 34  1  0  0  0  0
 23 35  1  0  0  0  0
 42 47  1  0  0  0  0
  8 13  1  0  0  0  0
 18 29  1  0  0  0  0
 26 37  1  0  0  0  0
 26 38  1  0  0  0  0
 27 39  1  0  0  0  0
 27 40  1  0  0  0  0
 51 53  1  0  0  0  0
  7 12  1  0  0  0  0
 41 46  1  0  0  0  0
 17 28  1  0  0  0  0
 24 36  1  0  0  0  0
M  CHG  1  24   1
M  END
$$$$

  -OEChem-05262214473D

 56 55  0     1  0  0  0  0  0999 V2000
    0.7735   -5.8042   -2.0022 C   0  0  0  0  0  0  0  0  0  0  0  0
   -0.2086   -6.3825   -1.5519 O   0  0  0  0  0  0  0  0  0  0  0  0
    1.4751   -6.3646   -3.1946 C   0  0  0  0  0  0  0  0  0  0  0  0
    2.2765   -7.0687   -2.9186 H   0  0  0  0  0  0  0  0  0  0  0  0
    0.7988   -6.9360   -3.8504 H   0  0  0  0  0  0  0  0  0  0  0  0
    1.9556   -5.6216   -3.8511 H   0  0  0  0  0  0  0  0  0  0  0  0
    1.3322   -4.6359   -1.5106 N   0  0  0  0  0  0  0  0  0  0  0  0
    0.8124   -3.9290   -0.3698 C   0  0  2  0  0  0  0  0  0  0  0  0
    1.0666   -2.4424   -0.5818 C   0  0  0  0  0  0  0  0  0  0  0  0
    2.0598   -2.0076   -1.1610 O   0  0  0  0  0  0  0  0  0  0  0  0
    1.4560   -4.4118    0.9207 C   0  0  0  0  0  0  0  0  0  0  0  0
    2.1528   -4.2578   -1.9805 H   0  0  0  0  0  0  0  0  0  0  0  0
   -0.2667   -4.1160   -0.3467 H   0  0  0  0  0  0  0  0  0  0  0  0
    2.5374   -4.2329    0.9160 H   0  0  0  0  0  0  0  0  0  0  0  0
    1.0390   -3.8932    1.7903 H   0  0  0  0  0  0  0  0  0  0  0  0
    1.2976   -5.4871    1.0566 H   0  0  0  0  0  0  0  0  0  0  0  0
    0.0755   -1.6529   -0.0105 N   0  0  0  0  0  0  0  0  0  0  0  0
    0.1113   -0.2132   -0.0391 C   0  0  2  0  0  0  0  0  0  0  0  0
   -1.2807    0.2873    0.3313 C   0  0  0  0  0  0  0  0  0  0  0  0
   -1.5575    1.4808    0.4318 O   0  0  0  0  0  0  0  0  0  0  0  0
    0.5261    0.3253   -1.4122 C   0  0  0  0  0  0  0  0  0  0  0  0
    1.9818   -0.0118   -1.7565 C   0  0  0  0  0  0  0  0  0  0  0  0
    2.3892    0.5266   -3.1241 C   0  0  0  0  0  0  0  0  0  0  0  0
    3.7695    0.1833   -3.4584 N   0  3  0  0  0  0  0  0  0  0  0  0
    4.3460    0.5154   -4.6858 C   0  0  0  0  0  0  0  0  0  0  0  0
    5.6662    0.1562   -4.9354 N   0  0  0  0  0  0  0  0  0  0  0  0
    3.6320    1.1977   -5.6655 N   0  0  0  0  0  0  0  0  0  0  0  0
   -0.7323   -2.1024    0.4149 H   0  0  0  0  0  0  0  0  0  0  0  0
    0.8219    0.1022    0.7334 H   0  0  0  0  0  0  0  0  0  0  0  0
    0.3911    1.4134   -1.4336 H   0  0  0  0  0  0  0  0  0  0  0  0
   -0.1355   -0.0840   -2.1871 H   0  0  0  0  0  0  0  0  0  0  0  0
    2.6463    0.4006   -0.9877 H   0  0  0  0  0  0  0  0  0  0  0  0
    2.1172   -1.0995   -1.7577 H   0  0  0  0  0  0  0  0  0  0  0  0
    1.7495    0.0898   -3.8971 H   0  0  0  0  0  0  0  0  0  0  0  0
    2.2914    1.6159   -3.1604 H   0  0  0  0  0  0  0  0  0  0  0  0
    4.3421   -0.3165   -2.7804 H   0  0  0  0  0  0  0  0  0  0  0  0
    6.1160    0.3833   -5.8192 H   0  0  0  0  0  0  0  0  0  0  0  0
    6.2168   -0.3433   -4.2413 H   0  0  0  0  0  0  0  0  0  0  0  0
    4.0471    1.4420   -6.5609 H   0  0  0  0  0  0  0  0  0  0  0  0
    2.6649    1.4729   -5.5111 H   0  0  0  0  0  0  0  0  0  0  0  0
   -2.1610   -0.7557    0.5834 N   0  0  0  0  0  0  0  0  0  0  0  0
   -3.5284   -0.5471    1.0006 C   0  0  2  0  0  0  0  0  0  0  0  0
   -3.9229   -1.7008    1.9132 C   0  0  0  0  0  0  0  0  0  0  0  0
   -3.5047   -2.8471    1.7643 O   0  0  0  0  0  0  0  0  0  0  0  0
   -4.4638   -0.4555   -0.1950 C   0  0  0  0  0  0  0  0  0  0  0  0
   -1.8523   -1.7132    0.4430 H   0  0  0  0  0  0  0  0  0  0  0  0
   -3.5467    0.3903    1.5672 H   0  0  0  0  0  0  0  0  0  0  0  0
   -4.4588   -1.3856   -0.7750 H   0  0  0  0  0  0  0  0  0  0  0  0
   -5.4953   -0.2689    0.1216 H   0  0  0  0  0  0  0  0  0  0  0  0
   -4.1608    0.3559   -0.8656 H   0  0  0  0  0  0  0  0  0  0  0  0
   -4.8305   -1.3088    2.8873 N   0  0  0  0  0  0  0  0  0  0  0  0
   -5.3893   -2.2308    3.8483 C   0  0  0  0  0  0  0  0  0  0  0  0
   -5.0915   -0.3300    2.9622 H   0  0  0  0  0  0  0  0  0  0  0  0
   -6.3384   -2.6321    3.4633 H   0  0  0  0  0  0  0  0  0  0  0  0
   -4.6833   -3.0573    4.0169 H   0  0  0  0  0  0  0  0  0  0  0  0
   -5.5718   -1.7052    4.7973 H   0  0  0  0  0  0  0  0  0  0  0  0
  1  3  1  0  0  0  0
  1  7  1  0  0  0  0
  1  2  2  0  0  0  0
 42 43  1  0  0  0  0
 43 51  1  0  0  0  0
 43 44  2  0  0  0  0
  8  9  1  0  0  0  0
  9 17  1  0  0  0  0
  9 10  2  0  0  0  0
 18 19  1  0  0  0  0
 19 41  1  0  0  0  0
 19 20  2  0  0  0  0
 25 26  1  0  0  0  0
 25 27  1  0  0  0  0
 24 25  2  0  0  0  0
 42 45  1  0  0  0  0
  8 11  1  0  0  0  0
 51 52  1  0  0  0  0
 21 22  1  0  0  0  0
 22 23  1  0  0  0  0
 18 21  1  0  0  0  0
 23 24  1  0  0  0  0
 41 42  1  0  0  0  0
  7  8  1  0  0  0  0
 17 18  1  0  0  0  0
  3  4  1  0  0  0  0
  3  5  1  0  0  0  0
  3  6  1  0  0  0  0
 45 48  1  0  0  0  0
 45 49  1  0  0  0  0
 45 50  1  0  0  0  0
 11 14  1  0  0  0  0
 11 15  1  0  0  0  0
 11 16  1  0  0  0  0
 52 54  1  0  0  0  0
 52 55  1  0  0  0  0
 52 56  1  0  0  0  0
 22 32  1  0  0  0  0
 22 33  1  0  0  0  0
 21 30  1  0  0  0  0
 21 31  1  0  0  0  0
 23 34  1  0  0  0  0
 23 35  1  0  0  0  0
 42 47  1  0  0  0  0
  8 13  1  0  0  0  0
 18 29  1  0  0  0  0
 26 37  1  0  0  0  0
 26 38  1  0  0  0  0
 27 39  1  0  0  0  0
 27 40  1  0  0  0  0
 51 53  1  0  0  0  0
  7 12  1  0  0  0  0
 41 46  1  0  0  0  0
 17 28  1  0  0  0  0
 24 36  1  0  0  0  0
M  CHG  1  24   1
M  END
$$$$

  -OEChem-05262214473D

 56 55  0     1  0  0  0  0  0999 V2000
    0.7735   -5.8042   -2.0022 C   0  0  0  0  0  0  0  0  0  0  0  0
   -0.2086   -6.3825   -1.5519 O   0  0  0  0  0  0  0  0  0  0  0  0
    1.4751   -6.3646   -3.1946 C   0  0  0  0  0  0  0  0  0  0  0  0
    2.2765   -7.0687   -2.9186 H   0  0  0  0  0  0  0  0  0  0  0  0
    0.7988   -6.9360   -3.8504 H   0  0  0  0  0  0  0  0  0  0  0  0
    1.9556   -5.6216   -3.8511 H   0  0  0  0  0  0  0  0  0  0  0  0
    1.3322   -4.6359   -1.5106 N   0  0  0  0  0  0  0  0  0  0  0  0
    0.8124   -3.9290   -0.3698 C   0  0  2  0  0  0  0  0  0  0  0  0
    1.0666   -2.4424   -0.5818 C   0  0  0  0  0  0  0  0  0  0  0  0
    2.0598   -2.0076   -1.1610 O   0  0  0  0  0  0  0  0  0  0  0  0
    1.4560   -4.4118    0.9207 C   0  0  0  0  0  0  0  0  0  0  0  0
    2.1528   -4.2578   -1.9805 H   0  0  0  0  0  0  0  0  0  0  0  0
   -0.2667   -4.1160   -0.3467 H   0  0  0  0  0  0  0  0  0  0  0  0
    2.5374   -4.2329    0.9160 H   0  0  0  0  0  0  0  0  0  0  0  0
    1.0390   -3.8932    1.7903 H   0  0  0  0  0  0  0  0  0  0  0  0
    1.2976   -5.4871    1.0566 H   0  0  0  0  0  0  0  0  0  0  0  0
    0.0755   -1.6529   -0.0105 N   0  0  0  0  0  0  0  0  0  0  0  0
    0.1113   -0.2132   -0.0391 C   0  0  2  0  0  0  0  0  0  0  0  0
   -1.2807    0.2873    0.3313 C   0  0  0  0  0  0  0  0  0  0  0  0
   -1.6354    1.4540    0.1755 O   0  0  0  0  0  0  0  0  0  0  0  0
    0.5261    0.3253   -1.4122 C   0  0  0  0  0  0  0  0  0  0  0  0
    1.9818   -0.0118   -1.7565 C   0  0  0  0  0  0  0  0  0  0  0  0
    2.3892    0.5266   -3.1241 C   0  0  0  0  0  0  0  0  0  0  0  0
    3.7695    0.1833   -3.4584 N   0  3  0  0  0  0  0  0  0  0  0  0
    4.3460    0.5154   -4.6858 C   0  0  0  0  0  0  0  0  0  0  0  0
    5.6662    0.1562   -4.9354 N   0  0  0  0  0  0  0  0  0  0  0  0
    3.6320    1.1977   -5.6655 N   0  0  0  0  0  0  0  0  0  0  0  0
   -0.7323   -2.1024    0.4149 H   0  0  0  0  0  0  0  0  0  0  0  0
    0.8219    0.1022    0.7334 H   0  0  0  0  0  0  0  0  0  0  0  0
    0.3911    1.4134   -1.4336 H   0  0  0  0  0  0  0  0  0  0  0  0
   -0.1355   -0.0840   -2.1871 H   0  0  0  0  0  0  0  0  0  0  0  0
    2.6463    0.4006   -0.9877 H   0  0  0  0  0  0  0  0  0  0  0  0
    2.1172   -1.0995   -1.7577 H   0  0  0  0  0  0  0  0  0  0  0  0
    1.7495    0.0898   -3.8971 H   0  0  0  0  0  0  0  0  0  0  0  0
    2.2914    1.6159   -3.1604 H   0  0  0  0  0  0  0  0  0  0  0  0
    4.3421   -0.3165   -2.7804 H   0  0  0  0  0  0  0  0  0  0  0  0
    6.1160    0.3833   -5.8192 H   0  0  0  0  0  0  0  0  0  0  0  0
    6.2168   -0.3433   -4.2413 H   0  0  0  0  0  0  0  0  0  0  0  0
    4.0471    1.4420   -6.5609 H   0  0  0  0  0  0  0  0  0  0  0  0
    2.6649    1.4729   -5.5111 H   0  0  0  0  0  0  0  0  0  0  0  0
   -2.0602   -0.7101    0.9003 N   0  0  0  0  0  0  0  0  0  0  0  0
   -3.4029   -0.4802    1.3819 C   0  0  2  0  0  0  0  0  0  0  0  0
   -3.6402   -1.4014    2.5712 C   0  0  0  0  0  0  0  0  0  0  0  0
   -3.1521   -2.5265    2.6561 O   0  0  0  0  0  0  0  0  0  0  0  0
   -4.4321   -0.7263    0.2898 C   0  0  0  0  0  0  0  0  0  0  0  0
   -1.6942   -1.6558    0.9595 H   0  0  0  0  0  0  0  0  0  0  0  0
   -3.4457    0.5631    1.7131 H   0  0  0  0  0  0  0  0  0  0  0  0
   -4.4041   -1.7665   -0.0548 H   0  0  0  0  0  0  0  0  0  0  0  0
   -5.4469   -0.5240    0.6481 H   0  0  0  0  0  0  0  0  0  0  0  0
   -4.2421   -0.0839   -0.5768 H   0  0  0  0  0  0  0  0  0  0  0  0
   -4.4958   -0.8364    3.5065 N   0  0  0  0  0  0  0  0  0  0  0  0
   -4.9098   -1.5301    4.7037 C   0  0  0  0  0  0  0  0  0  0  0  0
   -4.8211    0.1168    3.3745 H   0  0  0  0  0  0  0  0  0  0  0  0
   -5.8539   -2.0612    4.5125 H   0  0  0  0  0  0  0  0  0  0  0  0
   -4.1343   -2.2540    4.9946 H   0  0  0  0  0  0  0  0  0  0  0  0
   -5.0562   -0.8033    5.5164 H   0  0  0  0  0  0  0  0  0  0  0  0
  1  3  1  0  0  0  0
  1  7  1  0  0  0  0
  1  2  2  0  0  0  0
 42 43  1  0  0  0  0
 43 51  1  0  0  0  0
 43 44  2  0  0  0  0
  8  9  1  0  0  0  0
  9 17  1  0  0  0  0
  9 10  2  0  0  0  0
 18 19  1  0  0  0  0
 19 41  1  0  0  0  0
 19 20  2  0  0  0  0
 25 26  1  0  0  0  0
 25 27  1  0  0  0  0
 24 25  2  0  0  0  0
 42 45  1  0  0  0  0
  8 11  1  0  0  0  0
 51 52  1  0  0  0  0
 21 22  1  0  0  0  0
 22 23  1  0  0  0  0
 18 21  1  0  0  0  0
 23 24  1  0  0  0  0
 41 42  1  0  0  0  0
  7  8  1  0  0  0  0
 17 18  1  0  0  0  0
  3  4  1  0  0  0  0
  3  5  1  0  0  0  0
  3  6  1  0  0  0  0
 45 48  1  0  0  0  0
 45 49  1  0  0  0  0
 45 50  1  0  0  0  0
 11 14  1  0  0  0  0
 11 15  1  0  0  0  0
 11 16  1  0  0  0  0
 52 54  1  0  0  0  0
 52 55  1  0  0  0  0
 52 56  1  0  0  0  0
 22 32  1  0  0  0  0
 22 33  1  0  0  0  0
 21 30  1  0  0  0  0
 21 31  1  0  0  0  0
 23 34  1  0  0  0  0
 23 35  1  0  0  0  0
 42 47  1  0  0  0  0
  8 13  1  0  0  0  0
 18 29  1  0  0  0  0
 26 37  1  0  0  0  0
 26 38  1  0  0  0  0
 27 39  1  0  0  0  0
 27 40  1  0  0  0  0
 51 53  1  0  0  0  0
  7 12  1  0  0  0  0
 41 46  1  0  0  0  0
 17 28  1  0  0  0  0
 24 36  1  0  0  0  0
M  CHG  1  24   1
M  END
$$$$

  -OEChem-05262214473D

 56 55  0     1  0  0  0  0  0999 V2000
    0.7735   -5.8042   -2.0022 C   0  0  0  0  0  0  0  0  0  0  0  0
   -0.2086   -6.3825   -1.5519 O   0  0  0  0  0  0  0  0  0  0  0  0
    1.4751   -6.3646   -3.1946 C   0  0  0  0  0  0  0  0  0  0  0  0
    2.2765   -7.0687   -2.9186 H   0  0  0  0  0  0  0  0  0  0  0  0
    0.7988   -6.9360   -3.8504 H   0  0  0  0  0  0  0  0  0  0  0  0
    1.9556   -5.6216   -3.8511 H   0  0  0  0  0  0  0  0  0  0  0  0
    1.3322   -4.6359   -1.5106 N   0  0  0  0  0  0  0  0  0  0  0  0
    0.8124   -3.9290   -0.3698 C   0  0  2  0  0  0  0  0  0  0  0  0
    1.0666   -2.4424   -0.5818 C   0  0  0  0  0  0  0  0  0  0  0  0
    2.0598   -2.0076   -1.1610 O   0  0  0  0  0  0  0  0  0  0  0  0
    1.4560   -4.4118    0.9207 C   0  0  0  0  0  0  0  0  0  0  0  0
    2.1528   -4.2578   -1.9805 H   0  0  0  0  0  0  0  0  0  0  0  0
   -0.2667   -4.1160   -0.3467 H   0  0  0  0  0  0  0  0  0  0  0  0
    2.5374   -4.2329    0.9160 H   0  0  0  0  0  0  0  0  0  0  0  0
    1.0390   -3.8932    1.7903 H   0  0  0  0  0  0  0  0  0  0  0  0
    1.2976   -5.4871    1.0566 H   0  0  0  0  0  0  0  0  0  0  0  0
    0.0755   -1.6529   -0.0105 N   0  0  0  0  0  0  0  0  0  0  0  0
    0.1113   -0.2132   -0.0391 C   0  0  2  0  0  0  0  0  0  0  0  0
   -1.2807    0.2873    0.3313 C   0  0  0  0  0  0  0  0  0  0  0  0
   -1.7307    1.3626   -0.0592 O   0  0  0  0  0  0  0  0  0  0  0  0
    0.5261    0.3253   -1.4122 C   0  0  0  0  0  0  0  0  0  0  0  0
    1.9818   -0.0118   -1.7565 C   0  0  0  0  0  0  0  0  0  0  0  0
    2.3892    0.5266   -3.1241 C   0  0  0  0  0  0  0  0  0  0  0  0
    3.7695    0.1833   -3.4584 N   0  3  0  0  0  0  0  0  0  0  0  0
    4.3460    0.5154   -4.6858 C   0  0  0  0  0  0  0  0  0  0  0  0
    5.6662    0.1562   -4.9354 N   0  0  0  0  0  0  0  0  0  0  0  0
    3.6320    1.1977   -5.6655 N   0  0  0  0  0  0  0  0  0  0  0  0
   -0.7323   -2.1024    0.4149 H   0  0  0  0  0  0  0  0  0  0  0  0
    0.8219    0.1022    0.7334 H   0  0  0  0  0  0  0  0  0  0  0  0
    0.3911    1.4134   -1.4336 H   0  0  0  0  0  0  0  0  0  0  0  0
   -0.1355   -0.0840   -2.1871 H   0  0  0  0  0  0  0  0  0  0  0  0
    2.6463    0.4006   -0.9877 H   0  0  0  0  0  0  0  0  0  0  0  0
    2.1172   -1.0995   -1.7577 H   0  0  0  0  0  0  0  0  0  0  0  0
    1.7495    0.0898   -3.8971 H   0  0  0  0  0  0  0  0  0  0  0  0
    2.2914    1.6159   -3.1604 H   0  0  0  0  0  0  0  0  0  0  0  0
    4.3421   -0.3165   -2.7804 H   0  0  0  0  0  0  0  0  0  0  0  0
    6.1160    0.3833   -5.8192 H   0  0  0  0  0  0  0  0  0  0  0  0
    6.2168   -0.3433   -4.2413 H   0  0  0  0  0  0  0  0  0  0  0  0
    4.0471    1.4420   -6.5609 H   0  0  0  0  0  0  0  0  0  0  0  0
    2.6649    1.4729   -5.5111 H   0  0  0  0  0  0  0  0  0  0  0  0
   -1.9389   -0.5849    1.1871 N   0  0  0  0  0  0  0  0  0  0  0  0
   -3.2534   -0.3175    1.7238 C   0  0  2  0  0  0  0  0  0  0  0  0
   -3.3300   -0.9391    3.1120 C   0  0  0  0  0  0  0  0  0  0  0  0
   -2.7559   -1.9839    3.4118 O   0  0  0  0  0  0  0  0  0  0  0  0
   -4.3434   -0.8713    0.8194 C   0  0  0  0  0  0  0  0  0  0  0  0
   -1.5013   -1.4683    1.4314 H   0  0  0  0  0  0  0  0  0  0  0  0
   -3.3466    0.7710    1.8047 H   0  0  0  0  0  0  0  0  0  0  0  0
   -4.2662   -1.9608    0.7262 H   0  0  0  0  0  0  0  0  0  0  0  0
   -5.3394   -0.6431    1.2128 H   0  0  0  0  0  0  0  0  0  0  0  0
   -4.2684   -0.4456   -0.1871 H   0  0  0  0  0  0  0  0  0  0  0  0
   -4.1497   -0.2128    3.9645 N   0  0  0  0  0  0  0  0  0  0  0  0
   -4.4179   -0.6210    5.3237 C   0  0  0  0  0  0  0  0  0  0  0  0
   -4.5530    0.6628    3.6443 H   0  0  0  0  0  0  0  0  0  0  0  0
   -5.3326   -1.2314    5.3500 H   0  0  0  0  0  0  0  0  0  0  0  0
   -3.5715   -1.2126    5.7025 H   0  0  0  0  0  0  0  0  0  0  0  0
   -4.5537    0.2702    5.9541 H   0  0  0  0  0  0  0  0  0  0  0  0
  1  3  1  0  0  0  0
  1  7  1  0  0  0  0
  1  2  2  0  0  0  0
 42 43  1  0  0  0  0
 43 51  1  0  0  0  0
 43 44  2  0  0  0  0
  8  9  1  0  0  0  0
  9 17  1  0  0  0  0
  9 10  2  0  0  0  0
 18 19  1  0  0  0  0
 19 41  1  0  0  0  0
 19 20  2  0  0  0  0
 25 26  1  0  0  0  0
 25 27  1  0  0  0  0
 24 25  2  0  0  0  0
 42 45  1  0  0  0  0
  8 11  1  0  0  0  0
 51 52  1  0  0  0  0
 21 22  1  0  0  0  0
 22 23  1  0  0  0  0
 18 21  1  0  0  0  0
 23 24  1  0  0  0  0
 41 42  1  0  0  0  0
  7  8  1  0  0  0  0
 17 18  1  0  0  0  0
  3  4  1  0  0  0  0
  3  5  1  0  0  0  0
  3  6  1  0  0  0  0
 45 48  1  0  0  0  0
 45 49  1  0  0  0  0
 45 50  1  0  0  0  0
 11 14  1  0  0  0  0
 11 15  1  0  0  0  0
 11 16  1  0  0  0  0
 52 54  1  0  0  0  0
 52 55  1  0  0  0  0
 52 56  1  0  0  0  0
 22 32  1  0  0  0  0
 22 33  1  0  0  0  0
 21 30  1  0  0  0  0
 21 31  1  0  0  0  0
 23 34  1  0  0  0  0
 23 35  1  0  0  0  0
 42 47  1  0  0  0  0
  8 13  1  0  0  0  0
 18 29  1  0  0  0  0
 26 37  1  0  0  0  0
 26 38  1  0  0  0  0
 27 39  1  0  0  0  0
 27 40  1  0  0  0  0
 51 53  1  0  0  0  0
  7 12  1  0  0  0  0
 41 46  1  0  0  0  0
 17 28  1  0  0  0  0
 24 36  1  0  0  0  0
M  CHG  1  24   1
M  END
$$$$

  -OEChem-05262214473D

 56 55  0     1  0  0  0  0  0999 V2000
    0.7735   -5.8042   -2.0022 C   0  0  0  0  0  0  0  0  0  0  0  0
   -0.2086   -6.3825   -1.5519 O   0  0  0  0  0  0  0  0  0  0  0  0
    1.4751   -6.3646   -3.1946 C   0  0  0  0  0  0  0  0  0  0  0  0
    2.2765   -7.0687   -2.9186 H   0  0  0  0  0  0  0  0  0  0  0  0
    0.7988   -6.9360   -3.8504 H   0  0  0  0  0  0  0  0  0  0  0  0
    1.9556   -5.6216   -3.8511 H   0  0  0  0  0  0  0  0  0  0  0  0
    1.3322   -4.6359   -1.5106 N   0  0  0  0  0  0  0  0  0  0  0  0
    0.8124   -3.9290   -0.3698 C   0  0  2  0  0  0  0  0  0  0  0  0
    1.0666   -2.4424   -0.5818 C   0  0  0  0  0  0  0  0  0  0  0  0
    2.0598   -2.0076   -1.1610 O   0  0  0  0  0  0  0  0  0  0  0  0
    1.4560   -4.4118    0.9207 C   0  0  0  0  0  0  0  0  0  0  0  0
    2.1528   -4.2578   -1.9805 H   0  0  0  0  0  0  0  0  0  0  0  0
   -0.2667   -4.1160   -0.3467 H   0  0  0  0  0  0  0  0  0  0  0  0
    2.5374   -4.2329    0.9160 H   0  0  0  0  0  0  0  0  0  0  0  0
    1.0390   -3.8932    1.7903 H   0  0  0  0  0  0  0  0  0  0  0  0
    1.2976   -5.4871    1.0566 H   0  0  0  0  0  0  0  0  0  0  0  0
    0.0755   -1.6529   -0.0105 N   0  0  0  0  0  0  0  0  0  0  0  0
    0.1113   -0.2132   -0.0391 C   0  0  2  0  0  0  0  0  0  0  0  0
   -1.2807    0.2873    0.3313 C   0  0  0  0  0  0  0  0  0  0  0  0
   -1.8370    1.2129   -0.2562 O   0  0  0  0  0  0  0  0  0  0  0  0
    0.5261    0.3253   -1.4122 C   0  0  0  0  0  0  0  0  0  0  0  0
    1.9818   -0.0118   -1.7565 C   0  0  0  0  0  0  0  0  0  0  0  0
    2.3892    0.5266   -3.1241 C   0  0  0  0  0  0  0  0  0  0  0  0
    3.7695    0.1833   -3.4584 N   0  3  0  0  0  0  0  0  0  0  0  0
    4.3460    0.5154   -4.6858 C   0  0  0  0  0  0  0  0  0  0  0  0
    5.6662    0.1562   -4.9354 N   0  0  0  0  0  0  0  0  0  0  0  0
    3.6320    1.1977   -5.6655 N   0  0  0  0  0  0  0  0  0  0  0  0
   -0.7323   -2.1024    0.4149 H   0  0  0  0  0  0  0  0  0  0  0  0
    0.8219    0.1022    0.7334 H   0  0  0  0  0  0  0  0  0  0  0  0
    0.3911    1.4134   -1.4336 H   0  0  0  0  0  0  0  0  0  0  0  0
   -0.1355   -0.0840   -2.1871 H   0  0  0  0  0  0  0  0  0  0  0  0
    2.6463    0.4006   -0.9877 H   0  0  0  0  0  0  0  0  0  0  0  0
    2.1172   -1.0995   -1.7577 H   0  0  0  0  0  0  0  0  0  0  0  0
    1.7495    0.0898   -3.8971 H   0  0  0  0  0  0  0  0  0  0  0  0
    2.2914    1.6159   -3.1604 H   0  0  0  0  0  0  0  0  0  0  0  0
    4.3421   -0.3165   -2.7804 H   0  0  0  0  0  0  0  0  0  0  0  0
    6.1160    0.3833   -5.8192 H   0  0  0  0  0  0  0  0  0  0  0  0
    6.2168   -0.3433   -4.2413 H   0  0  0  0  0  0  0  0  0  0  0  0
    4.0471    1.4420   -6.5609 H   0  0  0  0  0  0  0  0  0  0  0  0
    2.6649    1.4729   -5.5111 H   0  0  0  0  0  0  0  0  0  0  0  0
   -1.8051   -0.3885    1.4243 N   0  0  0  0  0  0  0  0  0  0  0  0
   -3.0902   -0.0702    2.0028 C   0  0  2  0  0  0  0  0  0  0  0  0
   -3.0135   -0.3452    3.4989 C   0  0  0  0  0  0  0  0  0  0  0  0
   -2.3431   -1.2564    3.9799 O   0  0  0  0  0  0  0  0  0  0  0  0
   -4.2035   -0.8808    1.3576 C   0  0  0  0  0  0  0  0  0  0  0  0
   -1.2866   -1.1637    1.8266 H   0  0  0  0  0  0  0  0  0  0  0  0
   -3.2562    0.9996    1.8356 H   0  0  0  0  0  0  0  0  0  0  0  0
   -4.0544   -1.9553    1.5147 H   0  0  0  0  0  0  0  0  0  0  0  0
   -5.1801   -0.6178    1.7773 H   0  0  0  0  0  0  0  0  0  0  0  0
   -4.2380   -0.7045    0.2771 H   0  0  0  0  0  0  0  0  0  0  0  0
   -3.8157    0.5196    4.2302 N   0  0  0  0  0  0  0  0  0  0  0  0
   -3.9473    0.4344    5.6660 C   0  0  0  0  0  0  0  0  0  0  0  0
   -4.3054    1.2708    3.7531 H   0  0  0  0  0  0  0  0  0  0  0  0
   -4.8102   -0.1993    5.9186 H   0  0  0  0  0  0  0  0  0  0  0  0
   -3.0331   -0.0041    6.0925 H   0  0  0  0  0  0  0  0  0  0  0  0
   -4.0987    1.4420    6.0806 H   0  0  0  0  0  0  0  0  0  0  0  0
  1  3  1  0  0  0  0
  1  7  1  0  0  0  0
  1  2  2  0  0  0  0
 42 43  1  0  0  0  0
 43 51  1  0  0  0  0
 43 44  2  0  0  0  0
  8  9  1  0  0  0  0
  9 17  1  0  0  0  0
  9 10  2  0  0  0  0
 18 19  1  0  0  0  0
 19 41  1  0  0  0  0
 19 20  2  0  0  0  0
 25 26  1  0  0  0  0
 25 27  1  0  0  0  0
 24 25  2  0  0  0  0
 42 45  1  0  0  0  0
  8 11  1  0  0  0  0
 51 52  1  0  0  0  0
 21 22  1  0  0  0  0
 22 23  1  0  0  0  0
 18 21  1  0  0  0  0
 23 24  1  0  0  0  0
 41 42  1  0  0  0  0
  7  8  1  0  0  0  0
 17 18  1  0  0  0  0
  3  4  1  0  0  0  0
  3  5  1  0  0  0  0
  3  6  1  0  0  0  0
 45 48  1  0  0  0  0
 45 49  1  0  0  0  0
 45 50  1  0  0  0  0
 11 14  1  0  0  0  0
 11 15  1  0  0  0  0
 11 16  1  0  0  0  0
 52 54  1  0  0  0  0
 52 55  1  0  0  0  0
 52 56  1  0  0  0  0
 22 32  1  0  0  0  0
 22 33  1  0  0  0  0
 21 30  1  0  0  0  0
 21 31  1  0  0  0  0
 23 34  1  0  0  0  0
 23 35  1  0  0  0  0
 42 47  1  0  0  0  0
  8 13  1  0  0  0  0
 18 29  1  0  0  0  0
 26 37  1  0  0  0  0
 26 38  1  0  0  0  0
 27 39  1  0  0  0  0
 27 40  1  0  0  0  0
 51 53  1  0  0  0  0
  7 12  1  0  0  0  0
 41 46  1  0  0  0  0
 17 28  1  0  0  0  0
 24 36  1  0  0  0  0
M  CHG  1  24   1
M  END
$$$$

  -OEChem-05262214473D

 56 55  0     1  0  0  0  0  0999 V2000
    0.7735   -5.8042   -2.0022 C   0  0  0  0  0  0  0  0  0  0  0  0
   -0.2086   -6.3825   -1.5519 O   0  0  0  0  0  0  0  0  0  0  0  0
    1.4751   -6.3646   -3.1946 C   0  0  0  0  0  0  0  0  0  0  0  0
    2.2765   -7.0687   -2.9186 H   0  0  0  0  0  0  0  0  0  0  0  0
    0.7988   -6.9360   -3.8504 H   0  0  0  0  0  0  0  0  0  0  0  0
    1.9556   -5.6216   -3.8511 H   0  0  0  0  0  0  0  0  0  0  0  0
    1.3322   -4.6359   -1.5106 N   0  0  0  0  0  0  0  0  0  0  0  0
    0.8124   -3.9290   -0.3698 C   0  0  2  0  0  0  0  0  0  0  0  0
    1.0666   -2.4424   -0.5818 C   0  0  0  0  0  0  0  0  0  0  0  0
    2.0598   -2.0076   -1.1610 O   0  0  0  0  0  0  0  0  0  0  0  0
    1.4560   -4.4118    0.9207 C   0  0  0  0  0  0  0  0  0  0  0  0
    2.1528   -4.2578   -1.9805 H   0  0  0  0  0  0  0  0  0  0  0  0
   -0.2667   -4.1160   -0.3467 H   0  0  0  0  0  0  0  0  0  0  0  0
    2.5374   -4.2329    0.9160 H   0  0  0  0  0  0  0  0  0  0  0  0
    1.0390   -3.8932    1.7903 H   0  0  0  0  0  0  0  0  0  0  0  0
    1.2976   -5.4871    1.0566 H   0  0  0  0  0  0  0  0  0  0  0  0
    0.0755   -1.6529   -0.0105 N   0  0  0  0  0  0  0  0  0  0  0  0
    0.1113   -0.2132   -0.0391 C   0  0  2  0  0  0  0  0  0  0  0  0
   -1.2807    0.2873    0.3313 C   0  0  0  0  0  0  0  0  0  0  0  0
   -1.9469    1.0150   -0.4020 O   0  0  0  0  0  0  0  0  0  0  0  0
    0.5261    0.3253   -1.4122 C   0  0  0  0  0  0  0  0  0  0  0  0
    1.9818   -0.0118   -1.7565 C   0  0  0  0  0  0  0  0  0  0  0  0
    2.3892    0.5266   -3.1241 C   0  0  0  0  0  0  0  0  0  0  0  0
    3.7695    0.1833   -3.4584 N   0  3  0  0  0  0  0  0  0  0  0  0
    4.3460    0.5154   -4.6858 C   0  0  0  0  0  0  0  0  0  0  0  0
    5.6662    0.1562   -4.9354 N   0  0  0  0  0  0  0  0  0  0  0  0
    3.6320    1.1977   -5.6655 N   0  0  0  0  0  0  0  0  0  0  0  0
   -0.7323   -2.1024    0.4149 H   0  0  0  0  0  0  0  0  0  0  0  0
    0.8219    0.1022    0.7334 H   0  0  0  0  0  0  0  0  0  0  0  0
    0.3911    1.4134   -1.4336 H   0  0  0  0  0  0  0  0  0  0  0  0
   -0.1355   -0.0840   -2.1871 H   0  0  0  0  0  0  0  0  0  0  0  0
    2.6463    0.4006   -0.9877 H   0  0  0  0  0  0  0  0  0  0  0  0
    2.1172   -1.0995   -1.7577 H   0  0  0  0  0  0  0  0  0  0  0  0
    1.7495    0.0898   -3.8971 H   0  0  0  0  0  0  0  0  0  0  0  0
    2.2914    1.6159   -3.1604 H   0  0  0  0  0  0  0  0  0  0  0  0
    4.3421   -0.3165   -2.7804 H   0  0  0  0  0  0  0  0  0  0  0  0
    6.1160    0.3833   -5.8192 H   0  0  0  0  0  0  0  0  0  0  0  0
    6.2168   -0.3433   -4.2413 H   0  0  0  0  0  0  0  0  0  0  0  0
    4.0471    1.4420   -6.5609 H   0  0  0  0  0  0  0  0  0  0  0  0
    2.6649    1.4729   -5.5111 H   0  0  0  0  0  0  0  0  0  0  0  0
   -1.6682   -0.1343    1.5956 N   0  0  0  0  0  0  0  0  0  0  0  0
   -2.9244    0.2448    2.2001 C   0  0  2  0  0  0  0  0  0  0  0  0
   -2.7123    0.3398    3.7053 C   0  0  0  0  0  0  0  0  0  0  0  0
   -1.9419   -0.3934    4.3217 O   0  0  0  0  0  0  0  0  0  0  0  0
   -4.0221   -0.7539    1.8679 C   0  0  0  0  0  0  0  0  0  0  0  0
   -1.0648   -0.7625    2.1180 H   0  0  0  0  0  0  0  0  0  0  0  0
   -3.1806    1.2334    1.8037 H   0  0  0  0  0  0  0  0  0  0  0  0
   -3.7832   -1.7503    2.2571 H   0  0  0  0  0  0  0  0  0  0  0  0
   -4.9799   -0.4501    2.3031 H   0  0  0  0  0  0  0  0  0  0  0  0
   -4.1529   -0.8430    0.7840 H   0  0  0  0  0  0  0  0  0  0  0  0
   -3.5165    1.3108    4.2854 N   0  0  0  0  0  0  0  0  0  0  0  0
   -3.5300    1.5644    5.7072 C   0  0  0  0  0  0  0  0  0  0  0  0
   -4.0952    1.8993    3.6935 H   0  0  0  0  0  0  0  0  0  0  0  0
   -4.3221    0.9649    6.1796 H   0  0  0  0  0  0  0  0  0  0  0  0
   -2.5560    1.2893    6.1379 H   0  0  0  0  0  0  0  0  0  0  0  0
   -3.7221    2.6325    5.8872 H   0  0  0  0  0  0  0  0  0  0  0  0
  1  3  1  0  0  0  0
  1  7  1  0  0  0  0
  1  2  2  0  0  0  0
 42 43  1  0  0  0  0
 43 51  1  0  0  0  0
 43 44  2  0  0  0  0
  8  9  1  0  0  0  0
  9 17  1  0  0  0  0
  9 10  2  0  0  0  0
 18 19  1  0  0  0  0
 19 41  1  0  0  0  0
 19 20  2  0  0  0  0
 25 26  1  0  0  0  0
 25 27  1  0  0  0  0
 24 25  2  0  0  0  0
 42 45  1  0  0  0  0
  8 11  1  0  0  0  0
 51 52  1  0  0  0  0
 21 22  1  0  0  0  0
 22 23  1  0  0  0  0
 18 21  1  0  0  0  0
 23 24  1  0  0  0  0
 41 42  1  0  0  0  0
  7  8  1  0  0  0  0
 17 18  1  0  0  0  0
  3  4  1  0  0  0  0
  3  5  1  0  0  0  0
  3  6  1  0  0  0  0
 45 48  1  0  0  0  0
 45 49  1  0  0  0  0
 45 50  1  0  0  0  0
 11 14  1  0  0  0  0
 11 15  1  0  0  0  0
 11 16  1  0  0  0  0
 52 54  1  0  0  0  0
 52 55  1  0  0  0  0
 52 56  1  0  0  0  0
 22 32  1  0  0  0  0
 22 33  1  0  0  0  0
 21 30  1  0  0  0  0
 21 31  1  0  0  0  0
 23 34  1  0  0  0  0
 23 35  1  0  0  0  0
 42 47  1  0  0  0  0
  8 13  1  0  0  0  0
 18 29  1  0  0  0  0
 26 37  1  0  0  0  0
 26 38  1  0  0  0  0
 27 39  1  0  0  0  0
 27 40  1  0  0  0  0
 51 53  1  0  0  0  0
  7 12  1  0  0  0  0
 41 46  1  0  0  0  0
 17 28  1  0  0  0  0
 24 36  1  0  0  0  0
M  CHG  1  24   1
M  END
$$$$

  -OEChem-05262214473D

 56 55  0     1  0  0  0  0  0999 V2000
    0.7735   -5.8042   -2.0022 C   0  0  0  0  0  0  0  0  0  0  0  0
   -0.2086   -6.3825   -1.5519 O   0  0  0  0  0  0  0  0  0  0  0  0
    1.4751   -6.3646   -3.1946 C   0  0  0  0  0  0  0  0  0  0  0  0
    2.2765   -7.0687   -2.9186 H   0  0  0  0  0  0  0  0  0  0  0  0
    0.7988   -6.9360   -3.8504 H   0  0  0  0  0  0  0  0  0  0  0  0
    1.9556   -5.6216   -3.8511 H   0  0  0  0  0  0  0  0  0  0  0  0
    1.3322   -4.6359   -1.5106 N   0  0  0  0  0  0  0  0  0  0  0  0
    0.8124   -3.9290   -0.3698 C   0  0  2  0  0  0  0  0  0  0  0  0
    1.0666   -2.4424   -0.5818 C   0  0  0  0  0  0  0  0  0  0  0  0
    2.0598   -2.0076   -1.1610 O   0  0  0  0  0  0  0  0  0  0  0  0
    1.4560   -4.4118    0.9207 C   0  0  0  0  0  0  0  0  0  0  0  0
    2.1528   -4.2578   -1.9805 H   0  0  0  0  0  0  0  0  0  0  0  0
   -0.2667   -4.1160   -0.3467 H   0  0  0  0  0  0  0  0  0  0  0  0
    2.5374   -4.2329    0.9160 H   0  0  0  0  0  0  0  0  0  0  0  0
    1.0390   -3.8932    1.7903 H   0  0  0  0  0  0  0  0  0  0  0  0
    1.2976   -5.4871    1.0566 H   0  0  0  0  0  0  0  0  0  0  0  0
    0.0755   -1.6529   -0.0105 N   0  0  0  0  0  0  0  0  0  0  0  0
    0.1113   -0.2132   -0.0391 C   0  0  2  0  0  0  0  0  0  0  0  0
   -1.2807    0.2873    0.3313 C   0  0  0  0  0  0  0  0  0  0  0  0
   -2.0531    0.7826   -0.4869 O   0  0  0  0  0  0  0  0  0  0  0  0
    0.5261    0.3253   -1.4122 C   0  0  0  0  0  0  0  0  0  0  0  0
    1.9818   -0.0118   -1.7565 C   0  0  0  0  0  0  0  0  0  0  0  0
    2.3892    0.5266   -3.1241 C   0  0  0  0  0  0  0  0  0  0  0  0
    3.7695    0.1833   -3.4584 N   0  3  0  0  0  0  0  0  0  0  0  0
    4.3460    0.5154   -4.6858 C   0  0  0  0  0  0  0  0  0  0  0  0
    5.6662    0.1562   -4.9354 N   0  0  0  0  0  0  0  0  0  0  0  0
    3.6320    1.1977   -5.6655 N   0  0  0  0  0  0  0  0  0  0  0  0
   -0.7323   -2.1024    0.4149 H   0  0  0  0  0  0  0  0  0  0  0  0
    0.8219    0.1022    0.7334 H   0  0  0  0  0  0  0  0  0  0  0  0
    0.3911    1.4134   -1.4336 H   0  0  0  0  0  0  0  0  0  0  0  0
   -0.1355   -0.0840   -2.1871 H   0  0  0  0  0  0  0  0  0  0  0  0
    2.6463    0.4006   -0.9877 H   0  0  0  0  0  0  0  0  0  0  0  0
    2.1172   -1.0995   -1.7577 H   0  0  0  0  0  0  0  0  0  0  0  0
    1.7495    0.0898   -3.8971 H   0  0  0  0  0  0  0  0  0  0  0  0
    2.2914    1.6159   -3.1604 H   0  0  0  0  0  0  0  0  0  0  0  0
    4.3421   -0.3165   -2.7804 H   0  0  0  0  0  0  0  0  0  0  0  0
    6.1160    0.3833   -5.8192 H   0  0  0  0  0  0  0  0  0  0  0  0
    6.2168   -0.3433   -4.2413 H   0  0  0  0  0  0  0  0  0  0  0  0
    4.0471    1.4420   -6.5609 H   0  0  0  0  0  0  0  0  0  0  0  0
    2.6649    1.4729   -5.5111 H   0  0  0  0  0  0  0  0  0  0  0  0
   -1.5373    0.1602    1.6893 N   0  0  0  0  0  0  0  0  0  0  0  0
   -2.7673    0.6062    2.3022 C   0  0  2  0  0  0  0  0  0  0  0  0
   -2.4468    1.0691    3.7173 C   0  0  0  0  0  0  0  0  0  0  0  0
   -1.5796    0.5460    4.4139 O   0  0  0  0  0  0  0  0  0  0  0  0
   -3.8115   -0.4994    2.3154 C   0  0  0  0  0  0  0  0  0  0  0  0
   -0.8510   -0.2923    2.2859 H   0  0  0  0  0  0  0  0  0  0  0  0
   -3.1250    1.4564    1.7113 H   0  0  0  0  0  0  0  0  0  0  0  0
   -3.4710   -1.3599    2.9027 H   0  0  0  0  0  0  0  0  0  0  0  0
   -4.7524   -0.1513    2.7543 H   0  0  0  0  0  0  0  0  0  0  0  0
   -4.0190   -0.8517    1.2992 H   0  0  0  0  0  0  0  0  0  0  0  0
   -3.2725    2.1069    4.1265 N   0  0  0  0  0  0  0  0  0  0  0  0
   -3.1945    2.6918    5.4447 C   0  0  0  0  0  0  0  0  0  0  0  0
   -3.9368    2.5056    3.4696 H   0  0  0  0  0  0  0  0  0  0  0  0
   -3.9017    2.1817    6.1152 H   0  0  0  0  0  0  0  0  0  0  0  0
   -2.1725    2.5793    5.8357 H   0  0  0  0  0  0  0  0  0  0  0  0
   -3.4496    3.7603    5.3872 H   0  0  0  0  0  0  0  0  0  0  0  0
  1  3  1  0  0  0  0
  1  7  1  0  0  0  0
  1  2  2  0  0  0  0
 42 43  1  0  0  0  0
 43 51  1  0  0  0  0
 43 44  2  0  0  0  0
  8  9  1  0  0  0  0
  9 17  1  0  0  0  0
  9 10  2  0  0  0  0
 18 19  1  0  0  0  0
 19 41  1  0  0  0  0
 19 20  2  0  0  0  0
 25 26  1  0  0  0  0
 25 27  1  0  0  0  0
 24 25  2  0  0  0  0
 42 45  1  0  0  0  0
  8 11  1  0  0  0  0
 51 52  1  0  0  0  0
 21 22  1  0  0  0  0
 22 23  1  0  0  0  0
 18 21  1  0  0  0  0
 23 24  1  0  0  0  0
 41 42  1  0  0  0  0
  7  8  1  0  0  0  0
 17 18  1  0  0  0  0
  3  4  1  0  0  0  0
  3  5  1  0  0  0  0
  3  6  1  0  0  0  0
 45 48  1  0  0  0  0
 45 49  1  0  0  0  0
 45 50  1  0  0  0  0
 11 14  1  0  0  0  0
 11 15  1  0  0  0  0
 11 16  1  0  0  0  0
 52 54  1  0  0  0  0
 52 55  1  0  0  0  0
 52 56  1  0  0  0  0
 22 32  1  0  0  0  0
 22 33  1  0  0  0  0
 21 30  1  0  0  0  0
 21 31  1  0  0  0  0
 23 34  1  0  0  0  0
 23 35  1  0  0  0  0
 42 47  1  0  0  0  0
  8 13  1  0  0  0  0
 18 29  1  0  0  0  0
 26 37  1  0  0  0  0
 26 38  1  0  0  0  0
 27 39  1  0  0  0  0
 27 40  1  0  0  0  0
 51 53  1  0  0  0  0
  7 12  1  0  0  0  0
 41 46  1  0  0  0  0
 17 28  1  0  0  0  0
 24 36  1  0  0  0  0
M  CHG  1  24   1
M  END
$$$$

  -OEChem-05262214473D

 56 55  0     1  0  0  0  0  0999 V2000
    0.7735   -5.8042   -2.0022 C   0  0  0  0  0  0  0  0  0  0  0  0
   -0.2086   -6.3825   -1.5519 O   0  0  0  0  0  0  0  0  0  0  0  0
    1.4751   -6.3646   -3.1946 C   0  0  0  0  0  0  0  0  0  0  0  0
    2.2765   -7.0687   -2.9186 H   0  0  0  0  0  0  0  0  0  0  0  0
    0.7988   -6.9360   -3.8504 H   0  0  0  0  0  0  0  0  0  0  0  0
    1.9556   -5.6216   -3.8511 H   0  0  0  0  0  0  0  0  0  0  0  0
    1.3322   -4.6359   -1.5106 N   0  0  0  0  0  0  0  0  0  0  0  0
    0.8124   -3.9290   -0.3698 C   0  0  2  0  0  0  0  0  0  0  0  0
    1.0666   -2.4424   -0.5818 C   0  0  0  0  0  0  0  0  0  0  0  0
    2.0598   -2.0076   -1.1610 O   0  0  0  0  0  0  0  0  0  0  0  0
    1.4560   -4.4118    0.9207 C   0  0  0  0  0  0  0  0  0  0  0  0
    2.1528   -4.2578   -1.9805 H   0  0  0  0  0  0  0  0  0  0  0  0
   -0.2667   -4.1160   -0.3467 H   0  0  0  0  0  0  0  0  0  0  0  0
    2.5374   -4.2329    0.9160 H   0  0  0  0  0  0  0  0  0  0  0  0
    1.0390   -3.8932    1.7903 H   0  0  0  0  0  0  0  0  0  0  0  0
    1.2976   -5.4871    1.0566 H   0  0  0  0  0  0  0  0  0  0  0  0
    0.0755   -1.6529   -0.0105 N   0  0  0  0  0  0  0  0  0  0  0  0
    0.1113   -0.2132   -0.0391 C   0  0  2  0  0  0  0  0  0  0  0  0
   -1.2807    0.2873    0.3313 C   0  0  0  0  0  0  0  0  0  0  0  0
   -2.1482    0.5314   -0.5048 O   0  0  0  0  0  0  0  0  0  0  0  0
    0.5261    0.3253   -1.4122 C   0  0  0  0  0  0  0  0  0  0  0  0
    1.9818   -0.0118   -1.7565 C   0  0  0  0  0  0  0  0  0  0  0  0
    2.3892    0.5266   -3.1241 C   0  0  0  0  0  0  0  0  0  0  0  0
    3.7695    0.1833   -3.4584 N   0  3  0  0  0  0  0  0  0  0  0  0
    4.3460    0.5154   -4.6858 C   0  0  0  0  0  0  0  0  0  0  0  0
    5.6662    0.1562   -4.9354 N   0  0  0  0  0  0  0  0  0  0  0  0
    3.6320    1.1977   -5.6655 N   0  0  0  0  0  0  0  0  0  0  0  0
   -0.7323   -2.1024    0.4149 H   0  0  0  0  0  0  0  0  0  0  0  0
    0.8219    0.1022    0.7334 H   0  0  0  0  0  0  0  0  0  0  0  0
    0.3911    1.4134   -1.4336 H   0  0  0  0  0  0  0  0  0  0  0  0
   -0.1355   -0.0840   -2.1871 H   0  0  0  0  0  0  0  0  0  0  0  0
    2.6463    0.4006   -0.9877 H   0  0  0  0  0  0  0  0  0  0  0  0
    2.1172   -1.0995   -1.7577 H   0  0  0  0  0  0  0  0  0  0  0  0
    1.7495    0.0898   -3.8971 H   0  0  0  0  0  0  0  0  0  0  0  0
    2.2914    1.6159   -3.1604 H   0  0  0  0  0  0  0  0  0  0  0  0
    4.3421   -0.3165   -2.7804 H   0  0  0  0  0  0  0  0  0  0  0  0
    6.1160    0.3833   -5.8192 H   0  0  0  0  0  0  0  0  0  0  0  0
    6.2168   -0.3433   -4.2413 H   0  0  0  0  0  0  0  0  0  0  0  0
    4.0471    1.4420   -6.5609 H   0  0  0  0  0  0  0  0  0  0  0  0
    2.6649    1.4729   -5.5111 H   0  0  0  0  0  0  0  0  0  0  0  0
   -1.4215    0.4751    1.6992 N   0  0  0  0  0  0  0  0  0  0  0  0
   -2.6297    0.9892    2.3021 C   0  0  2  0  0  0  0  0  0  0  0  0
   -2.2353    1.7931    3.5340 C   0  0  0  0  0  0  0  0  0  0  0  0
   -1.2808    1.4981    4.2502 O   0  0  0  0  0  0  0  0  0  0  0  0
   -3.5861   -0.1346    2.6696 C   0  0  0  0  0  0  0  0  0  0  0  0
   -0.6598    0.2151    2.3189 H   0  0  0  0  0  0  0  0  0  0  0  0
   -3.0931    1.6536    1.5647 H   0  0  0  0  0  0  0  0  0  0  0  0
   -3.1391   -0.8107    3.4076 H   0  0  0  0  0  0  0  0  0  0  0  0
   -4.5131    0.2583    3.1001 H   0  0  0  0  0  0  0  0  0  0  0  0
   -3.8453   -0.7299    1.7875 H   0  0  0  0  0  0  0  0  0  0  0  0
   -3.1004    2.8536    3.7641 N   0  0  0  0  0  0  0  0  0  0  0  0
   -2.9636    3.7399    4.8962 C   0  0  0  0  0  0  0  0  0  0  0  0
   -3.8409    3.0483    3.0966 H   0  0  0  0  0  0  0  0  0  0  0  0
   -3.5776    3.3683    5.7298 H   0  0  0  0  0  0  0  0  0  0  0  0
   -1.9089    3.7781    5.2064 H   0  0  0  0  0  0  0  0  0  0  0  0
   -3.2997    4.7488    4.6147 H   0  0  0  0  0  0  0  0  0  0  0  0
  1  3  1  0  0  0  0
  1  7  1  0  0  0  0
  1  2  2  0  0  0  0
 42 43  1  0  0  0  0
 43 51  1  0  0  0  0
 43 44  2  0  0  0  0
  8  9  1  0  0  0  0
  9 17  1  0  0  0  0
  9 10  2  0  0  0  0
 18 19  1  0  0  0  0
 19 41  1  0  0  0  0
 19 20  2  0  0  0  0
 25 26  1  0  0  0  0
 25 27  1  0  0  0  0
 24 25  2  0  0  0  0
 42 45  1  0  0  0  0
  8 11  1  0  0  0  0
 51 52  1  0  0  0  0
 21 22  1  0  0  0  0
 22 23  1  0  0  0  0
 18 21  1  0  0  0  0
 23 24  1  0  0  0  0
 41 42  1  0  0  0  0
  7  8  1  0  0  0  0
 17 18  1  0  0  0  0
  3  4  1  0  0  0  0
  3  5  1  0  0  0  0
  3  6  1  0  0  0  0
 45 48  1  0  0  0  0
 45 49  1  0  0  0  0
 45 50  1  0  0  0  0
 11 14  1  0  0  0  0
 11 15  1  0  0  0  0
 11 16  1  0  0  0  0
 52 54  1  0  0  0  0
 52 55  1  0  0  0  0
 52 56  1  0  0  0  0
 22 32  1  0  0  0  0
 22 33  1  0  0  0  0
 21 30  1  0  0  0  0
 21 31  1  0  0  0  0
 23 34  1  0  0  0  0
 23 35  1  0  0  0  0
 42 47  1  0  0  0  0
  8 13  1  0  0  0  0
 18 29  1  0  0  0  0
 26 37  1  0  0  0  0
 26 38  1  0  0  0  0
 27 39  1  0  0  0  0
 27 40  1  0  0  0  0
 51 53  1  0  0  0  0
  7 12  1  0  0  0  0
 41 46  1  0  0  0  0
 17 28  1  0  0  0  0
 24 36  1  0  0  0  0
M  CHG  1  24   1
M  END
$$$$

  -OEChem-05262214473D

 56 55  0     1  0  0  0  0  0999 V2000
    0.7735   -5.8042   -2.0022 C   0  0  0  0  0  0  0  0  0  0  0  0
   -0.2086   -6.3825   -1.5519 O   0  0  0  0  0  0  0  0  0  0  0  0
    1.4751   -6.3646   -3.1946 C   0  0  0  0  0  0  0  0  0  0  0  0
    2.2765   -7.0687   -2.9186 H   0  0  0  0  0  0  0  0  0  0  0  0
    0.7988   -6.9360   -3.8504 H   0  0  0  0  0  0  0  0  0  0  0  0
    1.9556   -5.6216   -3.8511 H   0  0  0  0  0  0  0  0  0  0  0  0
    1.3322   -4.6359   -1.5106 N   0  0  0  0  0  0  0  0  0  0  0  0
    0.8124   -3.9290   -0.3698 C   0  0  2  0  0  0  0  0  0  0  0  0
    1.0666   -2.4424   -0.5818 C   0  0  0  0  0  0  0  0  0  0  0  0
    2.0598   -2.0076   -1.1610 O   0  0  0  0  0  0  0  0  0  0  0  0
    1.4560   -4.4118    0.9207 C   0  0  0  0  0  0  0  0  0  0  0  0
    2.1528   -4.2578   -1.9805 H   0  0  0  0  0  0  0  0  0  0  0  0
   -0.2667   -4.1160   -0.3467 H   0  0  0  0  0  0  0  0  0  0  0  0
    2.5374   -4.2329    0.9160 H   0  0  0  0  0  0  0  0  0  0  0  0
    1.0390   -3.8932    1.7903 H   0  0  0  0  0  0  0  0  0  0  0  0
    1.2976   -5.4871    1.0566 H   0  0  0  0  0  0  0  0  0  0  0  0
    0.0755   -1.6529   -0.0105 N   0  0  0  0  0  0  0  0  0  0  0  0
    0.1113   -0.2132   -0.0391 C   0  0  2  0  0  0  0  0  0  0  0  0
   -1.2807    0.2873    0.3313 C   0  0  0  0  0  0  0  0  0  0  0  0
   -2.2258    0.2784   -0.4548 O   0  0  0  0  0  0  0  0  0  0  0  0
    0.5261    0.3253   -1.4122 C   0  0  0  0  0  0  0  0  0  0  0  0
    1.9818   -0.0118   -1.7565 C   0  0  0  0  0  0  0  0  0  0  0  0
    2.3892    0.5266   -3.1241 C   0  0  0  0  0  0  0  0  0  0  0  0
    3.7695    0.1833   -3.4584 N   0  3  0  0  0  0  0  0  0  0  0  0
    4.3460    0.5154   -4.6858 C   0  0  0  0  0  0  0  0  0  0  0  0
    5.6662    0.1562   -4.9354 N   0  0  0  0  0  0  0  0  0  0  0  0
    3.6320    1.1977   -5.6655 N   0  0  0  0  0  0  0  0  0  0  0  0
   -0.7323   -2.1024    0.4149 H   0  0  0  0  0  0  0  0  0  0  0  0
    0.8219    0.1022    0.7334 H   0  0  0  0  0  0  0  0  0  0  0  0
    0.3911    1.4134   -1.4336 H   0  0  0  0  0  0  0  0  0  0  0  0
   -0.1355   -0.0840   -2.1871 H   0  0  0  0  0  0  0  0  0  0  0  0
    2.6463    0.4006   -0.9877 H   0  0  0  0  0  0  0  0  0  0  0  0
    2.1172   -1.0995   -1.7577 H   0  0  0  0  0  0  0  0  0  0  0  0
    1.7495    0.0898   -3.8971 H   0  0  0  0  0  0  0  0  0  0  0  0
    2.2914    1.6159   -3.1604 H   0  0  0  0  0  0  0  0  0  0  0  0
    4.3421   -0.3165   -2.7804 H   0  0  0  0  0  0  0  0  0  0  0  0
    6.1160    0.3833   -5.8192 H   0  0  0  0  0  0  0  0  0  0  0  0
    6.2168   -0.3433   -4.2413 H   0  0  0  0  0  0  0  0  0  0  0  0
    4.0471    1.4420   -6.5609 H   0  0  0  0  0  0  0  0  0  0  0  0
    2.6649    1.4729   -5.5111 H   0  0  0  0  0  0  0  0  0  0  0  0
   -1.3285    0.7889    1.6245 N   0  0  0  0  0  0  0  0  0  0  0  0
   -2.5207    1.3678    2.1998 C   0  0  2  0  0  0  0  0  0  0  0  0
   -2.0920    2.4624    3.1680 C   0  0  0  0  0  0  0  0  0  0  0  0
   -1.0659    2.3978    3.8418 O   0  0  0  0  0  0  0  0  0  0  0  0
   -3.3612    0.3157    2.9064 C   0  0  0  0  0  0  0  0  0  0  0  0
   -0.5042    0.7250    2.2146 H   0  0  0  0  0  0  0  0  0  0  0  0
   -3.0872    1.8114    1.3737 H   0  0  0  0  0  0  0  0  0  0  0  0
   -2.8102   -0.1400    3.7373 H   0  0  0  0  0  0  0  0  0  0  0  0
   -4.2783    0.7506    3.3172 H   0  0  0  0  0  0  0  0  0  0  0  0
   -3.6437   -0.4861    2.2156 H   0  0  0  0  0  0  0  0  0  0  0  0
   -3.0119    3.5001    3.2230 N   0  0  0  0  0  0  0  0  0  0  0  0
   -2.8530    4.6372    4.0992 C   0  0  0  0  0  0  0  0  0  0  0  0
   -3.8141    3.4903    2.6000 H   0  0  0  0  0  0  0  0  0  0  0  0
   -3.3719    4.4438    5.0496 H   0  0  0  0  0  0  0  0  0  0  0  0
   -1.7831    4.8039    4.2930 H   0  0  0  0  0  0  0  0  0  0  0  0
   -3.2828    5.5304    3.6222 H   0  0  0  0  0  0  0  0  0  0  0  0
  1  3  1  0  0  0  0
  1  7  1  0  0  0  0
  1  2  2  0  0  0  0
 42 43  1  0  0  0  0
 43 51  1  0  0  0  0
 43 44  2  0  0  0  0
  8  9  1  0  0  0  0
  9 17  1  0  0  0  0
  9 10  2  0  0  0  0
 18 19  1  0  0  0  0
 19 41  1  0  0  0  0
 19 20  2  0  0  0  0
 25 26  1  0  0  0  0
 25 27  1  0  0  0  0
 24 25  2  0  0  0  0
 42 45  1  0  0  0  0
  8 11  1  0  0  0  0
 51 52  1  0  0  0  0
 21 22  1  0  0  0  0
 22 23  1  0  0  0  0
 18 21  1  0  0  0  0
 23 24  1  0  0  0  0
 41 42  1  0  0  0  0
  7  8  1  0  0  0  0
 17 18  1  0  0  0  0
  3  4  1  0  0  0  0
  3  5  1  0  0  0  0
  3  6  1  0  0  0  0
 45 48  1  0  0  0  0
 45 49  1  0  0  0  0
 45 50  1  0  0  0  0
 11 14  1  0  0  0  0
 11 15  1  0  0  0  0
 11 16  1  0  0  0  0
 52 54  1  0  0  0  0
 52 55  1  0  0  0  0
 52 56  1  0  0  0  0
 22 32  1  0  0  0  0
 22 33  1  0  0  0  0
 21 30  1  0  0  0  0
 21 31  1  0  0  0  0
 23 34  1  0  0  0  0
 23 35  1  0  0  0  0
 42 47  1  0  0  0  0
  8 13  1  0  0  0  0
 18 29  1  0  0  0  0
 26 37  1  0  0  0  0
 26 38  1  0  0  0  0
 27 39  1  0  0  0  0
 27 40  1  0  0  0  0
 51 53  1  0  0  0  0
  7 12  1  0  0  0  0
 41 46  1  0  0  0  0
 17 28  1  0  0  0  0
 24 36  1  0  0  0  0
M  CHG  1  24   1
M  END
$$$$

  -OEChem-05262214473D

 56 55  0     1  0  0  0  0  0999 V2000
    0.7735   -5.8042   -2.0022 C   0  0  0  0  0  0  0  0  0  0  0  0
   -0.2086   -6.3825   -1.5519 O   0  0  0  0  0  0  0  0  0  0  0  0
    1.4751   -6.3646   -3.1946 C   0  0  0  0  0  0  0  0  0  0  0  0
    2.2765   -7.0687   -2.9186 H   0  0  0  0  0  0  0  0  0  0  0  0
    0.7988   -6.9360   -3.8504 H   0  0  0  0  0  0  0  0  0  0  0  0
    1.9556   -5.6216   -3.8511 H   0  0  0  0  0  0  0  0  0  0  0  0
    1.3322   -4.6359   -1.5106 N   0  0  0  0  0  0  0  0  0  0  0  0
    0.8124   -3.9290   -0.3698 C   0  0  2  0  0  0  0  0  0  0  0  0
    1.0666   -2.4424   -0.5818 C   0  0  0  0  0  0  0  0  0  0  0  0
    2.0598   -2.0076   -1.1610 O   0  0  0  0  0  0  0  0  0  0  0  0
    1.4560   -4.4118    0.9207 C   0  0  0  0  0  0  0  0  0  0  0  0
    2.1528   -4.2578   -1.9805 H   0  0  0  0  0  0  0  0  0  0  0  0
   -0.2667   -4.1160   -0.3467 H   0  0  0  0  0  0  0  0  0  0  0  0
    2.5374   -4.2329    0.9160 H   0  0  0  0  0  0  0  0  0  0  0  0
    1.0390   -3.8932    1.7903 H   0  0  0  0  0  0  0  0  0  0  0  0
    1.2976   -5.4871    1.0566 H   0  0  0  0  0  0  0  0  0  0  0  0
    0.0755   -1.6529   -0.0105 N   0  0  0  0  0  0  0  0  0  0  0  0
    0.1113   -0.2132   -0.0391 C   0  0  2  0  0  0  0  0  0  0  0  0
   -1.2807    0.2873    0.3313 C   0  0  0  0  0  0  0  0  0  0  0  0
   -2.2806    0.0411   -0.3401 O   0  0  0  0  0  0  0  0  0  0  0  0
    0.5261    0.3253   -1.4122 C   0  0  0  0  0  0  0  0  0  0  0  0
    1.9818   -0.0118   -1.7565 C   0  0  0  0  0  0  0  0  0  0  0  0
    2.3892    0.5266   -3.1241 C   0  0  0  0  0  0  0  0  0  0  0  0
    3.7695    0.1833   -3.4584 N   0  3  0  0  0  0  0  0  0  0  0  0
    4.3460    0.5154   -4.6858 C   0  0  0  0  0  0  0  0  0  0  0  0
    5.6662    0.1562   -4.9354 N   0  0  0  0  0  0  0  0  0  0  0  0
    3.6320    1.1977   -5.6655 N   0  0  0  0  0  0  0  0  0  0  0  0
   -0.7323   -2.1024    0.4149 H   0  0  0  0  0  0  0  0  0  0  0  0
    0.8219    0.1022    0.7334 H   0  0  0  0  0  0  0  0  0  0  0  0
    0.3911    1.4134   -1.4336 H   0  0  0  0  0  0  0  0  0  0  0  0
   -0.1355   -0.0840   -2.1871 H   0  0  0  0  0  0  0  0  0  0  0  0
    2.6463    0.4006   -0.9877 H   0  0  0  0  0  0  0  0  0  0  0  0
    2.1172   -1.0995   -1.7577 H   0  0  0  0  0  0  0  0  0  0  0  0
    1.7495    0.0898   -3.8971 H   0  0  0  0  0  0  0  0  0  0  0  0
    2.2914    1.6159   -3.1604 H   0  0  0  0  0  0  0  0  0  0  0  0
    4.3421   -0.3165   -2.7804 H   0  0  0  0  0  0  0  0  0  0  0  0
    6.1160    0.3833   -5.8192 H   0  0  0  0  0  0  0  0  0  0  0  0
    6.2168   -0.3433   -4.2413 H   0  0  0  0  0  0  0  0  0  0  0  0
    4.0471    1.4420   -6.5609 H   0  0  0  0  0  0  0  0  0  0  0  0
    2.6649    1.4729   -5.5111 H   0  0  0  0  0  0  0  0  0  0  0  0
   -1.2648    1.0802    1.4703 N   0  0  0  0  0  0  0  0  0  0  0  0
   -2.4480    1.7161    2.0022 C   0  0  2  0  0  0  0  0  0  0  0  0
   -2.0268    3.0315    2.6441 C   0  0  0  0  0  0  0  0  0  0  0  0
   -0.9497    3.1839    3.2165 O   0  0  0  0  0  0  0  0  0  0  0  0
   -3.1521    0.8206    3.0097 C   0  0  0  0  0  0  0  0  0  0  0  0
   -0.3948    1.2026    1.9801 H   0  0  0  0  0  0  0  0  0  0  0  0
   -3.1076    1.9190    1.1515 H   0  0  0  0  0  0  0  0  0  0  0  0
   -2.5067    0.6064    3.8694 H   0  0  0  0  0  0  0  0  0  0  0  0
   -4.0640    1.2922    3.3905 H   0  0  0  0  0  0  0  0  0  0  0  0
   -3.4279   -0.1367    2.5544 H   0  0  0  0  0  0  0  0  0  0  0  0
   -3.0131    4.0023    2.5401 N   0  0  0  0  0  0  0  0  0  0  0  0
   -2.8703    5.3226    3.1079 C   0  0  0  0  0  0  0  0  0  0  0  0
   -3.8582    3.8017    2.0136 H   0  0  0  0  0  0  0  0  0  0  0  0
   -3.2986    5.3349    4.1211 H   0  0  0  0  0  0  0  0  0  0  0  0
   -1.8037    5.5869    3.1576 H   0  0  0  0  0  0  0  0  0  0  0  0
   -3.3998    6.0520    2.4774 H   0  0  0  0  0  0  0  0  0  0  0  0
  1  3  1  0  0  0  0
  1  7  1  0  0  0  0
  1  2  2  0  0  0  0
 42 43  1  0  0  0  0
 43 51  1  0  0  0  0
 43 44  2  0  0  0  0
  8  9  1  0  0  0  0
  9 17  1  0  0  0  0
  9 10  2  0  0  0  0
 18 19  1  0  0  0  0
 19 41  1  0  0  0  0
 19 20  2  0  0  0  0
 25 26  1  0  0  0  0
 25 27  1  0  0  0  0
 24 25  2  0  0  0  0
 42 45  1  0  0  0  0
  8 11  1  0  0  0  0
 51 52  1  0  0  0  0
 21 22  1  0  0  0  0
 22 23  1  0  0  0  0
 18 21  1  0  0  0  0
 23 24  1  0  0  0  0
 41 42  1  0  0  0  0
  7  8  1  0  0  0  0
 17 18  1  0  0  0  0
  3  4  1  0  0  0  0
  3  5  1  0  0  0  0
  3  6  1  0  0  0  0
 45 48  1  0  0  0  0
 45 49  1  0  0  0  0
 45 50  1  0  0  0  0
 11 14  1  0  0  0  0
 11 15  1  0  0  0  0
 11 16  1  0  0  0  0
 52 54  1  0  0  0  0
 52 55  1  0  0  0  0
 52 56  1  0  0  0  0
 22 32  1  0  0  0  0
 22 33  1  0  0  0  0
 21 30  1  0  0  0  0
 21 31  1  0  0  0  0
 23 34  1  0  0  0  0
 23 35  1  0  0  0  0
 42 47  1  0  0  0  0
  8 13  1  0  0  0  0
 18 29  1  0  0  0  0
 26 37  1  0  0  0  0
 26 38  1  0  0  0  0
 27 39  1  0  0  0  0
 27 40  1  0  0  0  0
 51 53  1  0  0  0  0
  7 12  1  0  0  0  0
 41 46  1  0  0  0  0
 17 28  1  0  0  0  0
 24 36  1  0  0  0  0
M  CHG  1  24   1
M  END
$$$$

  -OEChem-05262214473D

 56 55  0     1  0  0  0  0  0999 V2000
    0.7735   -5.8042   -2.0022 C   0  0  0  0  0  0  0  0  0  0  0  0
   -0.2086   -6.3825   -1.5519 O   0  0  0  0  0  0  0  0  0  0  0  0
    1.4751   -6.3646   -3.1946 C   0  0  0  0  0  0  0  0  0  0  0  0
    2.2765   -7.0687   -2.9186 H   0  0  0  0  0  0  0  0  0  0  0  0
    0.7988   -6.9360   -3.8504 H   0  0  0  0  0  0  0  0  0  0  0  0
    1.9556   -5.6216   -3.8511 H   0  0  0  0  0  0  0  0  0  0  0  0
    1.3322   -4.6359   -1.5106 N   0  0  0  0  0  0  0  0  0  0  0  0
    0.8124   -3.9290   -0.3698 C   0  0  2  0  0  0  0  0  0  0  0  0
    1.0666   -2.4424   -0.5818 C   0  0  0  0  0  0  0  0  0  0  0  0
    2.0598   -2.0076   -1.1610 O   0  0  0  0  0  0  0  0  0  0  0  0
    1.4560   -4.4118    0.9207 C   0  0  0  0  0  0  0  0  0  0  0  0
    2.1528   -4.2578   -1.9805 H   0  0  0  0  0  0  0  0  0  0  0  0
   -0.2667   -4.1160   -0.3467 H   0  0  0  0  0  0  0  0  0  0  0  0
    2.5374   -4.2329    0.9160 H   0  0  0  0  0  0  0  0  0  0  0  0
    1.0390   -3.8932    1.7903 H   0  0  0  0  0  0  0  0  0  0  0  0
    1.2976   -5.4871    1.0566 H   0  0  0  0  0  0  0  0  0  0  0  0
    0.0755   -1.6529   -0.0105 N   0  0  0  0  0  0  0  0  0  0  0  0
    0.1113   -0.2132   -0.0391 C   0  0  2  0  0  0  0  0  0  0  0  0
   -1.2807    0.2873    0.3313 C   0  0  0  0  0  0  0  0  0  0  0  0
   -2.3089   -0.1645   -0.1685 O   0  0  0  0  0  0  0  0  0  0  0  0
    0.5261    0.3253   -1.4122 C   0  0  0  0  0  0  0  0  0  0  0  0
    1.9818   -0.0118   -1.7565 C   0  0  0  0  0  0  0  0  0  0  0  0
    2.3892    0.5266   -3.1241 C   0  0  0  0  0  0  0  0  0  0  0  0
    3.7695    0.1833   -3.4584 N   0  3  0  0  0  0  0  0  0  0  0  0
    4.3460    0.5154   -4.6858 C   0  0  0  0  0  0  0  0  0  0  0  0
    5.6662    0.1562   -4.9354 N   0  0  0  0  0  0  0  0  0  0  0  0
    3.6320    1.1977   -5.6655 N   0  0  0  0  0  0  0  0  0  0  0  0
   -0.7323   -2.1024    0.4149 H   0  0  0  0  0  0  0  0  0  0  0  0
    0.8219    0.1022    0.7334 H   0  0  0  0  0  0  0  0  0  0  0  0
    0.3911    1.4134   -1.4336 H   0  0  0  0  0  0  0  0  0  0  0  0
   -0.1355   -0.0840   -2.1871 H   0  0  0  0  0  0  0  0  0  0  0  0
    2.6463    0.4006   -0.9877 H   0  0  0  0  0  0  0  0  0  0  0  0
    2.1172   -1.0995   -1.7577 H   0  0  0  0  0  0  0  0  0  0  0  0
    1.7495    0.0898   -3.8971 H   0  0  0  0  0  0  0  0  0  0  0  0
    2.2914    1.6159   -3.1604 H   0  0  0  0  0  0  0  0  0  0  0  0
    4.3421   -0.3165   -2.7804 H   0  0  0  0  0  0  0  0  0  0  0  0
    6.1160    0.3833   -5.8192 H   0  0  0  0  0  0  0  0  0  0  0  0
    6.2168   -0.3433   -4.2413 H   0  0  0  0  0  0  0  0  0  0  0  0
    4.0471    1.4420   -6.5609 H   0  0  0  0  0  0  0  0  0  0  0  0
    2.6649    1.4729   -5.5111 H   0  0  0  0  0  0  0  0  0  0  0  0
   -1.2347    1.3291    1.2472 N   0  0  0  0  0  0  0  0  0  0  0  0
   -2.4165    2.0105    1.7229 C   0  0  2  0  0  0  0  0  0  0  0  0
   -2.0441    3.4614    1.9981 C   0  0  0  0  0  0  0  0  0  0  0  0
   -0.9399    3.8027    2.4169 O   0  0  0  0  0  0  0  0  0  0  0  0
   -2.9732    1.3459    2.9724 C   0  0  0  0  0  0  0  0  0  0  0  0
   -0.3392    1.6155    1.6315 H   0  0  0  0  0  0  0  0  0  0  0  0
   -3.1530    1.9692    0.9131 H   0  0  0  0  0  0  0  0  0  0  0  0
   -2.2492    1.3776    3.7948 H   0  0  0  0  0  0  0  0  0  0  0  0
   -3.8849    1.8462    3.3152 H   0  0  0  0  0  0  0  0  0  0  0  0
   -3.2126    0.2944    2.7808 H   0  0  0  0  0  0  0  0  0  0  0  0
   -3.1038    4.3260    1.7619 N   0  0  0  0  0  0  0  0  0  0  0  0
   -3.0144    5.7494    1.9900 C   0  0  0  0  0  0  0  0  0  0  0  0
   -3.9702    3.9612    1.3773 H   0  0  0  0  0  0  0  0  0  0  0  0
   -3.3627    5.9808    3.0074 H   0  0  0  0  0  0  0  0  0  0  0  0
   -1.9693    6.0737    1.8777 H   0  0  0  0  0  0  0  0  0  0  0  0
   -3.6430    6.2780    1.2583 H   0  0  0  0  0  0  0  0  0  0  0  0
  1  3  1  0  0  0  0
  1  7  1  0  0  0  0
  1  2  2  0  0  0  0
 42 43  1  0  0  0  0
 43 51  1  0  0  0  0
 43 44  2  0  0  0  0
  8  9  1  0  0  0  0
  9 17  1  0  0  0  0
  9 10  2  0  0  0  0
 18 19  1  0  0  0  0
 19 41  1  0  0  0  0
 19 20  2  0  0  0  0
 25 26  1  0  0  0  0
 25 27  1  0  0  0  0
 24 25  2  0  0  0  0
 42 45  1  0  0  0  0
  8 11  1  0  0  0  0
 51 52  1  0  0  0  0
 21 22  1  0  0  0  0
 22 23  1  0  0  0  0
 18 21  1  0  0  0  0
 23 24  1  0  0  0  0
 41 42  1  0  0  0  0
  7  8  1  0  0  0  0
 17 18  1  0  0  0  0
  3  4  1  0  0  0  0
  3  5  1  0  0  0  0
  3  6  1  0  0  0  0
 45 48  1  0  0  0  0
 45 49  1  0  0  0  0
 45 50  1  0  0  0  0
 11 14  1  0  0  0  0
 11 15  1  0  0  0  0
 11 16  1  0  0  0  0
 52 54  1  0  0  0  0
 52 55  1  0  0  0  0
 52 56  1  0  0  0  0
 22 32  1  0  0  0  0
 22 33  1  0  0  0  0
 21 30  1  0  0  0  0
 21 31  1  0  0  0  0
 23 34  1  0  0  0  0
 23 35  1  0  0  0  0
 42 47  1  0  0  0  0
  8 13  1  0  0  0  0
 18 29  1  0  0  0  0
 26 37  1  0  0  0  0
 26 38  1  0  0  0  0
 27 39  1  0  0  0  0
 27 40  1  0  0  0  0
 51 53  1  0  0  0  0
  7 12  1  0  0  0  0
 41 46  1  0  0  0  0
 17 28  1  0  0  0  0
 24 36  1  0  0  0  0
M  CHG  1  24   1
M  END
$$$$

  -OEChem-05262214473D

 56 55  0     1  0  0  0  0  0999 V2000
    0.7735   -5.8042   -2.0022 C   0  0  0  0  0  0  0  0  0  0  0  0
   -0.2086   -6.3825   -1.5519 O   0  0  0  0  0  0  0  0  0  0  0  0
    1.4751   -6.3646   -3.1946 C   0  0  0  0  0  0  0  0  0  0  0  0
    2.2765   -7.0687   -2.9186 H   0  0  0  0  0  0  0  0  0  0  0  0
    0.7988   -6.9360   -3.8504 H   0  0  0  0  0  0  0  0  0  0  0  0
    1.9556   -5.6216   -3.8511 H   0  0  0  0  0  0  0  0  0  0  0  0
    1.3322   -4.6359   -1.5106 N   0  0  0  0  0  0  0  0  0  0  0  0
    0.8124   -3.9290   -0.3698 C   0  0  2  0  0  0  0  0  0  0  0  0
    1.0666   -2.4424   -0.5818 C   0  0  0  0  0  0  0  0  0  0  0  0
    2.0598   -2.0076   -1.1610 O   0  0  0  0  0  0  0  0  0  0  0  0
    1.4560   -4.4118    0.9207 C   0  0  0  0  0  0  0  0  0  0  0  0
    2.1528   -4.2578   -1.9805 H   0  0  0  0  0  0  0  0  0  0  0  0
   -0.2667   -4.1160   -0.3467 H   0  0  0  0  0  0  0  0  0  0  0  0
    2.5374   -4.2329    0.9160 H   0  0  0  0  0  0  0  0  0  0  0  0
    1.0390   -3.8932    1.7903 H   0  0  0  0  0  0  0  0  0  0  0  0
    1.2976   -5.4871    1.0566 H   0  0  0  0  0  0  0  0  0  0  0  0
    0.0755   -1.6529   -0.0105 N   0  0  0  0  0  0  0  0  0  0  0  0
    0.1113   -0.2132   -0.0391 C   0  0  2  0  0  0  0  0  0  0  0  0
   -1.2807    0.2873    0.3313 C   0  0  0  0  0  0  0  0  0  0  0  0
   -2.3087   -0.3244    0.0481 O   0  0  0  0  0  0  0  0  0  0  0  0
    0.5261    0.3253   -1.4122 C   0  0  0  0  0  0  0  0  0  0  0  0
    1.9818   -0.0118   -1.7565 C   0  0  0  0  0  0  0  0  0  0  0  0
    2.3892    0.5266   -3.1241 C   0  0  0  0  0  0  0  0  0  0  0  0
    3.7695    0.1833   -3.4584 N   0  3  0  0  0  0  0  0  0  0  0  0
    4.3460    0.5154   -4.6858 C   0  0  0  0  0  0  0  0  0  0  0  0
    5.6662    0.1562   -4.9354 N   0  0  0  0  0  0  0  0  0  0  0  0
    3.6320    1.1977   -5.6655 N   0  0  0  0  0  0  0  0  0  0  0  0
   -0.7323   -2.1024    0.4149 H   0  0  0  0  0  0  0  0  0  0  0  0
    0.8219    0.1022    0.7334 H   0  0  0  0  0  0  0  0  0  0  0  0
    0.3911    1.4134   -1.4336 H   0  0  0  0  0  0  0  0  0  0  0  0
   -0.1355   -0.0840   -2.1871 H   0  0  0  0  0  0  0  0  0  0  0  0
    2.6463    0.4006   -0.9877 H   0  0  0  0  0  0  0  0  0  0  0  0
    2.1172   -1.0995   -1.7577 H   0  0  0  0  0  0  0  0  0  0  0  0
    1.7495    0.0898   -3.8971 H   0  0  0  0  0  0  0  0  0  0  0  0
    2.2914    1.6159   -3.1604 H   0  0  0  0  0  0  0  0  0  0  0  0
    4.3421   -0.3165   -2.7804 H   0  0  0  0  0  0  0  0  0  0  0  0
    6.1160    0.3833   -5.8192 H   0  0  0  0  0  0  0  0  0  0  0  0
    6.2168   -0.3433   -4.2413 H   0  0  0  0  0  0  0  0  0  0  0  0
    4.0471    1.4420   -6.5609 H   0  0  0  0  0  0  0  0  0  0  0  0
    2.6649    1.4729   -5.5111 H   0  0  0  0  0  0  0  0  0  0  0  0
   -1.2402    1.5187    0.9703 N   0  0  0  0  0  0  0  0  0  0  0  0
   -2.4283    2.2309    1.3810 C   0  0  2  0  0  0  0  0  0  0  0  0
   -2.1427    3.7231    1.2740 C   0  0  0  0  0  0  0  0  0  0  0  0
   -1.0374    4.2122    1.4975 O   0  0  0  0  0  0  0  0  0  0  0  0
   -2.8365    1.8558    2.7971 C   0  0  0  0  0  0  0  0  0  0  0  0
   -0.3409    1.9354    1.1926 H   0  0  0  0  0  0  0  0  0  0  0  0
   -3.2202    1.9585    0.6749 H   0  0  0  0  0  0  0  0  0  0  0  0
   -2.0553    2.1212    3.5187 H   0  0  0  0  0  0  0  0  0  0  0  0
   -3.7531    2.3748    3.0964 H   0  0  0  0  0  0  0  0  0  0  0  0
   -3.0126    0.7778    2.8793 H   0  0  0  0  0  0  0  0  0  0  0  0
   -3.2778    4.4491    0.9415 N   0  0  0  0  0  0  0  0  0  0  0  0
   -3.2753    5.8884    0.8216 C   0  0  0  0  0  0  0  0  0  0  0  0
   -4.1424    3.9578    0.7346 H   0  0  0  0  0  0  0  0  0  0  0  0
   -3.5598    6.3376    1.7845 H   0  0  0  0  0  0  0  0  0  0  0  0
   -2.2685    6.2310    0.5405 H   0  0  0  0  0  0  0  0  0  0  0  0
   -3.9956    6.1930    0.0480 H   0  0  0  0  0  0  0  0  0  0  0  0
  1  3  1  0  0  0  0
  1  7  1  0  0  0  0
  1  2  2  0  0  0  0
 42 43  1  0  0  0  0
 43 51  1  0  0  0  0
 43 44  2  0  0  0  0
  8  9  1  0  0  0  0
  9 17  1  0  0  0  0
  9 10  2  0  0  0  0
 18 19  1  0  0  0  0
 19 41  1  0  0  0  0
 19 20  2  0  0  0  0
 25 26  1  0  0  0  0
 25 27  1  0  0  0  0
 24 25  2  0  0  0  0
 42 45  1  0  0  0  0
  8 11  1  0  0  0  0
 51 52  1  0  0  0  0
 21 22  1  0  0  0  0
 22 23  1  0  0  0  0
 18 21  1  0  0  0  0
 23 24  1  0  0  0  0
 41 42  1  0  0  0  0
  7  8  1  0  0  0  0
 17 18  1  0  0  0  0
  3  4  1  0  0  0  0
  3  5  1  0  0  0  0
  3  6  1  0  0  0  0
 45 48  1  0  0  0  0
 45 49  1  0  0  0  0
 45 50  1  0  0  0  0
 11 14  1  0  0  0  0
 11 15  1  0  0  0  0
 11 16  1  0  0  0  0
 52 54  1  0  0  0  0
 52 55  1  0  0  0  0
 52 56  1  0  0  0  0
 22 32  1  0  0  0  0
 22 33  1  0  0  0  0
 21 30  1  0  0  0  0
 21 31  1  0  0  0  0
 23 34  1  0  0  0  0
 23 35  1  0  0  0  0
 42 47  1  0  0  0  0
  8 13  1  0  0  0  0
 18 29  1  0  0  0  0
 26 37  1  0  0  0  0
 26 38  1  0  0  0  0
 27 39  1  0  0  0  0
 27 40  1  0  0  0  0
 51 53  1  0  0  0  0
  7 12  1  0  0  0  0
 41 46  1  0  0  0  0
 17 28  1  0  0  0  0
 24 36  1  0  0  0  0
M  CHG  1  24   1
M  END
$$$$

  -OEChem-05262214473D

 56 55  0     1  0  0  0  0  0999 V2000
    0.7735   -5.8042   -2.0022 C   0  0  0  0  0  0  0  0  0  0  0  0
   -0.2086   -6.3825   -1.5519 O   0  0  0  0  0  0  0  0  0  0  0  0
    1.4751   -6.3646   -3.1946 C   0  0  0  0  0  0  0  0  0  0  0  0
    2.2765   -7.0687   -2.9186 H   0  0  0  0  0  0  0  0  0  0  0  0
    0.7988   -6.9360   -3.8504 H   0  0  0  0  0  0  0  0  0  0  0  0
    1.9556   -5.6216   -3.8511 H   0  0  0  0  0  0  0  0  0  0  0  0
    1.3322   -4.6359   -1.5106 N   0  0  0  0  0  0  0  0  0  0  0  0
    0.8124   -3.9290   -0.3698 C   0  0  2  0  0  0  0  0  0  0  0  0
    1.0666   -2.4424   -0.5818 C   0  0  0  0  0  0  0  0  0  0  0  0
    2.0598   -2.0076   -1.1610 O   0  0  0  0  0  0  0  0  0  0  0  0
    1.4560   -4.4118    0.9207 C   0  0  0  0  0  0  0  0  0  0  0  0
    2.1528   -4.2578   -1.9805 H   0  0  0  0  0  0  0  0  0  0  0  0
   -0.2667   -4.1160   -0.3467 H   0  0  0  0  0  0  0  0  0  0  0  0
    2.5374   -4.2329    0.9160 H   0  0  0  0  0  0  0  0  0  0  0  0
    1.0390   -3.8932    1.7903 H   0  0  0  0  0  0  0  0  0  0  0  0
    1.2976   -5.4871    1.0566 H   0  0  0  0  0  0  0  0  0  0  0  0
    0.0755   -1.6529   -0.0105 N   0  0  0  0  0  0  0  0  0  0  0  0
    0.1113   -0.2132   -0.0391 C   0  0  2  0  0  0  0  0  0  0  0  0
   -1.2807    0.2873    0.3313 C   0  0  0  0  0  0  0  0  0  0  0  0
   -2.2801   -0.4276    0.2952 O   0  0  0  0  0  0  0  0  0  0  0  0
    0.5261    0.3253   -1.4122 C   0  0  0  0  0  0  0  0  0  0  0  0
    1.9818   -0.0118   -1.7565 C   0  0  0  0  0  0  0  0  0  0  0  0
    2.3892    0.5266   -3.1241 C   0  0  0  0  0  0  0  0  0  0  0  0
    3.7695    0.1833   -3.4584 N   0  3  0  0  0  0  0  0  0  0  0  0
    4.3460    0.5154   -4.6858 C   0  0  0  0  0  0  0  0  0  0  0  0
    5.6662    0.1562   -4.9354 N   0  0  0  0  0  0  0  0  0  0  0  0
    3.6320    1.1977   -5.6655 N   0  0  0  0  0  0  0  0  0  0  0  0
   -0.7323   -2.1024    0.4149 H   0  0  0  0  0  0  0  0  0  0  0  0
    0.8219    0.1022    0.7334 H   0  0  0  0  0  0  0  0  0  0  0  0
    0.3911    1.4134   -1.4336 H   0  0  0  0  0  0  0  0  0  0  0  0
   -0.1355   -0.0840   -2.1871 H   0  0  0  0  0  0  0  0  0  0  0  0
    2.6463    0.4006   -0.9877 H   0  0  0  0  0  0  0  0  0  0  0  0
    2.1172   -1.0995   -1.7577 H   0  0  0  0  0  0  0  0  0  0  0  0
    1.7495    0.0898   -3.8971 H   0  0  0  0  0  0  0  0  0  0  0  0
    2.2914    1.6159   -3.1604 H   0  0  0  0  0  0  0  0  0  0  0  0
    4.3421   -0.3165   -2.7804 H   0  0  0  0  0  0  0  0  0  0  0  0
    6.1160    0.3833   -5.8192 H   0  0  0  0  0  0  0  0  0  0  0  0
    6.2168   -0.3433   -4.2413 H   0  0  0  0  0  0  0  0  0  0  0  0
    4.0471    1.4420   -6.5609 H   0  0  0  0  0  0  0  0  0  0  0  0
    2.6649    1.4729   -5.5111 H   0  0  0  0  0  0  0  0  0  0  0  0
   -1.2809    1.6361    0.6584 N   0  0  0  0  0  0  0  0  0  0  0  0
   -2.4825    2.3622    0.9995 C   0  0  2  0  0  0  0  0  0  0  0  0
   -2.3159    3.7985    0.5211 C   0  0  0  0  0  0  0  0  0  0  0  0
   -1.2353    4.3844    0.5210 O   0  0  0  0  0  0  0  0  0  0  0  0
   -2.7514    2.3154    2.4956 C   0  0  0  0  0  0  0  0  0  0  0  0
   -0.4000    2.1406    0.6931 H   0  0  0  0  0  0  0  0  0  0  0  0
   -3.3048    1.8877    0.4530 H   0  0  0  0  0  0  0  0  0  0  0  0
   -1.9382    2.7863    3.0599 H   0  0  0  0  0  0  0  0  0  0  0  0
   -3.6776    2.8419    2.7489 H   0  0  0  0  0  0  0  0  0  0  0  0
   -2.8414    1.2806    2.8432 H   0  0  0  0  0  0  0  0  0  0  0  0
   -3.5234    4.3633    0.1347 N   0  0  0  0  0  0  0  0  0  0  0  0
   -3.6353    5.7303   -0.3177 C   0  0  0  0  0  0  0  0  0  0  0  0
   -4.3632    3.7919    0.1292 H   0  0  0  0  0  0  0  0  0  0  0  0
   -3.8765    6.3810    0.5358 H   0  0  0  0  0  0  0  0  0  0  0  0
   -2.6811    6.0483   -0.7630 H   0  0  0  0  0  0  0  0  0  0  0  0
   -4.4337    5.8028   -1.0710 H   0  0  0  0  0  0  0  0  0  0  0  0
  1  3  1  0  0  0  0
  1  7  1  0  0  0  0
  1  2  2  0  0  0  0
 42 43  1  0  0  0  0
 43 51  1  0  0  0  0
 43 44  2  0  0  0  0
  8  9  1  0  0  0  0
  9 17  1  0  0  0  0
  9 10  2  0  0  0  0
 18 19  1  0  0  0  0
 19 41  1  0  0  0  0
 19 20  2  0  0  0  0
 25 26  1  0  0  0  0
 25 27  1  0  0  0  0
 24 25  2  0  0  0  0
 42 45  1  0  0  0  0
  8 11  1  0  0  0  0
 51 52  1  0  0  0  0
 21 22  1  0  0  0  0
 22 23  1  0  0  0  0
 18 21  1  0  0  0  0
 23 24  1  0  0  0  0
 41 42  1  0  0  0  0
  7  8  1  0  0  0  0
 17 18  1  0  0  0  0
  3  4  1  0  0  0  0
  3  5  1  0  0  0  0
  3  6  1  0  0  0  0
 45 48  1  0  0  0  0
 45 49  1  0  0  0  0
 45 50  1  0  0  0  0
 11 14  1  0  0  0  0
 11 15  1  0  0  0  0
 11 16  1  0  0  0  0
 52 54  1  0  0  0  0
 52 55  1  0  0  0  0
 52 56  1  0  0  0  0
 22 32  1  0  0  0  0
 22 33  1  0  0  0  0
 21 30  1  0  0  0  0
 21 31  1  0  0  0  0
 23 34  1  0  0  0  0
 23 35  1  0  0  0  0
 42 47  1  0  0  0  0
  8 13  1  0  0  0  0
 18 29  1  0  0  0  0
 26 37  1  0  0  0  0
 26 38  1  0  0  0  0
 27 39  1  0  0  0  0
 27 40  1  0  0  0  0
 51 53  1  0  0  0  0
  7 12  1  0  0  0  0
 41 46  1  0  0  0  0
 17 28  1  0  0  0  0
 24 36  1  0  0  0  0
M  CHG  1  24   1
M  END
$$$$
