default_name
  -OEChem-02102213163D

 27 26  0     1  0  0  0  0  0999 V2000
   -3.2406   -3.5400    1.2326 H   0  0  0  0  0  0  0  0  0  0  0  0
   -3.1436   -2.6190    0.6606 C   0  0  0  0  0  0  0  0  0  0  0  0
   -3.8786   -1.8920    0.9996 H   0  0  0  0  0  0  0  0  0  0  0  0
   -3.2846   -2.8280   -0.3984 H   0  0  0  0  0  0  0  0  0  0  0  0
   -1.7586   -2.0580    0.8686 C   0  0  0  0  0  0  0  0  0  0  0  0
   -0.9666   -2.6340    1.6026 O   0  0  0  0  0  0  0  0  0  0  0  0
   -1.4866   -0.9220    0.2366 N   0  0  0  0  0  0  0  0  0  0  0  0
   -2.2166   -0.4790   -0.2994 H   0  0  0  0  0  0  0  0  0  0  0  0
   -0.1956   -0.2250    0.2596 C   0  0  1  0  0  0  0  0  0  0  0  0
    0.3927   -0.6026    1.0964 H   0  0  0  0  0  0  0  0  0  0  0  0
    0.5767   -0.5489   -1.0351 C   0  0  0  0  0  0  0  0  0  0  0  0
    0.7244   -1.6291   -1.0772 H   0  0  0  0  0  0  0  0  0  0  0  0
   -0.0223   -0.2491   -1.8963 H   0  0  0  0  0  0  0  0  0  0  0  0
    1.9521    0.1347   -1.1148 C   0  0  0  0  0  0  0  0  0  0  0  0
    1.8175    1.2171   -1.0488 H   0  0  0  0  0  0  0  0  0  0  0  0
    2.5442   -0.1844   -0.2530 H   0  0  0  0  0  0  0  0  0  0  0  0
    2.7205   -0.1885   -2.4048 C   0  0  0  0  0  0  0  0  0  0  0  0
    2.2451   -1.0488   -3.1796 O   0  5  0  0  0  0  0  0  0  0  0  0
    3.7724    0.4576   -2.6081 O   0  0  0  0  0  0  0  0  0  0  0  0
   -0.3954    1.2887    0.4814 C   0  0  0  0  0  0  0  0  0  0  0  0
   -1.2761    1.9015   -0.1256 O   0  0  0  0  0  0  0  0  0  0  0  0
    0.4051    1.8919    1.3699 N   0  0  0  0  0  0  0  0  0  0  0  0
    1.1380    1.3380    1.7875 H   0  0  0  0  0  0  0  0  0  0  0  0
    0.3573    3.3183    1.6807 C   0  0  0  0  0  0  0  0  0  0  0  0
   -0.6670    3.6090    1.9198 H   0  0  0  0  0  0  0  0  0  0  0  0
    1.0066    3.5397    2.5289 H   0  0  0  0  0  0  0  0  0  0  0  0
    0.6896    3.8897    0.8118 H   0  0  0  0  0  0  0  0  0  0  0  0
  5  6  2  0  0  0  0
  5  7  1  0  0  0  0
  2  3  1  0  0  0  0
  2  4  1  0  0  0  0
  2  5  1  0  0  0  0
  1  2  1  0  0  0  0
 20 21  2  0  0  0  0
 20 22  1  0  0  0  0
 17 18  1  0  0  0  0
 17 19  2  0  0  0  0
 14 15  1  0  0  0  0
 14 16  1  0  0  0  0
 14 17  1  0  0  0  0
 11 12  1  0  0  0  0
 11 13  1  0  0  0  0
 11 14  1  0  0  0  0
  9 10  1  0  0  0  0
  9 11  1  0  0  0  0
  9 20  1  0  0  0  0
  7  8  1  0  0  0  0
  7  9  1  0  0  0  0
 24 25  1  0  0  0  0
 24 26  1  0  0  0  0
 24 27  1  0  0  0  0
 22 23  1  0  0  0  0
 22 24  1  0  0  0  0
M  CHG  1  18  -1
M  END
$$$$
default_name
  -OEChem-02102213163D

 27 26  0     1  0  0  0  0  0999 V2000
   -3.2406   -3.5400    1.2326 H   0  0  0  0  0  0  0  0  0  0  0  0
   -3.1436   -2.6190    0.6606 C   0  0  0  0  0  0  0  0  0  0  0  0
   -3.8786   -1.8920    0.9996 H   0  0  0  0  0  0  0  0  0  0  0  0
   -3.2846   -2.8280   -0.3984 H   0  0  0  0  0  0  0  0  0  0  0  0
   -1.7586   -2.0580    0.8686 C   0  0  0  0  0  0  0  0  0  0  0  0
   -0.9666   -2.6340    1.6026 O   0  0  0  0  0  0  0  0  0  0  0  0
   -1.4866   -0.9220    0.2366 N   0  0  0  0  0  0  0  0  0  0  0  0
   -2.2166   -0.4790   -0.2994 H   0  0  0  0  0  0  0  0  0  0  0  0
   -0.1956   -0.2250    0.2596 C   0  0  1  0  0  0  0  0  0  0  0  0
    0.3927   -0.6026    1.0964 H   0  0  0  0  0  0  0  0  0  0  0  0
    0.5767   -0.5489   -1.0351 C   0  0  0  0  0  0  0  0  0  0  0  0
    0.7244   -1.6291   -1.0772 H   0  0  0  0  0  0  0  0  0  0  0  0
   -0.0223   -0.2491   -1.8963 H   0  0  0  0  0  0  0  0  0  0  0  0
    1.9521    0.1347   -1.1148 C   0  0  0  0  0  0  0  0  0  0  0  0
    1.8551    1.1721   -0.7857 H   0  0  0  0  0  0  0  0  0  0  0  0
    2.6294   -0.3758   -0.4250 H   0  0  0  0  0  0  0  0  0  0  0  0
    2.5601    0.1201   -2.5251 C   0  0  0  0  0  0  0  0  0  0  0  0
    1.9769   -0.5369   -3.4166 O   0  5  0  0  0  0  0  0  0  0  0  0
    3.5992    0.7958   -2.6951 O   0  0  0  0  0  0  0  0  0  0  0  0
   -0.3954    1.2887    0.4814 C   0  0  0  0  0  0  0  0  0  0  0  0
   -1.2761    1.9015   -0.1256 O   0  0  0  0  0  0  0  0  0  0  0  0
    0.4051    1.8919    1.3699 N   0  0  0  0  0  0  0  0  0  0  0  0
    1.1380    1.3380    1.7875 H   0  0  0  0  0  0  0  0  0  0  0  0
    0.3573    3.3183    1.6807 C   0  0  0  0  0  0  0  0  0  0  0  0
   -0.6670    3.6090    1.9198 H   0  0  0  0  0  0  0  0  0  0  0  0
    1.0066    3.5397    2.5289 H   0  0  0  0  0  0  0  0  0  0  0  0
    0.6896    3.8897    0.8118 H   0  0  0  0  0  0  0  0  0  0  0  0
  5  6  2  0  0  0  0
  5  7  1  0  0  0  0
  2  3  1  0  0  0  0
  2  4  1  0  0  0  0
  2  5  1  0  0  0  0
  1  2  1  0  0  0  0
 20 21  2  0  0  0  0
 20 22  1  0  0  0  0
 17 18  1  0  0  0  0
 17 19  2  0  0  0  0
 14 15  1  0  0  0  0
 14 16  1  0  0  0  0
 14 17  1  0  0  0  0
 11 12  1  0  0  0  0
 11 13  1  0  0  0  0
 11 14  1  0  0  0  0
  9 10  1  0  0  0  0
  9 11  1  0  0  0  0
  9 20  1  0  0  0  0
  7  8  1  0  0  0  0
  7  9  1  0  0  0  0
 24 25  1  0  0  0  0
 24 26  1  0  0  0  0
 24 27  1  0  0  0  0
 22 23  1  0  0  0  0
 22 24  1  0  0  0  0
M  CHG  1  18  -1
M  END
$$$$
default_name
  -OEChem-02102213163D

 27 26  0     1  0  0  0  0  0999 V2000
   -3.2406   -3.5400    1.2326 H   0  0  0  0  0  0  0  0  0  0  0  0
   -3.1436   -2.6190    0.6606 C   0  0  0  0  0  0  0  0  0  0  0  0
   -3.8786   -1.8920    0.9996 H   0  0  0  0  0  0  0  0  0  0  0  0
   -3.2846   -2.8280   -0.3984 H   0  0  0  0  0  0  0  0  0  0  0  0
   -1.7586   -2.0580    0.8686 C   0  0  0  0  0  0  0  0  0  0  0  0
   -0.9666   -2.6340    1.6026 O   0  0  0  0  0  0  0  0  0  0  0  0
   -1.4866   -0.9220    0.2366 N   0  0  0  0  0  0  0  0  0  0  0  0
   -2.2166   -0.4790   -0.2994 H   0  0  0  0  0  0  0  0  0  0  0  0
   -0.1956   -0.2250    0.2596 C   0  0  1  0  0  0  0  0  0  0  0  0
    0.3927   -0.6026    1.0964 H   0  0  0  0  0  0  0  0  0  0  0  0
    0.5767   -0.5489   -1.0351 C   0  0  0  0  0  0  0  0  0  0  0  0
    0.7244   -1.6291   -1.0772 H   0  0  0  0  0  0  0  0  0  0  0  0
   -0.0223   -0.2491   -1.8963 H   0  0  0  0  0  0  0  0  0  0  0  0
    1.9521    0.1347   -1.1148 C   0  0  0  0  0  0  0  0  0  0  0  0
    1.9210    1.0673   -0.5463 H   0  0  0  0  0  0  0  0  0  0  0  0
    2.6893   -0.5219   -0.6452 H   0  0  0  0  0  0  0  0  0  0  0  0
    2.3956    0.4481   -2.5515 C   0  0  0  0  0  0  0  0  0  0  0  0
    1.6975    0.0161   -3.4962 O   0  5  0  0  0  0  0  0  0  0  0  0
    3.4265    1.1450   -2.6810 O   0  0  0  0  0  0  0  0  0  0  0  0
   -0.3954    1.2887    0.4814 C   0  0  0  0  0  0  0  0  0  0  0  0
   -1.2761    1.9015   -0.1256 O   0  0  0  0  0  0  0  0  0  0  0  0
    0.4051    1.8919    1.3699 N   0  0  0  0  0  0  0  0  0  0  0  0
    1.1380    1.3380    1.7875 H   0  0  0  0  0  0  0  0  0  0  0  0
    0.3573    3.3183    1.6807 C   0  0  0  0  0  0  0  0  0  0  0  0
   -0.6670    3.6090    1.9198 H   0  0  0  0  0  0  0  0  0  0  0  0
    1.0066    3.5397    2.5289 H   0  0  0  0  0  0  0  0  0  0  0  0
    0.6896    3.8897    0.8118 H   0  0  0  0  0  0  0  0  0  0  0  0
  5  6  2  0  0  0  0
  5  7  1  0  0  0  0
  2  3  1  0  0  0  0
  2  4  1  0  0  0  0
  2  5  1  0  0  0  0
  1  2  1  0  0  0  0
 20 21  2  0  0  0  0
 20 22  1  0  0  0  0
 17 18  1  0  0  0  0
 17 19  2  0  0  0  0
 14 15  1  0  0  0  0
 14 16  1  0  0  0  0
 14 17  1  0  0  0  0
 11 12  1  0  0  0  0
 11 13  1  0  0  0  0
 11 14  1  0  0  0  0
  9 10  1  0  0  0  0
  9 11  1  0  0  0  0
  9 20  1  0  0  0  0
  7  8  1  0  0  0  0
  7  9  1  0  0  0  0
 24 25  1  0  0  0  0
 24 26  1  0  0  0  0
 24 27  1  0  0  0  0
 22 23  1  0  0  0  0
 22 24  1  0  0  0  0
M  CHG  1  18  -1
M  END
$$$$
default_name
  -OEChem-02102213163D

 27 26  0     1  0  0  0  0  0999 V2000
   -3.2406   -3.5400    1.2326 H   0  0  0  0  0  0  0  0  0  0  0  0
   -3.1436   -2.6190    0.6606 C   0  0  0  0  0  0  0  0  0  0  0  0
   -3.8786   -1.8920    0.9996 H   0  0  0  0  0  0  0  0  0  0  0  0
   -3.2846   -2.8280   -0.3984 H   0  0  0  0  0  0  0  0  0  0  0  0
   -1.7586   -2.0580    0.8686 C   0  0  0  0  0  0  0  0  0  0  0  0
   -0.9666   -2.6340    1.6026 O   0  0  0  0  0  0  0  0  0  0  0  0
   -1.4866   -0.9220    0.2366 N   0  0  0  0  0  0  0  0  0  0  0  0
   -2.2166   -0.4790   -0.2994 H   0  0  0  0  0  0  0  0  0  0  0  0
   -0.1956   -0.2250    0.2596 C   0  0  1  0  0  0  0  0  0  0  0  0
    0.3927   -0.6026    1.0964 H   0  0  0  0  0  0  0  0  0  0  0  0
    0.5767   -0.5489   -1.0351 C   0  0  0  0  0  0  0  0  0  0  0  0
    0.7244   -1.6291   -1.0772 H   0  0  0  0  0  0  0  0  0  0  0  0
   -0.0223   -0.2491   -1.8963 H   0  0  0  0  0  0  0  0  0  0  0  0
    1.9521    0.1347   -1.1148 C   0  0  0  0  0  0  0  0  0  0  0  0
    2.0109    0.9098   -0.3468 H   0  0  0  0  0  0  0  0  0  0  0  0
    2.7198   -0.6129   -0.8986 H   0  0  0  0  0  0  0  0  0  0  0  0
    2.2380    0.7732   -2.4821 C   0  0  0  0  0  0  0  0  0  0  0  0
    1.4258    0.5723   -3.4130 O   0  5  0  0  0  0  0  0  0  0  0  0
    3.2660    1.4813   -2.5667 O   0  0  0  0  0  0  0  0  0  0  0  0
   -0.3954    1.2887    0.4814 C   0  0  0  0  0  0  0  0  0  0  0  0
   -1.2761    1.9015   -0.1256 O   0  0  0  0  0  0  0  0  0  0  0  0
    0.4051    1.8919    1.3699 N   0  0  0  0  0  0  0  0  0  0  0  0
    1.1380    1.3380    1.7875 H   0  0  0  0  0  0  0  0  0  0  0  0
    0.3573    3.3183    1.6807 C   0  0  0  0  0  0  0  0  0  0  0  0
   -0.6670    3.6090    1.9198 H   0  0  0  0  0  0  0  0  0  0  0  0
    1.0066    3.5397    2.5289 H   0  0  0  0  0  0  0  0  0  0  0  0
    0.6896    3.8897    0.8118 H   0  0  0  0  0  0  0  0  0  0  0  0
  5  6  2  0  0  0  0
  5  7  1  0  0  0  0
  2  3  1  0  0  0  0
  2  4  1  0  0  0  0
  2  5  1  0  0  0  0
  1  2  1  0  0  0  0
 20 21  2  0  0  0  0
 20 22  1  0  0  0  0
 17 18  1  0  0  0  0
 17 19  2  0  0  0  0
 14 15  1  0  0  0  0
 14 16  1  0  0  0  0
 14 17  1  0  0  0  0
 11 12  1  0  0  0  0
 11 13  1  0  0  0  0
 11 14  1  0  0  0  0
  9 10  1  0  0  0  0
  9 11  1  0  0  0  0
  9 20  1  0  0  0  0
  7  8  1  0  0  0  0
  7  9  1  0  0  0  0
 24 25  1  0  0  0  0
 24 26  1  0  0  0  0
 24 27  1  0  0  0  0
 22 23  1  0  0  0  0
 22 24  1  0  0  0  0
M  CHG  1  18  -1
M  END
$$$$
default_name
  -OEChem-02102213163D

 27 26  0     1  0  0  0  0  0999 V2000
   -3.2406   -3.5400    1.2326 H   0  0  0  0  0  0  0  0  0  0  0  0
   -3.1436   -2.6190    0.6606 C   0  0  0  0  0  0  0  0  0  0  0  0
   -3.8786   -1.8920    0.9996 H   0  0  0  0  0  0  0  0  0  0  0  0
   -3.2846   -2.8280   -0.3984 H   0  0  0  0  0  0  0  0  0  0  0  0
   -1.7586   -2.0580    0.8686 C   0  0  0  0  0  0  0  0  0  0  0  0
   -0.9666   -2.6340    1.6026 O   0  0  0  0  0  0  0  0  0  0  0  0
   -1.4866   -0.9220    0.2366 N   0  0  0  0  0  0  0  0  0  0  0  0
   -2.2166   -0.4790   -0.2994 H   0  0  0  0  0  0  0  0  0  0  0  0
   -0.1956   -0.2250    0.2596 C   0  0  1  0  0  0  0  0  0  0  0  0
    0.3927   -0.6026    1.0964 H   0  0  0  0  0  0  0  0  0  0  0  0
    0.5767   -0.5489   -1.0351 C   0  0  0  0  0  0  0  0  0  0  0  0
    0.7244   -1.6291   -1.0772 H   0  0  0  0  0  0  0  0  0  0  0  0
   -0.0223   -0.2491   -1.8963 H   0  0  0  0  0  0  0  0  0  0  0  0
    1.9521    0.1347   -1.1148 C   0  0  0  0  0  0  0  0  0  0  0  0
    2.1185    0.7102   -0.2010 H   0  0  0  0  0  0  0  0  0  0  0  0
    2.7190   -0.6426   -1.1679 H   0  0  0  0  0  0  0  0  0  0  0  0
    2.0981    1.0734   -2.3217 C   0  0  0  0  0  0  0  0  0  0  0  0
    1.1805    1.0940   -3.1726 O   0  5  0  0  0  0  0  0  0  0  0  0
    3.1286    1.7819   -2.3599 O   0  0  0  0  0  0  0  0  0  0  0  0
   -0.3954    1.2887    0.4814 C   0  0  0  0  0  0  0  0  0  0  0  0
   -1.2761    1.9015   -0.1256 O   0  0  0  0  0  0  0  0  0  0  0  0
    0.4051    1.8919    1.3699 N   0  0  0  0  0  0  0  0  0  0  0  0
    1.1380    1.3380    1.7875 H   0  0  0  0  0  0  0  0  0  0  0  0
    0.3573    3.3183    1.6807 C   0  0  0  0  0  0  0  0  0  0  0  0
   -0.6670    3.6090    1.9198 H   0  0  0  0  0  0  0  0  0  0  0  0
    1.0066    3.5397    2.5289 H   0  0  0  0  0  0  0  0  0  0  0  0
    0.6896    3.8897    0.8118 H   0  0  0  0  0  0  0  0  0  0  0  0
  5  6  2  0  0  0  0
  5  7  1  0  0  0  0
  2  3  1  0  0  0  0
  2  4  1  0  0  0  0
  2  5  1  0  0  0  0
  1  2  1  0  0  0  0
 20 21  2  0  0  0  0
 20 22  1  0  0  0  0
 17 18  1  0  0  0  0
 17 19  2  0  0  0  0
 14 15  1  0  0  0  0
 14 16  1  0  0  0  0
 14 17  1  0  0  0  0
 11 12  1  0  0  0  0
 11 13  1  0  0  0  0
 11 14  1  0  0  0  0
  9 10  1  0  0  0  0
  9 11  1  0  0  0  0
  9 20  1  0  0  0  0
  7  8  1  0  0  0  0
  7  9  1  0  0  0  0
 24 25  1  0  0  0  0
 24 26  1  0  0  0  0
 24 27  1  0  0  0  0
 22 23  1  0  0  0  0
 22 24  1  0  0  0  0
M  CHG  1  18  -1
M  END
$$$$
default_name
  -OEChem-02102213163D

 27 26  0     1  0  0  0  0  0999 V2000
   -3.2406   -3.5400    1.2326 H   0  0  0  0  0  0  0  0  0  0  0  0
   -3.1436   -2.6190    0.6606 C   0  0  0  0  0  0  0  0  0  0  0  0
   -3.8786   -1.8920    0.9996 H   0  0  0  0  0  0  0  0  0  0  0  0
   -3.2846   -2.8280   -0.3984 H   0  0  0  0  0  0  0  0  0  0  0  0
   -1.7586   -2.0580    0.8686 C   0  0  0  0  0  0  0  0  0  0  0  0
   -0.9666   -2.6340    1.6026 O   0  0  0  0  0  0  0  0  0  0  0  0
   -1.4866   -0.9220    0.2366 N   0  0  0  0  0  0  0  0  0  0  0  0
   -2.2166   -0.4790   -0.2994 H   0  0  0  0  0  0  0  0  0  0  0  0
   -0.1956   -0.2250    0.2596 C   0  0  1  0  0  0  0  0  0  0  0  0
    0.3927   -0.6026    1.0964 H   0  0  0  0  0  0  0  0  0  0  0  0
    0.5767   -0.5489   -1.0351 C   0  0  0  0  0  0  0  0  0  0  0  0
    0.7244   -1.6291   -1.0772 H   0  0  0  0  0  0  0  0  0  0  0  0
   -0.0223   -0.2491   -1.8963 H   0  0  0  0  0  0  0  0  0  0  0  0
    1.9521    0.1347   -1.1148 C   0  0  0  0  0  0  0  0  0  0  0  0
    2.2366    0.4823   -0.1187 H   0  0  0  0  0  0  0  0  0  0  0  0
    2.6868   -0.6089   -1.4348 H   0  0  0  0  0  0  0  0  0  0  0  0
    1.9855    1.3280   -2.0812 C   0  0  0  0  0  0  0  0  0  0  0  0
    0.9781    1.5456   -2.7914 O   0  5  0  0  0  0  0  0  0  0  0  0
    3.0236    2.0262   -2.0749 O   0  0  0  0  0  0  0  0  0  0  0  0
   -0.3954    1.2887    0.4814 C   0  0  0  0  0  0  0  0  0  0  0  0
   -1.2761    1.9015   -0.1256 O   0  0  0  0  0  0  0  0  0  0  0  0
    0.4051    1.8919    1.3699 N   0  0  0  0  0  0  0  0  0  0  0  0
    1.1380    1.3380    1.7875 H   0  0  0  0  0  0  0  0  0  0  0  0
    0.3573    3.3183    1.6807 C   0  0  0  0  0  0  0  0  0  0  0  0
   -0.6670    3.6090    1.9198 H   0  0  0  0  0  0  0  0  0  0  0  0
    1.0066    3.5397    2.5289 H   0  0  0  0  0  0  0  0  0  0  0  0
    0.6896    3.8897    0.8118 H   0  0  0  0  0  0  0  0  0  0  0  0
  5  6  2  0  0  0  0
  5  7  1  0  0  0  0
  2  3  1  0  0  0  0
  2  4  1  0  0  0  0
  2  5  1  0  0  0  0
  1  2  1  0  0  0  0
 20 21  2  0  0  0  0
 20 22  1  0  0  0  0
 17 18  1  0  0  0  0
 17 19  2  0  0  0  0
 14 15  1  0  0  0  0
 14 16  1  0  0  0  0
 14 17  1  0  0  0  0
 11 12  1  0  0  0  0
 11 13  1  0  0  0  0
 11 14  1  0  0  0  0
  9 10  1  0  0  0  0
  9 11  1  0  0  0  0
  9 20  1  0  0  0  0
  7  8  1  0  0  0  0
  7  9  1  0  0  0  0
 24 25  1  0  0  0  0
 24 26  1  0  0  0  0
 24 27  1  0  0  0  0
 22 23  1  0  0  0  0
 22 24  1  0  0  0  0
M  CHG  1  18  -1
M  END
$$$$
default_name
  -OEChem-02102213163D

 27 26  0     1  0  0  0  0  0999 V2000
   -3.2406   -3.5400    1.2326 H   0  0  0  0  0  0  0  0  0  0  0  0
   -3.1436   -2.6190    0.6606 C   0  0  0  0  0  0  0  0  0  0  0  0
   -3.8786   -1.8920    0.9996 H   0  0  0  0  0  0  0  0  0  0  0  0
   -3.2846   -2.8280   -0.3984 H   0  0  0  0  0  0  0  0  0  0  0  0
   -1.7586   -2.0580    0.8686 C   0  0  0  0  0  0  0  0  0  0  0  0
   -0.9666   -2.6340    1.6026 O   0  0  0  0  0  0  0  0  0  0  0  0
   -1.4866   -0.9220    0.2366 N   0  0  0  0  0  0  0  0  0  0  0  0
   -2.2166   -0.4790   -0.2994 H   0  0  0  0  0  0  0  0  0  0  0  0
   -0.1956   -0.2250    0.2596 C   0  0  1  0  0  0  0  0  0  0  0  0
    0.3927   -0.6026    1.0964 H   0  0  0  0  0  0  0  0  0  0  0  0
    0.5767   -0.5489   -1.0351 C   0  0  0  0  0  0  0  0  0  0  0  0
    0.7244   -1.6291   -1.0772 H   0  0  0  0  0  0  0  0  0  0  0  0
   -0.0223   -0.2491   -1.8963 H   0  0  0  0  0  0  0  0  0  0  0  0
    1.9521    0.1347   -1.1148 C   0  0  0  0  0  0  0  0  0  0  0  0
    2.3570    0.2415   -0.1055 H   0  0  0  0  0  0  0  0  0  0  0  0
    2.6254   -0.5141   -1.6812 H   0  0  0  0  0  0  0  0  0  0  0  0
    1.9077    1.5198   -1.7770 C   0  0  0  0  0  0  0  0  0  0  0  0
    0.8325    1.8963   -2.2953 O   0  5  0  0  0  0  0  0  0  0  0  0
    2.9584    2.1976   -1.7309 O   0  0  0  0  0  0  0  0  0  0  0  0
   -0.3954    1.2887    0.4814 C   0  0  0  0  0  0  0  0  0  0  0  0
   -1.2761    1.9015   -0.1256 O   0  0  0  0  0  0  0  0  0  0  0  0
    0.4051    1.8919    1.3699 N   0  0  0  0  0  0  0  0  0  0  0  0
    1.1380    1.3380    1.7875 H   0  0  0  0  0  0  0  0  0  0  0  0
    0.3573    3.3183    1.6807 C   0  0  0  0  0  0  0  0  0  0  0  0
   -0.6670    3.6090    1.9198 H   0  0  0  0  0  0  0  0  0  0  0  0
    1.0066    3.5397    2.5289 H   0  0  0  0  0  0  0  0  0  0  0  0
    0.6896    3.8897    0.8118 H   0  0  0  0  0  0  0  0  0  0  0  0
  5  6  2  0  0  0  0
  5  7  1  0  0  0  0
  2  3  1  0  0  0  0
  2  4  1  0  0  0  0
  2  5  1  0  0  0  0
  1  2  1  0  0  0  0
 20 21  2  0  0  0  0
 20 22  1  0  0  0  0
 17 18  1  0  0  0  0
 17 19  2  0  0  0  0
 14 15  1  0  0  0  0
 14 16  1  0  0  0  0
 14 17  1  0  0  0  0
 11 12  1  0  0  0  0
 11 13  1  0  0  0  0
 11 14  1  0  0  0  0
  9 10  1  0  0  0  0
  9 11  1  0  0  0  0
  9 20  1  0  0  0  0
  7  8  1  0  0  0  0
  7  9  1  0  0  0  0
 24 25  1  0  0  0  0
 24 26  1  0  0  0  0
 24 27  1  0  0  0  0
 22 23  1  0  0  0  0
 22 24  1  0  0  0  0
M  CHG  1  18  -1
M  END
$$$$
default_name
  -OEChem-02102213163D

 27 26  0     1  0  0  0  0  0999 V2000
   -3.2406   -3.5400    1.2326 H   0  0  0  0  0  0  0  0  0  0  0  0
   -3.1436   -2.6190    0.6606 C   0  0  0  0  0  0  0  0  0  0  0  0
   -3.8786   -1.8920    0.9996 H   0  0  0  0  0  0  0  0  0  0  0  0
   -3.2846   -2.8280   -0.3984 H   0  0  0  0  0  0  0  0  0  0  0  0
   -1.7586   -2.0580    0.8686 C   0  0  0  0  0  0  0  0  0  0  0  0
   -0.9666   -2.6340    1.6026 O   0  0  0  0  0  0  0  0  0  0  0  0
   -1.4866   -0.9220    0.2366 N   0  0  0  0  0  0  0  0  0  0  0  0
   -2.2166   -0.4790   -0.2994 H   0  0  0  0  0  0  0  0  0  0  0  0
   -0.1956   -0.2250    0.2596 C   0  0  1  0  0  0  0  0  0  0  0  0
    0.3927   -0.6026    1.0964 H   0  0  0  0  0  0  0  0  0  0  0  0
    0.5767   -0.5489   -1.0351 C   0  0  0  0  0  0  0  0  0  0  0  0
    0.7244   -1.6291   -1.0772 H   0  0  0  0  0  0  0  0  0  0  0  0
   -0.0223   -0.2491   -1.8963 H   0  0  0  0  0  0  0  0  0  0  0  0
    1.9521    0.1347   -1.1148 C   0  0  0  0  0  0  0  0  0  0  0  0
    2.4716    0.0043   -0.1624 H   0  0  0  0  0  0  0  0  0  0  0  0
    2.5391   -0.3648   -1.8901 H   0  0  0  0  0  0  0  0  0  0  0  0
    1.8702    1.6357   -1.4298 C   0  0  0  0  0  0  0  0  0  0  0  0
    0.7537    2.1221   -1.7183 O   0  5  0  0  0  0  0  0  0  0  0  0
    2.9372    2.2844   -1.3514 O   0  0  0  0  0  0  0  0  0  0  0  0
   -0.3954    1.2887    0.4814 C   0  0  0  0  0  0  0  0  0  0  0  0
   -1.2761    1.9015   -0.1256 O   0  0  0  0  0  0  0  0  0  0  0  0
    0.4051    1.8919    1.3699 N   0  0  0  0  0  0  0  0  0  0  0  0
    1.1380    1.3380    1.7875 H   0  0  0  0  0  0  0  0  0  0  0  0
    0.3573    3.3183    1.6807 C   0  0  0  0  0  0  0  0  0  0  0  0
   -0.6670    3.6090    1.9198 H   0  0  0  0  0  0  0  0  0  0  0  0
    1.0066    3.5397    2.5289 H   0  0  0  0  0  0  0  0  0  0  0  0
    0.6896    3.8897    0.8118 H   0  0  0  0  0  0  0  0  0  0  0  0
  5  6  2  0  0  0  0
  5  7  1  0  0  0  0
  2  3  1  0  0  0  0
  2  4  1  0  0  0  0
  2  5  1  0  0  0  0
  1  2  1  0  0  0  0
 20 21  2  0  0  0  0
 20 22  1  0  0  0  0
 17 18  1  0  0  0  0
 17 19  2  0  0  0  0
 14 15  1  0  0  0  0
 14 16  1  0  0  0  0
 14 17  1  0  0  0  0
 11 12  1  0  0  0  0
 11 13  1  0  0  0  0
 11 14  1  0  0  0  0
  9 10  1  0  0  0  0
  9 11  1  0  0  0  0
  9 20  1  0  0  0  0
  7  8  1  0  0  0  0
  7  9  1  0  0  0  0
 24 25  1  0  0  0  0
 24 26  1  0  0  0  0
 24 27  1  0  0  0  0
 22 23  1  0  0  0  0
 22 24  1  0  0  0  0
M  CHG  1  18  -1
M  END
$$$$
default_name
  -OEChem-02102213163D

 27 26  0     1  0  0  0  0  0999 V2000
   -3.2406   -3.5400    1.2326 H   0  0  0  0  0  0  0  0  0  0  0  0
   -3.1436   -2.6190    0.6606 C   0  0  0  0  0  0  0  0  0  0  0  0
   -3.8786   -1.8920    0.9996 H   0  0  0  0  0  0  0  0  0  0  0  0
   -3.2846   -2.8280   -0.3984 H   0  0  0  0  0  0  0  0  0  0  0  0
   -1.7586   -2.0580    0.8686 C   0  0  0  0  0  0  0  0  0  0  0  0
   -0.9666   -2.6340    1.6026 O   0  0  0  0  0  0  0  0  0  0  0  0
   -1.4866   -0.9220    0.2366 N   0  0  0  0  0  0  0  0  0  0  0  0
   -2.2166   -0.4790   -0.2994 H   0  0  0  0  0  0  0  0  0  0  0  0
   -0.1956   -0.2250    0.2596 C   0  0  1  0  0  0  0  0  0  0  0  0
    0.3927   -0.6026    1.0964 H   0  0  0  0  0  0  0  0  0  0  0  0
    0.5767   -0.5489   -1.0351 C   0  0  0  0  0  0  0  0  0  0  0  0
    0.7244   -1.6291   -1.0772 H   0  0  0  0  0  0  0  0  0  0  0  0
   -0.0223   -0.2491   -1.8963 H   0  0  0  0  0  0  0  0  0  0  0  0
    1.9521    0.1347   -1.1148 C   0  0  0  0  0  0  0  0  0  0  0  0
    2.5726   -0.2133   -0.2855 H   0  0  0  0  0  0  0  0  0  0  0  0
    2.4336   -0.1710   -2.0474 H   0  0  0  0  0  0  0  0  0  0  0  0
    1.8755    1.6678   -1.0633 C   0  0  0  0  0  0  0  0  0  0  0  0
    0.7469    2.2078   -1.0996 O   0  5  0  0  0  0  0  0  0  0  0  0
    2.9615    2.2807   -0.9624 O   0  0  0  0  0  0  0  0  0  0  0  0
   -0.3954    1.2887    0.4814 C   0  0  0  0  0  0  0  0  0  0  0  0
   -1.2761    1.9015   -0.1256 O   0  0  0  0  0  0  0  0  0  0  0  0
    0.4051    1.8919    1.3699 N   0  0  0  0  0  0  0  0  0  0  0  0
    1.1380    1.3380    1.7875 H   0  0  0  0  0  0  0  0  0  0  0  0
    0.3573    3.3183    1.6807 C   0  0  0  0  0  0  0  0  0  0  0  0
   -0.6670    3.6090    1.9198 H   0  0  0  0  0  0  0  0  0  0  0  0
    1.0066    3.5397    2.5289 H   0  0  0  0  0  0  0  0  0  0  0  0
    0.6896    3.8897    0.8118 H   0  0  0  0  0  0  0  0  0  0  0  0
  5  6  2  0  0  0  0
  5  7  1  0  0  0  0
  2  3  1  0  0  0  0
  2  4  1  0  0  0  0
  2  5  1  0  0  0  0
  1  2  1  0  0  0  0
 20 21  2  0  0  0  0
 20 22  1  0  0  0  0
 17 18  1  0  0  0  0
 17 19  2  0  0  0  0
 14 15  1  0  0  0  0
 14 16  1  0  0  0  0
 14 17  1  0  0  0  0
 11 12  1  0  0  0  0
 11 13  1  0  0  0  0
 11 14  1  0  0  0  0
  9 10  1  0  0  0  0
  9 11  1  0  0  0  0
  9 20  1  0  0  0  0
  7  8  1  0  0  0  0
  7  9  1  0  0  0  0
 24 25  1  0  0  0  0
 24 26  1  0  0  0  0
 24 27  1  0  0  0  0
 22 23  1  0  0  0  0
 22 24  1  0  0  0  0
M  CHG  1  18  -1
M  END
$$$$
default_name
  -OEChem-02102213163D

 27 26  0     1  0  0  0  0  0999 V2000
   -3.2406   -3.5400    1.2326 H   0  0  0  0  0  0  0  0  0  0  0  0
   -3.1436   -2.6190    0.6606 C   0  0  0  0  0  0  0  0  0  0  0  0
   -3.8786   -1.8920    0.9996 H   0  0  0  0  0  0  0  0  0  0  0  0
   -3.2846   -2.8280   -0.3984 H   0  0  0  0  0  0  0  0  0  0  0  0
   -1.7586   -2.0580    0.8686 C   0  0  0  0  0  0  0  0  0  0  0  0
   -0.9666   -2.6340    1.6026 O   0  0  0  0  0  0  0  0  0  0  0  0
   -1.4866   -0.9220    0.2366 N   0  0  0  0  0  0  0  0  0  0  0  0
   -2.2166   -0.4790   -0.2994 H   0  0  0  0  0  0  0  0  0  0  0  0
   -0.1956   -0.2250    0.2596 C   0  0  1  0  0  0  0  0  0  0  0  0
    0.3927   -0.6026    1.0964 H   0  0  0  0  0  0  0  0  0  0  0  0
    0.5767   -0.5489   -1.0351 C   0  0  0  0  0  0  0  0  0  0  0  0
    0.7244   -1.6291   -1.0772 H   0  0  0  0  0  0  0  0  0  0  0  0
   -0.0223   -0.2491   -1.8963 H   0  0  0  0  0  0  0  0  0  0  0  0
    1.9521    0.1347   -1.1148 C   0  0  0  0  0  0  0  0  0  0  0  0
    2.6531   -0.3963   -0.4663 H   0  0  0  0  0  0  0  0  0  0  0  0
    2.3163    0.0541   -2.1424 H   0  0  0  0  0  0  0  0  0  0  0  0
    1.9232    1.6140   -0.7024 C   0  0  0  0  0  0  0  0  0  0  0  0
    0.8127    2.1474   -0.4814 O   0  5  0  0  0  0  0  0  0  0  0  0
    3.0298    2.1868   -0.5903 O   0  0  0  0  0  0  0  0  0  0  0  0
   -0.3954    1.2887    0.4814 C   0  0  0  0  0  0  0  0  0  0  0  0
   -1.2761    1.9015   -0.1256 O   0  0  0  0  0  0  0  0  0  0  0  0
    0.4051    1.8919    1.3699 N   0  0  0  0  0  0  0  0  0  0  0  0
    1.1380    1.3380    1.7875 H   0  0  0  0  0  0  0  0  0  0  0  0
    0.3573    3.3183    1.6807 C   0  0  0  0  0  0  0  0  0  0  0  0
   -0.6670    3.6090    1.9198 H   0  0  0  0  0  0  0  0  0  0  0  0
    1.0066    3.5397    2.5289 H   0  0  0  0  0  0  0  0  0  0  0  0
    0.6896    3.8897    0.8118 H   0  0  0  0  0  0  0  0  0  0  0  0
  5  6  2  0  0  0  0
  5  7  1  0  0  0  0
  2  3  1  0  0  0  0
  2  4  1  0  0  0  0
  2  5  1  0  0  0  0
  1  2  1  0  0  0  0
 20 21  2  0  0  0  0
 20 22  1  0  0  0  0
 17 18  1  0  0  0  0
 17 19  2  0  0  0  0
 14 15  1  0  0  0  0
 14 16  1  0  0  0  0
 14 17  1  0  0  0  0
 11 12  1  0  0  0  0
 11 13  1  0  0  0  0
 11 14  1  0  0  0  0
  9 10  1  0  0  0  0
  9 11  1  0  0  0  0
  9 20  1  0  0  0  0
  7  8  1  0  0  0  0
  7  9  1  0  0  0  0
 24 25  1  0  0  0  0
 24 26  1  0  0  0  0
 24 27  1  0  0  0  0
 22 23  1  0  0  0  0
 22 24  1  0  0  0  0
M  CHG  1  18  -1
M  END
$$$$
default_name
  -OEChem-02102213163D

 27 26  0     1  0  0  0  0  0999 V2000
   -3.2406   -3.5400    1.2326 H   0  0  0  0  0  0  0  0  0  0  0  0
   -3.1436   -2.6190    0.6606 C   0  0  0  0  0  0  0  0  0  0  0  0
   -3.8786   -1.8920    0.9996 H   0  0  0  0  0  0  0  0  0  0  0  0
   -3.2846   -2.8280   -0.3984 H   0  0  0  0  0  0  0  0  0  0  0  0
   -1.7586   -2.0580    0.8686 C   0  0  0  0  0  0  0  0  0  0  0  0
   -0.9666   -2.6340    1.6026 O   0  0  0  0  0  0  0  0  0  0  0  0
   -1.4866   -0.9220    0.2366 N   0  0  0  0  0  0  0  0  0  0  0  0
   -2.2166   -0.4790   -0.2994 H   0  0  0  0  0  0  0  0  0  0  0  0
   -0.1956   -0.2250    0.2596 C   0  0  1  0  0  0  0  0  0  0  0  0
    0.3927   -0.6026    1.0964 H   0  0  0  0  0  0  0  0  0  0  0  0
    0.5767   -0.5489   -1.0351 C   0  0  0  0  0  0  0  0  0  0  0  0
    0.7244   -1.6291   -1.0772 H   0  0  0  0  0  0  0  0  0  0  0  0
   -0.0223   -0.2491   -1.8963 H   0  0  0  0  0  0  0  0  0  0  0  0
    1.9521    0.1347   -1.1148 C   0  0  0  0  0  0  0  0  0  0  0  0
    2.7076   -0.5323   -0.6926 H   0  0  0  0  0  0  0  0  0  0  0  0
    2.1950    0.2950   -2.1686 H   0  0  0  0  0  0  0  0  0  0  0  0
    2.0100    1.4777   -0.3719 C   0  0  0  0  0  0  0  0  0  0  0  0
    0.9466    1.9451    0.0942 O   0  5  0  0  0  0  0  0  0  0  0  0
    3.1372    2.0090   -0.2604 O   0  0  0  0  0  0  0  0  0  0  0  0
   -0.3954    1.2887    0.4814 C   0  0  0  0  0  0  0  0  0  0  0  0
   -1.2761    1.9015   -0.1256 O   0  0  0  0  0  0  0  0  0  0  0  0
    0.4051    1.8919    1.3699 N   0  0  0  0  0  0  0  0  0  0  0  0
    1.1380    1.3380    1.7875 H   0  0  0  0  0  0  0  0  0  0  0  0
    0.3573    3.3183    1.6807 C   0  0  0  0  0  0  0  0  0  0  0  0
   -0.6670    3.6090    1.9198 H   0  0  0  0  0  0  0  0  0  0  0  0
    1.0066    3.5397    2.5289 H   0  0  0  0  0  0  0  0  0  0  0  0
    0.6896    3.8897    0.8118 H   0  0  0  0  0  0  0  0  0  0  0  0
  5  6  2  0  0  0  0
  5  7  1  0  0  0  0
  2  3  1  0  0  0  0
  2  4  1  0  0  0  0
  2  5  1  0  0  0  0
  1  2  1  0  0  0  0
 20 21  2  0  0  0  0
 20 22  1  0  0  0  0
 17 18  1  0  0  0  0
 17 19  2  0  0  0  0
 14 15  1  0  0  0  0
 14 16  1  0  0  0  0
 14 17  1  0  0  0  0
 11 12  1  0  0  0  0
 11 13  1  0  0  0  0
 11 14  1  0  0  0  0
  9 10  1  0  0  0  0
  9 11  1  0  0  0  0
  9 20  1  0  0  0  0
  7  8  1  0  0  0  0
  7  9  1  0  0  0  0
 24 25  1  0  0  0  0
 24 26  1  0  0  0  0
 24 27  1  0  0  0  0
 22 23  1  0  0  0  0
 22 24  1  0  0  0  0
M  CHG  1  18  -1
M  END
$$$$
default_name
  -OEChem-02102213163D

 27 26  0     1  0  0  0  0  0999 V2000
   -3.2406   -3.5400    1.2326 H   0  0  0  0  0  0  0  0  0  0  0  0
   -3.1436   -2.6190    0.6606 C   0  0  0  0  0  0  0  0  0  0  0  0
   -3.8786   -1.8920    0.9996 H   0  0  0  0  0  0  0  0  0  0  0  0
   -3.2846   -2.8280   -0.3984 H   0  0  0  0  0  0  0  0  0  0  0  0
   -1.7586   -2.0580    0.8686 C   0  0  0  0  0  0  0  0  0  0  0  0
   -0.9666   -2.6340    1.6026 O   0  0  0  0  0  0  0  0  0  0  0  0
   -1.4866   -0.9220    0.2366 N   0  0  0  0  0  0  0  0  0  0  0  0
   -2.2166   -0.4790   -0.2994 H   0  0  0  0  0  0  0  0  0  0  0  0
   -0.1956   -0.2250    0.2596 C   0  0  1  0  0  0  0  0  0  0  0  0
    0.3927   -0.6026    1.0964 H   0  0  0  0  0  0  0  0  0  0  0  0
    0.5767   -0.5489   -1.0351 C   0  0  0  0  0  0  0  0  0  0  0  0
    0.7244   -1.6291   -1.0772 H   0  0  0  0  0  0  0  0  0  0  0  0
   -0.0223   -0.2491   -1.8963 H   0  0  0  0  0  0  0  0  0  0  0  0
    1.9521    0.1347   -1.1148 C   0  0  0  0  0  0  0  0  0  0  0  0
    2.7324   -0.6120   -0.9489 H   0  0  0  0  0  0  0  0  0  0  0  0
    2.0781    0.5354   -2.1241 H   0  0  0  0  0  0  0  0  0  0  0  0
    2.1301    1.2685   -0.0941 C   0  0  0  0  0  0  0  0  0  0  0  0
    1.1395    1.6147    0.5880 O   0  5  0  0  0  0  0  0  0  0  0  0
    3.2766    1.7595    0.0047 O   0  0  0  0  0  0  0  0  0  0  0  0
   -0.3954    1.2887    0.4814 C   0  0  0  0  0  0  0  0  0  0  0  0
   -1.2761    1.9015   -0.1256 O   0  0  0  0  0  0  0  0  0  0  0  0
    0.4051    1.8919    1.3699 N   0  0  0  0  0  0  0  0  0  0  0  0
    1.1380    1.3380    1.7875 H   0  0  0  0  0  0  0  0  0  0  0  0
    0.3573    3.3183    1.6807 C   0  0  0  0  0  0  0  0  0  0  0  0
   -0.6670    3.6090    1.9198 H   0  0  0  0  0  0  0  0  0  0  0  0
    1.0066    3.5397    2.5289 H   0  0  0  0  0  0  0  0  0  0  0  0
    0.6896    3.8897    0.8118 H   0  0  0  0  0  0  0  0  0  0  0  0
  5  6  2  0  0  0  0
  5  7  1  0  0  0  0
  2  3  1  0  0  0  0
  2  4  1  0  0  0  0
  2  5  1  0  0  0  0
  1  2  1  0  0  0  0
 20 21  2  0  0  0  0
 20 22  1  0  0  0  0
 17 18  1  0  0  0  0
 17 19  2  0  0  0  0
 14 15  1  0  0  0  0
 14 16  1  0  0  0  0
 14 17  1  0  0  0  0
 11 12  1  0  0  0  0
 11 13  1  0  0  0  0
 11 14  1  0  0  0  0
  9 10  1  0  0  0  0
  9 11  1  0  0  0  0
  9 20  1  0  0  0  0
  7  8  1  0  0  0  0
  7  9  1  0  0  0  0
 24 25  1  0  0  0  0
 24 26  1  0  0  0  0
 24 27  1  0  0  0  0
 22 23  1  0  0  0  0
 22 24  1  0  0  0  0
M  CHG  1  18  -1
M  END
$$$$
default_name
  -OEChem-02102213163D

 27 26  0     1  0  0  0  0  0999 V2000
   -3.2406   -3.5400    1.2326 H   0  0  0  0  0  0  0  0  0  0  0  0
   -3.1436   -2.6190    0.6606 C   0  0  0  0  0  0  0  0  0  0  0  0
   -3.8786   -1.8920    0.9996 H   0  0  0  0  0  0  0  0  0  0  0  0
   -3.2846   -2.8280   -0.3984 H   0  0  0  0  0  0  0  0  0  0  0  0
   -1.7586   -2.0580    0.8686 C   0  0  0  0  0  0  0  0  0  0  0  0
   -0.9666   -2.6340    1.6026 O   0  0  0  0  0  0  0  0  0  0  0  0
   -1.4866   -0.9220    0.2366 N   0  0  0  0  0  0  0  0  0  0  0  0
   -2.2166   -0.4790   -0.2994 H   0  0  0  0  0  0  0  0  0  0  0  0
   -0.1956   -0.2250    0.2596 C   0  0  1  0  0  0  0  0  0  0  0  0
    0.3927   -0.6026    1.0964 H   0  0  0  0  0  0  0  0  0  0  0  0
    0.5767   -0.5489   -1.0351 C   0  0  0  0  0  0  0  0  0  0  0  0
    0.7244   -1.6291   -1.0772 H   0  0  0  0  0  0  0  0  0  0  0  0
   -0.0223   -0.2491   -1.8963 H   0  0  0  0  0  0  0  0  0  0  0  0
    1.9521    0.1347   -1.1148 C   0  0  0  0  0  0  0  0  0  0  0  0
    2.7258   -0.6300   -1.2178 H   0  0  0  0  0  0  0  0  0  0  0  0
    1.9735    0.7588   -2.0121 H   0  0  0  0  0  0  0  0  0  0  0  0
    2.2753    1.0005    0.1120 C   0  0  0  0  0  0  0  0  0  0  0  0
    1.3781    1.1786    0.9663 O   0  5  0  0  0  0  0  0  0  0  0  0
    3.4384    1.4553    0.1870 O   0  0  0  0  0  0  0  0  0  0  0  0
   -0.3954    1.2887    0.4814 C   0  0  0  0  0  0  0  0  0  0  0  0
   -1.2761    1.9015   -0.1256 O   0  0  0  0  0  0  0  0  0  0  0  0
    0.4051    1.8919    1.3699 N   0  0  0  0  0  0  0  0  0  0  0  0
    1.1380    1.3380    1.7875 H   0  0  0  0  0  0  0  0  0  0  0  0
    0.3573    3.3183    1.6807 C   0  0  0  0  0  0  0  0  0  0  0  0
   -0.6670    3.6090    1.9198 H   0  0  0  0  0  0  0  0  0  0  0  0
    1.0066    3.5397    2.5289 H   0  0  0  0  0  0  0  0  0  0  0  0
    0.6896    3.8897    0.8118 H   0  0  0  0  0  0  0  0  0  0  0  0
  5  6  2  0  0  0  0
  5  7  1  0  0  0  0
  2  3  1  0  0  0  0
  2  4  1  0  0  0  0
  2  5  1  0  0  0  0
  1  2  1  0  0  0  0
 20 21  2  0  0  0  0
 20 22  1  0  0  0  0
 17 18  1  0  0  0  0
 17 19  2  0  0  0  0
 14 15  1  0  0  0  0
 14 16  1  0  0  0  0
 14 17  1  0  0  0  0
 11 12  1  0  0  0  0
 11 13  1  0  0  0  0
 11 14  1  0  0  0  0
  9 10  1  0  0  0  0
  9 11  1  0  0  0  0
  9 20  1  0  0  0  0
  7  8  1  0  0  0  0
  7  9  1  0  0  0  0
 24 25  1  0  0  0  0
 24 26  1  0  0  0  0
 24 27  1  0  0  0  0
 22 23  1  0  0  0  0
 22 24  1  0  0  0  0
M  CHG  1  18  -1
M  END
$$$$
default_name
  -OEChem-02102213163D

 27 26  0     1  0  0  0  0  0999 V2000
   -3.2406   -3.5400    1.2326 H   0  0  0  0  0  0  0  0  0  0  0  0
   -3.1436   -2.6190    0.6606 C   0  0  0  0  0  0  0  0  0  0  0  0
   -3.8786   -1.8920    0.9996 H   0  0  0  0  0  0  0  0  0  0  0  0
   -3.2846   -2.8280   -0.3984 H   0  0  0  0  0  0  0  0  0  0  0  0
   -1.7586   -2.0580    0.8686 C   0  0  0  0  0  0  0  0  0  0  0  0
   -0.9666   -2.6340    1.6026 O   0  0  0  0  0  0  0  0  0  0  0  0
   -1.4866   -0.9220    0.2366 N   0  0  0  0  0  0  0  0  0  0  0  0
   -2.2166   -0.4790   -0.2994 H   0  0  0  0  0  0  0  0  0  0  0  0
   -0.1956   -0.2250    0.2596 C   0  0  1  0  0  0  0  0  0  0  0  0
    0.3927   -0.6026    1.0964 H   0  0  0  0  0  0  0  0  0  0  0  0
    0.5767   -0.5489   -1.0351 C   0  0  0  0  0  0  0  0  0  0  0  0
    0.7244   -1.6291   -1.0772 H   0  0  0  0  0  0  0  0  0  0  0  0
   -0.0223   -0.2491   -1.8963 H   0  0  0  0  0  0  0  0  0  0  0  0
    1.9521    0.1347   -1.1148 C   0  0  0  0  0  0  0  0  0  0  0  0
    2.6882   -0.5850   -1.4809 H   0  0  0  0  0  0  0  0  0  0  0  0
    1.8884    0.9502   -1.8401 H   0  0  0  0  0  0  0  0  0  0  0  0
    2.4356    0.6919    0.2323 C   0  0  0  0  0  0  0  0  0  0  0  0
    1.6463    0.6667    1.2033 O   0  5  0  0  0  0  0  0  0  0  0  0
    3.6115    1.1171    0.2741 O   0  0  0  0  0  0  0  0  0  0  0  0
   -0.3954    1.2887    0.4814 C   0  0  0  0  0  0  0  0  0  0  0  0
   -1.2761    1.9015   -0.1256 O   0  0  0  0  0  0  0  0  0  0  0  0
    0.4051    1.8919    1.3699 N   0  0  0  0  0  0  0  0  0  0  0  0
    1.1380    1.3380    1.7875 H   0  0  0  0  0  0  0  0  0  0  0  0
    0.3573    3.3183    1.6807 C   0  0  0  0  0  0  0  0  0  0  0  0
   -0.6670    3.6090    1.9198 H   0  0  0  0  0  0  0  0  0  0  0  0
    1.0066    3.5397    2.5289 H   0  0  0  0  0  0  0  0  0  0  0  0
    0.6896    3.8897    0.8118 H   0  0  0  0  0  0  0  0  0  0  0  0
  5  6  2  0  0  0  0
  5  7  1  0  0  0  0
  2  3  1  0  0  0  0
  2  4  1  0  0  0  0
  2  5  1  0  0  0  0
  1  2  1  0  0  0  0
 20 21  2  0  0  0  0
 20 22  1  0  0  0  0
 17 18  1  0  0  0  0
 17 19  2  0  0  0  0
 14 15  1  0  0  0  0
 14 16  1  0  0  0  0
 14 17  1  0  0  0  0
 11 12  1  0  0  0  0
 11 13  1  0  0  0  0
 11 14  1  0  0  0  0
  9 10  1  0  0  0  0
  9 11  1  0  0  0  0
  9 20  1  0  0  0  0
  7  8  1  0  0  0  0
  7  9  1  0  0  0  0
 24 25  1  0  0  0  0
 24 26  1  0  0  0  0
 24 27  1  0  0  0  0
 22 23  1  0  0  0  0
 22 24  1  0  0  0  0
M  CHG  1  18  -1
M  END
$$$$
default_name
  -OEChem-02102213163D

 27 26  0     1  0  0  0  0  0999 V2000
   -3.2406   -3.5400    1.2326 H   0  0  0  0  0  0  0  0  0  0  0  0
   -3.1436   -2.6190    0.6606 C   0  0  0  0  0  0  0  0  0  0  0  0
   -3.8786   -1.8920    0.9996 H   0  0  0  0  0  0  0  0  0  0  0  0
   -3.2846   -2.8280   -0.3984 H   0  0  0  0  0  0  0  0  0  0  0  0
   -1.7586   -2.0580    0.8686 C   0  0  0  0  0  0  0  0  0  0  0  0
   -0.9666   -2.6340    1.6026 O   0  0  0  0  0  0  0  0  0  0  0  0
   -1.4866   -0.9220    0.2366 N   0  0  0  0  0  0  0  0  0  0  0  0
   -2.2166   -0.4790   -0.2994 H   0  0  0  0  0  0  0  0  0  0  0  0
   -0.1956   -0.2250    0.2596 C   0  0  1  0  0  0  0  0  0  0  0  0
    0.3927   -0.6026    1.0964 H   0  0  0  0  0  0  0  0  0  0  0  0
    0.5767   -0.5489   -1.0351 C   0  0  0  0  0  0  0  0  0  0  0  0
    0.7244   -1.6291   -1.0772 H   0  0  0  0  0  0  0  0  0  0  0  0
   -0.0223   -0.2491   -1.8963 H   0  0  0  0  0  0  0  0  0  0  0  0
    1.9521    0.1347   -1.1148 C   0  0  0  0  0  0  0  0  0  0  0  0
    2.6222   -0.4802   -1.7203 H   0  0  0  0  0  0  0  0  0  0  0  0
    1.8285    1.0963   -1.6200 H   0  0  0  0  0  0  0  0  0  0  0  0
    2.6002    0.3639    0.2587 C   0  0  0  0  0  0  0  0  0  0  0  0
    1.9257    0.1137    1.2829 O   0  5  0  0  0  0  0  0  0  0  0  0
    3.7842    0.7679    0.2600 O   0  0  0  0  0  0  0  0  0  0  0  0
   -0.3954    1.2887    0.4814 C   0  0  0  0  0  0  0  0  0  0  0  0
   -1.2761    1.9015   -0.1256 O   0  0  0  0  0  0  0  0  0  0  0  0
    0.4051    1.8919    1.3699 N   0  0  0  0  0  0  0  0  0  0  0  0
    1.1380    1.3380    1.7875 H   0  0  0  0  0  0  0  0  0  0  0  0
    0.3573    3.3183    1.6807 C   0  0  0  0  0  0  0  0  0  0  0  0
   -0.6670    3.6090    1.9198 H   0  0  0  0  0  0  0  0  0  0  0  0
    1.0066    3.5397    2.5289 H   0  0  0  0  0  0  0  0  0  0  0  0
    0.6896    3.8897    0.8118 H   0  0  0  0  0  0  0  0  0  0  0  0
  5  6  2  0  0  0  0
  5  7  1  0  0  0  0
  2  3  1  0  0  0  0
  2  4  1  0  0  0  0
  2  5  1  0  0  0  0
  1  2  1  0  0  0  0
 20 21  2  0  0  0  0
 20 22  1  0  0  0  0
 17 18  1  0  0  0  0
 17 19  2  0  0  0  0
 14 15  1  0  0  0  0
 14 16  1  0  0  0  0
 14 17  1  0  0  0  0
 11 12  1  0  0  0  0
 11 13  1  0  0  0  0
 11 14  1  0  0  0  0
  9 10  1  0  0  0  0
  9 11  1  0  0  0  0
  9 20  1  0  0  0  0
  7  8  1  0  0  0  0
  7  9  1  0  0  0  0
 24 25  1  0  0  0  0
 24 26  1  0  0  0  0
 24 27  1  0  0  0  0
 22 23  1  0  0  0  0
 22 24  1  0  0  0  0
M  CHG  1  18  -1
M  END
$$$$
default_name
  -OEChem-02102213163D

 27 26  0     1  0  0  0  0  0999 V2000
   -3.2406   -3.5400    1.2326 H   0  0  0  0  0  0  0  0  0  0  0  0
   -3.1436   -2.6190    0.6606 C   0  0  0  0  0  0  0  0  0  0  0  0
   -3.8786   -1.8920    0.9996 H   0  0  0  0  0  0  0  0  0  0  0  0
   -3.2846   -2.8280   -0.3984 H   0  0  0  0  0  0  0  0  0  0  0  0
   -1.7586   -2.0580    0.8686 C   0  0  0  0  0  0  0  0  0  0  0  0
   -0.9666   -2.6340    1.6026 O   0  0  0  0  0  0  0  0  0  0  0  0
   -1.4866   -0.9220    0.2366 N   0  0  0  0  0  0  0  0  0  0  0  0
   -2.2166   -0.4790   -0.2994 H   0  0  0  0  0  0  0  0  0  0  0  0
   -0.1956   -0.2250    0.2596 C   0  0  1  0  0  0  0  0  0  0  0  0
    0.3927   -0.6026    1.0964 H   0  0  0  0  0  0  0  0  0  0  0  0
    0.5767   -0.5489   -1.0351 C   0  0  0  0  0  0  0  0  0  0  0  0
    0.7244   -1.6291   -1.0772 H   0  0  0  0  0  0  0  0  0  0  0  0
   -0.0223   -0.2491   -1.8963 H   0  0  0  0  0  0  0  0  0  0  0  0
    1.9521    0.1347   -1.1148 C   0  0  0  0  0  0  0  0  0  0  0  0
    2.5324   -0.3227   -1.9198 H   0  0  0  0  0  0  0  0  0  0  0  0
    1.7980    1.1873   -1.3666 H   0  0  0  0  0  0  0  0  0  0  0  0
    2.7578    0.0387    0.1893 C   0  0  0  0  0  0  0  0  0  0  0  0
    2.1974   -0.4426    1.1997 O   0  5  0  0  0  0  0  0  0  0  0  0
    3.9448    0.4316    0.1456 O   0  0  0  0  0  0  0  0  0  0  0  0
   -0.3954    1.2887    0.4814 C   0  0  0  0  0  0  0  0  0  0  0  0
   -1.2761    1.9015   -0.1256 O   0  0  0  0  0  0  0  0  0  0  0  0
    0.4051    1.8919    1.3699 N   0  0  0  0  0  0  0  0  0  0  0  0
    1.1380    1.3380    1.7875 H   0  0  0  0  0  0  0  0  0  0  0  0
    0.3573    3.3183    1.6807 C   0  0  0  0  0  0  0  0  0  0  0  0
   -0.6670    3.6090    1.9198 H   0  0  0  0  0  0  0  0  0  0  0  0
    1.0066    3.5397    2.5289 H   0  0  0  0  0  0  0  0  0  0  0  0
    0.6896    3.8897    0.8118 H   0  0  0  0  0  0  0  0  0  0  0  0
  5  6  2  0  0  0  0
  5  7  1  0  0  0  0
  2  3  1  0  0  0  0
  2  4  1  0  0  0  0
  2  5  1  0  0  0  0
  1  2  1  0  0  0  0
 20 21  2  0  0  0  0
 20 22  1  0  0  0  0
 17 18  1  0  0  0  0
 17 19  2  0  0  0  0
 14 15  1  0  0  0  0
 14 16  1  0  0  0  0
 14 17  1  0  0  0  0
 11 12  1  0  0  0  0
 11 13  1  0  0  0  0
 11 14  1  0  0  0  0
  9 10  1  0  0  0  0
  9 11  1  0  0  0  0
  9 20  1  0  0  0  0
  7  8  1  0  0  0  0
  7  9  1  0  0  0  0
 24 25  1  0  0  0  0
 24 26  1  0  0  0  0
 24 27  1  0  0  0  0
 22 23  1  0  0  0  0
 22 24  1  0  0  0  0
M  CHG  1  18  -1
M  END
$$$$
default_name
  -OEChem-02102213163D

 27 26  0     1  0  0  0  0  0999 V2000
   -3.2406   -3.5400    1.2326 H   0  0  0  0  0  0  0  0  0  0  0  0
   -3.1436   -2.6190    0.6606 C   0  0  0  0  0  0  0  0  0  0  0  0
   -3.8786   -1.8920    0.9996 H   0  0  0  0  0  0  0  0  0  0  0  0
   -3.2846   -2.8280   -0.3984 H   0  0  0  0  0  0  0  0  0  0  0  0
   -1.7586   -2.0580    0.8686 C   0  0  0  0  0  0  0  0  0  0  0  0
   -0.9666   -2.6340    1.6026 O   0  0  0  0  0  0  0  0  0  0  0  0
   -1.4866   -0.9220    0.2366 N   0  0  0  0  0  0  0  0  0  0  0  0
   -2.2166   -0.4790   -0.2994 H   0  0  0  0  0  0  0  0  0  0  0  0
   -0.1956   -0.2250    0.2596 C   0  0  1  0  0  0  0  0  0  0  0  0
    0.3927   -0.6026    1.0964 H   0  0  0  0  0  0  0  0  0  0  0  0
    0.5767   -0.5489   -1.0351 C   0  0  0  0  0  0  0  0  0  0  0  0
    0.7244   -1.6291   -1.0772 H   0  0  0  0  0  0  0  0  0  0  0  0
   -0.0223   -0.2491   -1.8963 H   0  0  0  0  0  0  0  0  0  0  0  0
    1.9521    0.1347   -1.1148 C   0  0  0  0  0  0  0  0  0  0  0  0
    2.4248   -0.1232   -2.0656 H   0  0  0  0  0  0  0  0  0  0  0  0
    1.7988    1.2170   -1.0972 H   0  0  0  0  0  0  0  0  0  0  0  0
    2.8976   -0.2614    0.0289 C   0  0  0  0  0  0  0  0  0  0  0  0
    2.4427   -0.9643    0.9593 O   0  5  0  0  0  0  0  0  0  0  0  0
    4.0822    0.1310   -0.0611 O   0  0  0  0  0  0  0  0  0  0  0  0
   -0.3954    1.2887    0.4814 C   0  0  0  0  0  0  0  0  0  0  0  0
   -1.2761    1.9015   -0.1256 O   0  0  0  0  0  0  0  0  0  0  0  0
    0.4051    1.8919    1.3699 N   0  0  0  0  0  0  0  0  0  0  0  0
    1.1380    1.3380    1.7875 H   0  0  0  0  0  0  0  0  0  0  0  0
    0.3573    3.3183    1.6807 C   0  0  0  0  0  0  0  0  0  0  0  0
   -0.6670    3.6090    1.9198 H   0  0  0  0  0  0  0  0  0  0  0  0
    1.0066    3.5397    2.5289 H   0  0  0  0  0  0  0  0  0  0  0  0
    0.6896    3.8897    0.8118 H   0  0  0  0  0  0  0  0  0  0  0  0
  5  6  2  0  0  0  0
  5  7  1  0  0  0  0
  2  3  1  0  0  0  0
  2  4  1  0  0  0  0
  2  5  1  0  0  0  0
  1  2  1  0  0  0  0
 20 21  2  0  0  0  0
 20 22  1  0  0  0  0
 17 18  1  0  0  0  0
 17 19  2  0  0  0  0
 14 15  1  0  0  0  0
 14 16  1  0  0  0  0
 14 17  1  0  0  0  0
 11 12  1  0  0  0  0
 11 13  1  0  0  0  0
 11 14  1  0  0  0  0
  9 10  1  0  0  0  0
  9 11  1  0  0  0  0
  9 20  1  0  0  0  0
  7  8  1  0  0  0  0
  7  9  1  0  0  0  0
 24 25  1  0  0  0  0
 24 26  1  0  0  0  0
 24 27  1  0  0  0  0
 22 23  1  0  0  0  0
 22 24  1  0  0  0  0
M  CHG  1  18  -1
M  END
$$$$
default_name
  -OEChem-02102213163D

 27 26  0     1  0  0  0  0  0999 V2000
   -3.2406   -3.5400    1.2326 H   0  0  0  0  0  0  0  0  0  0  0  0
   -3.1436   -2.6190    0.6606 C   0  0  0  0  0  0  0  0  0  0  0  0
   -3.8786   -1.8920    0.9996 H   0  0  0  0  0  0  0  0  0  0  0  0
   -3.2846   -2.8280   -0.3984 H   0  0  0  0  0  0  0  0  0  0  0  0
   -1.7586   -2.0580    0.8686 C   0  0  0  0  0  0  0  0  0  0  0  0
   -0.9666   -2.6340    1.6026 O   0  0  0  0  0  0  0  0  0  0  0  0
   -1.4866   -0.9220    0.2366 N   0  0  0  0  0  0  0  0  0  0  0  0
   -2.2166   -0.4790   -0.2994 H   0  0  0  0  0  0  0  0  0  0  0  0
   -0.1956   -0.2250    0.2596 C   0  0  1  0  0  0  0  0  0  0  0  0
    0.3927   -0.6026    1.0964 H   0  0  0  0  0  0  0  0  0  0  0  0
    0.5767   -0.5489   -1.0351 C   0  0  0  0  0  0  0  0  0  0  0  0
    0.7244   -1.6291   -1.0772 H   0  0  0  0  0  0  0  0  0  0  0  0
   -0.0223   -0.2491   -1.8963 H   0  0  0  0  0  0  0  0  0  0  0  0
    1.9521    0.1347   -1.1148 C   0  0  0  0  0  0  0  0  0  0  0  0
    2.3067    0.1048   -2.1479 H   0  0  0  0  0  0  0  0  0  0  0  0
    1.8310    1.1833   -0.8303 H   0  0  0  0  0  0  0  0  0  0  0  0
    3.0103   -0.5161   -0.2116 C   0  0  0  0  0  0  0  0  0  0  0  0
    2.6451   -1.4158    0.5780 O   0  5  0  0  0  0  0  0  0  0  0  0
    4.1871   -0.1133   -0.3462 O   0  0  0  0  0  0  0  0  0  0  0  0
   -0.3954    1.2887    0.4814 C   0  0  0  0  0  0  0  0  0  0  0  0
   -1.2761    1.9015   -0.1256 O   0  0  0  0  0  0  0  0  0  0  0  0
    0.4051    1.8919    1.3699 N   0  0  0  0  0  0  0  0  0  0  0  0
    1.1380    1.3380    1.7875 H   0  0  0  0  0  0  0  0  0  0  0  0
    0.3573    3.3183    1.6807 C   0  0  0  0  0  0  0  0  0  0  0  0
   -0.6670    3.6090    1.9198 H   0  0  0  0  0  0  0  0  0  0  0  0
    1.0066    3.5397    2.5289 H   0  0  0  0  0  0  0  0  0  0  0  0
    0.6896    3.8897    0.8118 H   0  0  0  0  0  0  0  0  0  0  0  0
  5  6  2  0  0  0  0
  5  7  1  0  0  0  0
  2  3  1  0  0  0  0
  2  4  1  0  0  0  0
  2  5  1  0  0  0  0
  1  2  1  0  0  0  0
 20 21  2  0  0  0  0
 20 22  1  0  0  0  0
 17 18  1  0  0  0  0
 17 19  2  0  0  0  0
 14 15  1  0  0  0  0
 14 16  1  0  0  0  0
 14 17  1  0  0  0  0
 11 12  1  0  0  0  0
 11 13  1  0  0  0  0
 11 14  1  0  0  0  0
  9 10  1  0  0  0  0
  9 11  1  0  0  0  0
  9 20  1  0  0  0  0
  7  8  1  0  0  0  0
  7  9  1  0  0  0  0
 24 25  1  0  0  0  0
 24 26  1  0  0  0  0
 24 27  1  0  0  0  0
 22 23  1  0  0  0  0
 22 24  1  0  0  0  0
M  CHG  1  18  -1
M  END
$$$$
default_name
  -OEChem-02102213163D

 27 26  0     1  0  0  0  0  0999 V2000
   -3.2406   -3.5400    1.2326 H   0  0  0  0  0  0  0  0  0  0  0  0
   -3.1436   -2.6190    0.6606 C   0  0  0  0  0  0  0  0  0  0  0  0
   -3.8786   -1.8920    0.9996 H   0  0  0  0  0  0  0  0  0  0  0  0
   -3.2846   -2.8280   -0.3984 H   0  0  0  0  0  0  0  0  0  0  0  0
   -1.7586   -2.0580    0.8686 C   0  0  0  0  0  0  0  0  0  0  0  0
   -0.9666   -2.6340    1.6026 O   0  0  0  0  0  0  0  0  0  0  0  0
   -1.4866   -0.9220    0.2366 N   0  0  0  0  0  0  0  0  0  0  0  0
   -2.2166   -0.4790   -0.2994 H   0  0  0  0  0  0  0  0  0  0  0  0
   -0.1956   -0.2250    0.2596 C   0  0  1  0  0  0  0  0  0  0  0  0
    0.3927   -0.6026    1.0964 H   0  0  0  0  0  0  0  0  0  0  0  0
    0.5767   -0.5489   -1.0351 C   0  0  0  0  0  0  0  0  0  0  0  0
    0.7244   -1.6291   -1.0772 H   0  0  0  0  0  0  0  0  0  0  0  0
   -0.0223   -0.2491   -1.8963 H   0  0  0  0  0  0  0  0  0  0  0  0
    1.9521    0.1347   -1.1148 C   0  0  0  0  0  0  0  0  0  0  0  0
    2.1863    0.3456   -2.1610 H   0  0  0  0  0  0  0  0  0  0  0  0
    1.8924    1.0886   -0.5839 H   0  0  0  0  0  0  0  0  0  0  0  0
    3.0880   -0.7079   -0.5158 C   0  0  0  0  0  0  0  0  0  0  0  0
    2.7907   -1.7665    0.0820 O   0  5  0  0  0  0  0  0  0  0  0  0
    4.2524   -0.2847   -0.6902 O   0  0  0  0  0  0  0  0  0  0  0  0
   -0.3954    1.2887    0.4814 C   0  0  0  0  0  0  0  0  0  0  0  0
   -1.2761    1.9015   -0.1256 O   0  0  0  0  0  0  0  0  0  0  0  0
    0.4051    1.8919    1.3699 N   0  0  0  0  0  0  0  0  0  0  0  0
    1.1380    1.3380    1.7875 H   0  0  0  0  0  0  0  0  0  0  0  0
    0.3573    3.3183    1.6807 C   0  0  0  0  0  0  0  0  0  0  0  0
   -0.6670    3.6090    1.9198 H   0  0  0  0  0  0  0  0  0  0  0  0
    1.0066    3.5397    2.5289 H   0  0  0  0  0  0  0  0  0  0  0  0
    0.6896    3.8897    0.8118 H   0  0  0  0  0  0  0  0  0  0  0  0
  5  6  2  0  0  0  0
  5  7  1  0  0  0  0
  2  3  1  0  0  0  0
  2  4  1  0  0  0  0
  2  5  1  0  0  0  0
  1  2  1  0  0  0  0
 20 21  2  0  0  0  0
 20 22  1  0  0  0  0
 17 18  1  0  0  0  0
 17 19  2  0  0  0  0
 14 15  1  0  0  0  0
 14 16  1  0  0  0  0
 14 17  1  0  0  0  0
 11 12  1  0  0  0  0
 11 13  1  0  0  0  0
 11 14  1  0  0  0  0
  9 10  1  0  0  0  0
  9 11  1  0  0  0  0
  9 20  1  0  0  0  0
  7  8  1  0  0  0  0
  7  9  1  0  0  0  0
 24 25  1  0  0  0  0
 24 26  1  0  0  0  0
 24 27  1  0  0  0  0
 22 23  1  0  0  0  0
 22 24  1  0  0  0  0
M  CHG  1  18  -1
M  END
$$$$
default_name
  -OEChem-02102213163D

 27 26  0     1  0  0  0  0  0999 V2000
   -3.2406   -3.5400    1.2326 H   0  0  0  0  0  0  0  0  0  0  0  0
   -3.1436   -2.6190    0.6606 C   0  0  0  0  0  0  0  0  0  0  0  0
   -3.8786   -1.8920    0.9996 H   0  0  0  0  0  0  0  0  0  0  0  0
   -3.2846   -2.8280   -0.3984 H   0  0  0  0  0  0  0  0  0  0  0  0
   -1.7586   -2.0580    0.8686 C   0  0  0  0  0  0  0  0  0  0  0  0
   -0.9666   -2.6340    1.6026 O   0  0  0  0  0  0  0  0  0  0  0  0
   -1.4866   -0.9220    0.2366 N   0  0  0  0  0  0  0  0  0  0  0  0
   -2.2166   -0.4790   -0.2994 H   0  0  0  0  0  0  0  0  0  0  0  0
   -0.1956   -0.2250    0.2596 C   0  0  1  0  0  0  0  0  0  0  0  0
    0.3927   -0.6026    1.0964 H   0  0  0  0  0  0  0  0  0  0  0  0
    0.5767   -0.5489   -1.0351 C   0  0  0  0  0  0  0  0  0  0  0  0
    0.7244   -1.6291   -1.0772 H   0  0  0  0  0  0  0  0  0  0  0  0
   -0.0223   -0.2491   -1.8963 H   0  0  0  0  0  0  0  0  0  0  0  0
    1.9521    0.1347   -1.1148 C   0  0  0  0  0  0  0  0  0  0  0  0
    2.0716    0.5828   -2.1042 H   0  0  0  0  0  0  0  0  0  0  0  0
    1.9787    0.9392   -0.3750 H   0  0  0  0  0  0  0  0  0  0  0  0
    3.1255   -0.8238   -0.8630 C   0  0  0  0  0  0  0  0  0  0  0  0
    2.8695   -1.9923   -0.4950 O   0  5  0  0  0  0  0  0  0  0  0  0
    4.2736   -0.3715   -1.0696 O   0  0  0  0  0  0  0  0  0  0  0  0
   -0.3954    1.2887    0.4814 C   0  0  0  0  0  0  0  0  0  0  0  0
   -1.2761    1.9015   -0.1256 O   0  0  0  0  0  0  0  0  0  0  0  0
    0.4051    1.8919    1.3699 N   0  0  0  0  0  0  0  0  0  0  0  0
    1.1380    1.3380    1.7875 H   0  0  0  0  0  0  0  0  0  0  0  0
    0.3573    3.3183    1.6807 C   0  0  0  0  0  0  0  0  0  0  0  0
   -0.6670    3.6090    1.9198 H   0  0  0  0  0  0  0  0  0  0  0  0
    1.0066    3.5397    2.5289 H   0  0  0  0  0  0  0  0  0  0  0  0
    0.6896    3.8897    0.8118 H   0  0  0  0  0  0  0  0  0  0  0  0
  5  6  2  0  0  0  0
  5  7  1  0  0  0  0
  2  3  1  0  0  0  0
  2  4  1  0  0  0  0
  2  5  1  0  0  0  0
  1  2  1  0  0  0  0
 20 21  2  0  0  0  0
 20 22  1  0  0  0  0
 17 18  1  0  0  0  0
 17 19  2  0  0  0  0
 14 15  1  0  0  0  0
 14 16  1  0  0  0  0
 14 17  1  0  0  0  0
 11 12  1  0  0  0  0
 11 13  1  0  0  0  0
 11 14  1  0  0  0  0
  9 10  1  0  0  0  0
  9 11  1  0  0  0  0
  9 20  1  0  0  0  0
  7  8  1  0  0  0  0
  7  9  1  0  0  0  0
 24 25  1  0  0  0  0
 24 26  1  0  0  0  0
 24 27  1  0  0  0  0
 22 23  1  0  0  0  0
 22 24  1  0  0  0  0
M  CHG  1  18  -1
M  END
$$$$
default_name
  -OEChem-02102213163D

 27 26  0     1  0  0  0  0  0999 V2000
   -3.2406   -3.5400    1.2326 H   0  0  0  0  0  0  0  0  0  0  0  0
   -3.1436   -2.6190    0.6606 C   0  0  0  0  0  0  0  0  0  0  0  0
   -3.8786   -1.8920    0.9996 H   0  0  0  0  0  0  0  0  0  0  0  0
   -3.2846   -2.8280   -0.3984 H   0  0  0  0  0  0  0  0  0  0  0  0
   -1.7586   -2.0580    0.8686 C   0  0  0  0  0  0  0  0  0  0  0  0
   -0.9666   -2.6340    1.6026 O   0  0  0  0  0  0  0  0  0  0  0  0
   -1.4866   -0.9220    0.2366 N   0  0  0  0  0  0  0  0  0  0  0  0
   -2.2166   -0.4790   -0.2994 H   0  0  0  0  0  0  0  0  0  0  0  0
   -0.1956   -0.2250    0.2596 C   0  0  1  0  0  0  0  0  0  0  0  0
    0.3927   -0.6026    1.0964 H   0  0  0  0  0  0  0  0  0  0  0  0
    0.5767   -0.5489   -1.0351 C   0  0  0  0  0  0  0  0  0  0  0  0
    0.7244   -1.6291   -1.0772 H   0  0  0  0  0  0  0  0  0  0  0  0
   -0.0223   -0.2491   -1.8963 H   0  0  0  0  0  0  0  0  0  0  0  0
    1.9521    0.1347   -1.1148 C   0  0  0  0  0  0  0  0  0  0  0  0
    1.9706    0.8004   -1.9811 H   0  0  0  0  0  0  0  0  0  0  0  0
    2.0842    0.7454   -0.2177 H   0  0  0  0  0  0  0  0  0  0  0  0
    3.1202   -0.8559   -1.2295 C   0  0  0  0  0  0  0  0  0  0  0  0
    2.8763   -2.0780   -1.1137 O   0  5  0  0  0  0  0  0  0  0  0  0
    4.2492   -0.3679   -1.4587 O   0  0  0  0  0  0  0  0  0  0  0  0
   -0.3954    1.2887    0.4814 C   0  0  0  0  0  0  0  0  0  0  0  0
   -1.2761    1.9015   -0.1256 O   0  0  0  0  0  0  0  0  0  0  0  0
    0.4051    1.8919    1.3699 N   0  0  0  0  0  0  0  0  0  0  0  0
    1.1380    1.3380    1.7875 H   0  0  0  0  0  0  0  0  0  0  0  0
    0.3573    3.3183    1.6807 C   0  0  0  0  0  0  0  0  0  0  0  0
   -0.6670    3.6090    1.9198 H   0  0  0  0  0  0  0  0  0  0  0  0
    1.0066    3.5397    2.5289 H   0  0  0  0  0  0  0  0  0  0  0  0
    0.6896    3.8897    0.8118 H   0  0  0  0  0  0  0  0  0  0  0  0
  5  6  2  0  0  0  0
  5  7  1  0  0  0  0
  2  3  1  0  0  0  0
  2  4  1  0  0  0  0
  2  5  1  0  0  0  0
  1  2  1  0  0  0  0
 20 21  2  0  0  0  0
 20 22  1  0  0  0  0
 17 18  1  0  0  0  0
 17 19  2  0  0  0  0
 14 15  1  0  0  0  0
 14 16  1  0  0  0  0
 14 17  1  0  0  0  0
 11 12  1  0  0  0  0
 11 13  1  0  0  0  0
 11 14  1  0  0  0  0
  9 10  1  0  0  0  0
  9 11  1  0  0  0  0
  9 20  1  0  0  0  0
  7  8  1  0  0  0  0
  7  9  1  0  0  0  0
 24 25  1  0  0  0  0
 24 26  1  0  0  0  0
 24 27  1  0  0  0  0
 22 23  1  0  0  0  0
 22 24  1  0  0  0  0
M  CHG  1  18  -1
M  END
$$$$
default_name
  -OEChem-02102213163D

 27 26  0     1  0  0  0  0  0999 V2000
   -3.2406   -3.5400    1.2326 H   0  0  0  0  0  0  0  0  0  0  0  0
   -3.1436   -2.6190    0.6606 C   0  0  0  0  0  0  0  0  0  0  0  0
   -3.8786   -1.8920    0.9996 H   0  0  0  0  0  0  0  0  0  0  0  0
   -3.2846   -2.8280   -0.3984 H   0  0  0  0  0  0  0  0  0  0  0  0
   -1.7586   -2.0580    0.8686 C   0  0  0  0  0  0  0  0  0  0  0  0
   -0.9666   -2.6340    1.6026 O   0  0  0  0  0  0  0  0  0  0  0  0
   -1.4866   -0.9220    0.2366 N   0  0  0  0  0  0  0  0  0  0  0  0
   -2.2166   -0.4790   -0.2994 H   0  0  0  0  0  0  0  0  0  0  0  0
   -0.1956   -0.2250    0.2596 C   0  0  1  0  0  0  0  0  0  0  0  0
    0.3927   -0.6026    1.0964 H   0  0  0  0  0  0  0  0  0  0  0  0
    0.5767   -0.5489   -1.0351 C   0  0  0  0  0  0  0  0  0  0  0  0
    0.7244   -1.6291   -1.0772 H   0  0  0  0  0  0  0  0  0  0  0  0
   -0.0223   -0.2491   -1.8963 H   0  0  0  0  0  0  0  0  0  0  0  0
    1.9521    0.1347   -1.1148 C   0  0  0  0  0  0  0  0  0  0  0  0
    1.8902    0.9834   -1.8003 H   0  0  0  0  0  0  0  0  0  0  0  0
    2.2015    0.5203   -0.1227 H   0  0  0  0  0  0  0  0  0  0  0  0
    3.0725   -0.8020   -1.5903 C   0  0  0  0  0  0  0  0  0  0  0  0
    2.8104   -2.0176   -1.7319 O   0  5  0  0  0  0  0  0  0  0  0  0
    4.1810   -0.2739   -1.8308 O   0  0  0  0  0  0  0  0  0  0  0  0
   -0.3954    1.2887    0.4814 C   0  0  0  0  0  0  0  0  0  0  0  0
   -1.2761    1.9015   -0.1256 O   0  0  0  0  0  0  0  0  0  0  0  0
    0.4051    1.8919    1.3699 N   0  0  0  0  0  0  0  0  0  0  0  0
    1.1380    1.3380    1.7875 H   0  0  0  0  0  0  0  0  0  0  0  0
    0.3573    3.3183    1.6807 C   0  0  0  0  0  0  0  0  0  0  0  0
   -0.6670    3.6090    1.9198 H   0  0  0  0  0  0  0  0  0  0  0  0
    1.0066    3.5397    2.5289 H   0  0  0  0  0  0  0  0  0  0  0  0
    0.6896    3.8897    0.8118 H   0  0  0  0  0  0  0  0  0  0  0  0
  5  6  2  0  0  0  0
  5  7  1  0  0  0  0
  2  3  1  0  0  0  0
  2  4  1  0  0  0  0
  2  5  1  0  0  0  0
  1  2  1  0  0  0  0
 20 21  2  0  0  0  0
 20 22  1  0  0  0  0
 17 18  1  0  0  0  0
 17 19  2  0  0  0  0
 14 15  1  0  0  0  0
 14 16  1  0  0  0  0
 14 17  1  0  0  0  0
 11 12  1  0  0  0  0
 11 13  1  0  0  0  0
 11 14  1  0  0  0  0
  9 10  1  0  0  0  0
  9 11  1  0  0  0  0
  9 20  1  0  0  0  0
  7  8  1  0  0  0  0
  7  9  1  0  0  0  0
 24 25  1  0  0  0  0
 24 26  1  0  0  0  0
 24 27  1  0  0  0  0
 22 23  1  0  0  0  0
 22 24  1  0  0  0  0
M  CHG  1  18  -1
M  END
$$$$
default_name
  -OEChem-02102213163D

 27 26  0     1  0  0  0  0  0999 V2000
   -3.2406   -3.5400    1.2326 H   0  0  0  0  0  0  0  0  0  0  0  0
   -3.1436   -2.6190    0.6606 C   0  0  0  0  0  0  0  0  0  0  0  0
   -3.8786   -1.8920    0.9996 H   0  0  0  0  0  0  0  0  0  0  0  0
   -3.2846   -2.8280   -0.3984 H   0  0  0  0  0  0  0  0  0  0  0  0
   -1.7586   -2.0580    0.8686 C   0  0  0  0  0  0  0  0  0  0  0  0
   -0.9666   -2.6340    1.6026 O   0  0  0  0  0  0  0  0  0  0  0  0
   -1.4866   -0.9220    0.2366 N   0  0  0  0  0  0  0  0  0  0  0  0
   -2.2166   -0.4790   -0.2994 H   0  0  0  0  0  0  0  0  0  0  0  0
   -0.1956   -0.2250    0.2596 C   0  0  1  0  0  0  0  0  0  0  0  0
    0.3927   -0.6026    1.0964 H   0  0  0  0  0  0  0  0  0  0  0  0
    0.5767   -0.5489   -1.0351 C   0  0  0  0  0  0  0  0  0  0  0  0
    0.7244   -1.6291   -1.0772 H   0  0  0  0  0  0  0  0  0  0  0  0
   -0.0223   -0.2491   -1.8963 H   0  0  0  0  0  0  0  0  0  0  0  0
    1.9521    0.1347   -1.1148 C   0  0  0  0  0  0  0  0  0  0  0  0
    1.8357    1.1194   -1.5740 H   0  0  0  0  0  0  0  0  0  0  0  0
    2.3228    0.2794   -0.0965 H   0  0  0  0  0  0  0  0  0  0  0  0
    2.9857   -0.6658   -1.9209 C   0  0  0  0  0  0  0  0  0  0  0  0
    2.6766   -1.8153   -2.3075 O   0  5  0  0  0  0  0  0  0  0  0  0
    4.0735   -0.0962   -2.1607 O   0  0  0  0  0  0  0  0  0  0  0  0
   -0.3954    1.2887    0.4814 C   0  0  0  0  0  0  0  0  0  0  0  0
   -1.2761    1.9015   -0.1256 O   0  0  0  0  0  0  0  0  0  0  0  0
    0.4051    1.8919    1.3699 N   0  0  0  0  0  0  0  0  0  0  0  0
    1.1380    1.3380    1.7875 H   0  0  0  0  0  0  0  0  0  0  0  0
    0.3573    3.3183    1.6807 C   0  0  0  0  0  0  0  0  0  0  0  0
   -0.6670    3.6090    1.9198 H   0  0  0  0  0  0  0  0  0  0  0  0
    1.0066    3.5397    2.5289 H   0  0  0  0  0  0  0  0  0  0  0  0
    0.6896    3.8897    0.8118 H   0  0  0  0  0  0  0  0  0  0  0  0
  5  6  2  0  0  0  0
  5  7  1  0  0  0  0
  2  3  1  0  0  0  0
  2  4  1  0  0  0  0
  2  5  1  0  0  0  0
  1  2  1  0  0  0  0
 20 21  2  0  0  0  0
 20 22  1  0  0  0  0
 17 18  1  0  0  0  0
 17 19  2  0  0  0  0
 14 15  1  0  0  0  0
 14 16  1  0  0  0  0
 14 17  1  0  0  0  0
 11 12  1  0  0  0  0
 11 13  1  0  0  0  0
 11 14  1  0  0  0  0
  9 10  1  0  0  0  0
  9 11  1  0  0  0  0
  9 20  1  0  0  0  0
  7  8  1  0  0  0  0
  7  9  1  0  0  0  0
 24 25  1  0  0  0  0
 24 26  1  0  0  0  0
 24 27  1  0  0  0  0
 22 23  1  0  0  0  0
 22 24  1  0  0  0  0
M  CHG  1  18  -1
M  END
$$$$
default_name
  -OEChem-02102213163D

 27 26  0     1  0  0  0  0  0999 V2000
   -3.2406   -3.5400    1.2326 H   0  0  0  0  0  0  0  0  0  0  0  0
   -3.1436   -2.6190    0.6606 C   0  0  0  0  0  0  0  0  0  0  0  0
   -3.8786   -1.8920    0.9996 H   0  0  0  0  0  0  0  0  0  0  0  0
   -3.2846   -2.8280   -0.3984 H   0  0  0  0  0  0  0  0  0  0  0  0
   -1.7586   -2.0580    0.8686 C   0  0  0  0  0  0  0  0  0  0  0  0
   -0.9666   -2.6340    1.6026 O   0  0  0  0  0  0  0  0  0  0  0  0
   -1.4866   -0.9220    0.2366 N   0  0  0  0  0  0  0  0  0  0  0  0
   -2.2166   -0.4790   -0.2994 H   0  0  0  0  0  0  0  0  0  0  0  0
   -0.1956   -0.2250    0.2596 C   0  0  1  0  0  0  0  0  0  0  0  0
    0.3927   -0.6026    1.0964 H   0  0  0  0  0  0  0  0  0  0  0  0
    0.5767   -0.5489   -1.0351 C   0  0  0  0  0  0  0  0  0  0  0  0
    0.7244   -1.6291   -1.0772 H   0  0  0  0  0  0  0  0  0  0  0  0
   -0.0223   -0.2491   -1.8963 H   0  0  0  0  0  0  0  0  0  0  0  0
    1.9521    0.1347   -1.1148 C   0  0  0  0  0  0  0  0  0  0  0  0
    1.8109    1.1991   -1.3177 H   0  0  0  0  0  0  0  0  0  0  0  0
    2.4397    0.0390   -0.1410 H   0  0  0  0  0  0  0  0  0  0  0  0
    2.8656   -0.4565   -2.1987 C   0  0  0  0  0  0  0  0  0  0  0  0
    2.4837   -1.4849   -2.8013 O   0  5  0  0  0  0  0  0  0  0  0  0
    3.9342    0.1534   -2.4258 O   0  0  0  0  0  0  0  0  0  0  0  0
   -0.3954    1.2887    0.4814 C   0  0  0  0  0  0  0  0  0  0  0  0
   -1.2761    1.9015   -0.1256 O   0  0  0  0  0  0  0  0  0  0  0  0
    0.4051    1.8919    1.3699 N   0  0  0  0  0  0  0  0  0  0  0  0
    1.1380    1.3380    1.7875 H   0  0  0  0  0  0  0  0  0  0  0  0
    0.3573    3.3183    1.6807 C   0  0  0  0  0  0  0  0  0  0  0  0
   -0.6670    3.6090    1.9198 H   0  0  0  0  0  0  0  0  0  0  0  0
    1.0066    3.5397    2.5289 H   0  0  0  0  0  0  0  0  0  0  0  0
    0.6896    3.8897    0.8118 H   0  0  0  0  0  0  0  0  0  0  0  0
  5  6  2  0  0  0  0
  5  7  1  0  0  0  0
  2  3  1  0  0  0  0
  2  4  1  0  0  0  0
  2  5  1  0  0  0  0
  1  2  1  0  0  0  0
 20 21  2  0  0  0  0
 20 22  1  0  0  0  0
 17 18  1  0  0  0  0
 17 19  2  0  0  0  0
 14 15  1  0  0  0  0
 14 16  1  0  0  0  0
 14 17  1  0  0  0  0
 11 12  1  0  0  0  0
 11 13  1  0  0  0  0
 11 14  1  0  0  0  0
  9 10  1  0  0  0  0
  9 11  1  0  0  0  0
  9 20  1  0  0  0  0
  7  8  1  0  0  0  0
  7  9  1  0  0  0  0
 24 25  1  0  0  0  0
 24 26  1  0  0  0  0
 24 27  1  0  0  0  0
 22 23  1  0  0  0  0
 22 24  1  0  0  0  0
M  CHG  1  18  -1
M  END
$$$$
default_name
  -OEChem-02102213163D

 27 26  0     1  0  0  0  0  0999 V2000
   -3.2406   -3.5400    1.2326 H   0  0  0  0  0  0  0  0  0  0  0  0
   -3.1436   -2.6190    0.6606 C   0  0  0  0  0  0  0  0  0  0  0  0
   -3.8786   -1.8920    0.9996 H   0  0  0  0  0  0  0  0  0  0  0  0
   -3.2846   -2.8280   -0.3984 H   0  0  0  0  0  0  0  0  0  0  0  0
   -1.7586   -2.0580    0.8686 C   0  0  0  0  0  0  0  0  0  0  0  0
   -0.9666   -2.6340    1.6026 O   0  0  0  0  0  0  0  0  0  0  0  0
   -1.4866   -0.9220    0.2366 N   0  0  0  0  0  0  0  0  0  0  0  0
   -2.2166   -0.4790   -0.2994 H   0  0  0  0  0  0  0  0  0  0  0  0
   -0.1956   -0.2250    0.2596 C   0  0  1  0  0  0  0  0  0  0  0  0
    0.3927   -0.6026    1.0964 H   0  0  0  0  0  0  0  0  0  0  0  0
    0.5767   -0.5489   -1.0351 C   0  0  0  0  0  0  0  0  0  0  0  0
    0.4927   -1.6214   -1.2174 H   0  0  0  0  0  0  0  0  0  0  0  0
    0.1162   -0.0201   -1.8710 H   0  0  0  0  0  0  0  0  0  0  0  0
    2.0686   -0.1815   -0.9662 C   0  0  0  0  0  0  0  0  0  0  0  0
    2.1642    0.8871   -0.7595 H   0  0  0  0  0  0  0  0  0  0  0  0
    2.5182   -0.7276   -0.1327 H   0  0  0  0  0  0  0  0  0  0  0  0
    2.8368   -0.5045   -2.2564 C   0  0  0  0  0  0  0  0  0  0  0  0
    2.2429   -1.1360   -3.1591 O   0  5  0  0  0  0  0  0  0  0  0  0
    4.0140   -0.0867   -2.3278 O   0  0  0  0  0  0  0  0  0  0  0  0
   -0.3954    1.2887    0.4814 C   0  0  0  0  0  0  0  0  0  0  0  0
   -1.2761    1.9015   -0.1256 O   0  0  0  0  0  0  0  0  0  0  0  0
    0.4051    1.8919    1.3699 N   0  0  0  0  0  0  0  0  0  0  0  0
    1.1380    1.3380    1.7875 H   0  0  0  0  0  0  0  0  0  0  0  0
    0.3573    3.3183    1.6807 C   0  0  0  0  0  0  0  0  0  0  0  0
   -0.6670    3.6090    1.9198 H   0  0  0  0  0  0  0  0  0  0  0  0
    1.0066    3.5397    2.5289 H   0  0  0  0  0  0  0  0  0  0  0  0
    0.6896    3.8897    0.8118 H   0  0  0  0  0  0  0  0  0  0  0  0
  5  6  2  0  0  0  0
  5  7  1  0  0  0  0
  2  3  1  0  0  0  0
  2  4  1  0  0  0  0
  2  5  1  0  0  0  0
  1  2  1  0  0  0  0
 20 21  2  0  0  0  0
 20 22  1  0  0  0  0
 17 18  1  0  0  0  0
 17 19  2  0  0  0  0
 14 15  1  0  0  0  0
 14 16  1  0  0  0  0
 14 17  1  0  0  0  0
 11 12  1  0  0  0  0
 11 13  1  0  0  0  0
 11 14  1  0  0  0  0
  9 10  1  0  0  0  0
  9 11  1  0  0  0  0
  9 20  1  0  0  0  0
  7  8  1  0  0  0  0
  7  9  1  0  0  0  0
 24 25  1  0  0  0  0
 24 26  1  0  0  0  0
 24 27  1  0  0  0  0
 22 23  1  0  0  0  0
 22 24  1  0  0  0  0
M  CHG  1  18  -1
M  END
$$$$
default_name
  -OEChem-02102213163D

 27 26  0     1  0  0  0  0  0999 V2000
   -3.2406   -3.5400    1.2326 H   0  0  0  0  0  0  0  0  0  0  0  0
   -3.1436   -2.6190    0.6606 C   0  0  0  0  0  0  0  0  0  0  0  0
   -3.8786   -1.8920    0.9996 H   0  0  0  0  0  0  0  0  0  0  0  0
   -3.2846   -2.8280   -0.3984 H   0  0  0  0  0  0  0  0  0  0  0  0
   -1.7586   -2.0580    0.8686 C   0  0  0  0  0  0  0  0  0  0  0  0
   -0.9666   -2.6340    1.6026 O   0  0  0  0  0  0  0  0  0  0  0  0
   -1.4866   -0.9220    0.2366 N   0  0  0  0  0  0  0  0  0  0  0  0
   -2.2166   -0.4790   -0.2994 H   0  0  0  0  0  0  0  0  0  0  0  0
   -0.1956   -0.2250    0.2596 C   0  0  1  0  0  0  0  0  0  0  0  0
    0.3927   -0.6026    1.0964 H   0  0  0  0  0  0  0  0  0  0  0  0
    0.5767   -0.5489   -1.0351 C   0  0  0  0  0  0  0  0  0  0  0  0
    0.4927   -1.6214   -1.2174 H   0  0  0  0  0  0  0  0  0  0  0  0
    0.1162   -0.0201   -1.8710 H   0  0  0  0  0  0  0  0  0  0  0  0
    2.0686   -0.1815   -0.9662 C   0  0  0  0  0  0  0  0  0  0  0  0
    2.1732    0.8028   -0.5036 H   0  0  0  0  0  0  0  0  0  0  0  0
    2.5721   -0.9103   -0.3255 H   0  0  0  0  0  0  0  0  0  0  0  0
    2.7548   -0.1557   -2.3400 C   0  0  0  0  0  0  0  0  0  0  0  0
    2.1073   -0.5522   -3.3350 O   0  5  0  0  0  0  0  0  0  0  0  0
    3.9235    0.2895   -2.3751 O   0  0  0  0  0  0  0  0  0  0  0  0
   -0.3954    1.2887    0.4814 C   0  0  0  0  0  0  0  0  0  0  0  0
   -1.2761    1.9015   -0.1256 O   0  0  0  0  0  0  0  0  0  0  0  0
    0.4051    1.8919    1.3699 N   0  0  0  0  0  0  0  0  0  0  0  0
    1.1380    1.3380    1.7875 H   0  0  0  0  0  0  0  0  0  0  0  0
    0.3573    3.3183    1.6807 C   0  0  0  0  0  0  0  0  0  0  0  0
   -0.6670    3.6090    1.9198 H   0  0  0  0  0  0  0  0  0  0  0  0
    1.0066    3.5397    2.5289 H   0  0  0  0  0  0  0  0  0  0  0  0
    0.6896    3.8897    0.8118 H   0  0  0  0  0  0  0  0  0  0  0  0
  5  6  2  0  0  0  0
  5  7  1  0  0  0  0
  2  3  1  0  0  0  0
  2  4  1  0  0  0  0
  2  5  1  0  0  0  0
  1  2  1  0  0  0  0
 20 21  2  0  0  0  0
 20 22  1  0  0  0  0
 17 18  1  0  0  0  0
 17 19  2  0  0  0  0
 14 15  1  0  0  0  0
 14 16  1  0  0  0  0
 14 17  1  0  0  0  0
 11 12  1  0  0  0  0
 11 13  1  0  0  0  0
 11 14  1  0  0  0  0
  9 10  1  0  0  0  0
  9 11  1  0  0  0  0
  9 20  1  0  0  0  0
  7  8  1  0  0  0  0
  7  9  1  0  0  0  0
 24 25  1  0  0  0  0
 24 26  1  0  0  0  0
 24 27  1  0  0  0  0
 22 23  1  0  0  0  0
 22 24  1  0  0  0  0
M  CHG  1  18  -1
M  END
$$$$
default_name
  -OEChem-02102213163D

 27 26  0     1  0  0  0  0  0999 V2000
   -3.2406   -3.5400    1.2326 H   0  0  0  0  0  0  0  0  0  0  0  0
   -3.1436   -2.6190    0.6606 C   0  0  0  0  0  0  0  0  0  0  0  0
   -3.8786   -1.8920    0.9996 H   0  0  0  0  0  0  0  0  0  0  0  0
   -3.2846   -2.8280   -0.3984 H   0  0  0  0  0  0  0  0  0  0  0  0
   -1.7586   -2.0580    0.8686 C   0  0  0  0  0  0  0  0  0  0  0  0
   -0.9666   -2.6340    1.6026 O   0  0  0  0  0  0  0  0  0  0  0  0
   -1.4866   -0.9220    0.2366 N   0  0  0  0  0  0  0  0  0  0  0  0
   -2.2166   -0.4790   -0.2994 H   0  0  0  0  0  0  0  0  0  0  0  0
   -0.1956   -0.2250    0.2596 C   0  0  1  0  0  0  0  0  0  0  0  0
    0.3927   -0.6026    1.0964 H   0  0  0  0  0  0  0  0  0  0  0  0
    0.5767   -0.5489   -1.0351 C   0  0  0  0  0  0  0  0  0  0  0  0
    0.4927   -1.6214   -1.2174 H   0  0  0  0  0  0  0  0  0  0  0  0
    0.1162   -0.0201   -1.8710 H   0  0  0  0  0  0  0  0  0  0  0  0
    2.0686   -0.1815   -0.9662 C   0  0  0  0  0  0  0  0  0  0  0  0
    2.1986    0.6573   -0.2782 H   0  0  0  0  0  0  0  0  0  0  0  0
    2.6143   -1.0377   -0.5609 H   0  0  0  0  0  0  0  0  0  0  0  0
    2.6664    0.2013   -2.3282 C   0  0  0  0  0  0  0  0  0  0  0  0
    1.9587    0.0543   -3.3500 O   0  5  0  0  0  0  0  0  0  0  0  0
    3.8289    0.6637   -2.3207 O   0  0  0  0  0  0  0  0  0  0  0  0
   -0.3954    1.2887    0.4814 C   0  0  0  0  0  0  0  0  0  0  0  0
   -1.2761    1.9015   -0.1256 O   0  0  0  0  0  0  0  0  0  0  0  0
    0.4051    1.8919    1.3699 N   0  0  0  0  0  0  0  0  0  0  0  0
    1.1380    1.3380    1.7875 H   0  0  0  0  0  0  0  0  0  0  0  0
    0.3573    3.3183    1.6807 C   0  0  0  0  0  0  0  0  0  0  0  0
   -0.6670    3.6090    1.9198 H   0  0  0  0  0  0  0  0  0  0  0  0
    1.0066    3.5397    2.5289 H   0  0  0  0  0  0  0  0  0  0  0  0
    0.6896    3.8897    0.8118 H   0  0  0  0  0  0  0  0  0  0  0  0
  5  6  2  0  0  0  0
  5  7  1  0  0  0  0
  2  3  1  0  0  0  0
  2  4  1  0  0  0  0
  2  5  1  0  0  0  0
  1  2  1  0  0  0  0
 20 21  2  0  0  0  0
 20 22  1  0  0  0  0
 17 18  1  0  0  0  0
 17 19  2  0  0  0  0
 14 15  1  0  0  0  0
 14 16  1  0  0  0  0
 14 17  1  0  0  0  0
 11 12  1  0  0  0  0
 11 13  1  0  0  0  0
 11 14  1  0  0  0  0
  9 10  1  0  0  0  0
  9 11  1  0  0  0  0
  9 20  1  0  0  0  0
  7  8  1  0  0  0  0
  7  9  1  0  0  0  0
 24 25  1  0  0  0  0
 24 26  1  0  0  0  0
 24 27  1  0  0  0  0
 22 23  1  0  0  0  0
 22 24  1  0  0  0  0
M  CHG  1  18  -1
M  END
$$$$
default_name
  -OEChem-02102213163D

 27 26  0     1  0  0  0  0  0999 V2000
   -3.2406   -3.5400    1.2326 H   0  0  0  0  0  0  0  0  0  0  0  0
   -3.1436   -2.6190    0.6606 C   0  0  0  0  0  0  0  0  0  0  0  0
   -3.8786   -1.8920    0.9996 H   0  0  0  0  0  0  0  0  0  0  0  0
   -3.2846   -2.8280   -0.3984 H   0  0  0  0  0  0  0  0  0  0  0  0
   -1.7586   -2.0580    0.8686 C   0  0  0  0  0  0  0  0  0  0  0  0
   -0.9666   -2.6340    1.6026 O   0  0  0  0  0  0  0  0  0  0  0  0
   -1.4866   -0.9220    0.2366 N   0  0  0  0  0  0  0  0  0  0  0  0
   -2.2166   -0.4790   -0.2994 H   0  0  0  0  0  0  0  0  0  0  0  0
   -0.1956   -0.2250    0.2596 C   0  0  1  0  0  0  0  0  0  0  0  0
    0.3927   -0.6026    1.0964 H   0  0  0  0  0  0  0  0  0  0  0  0
    0.5767   -0.5489   -1.0351 C   0  0  0  0  0  0  0  0  0  0  0  0
    0.4927   -1.6214   -1.2174 H   0  0  0  0  0  0  0  0  0  0  0  0
    0.1162   -0.0201   -1.8710 H   0  0  0  0  0  0  0  0  0  0  0  0
    2.0686   -0.1815   -0.9662 C   0  0  0  0  0  0  0  0  0  0  0  0
    2.2388    0.4604   -0.0985 H   0  0  0  0  0  0  0  0  0  0  0  0
    2.6421   -1.1012   -0.8228 H   0  0  0  0  0  0  0  0  0  0  0  0
    2.5776    0.5421   -2.2217 C   0  0  0  0  0  0  0  0  0  0  0  0
    1.8071    0.6422   -3.2030 O   0  5  0  0  0  0  0  0  0  0  0  0
    3.7364    1.0105   -2.1683 O   0  0  0  0  0  0  0  0  0  0  0  0
   -0.3954    1.2887    0.4814 C   0  0  0  0  0  0  0  0  0  0  0  0
   -1.2761    1.9015   -0.1256 O   0  0  0  0  0  0  0  0  0  0  0  0
    0.4051    1.8919    1.3699 N   0  0  0  0  0  0  0  0  0  0  0  0
    1.1380    1.3380    1.7875 H   0  0  0  0  0  0  0  0  0  0  0  0
    0.3573    3.3183    1.6807 C   0  0  0  0  0  0  0  0  0  0  0  0
   -0.6670    3.6090    1.9198 H   0  0  0  0  0  0  0  0  0  0  0  0
    1.0066    3.5397    2.5289 H   0  0  0  0  0  0  0  0  0  0  0  0
    0.6896    3.8897    0.8118 H   0  0  0  0  0  0  0  0  0  0  0  0
  5  6  2  0  0  0  0
  5  7  1  0  0  0  0
  2  3  1  0  0  0  0
  2  4  1  0  0  0  0
  2  5  1  0  0  0  0
  1  2  1  0  0  0  0
 20 21  2  0  0  0  0
 20 22  1  0  0  0  0
 17 18  1  0  0  0  0
 17 19  2  0  0  0  0
 14 15  1  0  0  0  0
 14 16  1  0  0  0  0
 14 17  1  0  0  0  0
 11 12  1  0  0  0  0
 11 13  1  0  0  0  0
 11 14  1  0  0  0  0
  9 10  1  0  0  0  0
  9 11  1  0  0  0  0
  9 20  1  0  0  0  0
  7  8  1  0  0  0  0
  7  9  1  0  0  0  0
 24 25  1  0  0  0  0
 24 26  1  0  0  0  0
 24 27  1  0  0  0  0
 22 23  1  0  0  0  0
 22 24  1  0  0  0  0
M  CHG  1  18  -1
M  END
$$$$
default_name
  -OEChem-02102213163D

 27 26  0     1  0  0  0  0  0999 V2000
   -3.2406   -3.5400    1.2326 H   0  0  0  0  0  0  0  0  0  0  0  0
   -3.1436   -2.6190    0.6606 C   0  0  0  0  0  0  0  0  0  0  0  0
   -3.8786   -1.8920    0.9996 H   0  0  0  0  0  0  0  0  0  0  0  0
   -3.2846   -2.8280   -0.3984 H   0  0  0  0  0  0  0  0  0  0  0  0
   -1.7586   -2.0580    0.8686 C   0  0  0  0  0  0  0  0  0  0  0  0
   -0.9666   -2.6340    1.6026 O   0  0  0  0  0  0  0  0  0  0  0  0
   -1.4866   -0.9220    0.2366 N   0  0  0  0  0  0  0  0  0  0  0  0
   -2.2166   -0.4790   -0.2994 H   0  0  0  0  0  0  0  0  0  0  0  0
   -0.1956   -0.2250    0.2596 C   0  0  1  0  0  0  0  0  0  0  0  0
    0.3927   -0.6026    1.0964 H   0  0  0  0  0  0  0  0  0  0  0  0
    0.5767   -0.5489   -1.0351 C   0  0  0  0  0  0  0  0  0  0  0  0
    0.4927   -1.6214   -1.2174 H   0  0  0  0  0  0  0  0  0  0  0  0
    0.1162   -0.0201   -1.8710 H   0  0  0  0  0  0  0  0  0  0  0  0
    2.0686   -0.1815   -0.9662 C   0  0  0  0  0  0  0  0  0  0  0  0
    2.2910    0.2255    0.0231 H   0  0  0  0  0  0  0  0  0  0  0  0
    2.6534   -1.0964   -1.0935 H   0  0  0  0  0  0  0  0  0  0  0  0
    2.4944    0.8435   -2.0278 C   0  0  0  0  0  0  0  0  0  0  0  0
    1.6630    1.1714   -2.9041 O   0  5  0  0  0  0  0  0  0  0  0  0
    3.6526    1.3060   -1.9284 O   0  0  0  0  0  0  0  0  0  0  0  0
   -0.3954    1.2887    0.4814 C   0  0  0  0  0  0  0  0  0  0  0  0
   -1.2761    1.9015   -0.1256 O   0  0  0  0  0  0  0  0  0  0  0  0
    0.4051    1.8919    1.3699 N   0  0  0  0  0  0  0  0  0  0  0  0
    1.1380    1.3380    1.7875 H   0  0  0  0  0  0  0  0  0  0  0  0
    0.3573    3.3183    1.6807 C   0  0  0  0  0  0  0  0  0  0  0  0
   -0.6670    3.6090    1.9198 H   0  0  0  0  0  0  0  0  0  0  0  0
    1.0066    3.5397    2.5289 H   0  0  0  0  0  0  0  0  0  0  0  0
    0.6896    3.8897    0.8118 H   0  0  0  0  0  0  0  0  0  0  0  0
  5  6  2  0  0  0  0
  5  7  1  0  0  0  0
  2  3  1  0  0  0  0
  2  4  1  0  0  0  0
  2  5  1  0  0  0  0
  1  2  1  0  0  0  0
 20 21  2  0  0  0  0
 20 22  1  0  0  0  0
 17 18  1  0  0  0  0
 17 19  2  0  0  0  0
 14 15  1  0  0  0  0
 14 16  1  0  0  0  0
 14 17  1  0  0  0  0
 11 12  1  0  0  0  0
 11 13  1  0  0  0  0
 11 14  1  0  0  0  0
  9 10  1  0  0  0  0
  9 11  1  0  0  0  0
  9 20  1  0  0  0  0
  7  8  1  0  0  0  0
  7  9  1  0  0  0  0
 24 25  1  0  0  0  0
 24 26  1  0  0  0  0
 24 27  1  0  0  0  0
 22 23  1  0  0  0  0
 22 24  1  0  0  0  0
M  CHG  1  18  -1
M  END
$$$$
default_name
  -OEChem-02102213163D

 27 26  0     1  0  0  0  0  0999 V2000
   -3.2406   -3.5400    1.2326 H   0  0  0  0  0  0  0  0  0  0  0  0
   -3.1436   -2.6190    0.6606 C   0  0  0  0  0  0  0  0  0  0  0  0
   -3.8786   -1.8920    0.9996 H   0  0  0  0  0  0  0  0  0  0  0  0
   -3.2846   -2.8280   -0.3984 H   0  0  0  0  0  0  0  0  0  0  0  0
   -1.7586   -2.0580    0.8686 C   0  0  0  0  0  0  0  0  0  0  0  0
   -0.9666   -2.6340    1.6026 O   0  0  0  0  0  0  0  0  0  0  0  0
   -1.4866   -0.9220    0.2366 N   0  0  0  0  0  0  0  0  0  0  0  0
   -2.2166   -0.4790   -0.2994 H   0  0  0  0  0  0  0  0  0  0  0  0
   -0.1956   -0.2250    0.2596 C   0  0  1  0  0  0  0  0  0  0  0  0
    0.3927   -0.6026    1.0964 H   0  0  0  0  0  0  0  0  0  0  0  0
    0.5767   -0.5489   -1.0351 C   0  0  0  0  0  0  0  0  0  0  0  0
    0.4927   -1.6214   -1.2174 H   0  0  0  0  0  0  0  0  0  0  0  0
    0.1162   -0.0201   -1.8710 H   0  0  0  0  0  0  0  0  0  0  0  0
    2.0686   -0.1815   -0.9662 C   0  0  0  0  0  0  0  0  0  0  0  0
    2.3517   -0.0312    0.0784 H   0  0  0  0  0  0  0  0  0  0  0  0
    2.6475   -1.0237   -1.3545 H   0  0  0  0  0  0  0  0  0  0  0  0
    2.4225    1.0850   -1.7597 C   0  0  0  0  0  0  0  0  0  0  0  0
    1.5361    1.6058   -2.4736 O   0  5  0  0  0  0  0  0  0  0  0  0
    3.5830    1.5303   -1.6172 O   0  0  0  0  0  0  0  0  0  0  0  0
   -0.3954    1.2887    0.4814 C   0  0  0  0  0  0  0  0  0  0  0  0
   -1.2761    1.9015   -0.1256 O   0  0  0  0  0  0  0  0  0  0  0  0
    0.4051    1.8919    1.3699 N   0  0  0  0  0  0  0  0  0  0  0  0
    1.1380    1.3380    1.7875 H   0  0  0  0  0  0  0  0  0  0  0  0
    0.3573    3.3183    1.6807 C   0  0  0  0  0  0  0  0  0  0  0  0
   -0.6670    3.6090    1.9198 H   0  0  0  0  0  0  0  0  0  0  0  0
    1.0066    3.5397    2.5289 H   0  0  0  0  0  0  0  0  0  0  0  0
    0.6896    3.8897    0.8118 H   0  0  0  0  0  0  0  0  0  0  0  0
  5  6  2  0  0  0  0
  5  7  1  0  0  0  0
  2  3  1  0  0  0  0
  2  4  1  0  0  0  0
  2  5  1  0  0  0  0
  1  2  1  0  0  0  0
 20 21  2  0  0  0  0
 20 22  1  0  0  0  0
 17 18  1  0  0  0  0
 17 19  2  0  0  0  0
 14 15  1  0  0  0  0
 14 16  1  0  0  0  0
 14 17  1  0  0  0  0
 11 12  1  0  0  0  0
 11 13  1  0  0  0  0
 11 14  1  0  0  0  0
  9 10  1  0  0  0  0
  9 11  1  0  0  0  0
  9 20  1  0  0  0  0
  7  8  1  0  0  0  0
  7  9  1  0  0  0  0
 24 25  1  0  0  0  0
 24 26  1  0  0  0  0
 24 27  1  0  0  0  0
 22 23  1  0  0  0  0
 22 24  1  0  0  0  0
M  CHG  1  18  -1
M  END
$$$$
default_name
  -OEChem-02102213163D

 27 26  0     1  0  0  0  0  0999 V2000
   -3.2406   -3.5400    1.2326 H   0  0  0  0  0  0  0  0  0  0  0  0
   -3.1436   -2.6190    0.6606 C   0  0  0  0  0  0  0  0  0  0  0  0
   -3.8786   -1.8920    0.9996 H   0  0  0  0  0  0  0  0  0  0  0  0
   -3.2846   -2.8280   -0.3984 H   0  0  0  0  0  0  0  0  0  0  0  0
   -1.7586   -2.0580    0.8686 C   0  0  0  0  0  0  0  0  0  0  0  0
   -0.9666   -2.6340    1.6026 O   0  0  0  0  0  0  0  0  0  0  0  0
   -1.4866   -0.9220    0.2366 N   0  0  0  0  0  0  0  0  0  0  0  0
   -2.2166   -0.4790   -0.2994 H   0  0  0  0  0  0  0  0  0  0  0  0
   -0.1956   -0.2250    0.2596 C   0  0  1  0  0  0  0  0  0  0  0  0
    0.3927   -0.6026    1.0964 H   0  0  0  0  0  0  0  0  0  0  0  0
    0.5767   -0.5489   -1.0351 C   0  0  0  0  0  0  0  0  0  0  0  0
    0.4927   -1.6214   -1.2174 H   0  0  0  0  0  0  0  0  0  0  0  0
    0.1162   -0.0201   -1.8710 H   0  0  0  0  0  0  0  0  0  0  0  0
    2.0686   -0.1815   -0.9662 C   0  0  0  0  0  0  0  0  0  0  0  0
    2.4167   -0.2924    0.0636 H   0  0  0  0  0  0  0  0  0  0  0  0
    2.6249   -0.8880   -1.5880 H   0  0  0  0  0  0  0  0  0  0  0  0
    2.3669    1.2501   -1.4356 C   0  0  0  0  0  0  0  0  0  0  0  0
    1.4352    1.9159   -1.9408 O   0  5  0  0  0  0  0  0  0  0  0  0
    3.5324    1.6680   -1.2560 O   0  0  0  0  0  0  0  0  0  0  0  0
   -0.3954    1.2887    0.4814 C   0  0  0  0  0  0  0  0  0  0  0  0
   -1.2761    1.9015   -0.1256 O   0  0  0  0  0  0  0  0  0  0  0  0
    0.4051    1.8919    1.3699 N   0  0  0  0  0  0  0  0  0  0  0  0
    1.1380    1.3380    1.7875 H   0  0  0  0  0  0  0  0  0  0  0  0
    0.3573    3.3183    1.6807 C   0  0  0  0  0  0  0  0  0  0  0  0
   -0.6670    3.6090    1.9198 H   0  0  0  0  0  0  0  0  0  0  0  0
    1.0066    3.5397    2.5289 H   0  0  0  0  0  0  0  0  0  0  0  0
    0.6896    3.8897    0.8118 H   0  0  0  0  0  0  0  0  0  0  0  0
  5  6  2  0  0  0  0
  5  7  1  0  0  0  0
  2  3  1  0  0  0  0
  2  4  1  0  0  0  0
  2  5  1  0  0  0  0
  1  2  1  0  0  0  0
 20 21  2  0  0  0  0
 20 22  1  0  0  0  0
 17 18  1  0  0  0  0
 17 19  2  0  0  0  0
 14 15  1  0  0  0  0
 14 16  1  0  0  0  0
 14 17  1  0  0  0  0
 11 12  1  0  0  0  0
 11 13  1  0  0  0  0
 11 14  1  0  0  0  0
  9 10  1  0  0  0  0
  9 11  1  0  0  0  0
  9 20  1  0  0  0  0
  7  8  1  0  0  0  0
  7  9  1  0  0  0  0
 24 25  1  0  0  0  0
 24 26  1  0  0  0  0
 24 27  1  0  0  0  0
 22 23  1  0  0  0  0
 22 24  1  0  0  0  0
M  CHG  1  18  -1
M  END
$$$$
default_name
  -OEChem-02102213163D

 27 26  0     1  0  0  0  0  0999 V2000
   -3.2406   -3.5400    1.2326 H   0  0  0  0  0  0  0  0  0  0  0  0
   -3.1436   -2.6190    0.6606 C   0  0  0  0  0  0  0  0  0  0  0  0
   -3.8786   -1.8920    0.9996 H   0  0  0  0  0  0  0  0  0  0  0  0
   -3.2846   -2.8280   -0.3984 H   0  0  0  0  0  0  0  0  0  0  0  0
   -1.7586   -2.0580    0.8686 C   0  0  0  0  0  0  0  0  0  0  0  0
   -0.9666   -2.6340    1.6026 O   0  0  0  0  0  0  0  0  0  0  0  0
   -1.4866   -0.9220    0.2366 N   0  0  0  0  0  0  0  0  0  0  0  0
   -2.2166   -0.4790   -0.2994 H   0  0  0  0  0  0  0  0  0  0  0  0
   -0.1956   -0.2250    0.2596 C   0  0  1  0  0  0  0  0  0  0  0  0
    0.3927   -0.6026    1.0964 H   0  0  0  0  0  0  0  0  0  0  0  0
    0.5767   -0.5489   -1.0351 C   0  0  0  0  0  0  0  0  0  0  0  0
    0.4927   -1.6214   -1.2174 H   0  0  0  0  0  0  0  0  0  0  0  0
    0.1162   -0.0201   -1.8710 H   0  0  0  0  0  0  0  0  0  0  0  0
    2.0686   -0.1815   -0.9662 C   0  0  0  0  0  0  0  0  0  0  0  0
    2.4816   -0.5402   -0.0203 H   0  0  0  0  0  0  0  0  0  0  0  0
    2.5871   -0.6986   -1.7780 H   0  0  0  0  0  0  0  0  0  0  0  0
    2.3313    1.3276   -1.0777 C   0  0  0  0  0  0  0  0  0  0  0  0
    1.3670    2.0805   -1.3421 O   0  5  0  0  0  0  0  0  0  0  0  0
    3.5042    1.7098   -0.8695 O   0  0  0  0  0  0  0  0  0  0  0  0
   -0.3954    1.2887    0.4814 C   0  0  0  0  0  0  0  0  0  0  0  0
   -1.2761    1.9015   -0.1256 O   0  0  0  0  0  0  0  0  0  0  0  0
    0.4051    1.8919    1.3699 N   0  0  0  0  0  0  0  0  0  0  0  0
    1.1380    1.3380    1.7875 H   0  0  0  0  0  0  0  0  0  0  0  0
    0.3573    3.3183    1.6807 C   0  0  0  0  0  0  0  0  0  0  0  0
   -0.6670    3.6090    1.9198 H   0  0  0  0  0  0  0  0  0  0  0  0
    1.0066    3.5397    2.5289 H   0  0  0  0  0  0  0  0  0  0  0  0
    0.6896    3.8897    0.8118 H   0  0  0  0  0  0  0  0  0  0  0  0
  5  6  2  0  0  0  0
  5  7  1  0  0  0  0
  2  3  1  0  0  0  0
  2  4  1  0  0  0  0
  2  5  1  0  0  0  0
  1  2  1  0  0  0  0
 20 21  2  0  0  0  0
 20 22  1  0  0  0  0
 17 18  1  0  0  0  0
 17 19  2  0  0  0  0
 14 15  1  0  0  0  0
 14 16  1  0  0  0  0
 14 17  1  0  0  0  0
 11 12  1  0  0  0  0
 11 13  1  0  0  0  0
 11 14  1  0  0  0  0
  9 10  1  0  0  0  0
  9 11  1  0  0  0  0
  9 20  1  0  0  0  0
  7  8  1  0  0  0  0
  7  9  1  0  0  0  0
 24 25  1  0  0  0  0
 24 26  1  0  0  0  0
 24 27  1  0  0  0  0
 22 23  1  0  0  0  0
 22 24  1  0  0  0  0
M  CHG  1  18  -1
M  END
$$$$
default_name
  -OEChem-02102213163D

 27 26  0     1  0  0  0  0  0999 V2000
   -3.2406   -3.5400    1.2326 H   0  0  0  0  0  0  0  0  0  0  0  0
   -3.1436   -2.6190    0.6606 C   0  0  0  0  0  0  0  0  0  0  0  0
   -3.8786   -1.8920    0.9996 H   0  0  0  0  0  0  0  0  0  0  0  0
   -3.2846   -2.8280   -0.3984 H   0  0  0  0  0  0  0  0  0  0  0  0
   -1.7586   -2.0580    0.8686 C   0  0  0  0  0  0  0  0  0  0  0  0
   -0.9666   -2.6340    1.6026 O   0  0  0  0  0  0  0  0  0  0  0  0
   -1.4866   -0.9220    0.2366 N   0  0  0  0  0  0  0  0  0  0  0  0
   -2.2166   -0.4790   -0.2994 H   0  0  0  0  0  0  0  0  0  0  0  0
   -0.1956   -0.2250    0.2596 C   0  0  1  0  0  0  0  0  0  0  0  0
    0.3927   -0.6026    1.0964 H   0  0  0  0  0  0  0  0  0  0  0  0
    0.5767   -0.5489   -1.0351 C   0  0  0  0  0  0  0  0  0  0  0  0
    0.4927   -1.6214   -1.2174 H   0  0  0  0  0  0  0  0  0  0  0  0
    0.1162   -0.0201   -1.8710 H   0  0  0  0  0  0  0  0  0  0  0  0
    2.0686   -0.1815   -0.9662 C   0  0  0  0  0  0  0  0  0  0  0  0
    2.5419   -0.7578   -0.1676 H   0  0  0  0  0  0  0  0  0  0  0  0
    2.5365   -0.4683   -1.9117 H   0  0  0  0  0  0  0  0  0  0  0  0
    2.3181    1.3122   -0.7103 C   0  0  0  0  0  0  0  0  0  0  0  0
    1.3362    2.0884   -0.7183 O   0  5  0  0  0  0  0  0  0  0  0  0
    3.5005    1.6528   -0.4839 O   0  0  0  0  0  0  0  0  0  0  0  0
   -0.3954    1.2887    0.4814 C   0  0  0  0  0  0  0  0  0  0  0  0
   -1.2761    1.9015   -0.1256 O   0  0  0  0  0  0  0  0  0  0  0  0
    0.4051    1.8919    1.3699 N   0  0  0  0  0  0  0  0  0  0  0  0
    1.1380    1.3380    1.7875 H   0  0  0  0  0  0  0  0  0  0  0  0
    0.3573    3.3183    1.6807 C   0  0  0  0  0  0  0  0  0  0  0  0
   -0.6670    3.6090    1.9198 H   0  0  0  0  0  0  0  0  0  0  0  0
    1.0066    3.5397    2.5289 H   0  0  0  0  0  0  0  0  0  0  0  0
    0.6896    3.8897    0.8118 H   0  0  0  0  0  0  0  0  0  0  0  0
  5  6  2  0  0  0  0
  5  7  1  0  0  0  0
  2  3  1  0  0  0  0
  2  4  1  0  0  0  0
  2  5  1  0  0  0  0
  1  2  1  0  0  0  0
 20 21  2  0  0  0  0
 20 22  1  0  0  0  0
 17 18  1  0  0  0  0
 17 19  2  0  0  0  0
 14 15  1  0  0  0  0
 14 16  1  0  0  0  0
 14 17  1  0  0  0  0
 11 12  1  0  0  0  0
 11 13  1  0  0  0  0
 11 14  1  0  0  0  0
  9 10  1  0  0  0  0
  9 11  1  0  0  0  0
  9 20  1  0  0  0  0
  7  8  1  0  0  0  0
  7  9  1  0  0  0  0
 24 25  1  0  0  0  0
 24 26  1  0  0  0  0
 24 27  1  0  0  0  0
 22 23  1  0  0  0  0
 22 24  1  0  0  0  0
M  CHG  1  18  -1
M  END
$$$$
default_name
  -OEChem-02102213163D

 27 26  0     1  0  0  0  0  0999 V2000
   -3.2406   -3.5400    1.2326 H   0  0  0  0  0  0  0  0  0  0  0  0
   -3.1436   -2.6190    0.6606 C   0  0  0  0  0  0  0  0  0  0  0  0
   -3.8786   -1.8920    0.9996 H   0  0  0  0  0  0  0  0  0  0  0  0
   -3.2846   -2.8280   -0.3984 H   0  0  0  0  0  0  0  0  0  0  0  0
   -1.7586   -2.0580    0.8686 C   0  0  0  0  0  0  0  0  0  0  0  0
   -0.9666   -2.6340    1.6026 O   0  0  0  0  0  0  0  0  0  0  0  0
   -1.4866   -0.9220    0.2366 N   0  0  0  0  0  0  0  0  0  0  0  0
   -2.2166   -0.4790   -0.2994 H   0  0  0  0  0  0  0  0  0  0  0  0
   -0.1956   -0.2250    0.2596 C   0  0  1  0  0  0  0  0  0  0  0  0
    0.3927   -0.6026    1.0964 H   0  0  0  0  0  0  0  0  0  0  0  0
    0.5767   -0.5489   -1.0351 C   0  0  0  0  0  0  0  0  0  0  0  0
    0.4927   -1.6214   -1.2174 H   0  0  0  0  0  0  0  0  0  0  0  0
    0.1162   -0.0201   -1.8710 H   0  0  0  0  0  0  0  0  0  0  0  0
    2.0686   -0.1815   -0.9662 C   0  0  0  0  0  0  0  0  0  0  0  0
    2.5937   -0.9303   -0.3682 H   0  0  0  0  0  0  0  0  0  0  0  0
    2.4768   -0.2130   -1.9799 H   0  0  0  0  0  0  0  0  0  0  0  0
    2.3283    1.2049   -0.3585 C   0  0  0  0  0  0  0  0  0  0  0  0
    1.3450    1.9390   -0.1118 O   0  5  0  0  0  0  0  0  0  0  0  0
    3.5213    1.5008   -0.1255 O   0  0  0  0  0  0  0  0  0  0  0  0
   -0.3954    1.2887    0.4814 C   0  0  0  0  0  0  0  0  0  0  0  0
   -1.2761    1.9015   -0.1256 O   0  0  0  0  0  0  0  0  0  0  0  0
    0.4051    1.8919    1.3699 N   0  0  0  0  0  0  0  0  0  0  0  0
    1.1380    1.3380    1.7875 H   0  0  0  0  0  0  0  0  0  0  0  0
    0.3573    3.3183    1.6807 C   0  0  0  0  0  0  0  0  0  0  0  0
   -0.6670    3.6090    1.9198 H   0  0  0  0  0  0  0  0  0  0  0  0
    1.0066    3.5397    2.5289 H   0  0  0  0  0  0  0  0  0  0  0  0
    0.6896    3.8897    0.8118 H   0  0  0  0  0  0  0  0  0  0  0  0
  5  6  2  0  0  0  0
  5  7  1  0  0  0  0
  2  3  1  0  0  0  0
  2  4  1  0  0  0  0
  2  5  1  0  0  0  0
  1  2  1  0  0  0  0
 20 21  2  0  0  0  0
 20 22  1  0  0  0  0
 17 18  1  0  0  0  0
 17 19  2  0  0  0  0
 14 15  1  0  0  0  0
 14 16  1  0  0  0  0
 14 17  1  0  0  0  0
 11 12  1  0  0  0  0
 11 13  1  0  0  0  0
 11 14  1  0  0  0  0
  9 10  1  0  0  0  0
  9 11  1  0  0  0  0
  9 20  1  0  0  0  0
  7  8  1  0  0  0  0
  7  9  1  0  0  0  0
 24 25  1  0  0  0  0
 24 26  1  0  0  0  0
 24 27  1  0  0  0  0
 22 23  1  0  0  0  0
 22 24  1  0  0  0  0
M  CHG  1  18  -1
M  END
$$$$
default_name
  -OEChem-02102213163D

 27 26  0     1  0  0  0  0  0999 V2000
   -3.2406   -3.5400    1.2326 H   0  0  0  0  0  0  0  0  0  0  0  0
   -3.1436   -2.6190    0.6606 C   0  0  0  0  0  0  0  0  0  0  0  0
   -3.8786   -1.8920    0.9996 H   0  0  0  0  0  0  0  0  0  0  0  0
   -3.2846   -2.8280   -0.3984 H   0  0  0  0  0  0  0  0  0  0  0  0
   -1.7586   -2.0580    0.8686 C   0  0  0  0  0  0  0  0  0  0  0  0
   -0.9666   -2.6340    1.6026 O   0  0  0  0  0  0  0  0  0  0  0  0
   -1.4866   -0.9220    0.2366 N   0  0  0  0  0  0  0  0  0  0  0  0
   -2.2166   -0.4790   -0.2994 H   0  0  0  0  0  0  0  0  0  0  0  0
   -0.1956   -0.2250    0.2596 C   0  0  1  0  0  0  0  0  0  0  0  0
    0.3927   -0.6026    1.0964 H   0  0  0  0  0  0  0  0  0  0  0  0
    0.5767   -0.5489   -1.0351 C   0  0  0  0  0  0  0  0  0  0  0  0
    0.4927   -1.6214   -1.2174 H   0  0  0  0  0  0  0  0  0  0  0  0
    0.1162   -0.0201   -1.8710 H   0  0  0  0  0  0  0  0  0  0  0  0
    2.0686   -0.1815   -0.9662 C   0  0  0  0  0  0  0  0  0  0  0  0
    2.6332   -1.0459   -0.6085 H   0  0  0  0  0  0  0  0  0  0  0  0
    2.4119    0.0501   -1.9780 H   0  0  0  0  0  0  0  0  0  0  0  0
    2.3611    1.0131   -0.0463 C   0  0  0  0  0  0  0  0  0  0  0  0
    1.3927    1.6425    0.4360 O   0  5  0  0  0  0  0  0  0  0  0  0
    3.5654    1.2643    0.1812 O   0  0  0  0  0  0  0  0  0  0  0  0
   -0.3954    1.2887    0.4814 C   0  0  0  0  0  0  0  0  0  0  0  0
   -1.2761    1.9015   -0.1256 O   0  0  0  0  0  0  0  0  0  0  0  0
    0.4051    1.8919    1.3699 N   0  0  0  0  0  0  0  0  0  0  0  0
    1.1380    1.3380    1.7875 H   0  0  0  0  0  0  0  0  0  0  0  0
    0.3573    3.3183    1.6807 C   0  0  0  0  0  0  0  0  0  0  0  0
   -0.6670    3.6090    1.9198 H   0  0  0  0  0  0  0  0  0  0  0  0
    1.0066    3.5397    2.5289 H   0  0  0  0  0  0  0  0  0  0  0  0
    0.6896    3.8897    0.8118 H   0  0  0  0  0  0  0  0  0  0  0  0
  5  6  2  0  0  0  0
  5  7  1  0  0  0  0
  2  3  1  0  0  0  0
  2  4  1  0  0  0  0
  2  5  1  0  0  0  0
  1  2  1  0  0  0  0
 20 21  2  0  0  0  0
 20 22  1  0  0  0  0
 17 18  1  0  0  0  0
 17 19  2  0  0  0  0
 14 15  1  0  0  0  0
 14 16  1  0  0  0  0
 14 17  1  0  0  0  0
 11 12  1  0  0  0  0
 11 13  1  0  0  0  0
 11 14  1  0  0  0  0
  9 10  1  0  0  0  0
  9 11  1  0  0  0  0
  9 20  1  0  0  0  0
  7  8  1  0  0  0  0
  7  9  1  0  0  0  0
 24 25  1  0  0  0  0
 24 26  1  0  0  0  0
 24 27  1  0  0  0  0
 22 23  1  0  0  0  0
 22 24  1  0  0  0  0
M  CHG  1  18  -1
M  END
$$$$
default_name
  -OEChem-02102213163D

 27 26  0     1  0  0  0  0  0999 V2000
   -3.2406   -3.5400    1.2326 H   0  0  0  0  0  0  0  0  0  0  0  0
   -3.1436   -2.6190    0.6606 C   0  0  0  0  0  0  0  0  0  0  0  0
   -3.8786   -1.8920    0.9996 H   0  0  0  0  0  0  0  0  0  0  0  0
   -3.2846   -2.8280   -0.3984 H   0  0  0  0  0  0  0  0  0  0  0  0
   -1.7586   -2.0580    0.8686 C   0  0  0  0  0  0  0  0  0  0  0  0
   -0.9666   -2.6340    1.6026 O   0  0  0  0  0  0  0  0  0  0  0  0
   -1.4866   -0.9220    0.2366 N   0  0  0  0  0  0  0  0  0  0  0  0
   -2.2166   -0.4790   -0.2994 H   0  0  0  0  0  0  0  0  0  0  0  0
   -0.1956   -0.2250    0.2596 C   0  0  1  0  0  0  0  0  0  0  0  0
    0.3927   -0.6026    1.0964 H   0  0  0  0  0  0  0  0  0  0  0  0
    0.5767   -0.5489   -1.0351 C   0  0  0  0  0  0  0  0  0  0  0  0
    0.4927   -1.6214   -1.2174 H   0  0  0  0  0  0  0  0  0  0  0  0
    0.1162   -0.0201   -1.8710 H   0  0  0  0  0  0  0  0  0  0  0  0
    2.0686   -0.1815   -0.9662 C   0  0  0  0  0  0  0  0  0  0  0  0
    2.6579   -1.0968   -0.8720 H   0  0  0  0  0  0  0  0  0  0  0  0
    2.3463    0.3030   -1.9060 H   0  0  0  0  0  0  0  0  0  0  0  0
    2.4143    0.7498    0.2051 C   0  0  0  0  0  0  0  0  0  0  0  0
    1.4760    1.2192    0.8877 O   0  5  0  0  0  0  0  0  0  0  0  0
    3.6297    0.9594    0.4154 O   0  0  0  0  0  0  0  0  0  0  0  0
   -0.3954    1.2887    0.4814 C   0  0  0  0  0  0  0  0  0  0  0  0
   -1.2761    1.9015   -0.1256 O   0  0  0  0  0  0  0  0  0  0  0  0
    0.4051    1.8919    1.3699 N   0  0  0  0  0  0  0  0  0  0  0  0
    1.1380    1.3380    1.7875 H   0  0  0  0  0  0  0  0  0  0  0  0
    0.3573    3.3183    1.6807 C   0  0  0  0  0  0  0  0  0  0  0  0
   -0.6670    3.6090    1.9198 H   0  0  0  0  0  0  0  0  0  0  0  0
    1.0066    3.5397    2.5289 H   0  0  0  0  0  0  0  0  0  0  0  0
    0.6896    3.8897    0.8118 H   0  0  0  0  0  0  0  0  0  0  0  0
  5  6  2  0  0  0  0
  5  7  1  0  0  0  0
  2  3  1  0  0  0  0
  2  4  1  0  0  0  0
  2  5  1  0  0  0  0
  1  2  1  0  0  0  0
 20 21  2  0  0  0  0
 20 22  1  0  0  0  0
 17 18  1  0  0  0  0
 17 19  2  0  0  0  0
 14 15  1  0  0  0  0
 14 16  1  0  0  0  0
 14 17  1  0  0  0  0
 11 12  1  0  0  0  0
 11 13  1  0  0  0  0
 11 14  1  0  0  0  0
  9 10  1  0  0  0  0
  9 11  1  0  0  0  0
  9 20  1  0  0  0  0
  7  8  1  0  0  0  0
  7  9  1  0  0  0  0
 24 25  1  0  0  0  0
 24 26  1  0  0  0  0
 24 27  1  0  0  0  0
 22 23  1  0  0  0  0
 22 24  1  0  0  0  0
M  CHG  1  18  -1
M  END
$$$$
default_name
  -OEChem-02102213163D

 27 26  0     1  0  0  0  0  0999 V2000
   -3.2406   -3.5400    1.2326 H   0  0  0  0  0  0  0  0  0  0  0  0
   -3.1436   -2.6190    0.6606 C   0  0  0  0  0  0  0  0  0  0  0  0
   -3.8786   -1.8920    0.9996 H   0  0  0  0  0  0  0  0  0  0  0  0
   -3.2846   -2.8280   -0.3984 H   0  0  0  0  0  0  0  0  0  0  0  0
   -1.7586   -2.0580    0.8686 C   0  0  0  0  0  0  0  0  0  0  0  0
   -0.9666   -2.6340    1.6026 O   0  0  0  0  0  0  0  0  0  0  0  0
   -1.4866   -0.9220    0.2366 N   0  0  0  0  0  0  0  0  0  0  0  0
   -2.2166   -0.4790   -0.2994 H   0  0  0  0  0  0  0  0  0  0  0  0
   -0.1956   -0.2250    0.2596 C   0  0  1  0  0  0  0  0  0  0  0  0
    0.3927   -0.6026    1.0964 H   0  0  0  0  0  0  0  0  0  0  0  0
    0.5767   -0.5489   -1.0351 C   0  0  0  0  0  0  0  0  0  0  0  0
    0.4927   -1.6214   -1.2174 H   0  0  0  0  0  0  0  0  0  0  0  0
    0.1162   -0.0201   -1.8710 H   0  0  0  0  0  0  0  0  0  0  0  0
    2.0686   -0.1815   -0.9662 C   0  0  0  0  0  0  0  0  0  0  0  0
    2.6661   -1.0795   -1.1409 H   0  0  0  0  0  0  0  0  0  0  0  0
    2.2845    0.5284   -1.7690 H   0  0  0  0  0  0  0  0  0  0  0  0
    2.4843    0.4330    0.3786 C   0  0  0  0  0  0  0  0  0  0  0  0
    1.5894    0.6979    1.2126 O   0  5  0  0  0  0  0  0  0  0  0  0
    3.7097    0.6068    0.5611 O   0  0  0  0  0  0  0  0  0  0  0  0
   -0.3954    1.2887    0.4814 C   0  0  0  0  0  0  0  0  0  0  0  0
   -1.2761    1.9015   -0.1256 O   0  0  0  0  0  0  0  0  0  0  0  0
    0.4051    1.8919    1.3699 N   0  0  0  0  0  0  0  0  0  0  0  0
    1.1380    1.3380    1.7875 H   0  0  0  0  0  0  0  0  0  0  0  0
    0.3573    3.3183    1.6807 C   0  0  0  0  0  0  0  0  0  0  0  0
   -0.6670    3.6090    1.9198 H   0  0  0  0  0  0  0  0  0  0  0  0
    1.0066    3.5397    2.5289 H   0  0  0  0  0  0  0  0  0  0  0  0
    0.6896    3.8897    0.8118 H   0  0  0  0  0  0  0  0  0  0  0  0
  5  6  2  0  0  0  0
  5  7  1  0  0  0  0
  2  3  1  0  0  0  0
  2  4  1  0  0  0  0
  2  5  1  0  0  0  0
  1  2  1  0  0  0  0
 20 21  2  0  0  0  0
 20 22  1  0  0  0  0
 17 18  1  0  0  0  0
 17 19  2  0  0  0  0
 14 15  1  0  0  0  0
 14 16  1  0  0  0  0
 14 17  1  0  0  0  0
 11 12  1  0  0  0  0
 11 13  1  0  0  0  0
 11 14  1  0  0  0  0
  9 10  1  0  0  0  0
  9 11  1  0  0  0  0
  9 20  1  0  0  0  0
  7  8  1  0  0  0  0
  7  9  1  0  0  0  0
 24 25  1  0  0  0  0
 24 26  1  0  0  0  0
 24 27  1  0  0  0  0
 22 23  1  0  0  0  0
 22 24  1  0  0  0  0
M  CHG  1  18  -1
M  END
$$$$
default_name
  -OEChem-02102213163D

 27 26  0     1  0  0  0  0  0999 V2000
   -3.2406   -3.5400    1.2326 H   0  0  0  0  0  0  0  0  0  0  0  0
   -3.1436   -2.6190    0.6606 C   0  0  0  0  0  0  0  0  0  0  0  0
   -3.8786   -1.8920    0.9996 H   0  0  0  0  0  0  0  0  0  0  0  0
   -3.2846   -2.8280   -0.3984 H   0  0  0  0  0  0  0  0  0  0  0  0
   -1.7586   -2.0580    0.8686 C   0  0  0  0  0  0  0  0  0  0  0  0
   -0.9666   -2.6340    1.6026 O   0  0  0  0  0  0  0  0  0  0  0  0
   -1.4866   -0.9220    0.2366 N   0  0  0  0  0  0  0  0  0  0  0  0
   -2.2166   -0.4790   -0.2994 H   0  0  0  0  0  0  0  0  0  0  0  0
   -0.1956   -0.2250    0.2596 C   0  0  1  0  0  0  0  0  0  0  0  0
    0.3927   -0.6026    1.0964 H   0  0  0  0  0  0  0  0  0  0  0  0
    0.5767   -0.5489   -1.0351 C   0  0  0  0  0  0  0  0  0  0  0  0
    0.4927   -1.6214   -1.2174 H   0  0  0  0  0  0  0  0  0  0  0  0
    0.1162   -0.0201   -1.8710 H   0  0  0  0  0  0  0  0  0  0  0  0
    2.0686   -0.1815   -0.9662 C   0  0  0  0  0  0  0  0  0  0  0  0
    2.6572   -0.9952   -1.3968 H   0  0  0  0  0  0  0  0  0  0  0  0
    2.2306    0.7111   -1.5762 H   0  0  0  0  0  0  0  0  0  0  0  0
    2.5663    0.0842    0.4623 C   0  0  0  0  0  0  0  0  0  0  0  0
    1.7250    0.1141    1.3885 O   0  5  0  0  0  0  0  0  0  0  0  0
    3.8002    0.2305    0.6083 O   0  0  0  0  0  0  0  0  0  0  0  0
   -0.3954    1.2887    0.4814 C   0  0  0  0  0  0  0  0  0  0  0  0
   -1.2761    1.9015   -0.1256 O   0  0  0  0  0  0  0  0  0  0  0  0
    0.4051    1.8919    1.3699 N   0  0  0  0  0  0  0  0  0  0  0  0
    1.1380    1.3380    1.7875 H   0  0  0  0  0  0  0  0  0  0  0  0
    0.3573    3.3183    1.6807 C   0  0  0  0  0  0  0  0  0  0  0  0
   -0.6670    3.6090    1.9198 H   0  0  0  0  0  0  0  0  0  0  0  0
    1.0066    3.5397    2.5289 H   0  0  0  0  0  0  0  0  0  0  0  0
    0.6896    3.8897    0.8118 H   0  0  0  0  0  0  0  0  0  0  0  0
  5  6  2  0  0  0  0
  5  7  1  0  0  0  0
  2  3  1  0  0  0  0
  2  4  1  0  0  0  0
  2  5  1  0  0  0  0
  1  2  1  0  0  0  0
 20 21  2  0  0  0  0
 20 22  1  0  0  0  0
 17 18  1  0  0  0  0
 17 19  2  0  0  0  0
 14 15  1  0  0  0  0
 14 16  1  0  0  0  0
 14 17  1  0  0  0  0
 11 12  1  0  0  0  0
 11 13  1  0  0  0  0
 11 14  1  0  0  0  0
  9 10  1  0  0  0  0
  9 11  1  0  0  0  0
  9 20  1  0  0  0  0
  7  8  1  0  0  0  0
  7  9  1  0  0  0  0
 24 25  1  0  0  0  0
 24 26  1  0  0  0  0
 24 27  1  0  0  0  0
 22 23  1  0  0  0  0
 22 24  1  0  0  0  0
M  CHG  1  18  -1
M  END
$$$$
default_name
  -OEChem-02102213163D

 27 26  0     1  0  0  0  0  0999 V2000
   -3.2406   -3.5400    1.2326 H   0  0  0  0  0  0  0  0  0  0  0  0
   -3.1436   -2.6190    0.6606 C   0  0  0  0  0  0  0  0  0  0  0  0
   -3.8786   -1.8920    0.9996 H   0  0  0  0  0  0  0  0  0  0  0  0
   -3.2846   -2.8280   -0.3984 H   0  0  0  0  0  0  0  0  0  0  0  0
   -1.7586   -2.0580    0.8686 C   0  0  0  0  0  0  0  0  0  0  0  0
   -0.9666   -2.6340    1.6026 O   0  0  0  0  0  0  0  0  0  0  0  0
   -1.4866   -0.9220    0.2366 N   0  0  0  0  0  0  0  0  0  0  0  0
   -2.2166   -0.4790   -0.2994 H   0  0  0  0  0  0  0  0  0  0  0  0
   -0.1956   -0.2250    0.2596 C   0  0  1  0  0  0  0  0  0  0  0  0
    0.3927   -0.6026    1.0964 H   0  0  0  0  0  0  0  0  0  0  0  0
    0.5767   -0.5489   -1.0351 C   0  0  0  0  0  0  0  0  0  0  0  0
    0.4927   -1.6214   -1.2174 H   0  0  0  0  0  0  0  0  0  0  0  0
    0.1162   -0.0201   -1.8710 H   0  0  0  0  0  0  0  0  0  0  0  0
    2.0686   -0.1815   -0.9662 C   0  0  0  0  0  0  0  0  0  0  0  0
    2.6317   -0.8496   -1.6223 H   0  0  0  0  0  0  0  0  0  0  0  0
    2.1884    0.8385   -1.3408 H   0  0  0  0  0  0  0  0  0  0  0  0
    2.6547   -0.2728    0.4505 C   0  0  0  0  0  0  0  0  0  0  0  0
    1.8737   -0.4924    1.4035 O   0  5  0  0  0  0  0  0  0  0  0  0
    3.8949   -0.1437    0.5539 O   0  0  0  0  0  0  0  0  0  0  0  0
   -0.3954    1.2887    0.4814 C   0  0  0  0  0  0  0  0  0  0  0  0
   -1.2761    1.9015   -0.1256 O   0  0  0  0  0  0  0  0  0  0  0  0
    0.4051    1.8919    1.3699 N   0  0  0  0  0  0  0  0  0  0  0  0
    1.1380    1.3380    1.7875 H   0  0  0  0  0  0  0  0  0  0  0  0
    0.3573    3.3183    1.6807 C   0  0  0  0  0  0  0  0  0  0  0  0
   -0.6670    3.6090    1.9198 H   0  0  0  0  0  0  0  0  0  0  0  0
    1.0066    3.5397    2.5289 H   0  0  0  0  0  0  0  0  0  0  0  0
    0.6896    3.8897    0.8118 H   0  0  0  0  0  0  0  0  0  0  0  0
  5  6  2  0  0  0  0
  5  7  1  0  0  0  0
  2  3  1  0  0  0  0
  2  4  1  0  0  0  0
  2  5  1  0  0  0  0
  1  2  1  0  0  0  0
 20 21  2  0  0  0  0
 20 22  1  0  0  0  0
 17 18  1  0  0  0  0
 17 19  2  0  0  0  0
 14 15  1  0  0  0  0
 14 16  1  0  0  0  0
 14 17  1  0  0  0  0
 11 12  1  0  0  0  0
 11 13  1  0  0  0  0
 11 14  1  0  0  0  0
  9 10  1  0  0  0  0
  9 11  1  0  0  0  0
  9 20  1  0  0  0  0
  7  8  1  0  0  0  0
  7  9  1  0  0  0  0
 24 25  1  0  0  0  0
 24 26  1  0  0  0  0
 24 27  1  0  0  0  0
 22 23  1  0  0  0  0
 22 24  1  0  0  0  0
M  CHG  1  18  -1
M  END
$$$$
default_name
  -OEChem-02102213163D

 27 26  0     1  0  0  0  0  0999 V2000
   -3.2406   -3.5400    1.2326 H   0  0  0  0  0  0  0  0  0  0  0  0
   -3.1436   -2.6190    0.6606 C   0  0  0  0  0  0  0  0  0  0  0  0
   -3.8786   -1.8920    0.9996 H   0  0  0  0  0  0  0  0  0  0  0  0
   -3.2846   -2.8280   -0.3984 H   0  0  0  0  0  0  0  0  0  0  0  0
   -1.7586   -2.0580    0.8686 C   0  0  0  0  0  0  0  0  0  0  0  0
   -0.9666   -2.6340    1.6026 O   0  0  0  0  0  0  0  0  0  0  0  0
   -1.4866   -0.9220    0.2366 N   0  0  0  0  0  0  0  0  0  0  0  0
   -2.2166   -0.4790   -0.2994 H   0  0  0  0  0  0  0  0  0  0  0  0
   -0.1956   -0.2250    0.2596 C   0  0  1  0  0  0  0  0  0  0  0  0
    0.3927   -0.6026    1.0964 H   0  0  0  0  0  0  0  0  0  0  0  0
    0.5767   -0.5489   -1.0351 C   0  0  0  0  0  0  0  0  0  0  0  0
    0.4927   -1.6214   -1.2174 H   0  0  0  0  0  0  0  0  0  0  0  0
    0.1162   -0.0201   -1.8710 H   0  0  0  0  0  0  0  0  0  0  0  0
    2.0686   -0.1815   -0.9662 C   0  0  0  0  0  0  0  0  0  0  0  0
    2.5916   -0.6527   -1.8019 H   0  0  0  0  0  0  0  0  0  0  0  0
    2.1606    0.9020   -1.0789 H   0  0  0  0  0  0  0  0  0  0  0  0
    2.7436   -0.6136    0.3440 C   0  0  0  0  0  0  0  0  0  0  0  0
    2.0252   -1.0803    1.2565 O   0  5  0  0  0  0  0  0  0  0  0  0
    3.9873   -0.4904    0.4015 O   0  0  0  0  0  0  0  0  0  0  0  0
   -0.3954    1.2887    0.4814 C   0  0  0  0  0  0  0  0  0  0  0  0
   -1.2761    1.9015   -0.1256 O   0  0  0  0  0  0  0  0  0  0  0  0
    0.4051    1.8919    1.3699 N   0  0  0  0  0  0  0  0  0  0  0  0
    1.1380    1.3380    1.7875 H   0  0  0  0  0  0  0  0  0  0  0  0
    0.3573    3.3183    1.6807 C   0  0  0  0  0  0  0  0  0  0  0  0
   -0.6670    3.6090    1.9198 H   0  0  0  0  0  0  0  0  0  0  0  0
    1.0066    3.5397    2.5289 H   0  0  0  0  0  0  0  0  0  0  0  0
    0.6896    3.8897    0.8118 H   0  0  0  0  0  0  0  0  0  0  0  0
  5  6  2  0  0  0  0
  5  7  1  0  0  0  0
  2  3  1  0  0  0  0
  2  4  1  0  0  0  0
  2  5  1  0  0  0  0
  1  2  1  0  0  0  0
 20 21  2  0  0  0  0
 20 22  1  0  0  0  0
 17 18  1  0  0  0  0
 17 19  2  0  0  0  0
 14 15  1  0  0  0  0
 14 16  1  0  0  0  0
 14 17  1  0  0  0  0
 11 12  1  0  0  0  0
 11 13  1  0  0  0  0
 11 14  1  0  0  0  0
  9 10  1  0  0  0  0
  9 11  1  0  0  0  0
  9 20  1  0  0  0  0
  7  8  1  0  0  0  0
  7  9  1  0  0  0  0
 24 25  1  0  0  0  0
 24 26  1  0  0  0  0
 24 27  1  0  0  0  0
 22 23  1  0  0  0  0
 22 24  1  0  0  0  0
M  CHG  1  18  -1
M  END
$$$$
default_name
  -OEChem-02102213163D

 27 26  0     1  0  0  0  0  0999 V2000
   -3.2406   -3.5400    1.2326 H   0  0  0  0  0  0  0  0  0  0  0  0
   -3.1436   -2.6190    0.6606 C   0  0  0  0  0  0  0  0  0  0  0  0
   -3.8786   -1.8920    0.9996 H   0  0  0  0  0  0  0  0  0  0  0  0
   -3.2846   -2.8280   -0.3984 H   0  0  0  0  0  0  0  0  0  0  0  0
   -1.7586   -2.0580    0.8686 C   0  0  0  0  0  0  0  0  0  0  0  0
   -0.9666   -2.6340    1.6026 O   0  0  0  0  0  0  0  0  0  0  0  0
   -1.4866   -0.9220    0.2366 N   0  0  0  0  0  0  0  0  0  0  0  0
   -2.2166   -0.4790   -0.2994 H   0  0  0  0  0  0  0  0  0  0  0  0
   -0.1956   -0.2250    0.2596 C   0  0  1  0  0  0  0  0  0  0  0  0
    0.3927   -0.6026    1.0964 H   0  0  0  0  0  0  0  0  0  0  0  0
    0.5767   -0.5489   -1.0351 C   0  0  0  0  0  0  0  0  0  0  0  0
    0.4927   -1.6214   -1.2174 H   0  0  0  0  0  0  0  0  0  0  0  0
    0.1162   -0.0201   -1.8710 H   0  0  0  0  0  0  0  0  0  0  0  0
    2.0686   -0.1815   -0.9662 C   0  0  0  0  0  0  0  0  0  0  0  0
    2.5394   -0.4179   -1.9235 H   0  0  0  0  0  0  0  0  0  0  0  0
    2.1493    0.8972   -0.8082 H   0  0  0  0  0  0  0  0  0  0  0  0
    2.8268   -0.9150    0.1501 C   0  0  0  0  0  0  0  0  0  0  0  0
    2.1693   -1.6095    0.9576 O   0  5  0  0  0  0  0  0  0  0  0  0
    4.0711   -0.7859    0.1616 O   0  0  0  0  0  0  0  0  0  0  0  0
   -0.3954    1.2887    0.4814 C   0  0  0  0  0  0  0  0  0  0  0  0
   -1.2761    1.9015   -0.1256 O   0  0  0  0  0  0  0  0  0  0  0  0
    0.4051    1.8919    1.3699 N   0  0  0  0  0  0  0  0  0  0  0  0
    1.1380    1.3380    1.7875 H   0  0  0  0  0  0  0  0  0  0  0  0
    0.3573    3.3183    1.6807 C   0  0  0  0  0  0  0  0  0  0  0  0
   -0.6670    3.6090    1.9198 H   0  0  0  0  0  0  0  0  0  0  0  0
    1.0066    3.5397    2.5289 H   0  0  0  0  0  0  0  0  0  0  0  0
    0.6896    3.8897    0.8118 H   0  0  0  0  0  0  0  0  0  0  0  0
  5  6  2  0  0  0  0
  5  7  1  0  0  0  0
  2  3  1  0  0  0  0
  2  4  1  0  0  0  0
  2  5  1  0  0  0  0
  1  2  1  0  0  0  0
 20 21  2  0  0  0  0
 20 22  1  0  0  0  0
 17 18  1  0  0  0  0
 17 19  2  0  0  0  0
 14 15  1  0  0  0  0
 14 16  1  0  0  0  0
 14 17  1  0  0  0  0
 11 12  1  0  0  0  0
 11 13  1  0  0  0  0
 11 14  1  0  0  0  0
  9 10  1  0  0  0  0
  9 11  1  0  0  0  0
  9 20  1  0  0  0  0
  7  8  1  0  0  0  0
  7  9  1  0  0  0  0
 24 25  1  0  0  0  0
 24 26  1  0  0  0  0
 24 27  1  0  0  0  0
 22 23  1  0  0  0  0
 22 24  1  0  0  0  0
M  CHG  1  18  -1
M  END
$$$$
default_name
  -OEChem-02102213163D

 27 26  0     1  0  0  0  0  0999 V2000
   -3.2406   -3.5400    1.2326 H   0  0  0  0  0  0  0  0  0  0  0  0
   -3.1436   -2.6190    0.6606 C   0  0  0  0  0  0  0  0  0  0  0  0
   -3.8786   -1.8920    0.9996 H   0  0  0  0  0  0  0  0  0  0  0  0
   -3.2846   -2.8280   -0.3984 H   0  0  0  0  0  0  0  0  0  0  0  0
   -1.7586   -2.0580    0.8686 C   0  0  0  0  0  0  0  0  0  0  0  0
   -0.9666   -2.6340    1.6026 O   0  0  0  0  0  0  0  0  0  0  0  0
   -1.4866   -0.9220    0.2366 N   0  0  0  0  0  0  0  0  0  0  0  0
   -2.2166   -0.4790   -0.2994 H   0  0  0  0  0  0  0  0  0  0  0  0
   -0.1956   -0.2250    0.2596 C   0  0  1  0  0  0  0  0  0  0  0  0
    0.3927   -0.6026    1.0964 H   0  0  0  0  0  0  0  0  0  0  0  0
    0.5767   -0.5489   -1.0351 C   0  0  0  0  0  0  0  0  0  0  0  0
    0.4927   -1.6214   -1.2174 H   0  0  0  0  0  0  0  0  0  0  0  0
    0.1162   -0.0201   -1.8710 H   0  0  0  0  0  0  0  0  0  0  0  0
    2.0686   -0.1815   -0.9662 C   0  0  0  0  0  0  0  0  0  0  0  0
    2.4787   -0.1611   -1.9788 H   0  0  0  0  0  0  0  0  0  0  0  0
    2.1552    0.8245   -0.5472 H   0  0  0  0  0  0  0  0  0  0  0  0
    2.8986   -1.1565   -0.1180 C   0  0  0  0  0  0  0  0  0  0  0  0
    2.2962   -2.0439    0.5270 O   0  5  0  0  0  0  0  0  0  0  0  0
    4.1407   -1.0102   -0.1495 O   0  0  0  0  0  0  0  0  0  0  0  0
   -0.3954    1.2887    0.4814 C   0  0  0  0  0  0  0  0  0  0  0  0
   -1.2761    1.9015   -0.1256 O   0  0  0  0  0  0  0  0  0  0  0  0
    0.4051    1.8919    1.3699 N   0  0  0  0  0  0  0  0  0  0  0  0
    1.1380    1.3380    1.7875 H   0  0  0  0  0  0  0  0  0  0  0  0
    0.3573    3.3183    1.6807 C   0  0  0  0  0  0  0  0  0  0  0  0
   -0.6670    3.6090    1.9198 H   0  0  0  0  0  0  0  0  0  0  0  0
    1.0066    3.5397    2.5289 H   0  0  0  0  0  0  0  0  0  0  0  0
    0.6896    3.8897    0.8118 H   0  0  0  0  0  0  0  0  0  0  0  0
  5  6  2  0  0  0  0
  5  7  1  0  0  0  0
  2  3  1  0  0  0  0
  2  4  1  0  0  0  0
  2  5  1  0  0  0  0
  1  2  1  0  0  0  0
 20 21  2  0  0  0  0
 20 22  1  0  0  0  0
 17 18  1  0  0  0  0
 17 19  2  0  0  0  0
 14 15  1  0  0  0  0
 14 16  1  0  0  0  0
 14 17  1  0  0  0  0
 11 12  1  0  0  0  0
 11 13  1  0  0  0  0
 11 14  1  0  0  0  0
  9 10  1  0  0  0  0
  9 11  1  0  0  0  0
  9 20  1  0  0  0  0
  7  8  1  0  0  0  0
  7  9  1  0  0  0  0
 24 25  1  0  0  0  0
 24 26  1  0  0  0  0
 24 27  1  0  0  0  0
 22 23  1  0  0  0  0
 22 24  1  0  0  0  0
M  CHG  1  18  -1
M  END
$$$$
default_name
  -OEChem-02102213163D

 27 26  0     1  0  0  0  0  0999 V2000
   -3.2406   -3.5400    1.2326 H   0  0  0  0  0  0  0  0  0  0  0  0
   -3.1436   -2.6190    0.6606 C   0  0  0  0  0  0  0  0  0  0  0  0
   -3.8786   -1.8920    0.9996 H   0  0  0  0  0  0  0  0  0  0  0  0
   -3.2846   -2.8280   -0.3984 H   0  0  0  0  0  0  0  0  0  0  0  0
   -1.7586   -2.0580    0.8686 C   0  0  0  0  0  0  0  0  0  0  0  0
   -0.9666   -2.6340    1.6026 O   0  0  0  0  0  0  0  0  0  0  0  0
   -1.4866   -0.9220    0.2366 N   0  0  0  0  0  0  0  0  0  0  0  0
   -2.2166   -0.4790   -0.2994 H   0  0  0  0  0  0  0  0  0  0  0  0
   -0.1956   -0.2250    0.2596 C   0  0  1  0  0  0  0  0  0  0  0  0
    0.3927   -0.6026    1.0964 H   0  0  0  0  0  0  0  0  0  0  0  0
    0.5767   -0.5489   -1.0351 C   0  0  0  0  0  0  0  0  0  0  0  0
    0.4927   -1.6214   -1.2174 H   0  0  0  0  0  0  0  0  0  0  0  0
    0.1162   -0.0201   -1.8710 H   0  0  0  0  0  0  0  0  0  0  0  0
    2.0686   -0.1815   -0.9662 C   0  0  0  0  0  0  0  0  0  0  0  0
    2.4137    0.1001   -1.9640 H   0  0  0  0  0  0  0  0  0  0  0  0
    2.1778    0.6888   -0.3137 H   0  0  0  0  0  0  0  0  0  0  0  0
    2.9542   -1.3216   -0.4421 C   0  0  0  0  0  0  0  0  0  0  0  0
    2.3972   -2.3540   -0.0057 O   0  5  0  0  0  0  0  0  0  0  0  0
    4.1913   -1.1479   -0.5107 O   0  0  0  0  0  0  0  0  0  0  0  0
   -0.3954    1.2887    0.4814 C   0  0  0  0  0  0  0  0  0  0  0  0
   -1.2761    1.9015   -0.1256 O   0  0  0  0  0  0  0  0  0  0  0  0
    0.4051    1.8919    1.3699 N   0  0  0  0  0  0  0  0  0  0  0  0
    1.1380    1.3380    1.7875 H   0  0  0  0  0  0  0  0  0  0  0  0
    0.3573    3.3183    1.6807 C   0  0  0  0  0  0  0  0  0  0  0  0
   -0.6670    3.6090    1.9198 H   0  0  0  0  0  0  0  0  0  0  0  0
    1.0066    3.5397    2.5289 H   0  0  0  0  0  0  0  0  0  0  0  0
    0.6896    3.8897    0.8118 H   0  0  0  0  0  0  0  0  0  0  0  0
  5  6  2  0  0  0  0
  5  7  1  0  0  0  0
  2  3  1  0  0  0  0
  2  4  1  0  0  0  0
  2  5  1  0  0  0  0
  1  2  1  0  0  0  0
 20 21  2  0  0  0  0
 20 22  1  0  0  0  0
 17 18  1  0  0  0  0
 17 19  2  0  0  0  0
 14 15  1  0  0  0  0
 14 16  1  0  0  0  0
 14 17  1  0  0  0  0
 11 12  1  0  0  0  0
 11 13  1  0  0  0  0
 11 14  1  0  0  0  0
  9 10  1  0  0  0  0
  9 11  1  0  0  0  0
  9 20  1  0  0  0  0
  7  8  1  0  0  0  0
  7  9  1  0  0  0  0
 24 25  1  0  0  0  0
 24 26  1  0  0  0  0
 24 27  1  0  0  0  0
 22 23  1  0  0  0  0
 22 24  1  0  0  0  0
M  CHG  1  18  -1
M  END
$$$$
default_name
  -OEChem-02102213163D

 27 26  0     1  0  0  0  0  0999 V2000
   -3.2406   -3.5400    1.2326 H   0  0  0  0  0  0  0  0  0  0  0  0
   -3.1436   -2.6190    0.6606 C   0  0  0  0  0  0  0  0  0  0  0  0
   -3.8786   -1.8920    0.9996 H   0  0  0  0  0  0  0  0  0  0  0  0
   -3.2846   -2.8280   -0.3984 H   0  0  0  0  0  0  0  0  0  0  0  0
   -1.7586   -2.0580    0.8686 C   0  0  0  0  0  0  0  0  0  0  0  0
   -0.9666   -2.6340    1.6026 O   0  0  0  0  0  0  0  0  0  0  0  0
   -1.4866   -0.9220    0.2366 N   0  0  0  0  0  0  0  0  0  0  0  0
   -2.2166   -0.4790   -0.2994 H   0  0  0  0  0  0  0  0  0  0  0  0
   -0.1956   -0.2250    0.2596 C   0  0  1  0  0  0  0  0  0  0  0  0
    0.3927   -0.6026    1.0964 H   0  0  0  0  0  0  0  0  0  0  0  0
    0.5767   -0.5489   -1.0351 C   0  0  0  0  0  0  0  0  0  0  0  0
    0.4927   -1.6214   -1.2174 H   0  0  0  0  0  0  0  0  0  0  0  0
    0.1162   -0.0201   -1.8710 H   0  0  0  0  0  0  0  0  0  0  0  0
    2.0686   -0.1815   -0.9662 C   0  0  0  0  0  0  0  0  0  0  0  0
    2.3488    0.3479   -1.8801 H   0  0  0  0  0  0  0  0  0  0  0  0
    2.2156    0.4994   -0.1237 H   0  0  0  0  0  0  0  0  0  0  0  0
    2.9899   -1.3991   -0.8000 C   0  0  0  0  0  0  0  0  0  0  0  0
    2.4653   -2.5186   -0.6044 O   0  5  0  0  0  0  0  0  0  0  0  0
    4.2195   -1.1897   -0.8973 O   0  0  0  0  0  0  0  0  0  0  0  0
   -0.3954    1.2887    0.4814 C   0  0  0  0  0  0  0  0  0  0  0  0
   -1.2761    1.9015   -0.1256 O   0  0  0  0  0  0  0  0  0  0  0  0
    0.4051    1.8919    1.3699 N   0  0  0  0  0  0  0  0  0  0  0  0
    1.1380    1.3380    1.7875 H   0  0  0  0  0  0  0  0  0  0  0  0
    0.3573    3.3183    1.6807 C   0  0  0  0  0  0  0  0  0  0  0  0
   -0.6670    3.6090    1.9198 H   0  0  0  0  0  0  0  0  0  0  0  0
    1.0066    3.5397    2.5289 H   0  0  0  0  0  0  0  0  0  0  0  0
    0.6896    3.8897    0.8118 H   0  0  0  0  0  0  0  0  0  0  0  0
  5  6  2  0  0  0  0
  5  7  1  0  0  0  0
  2  3  1  0  0  0  0
  2  4  1  0  0  0  0
  2  5  1  0  0  0  0
  1  2  1  0  0  0  0
 20 21  2  0  0  0  0
 20 22  1  0  0  0  0
 17 18  1  0  0  0  0
 17 19  2  0  0  0  0
 14 15  1  0  0  0  0
 14 16  1  0  0  0  0
 14 17  1  0  0  0  0
 11 12  1  0  0  0  0
 11 13  1  0  0  0  0
 11 14  1  0  0  0  0
  9 10  1  0  0  0  0
  9 11  1  0  0  0  0
  9 20  1  0  0  0  0
  7  8  1  0  0  0  0
  7  9  1  0  0  0  0
 24 25  1  0  0  0  0
 24 26  1  0  0  0  0
 24 27  1  0  0  0  0
 22 23  1  0  0  0  0
 22 24  1  0  0  0  0
M  CHG  1  18  -1
M  END
$$$$
default_name
  -OEChem-02102213163D

 27 26  0     1  0  0  0  0  0999 V2000
   -3.2406   -3.5400    1.2326 H   0  0  0  0  0  0  0  0  0  0  0  0
   -3.1436   -2.6190    0.6606 C   0  0  0  0  0  0  0  0  0  0  0  0
   -3.8786   -1.8920    0.9996 H   0  0  0  0  0  0  0  0  0  0  0  0
   -3.2846   -2.8280   -0.3984 H   0  0  0  0  0  0  0  0  0  0  0  0
   -1.7586   -2.0580    0.8686 C   0  0  0  0  0  0  0  0  0  0  0  0
   -0.9666   -2.6340    1.6026 O   0  0  0  0  0  0  0  0  0  0  0  0
   -1.4866   -0.9220    0.2366 N   0  0  0  0  0  0  0  0  0  0  0  0
   -2.2166   -0.4790   -0.2994 H   0  0  0  0  0  0  0  0  0  0  0  0
   -0.1956   -0.2250    0.2596 C   0  0  1  0  0  0  0  0  0  0  0  0
    0.3927   -0.6026    1.0964 H   0  0  0  0  0  0  0  0  0  0  0  0
    0.5767   -0.5489   -1.0351 C   0  0  0  0  0  0  0  0  0  0  0  0
    0.4927   -1.6214   -1.2174 H   0  0  0  0  0  0  0  0  0  0  0  0
    0.1162   -0.0201   -1.8710 H   0  0  0  0  0  0  0  0  0  0  0  0
    2.0686   -0.1815   -0.9662 C   0  0  0  0  0  0  0  0  0  0  0  0
    2.2884    0.5654   -1.7328 H   0  0  0  0  0  0  0  0  0  0  0  0
    2.2662    0.2692    0.0100 H   0  0  0  0  0  0  0  0  0  0  0  0
    3.0030   -1.3837   -1.1674 C   0  0  0  0  0  0  0  0  0  0  0  0
    2.4961   -2.5265   -1.2283 O   0  5  0  0  0  0  0  0  0  0  0  0
    4.2232   -1.1327   -1.2829 O   0  0  0  0  0  0  0  0  0  0  0  0
   -0.3954    1.2887    0.4814 C   0  0  0  0  0  0  0  0  0  0  0  0
   -1.2761    1.9015   -0.1256 O   0  0  0  0  0  0  0  0  0  0  0  0
    0.4051    1.8919    1.3699 N   0  0  0  0  0  0  0  0  0  0  0  0
    1.1380    1.3380    1.7875 H   0  0  0  0  0  0  0  0  0  0  0  0
    0.3573    3.3183    1.6807 C   0  0  0  0  0  0  0  0  0  0  0  0
   -0.6670    3.6090    1.9198 H   0  0  0  0  0  0  0  0  0  0  0  0
    1.0066    3.5397    2.5289 H   0  0  0  0  0  0  0  0  0  0  0  0
    0.6896    3.8897    0.8118 H   0  0  0  0  0  0  0  0  0  0  0  0
  5  6  2  0  0  0  0
  5  7  1  0  0  0  0
  2  3  1  0  0  0  0
  2  4  1  0  0  0  0
  2  5  1  0  0  0  0
  1  2  1  0  0  0  0
 20 21  2  0  0  0  0
 20 22  1  0  0  0  0
 17 18  1  0  0  0  0
 17 19  2  0  0  0  0
 14 15  1  0  0  0  0
 14 16  1  0  0  0  0
 14 17  1  0  0  0  0
 11 12  1  0  0  0  0
 11 13  1  0  0  0  0
 11 14  1  0  0  0  0
  9 10  1  0  0  0  0
  9 11  1  0  0  0  0
  9 20  1  0  0  0  0
  7  8  1  0  0  0  0
  7  9  1  0  0  0  0
 24 25  1  0  0  0  0
 24 26  1  0  0  0  0
 24 27  1  0  0  0  0
 22 23  1  0  0  0  0
 22 24  1  0  0  0  0
M  CHG  1  18  -1
M  END
$$$$
default_name
  -OEChem-02102213163D

 27 26  0     1  0  0  0  0  0999 V2000
   -3.2406   -3.5400    1.2326 H   0  0  0  0  0  0  0  0  0  0  0  0
   -3.1436   -2.6190    0.6606 C   0  0  0  0  0  0  0  0  0  0  0  0
   -3.8786   -1.8920    0.9996 H   0  0  0  0  0  0  0  0  0  0  0  0
   -3.2846   -2.8280   -0.3984 H   0  0  0  0  0  0  0  0  0  0  0  0
   -1.7586   -2.0580    0.8686 C   0  0  0  0  0  0  0  0  0  0  0  0
   -0.9666   -2.6340    1.6026 O   0  0  0  0  0  0  0  0  0  0  0  0
   -1.4866   -0.9220    0.2366 N   0  0  0  0  0  0  0  0  0  0  0  0
   -2.2166   -0.4790   -0.2994 H   0  0  0  0  0  0  0  0  0  0  0  0
   -0.1956   -0.2250    0.2596 C   0  0  1  0  0  0  0  0  0  0  0  0
    0.3927   -0.6026    1.0964 H   0  0  0  0  0  0  0  0  0  0  0  0
    0.5767   -0.5489   -1.0351 C   0  0  0  0  0  0  0  0  0  0  0  0
    0.4927   -1.6214   -1.2174 H   0  0  0  0  0  0  0  0  0  0  0  0
    0.1162   -0.0201   -1.8710 H   0  0  0  0  0  0  0  0  0  0  0  0
    2.0686   -0.1815   -0.9662 C   0  0  0  0  0  0  0  0  0  0  0  0
    2.2367    0.7379   -1.5322 H   0  0  0  0  0  0  0  0  0  0  0  0
    2.3259    0.0138    0.0782 H   0  0  0  0  0  0  0  0  0  0  0  0
    2.9929   -1.2765   -1.5192 C   0  0  0  0  0  0  0  0  0  0  0  0
    2.4873   -2.3771   -1.8347 O   0  5  0  0  0  0  0  0  0  0  0  0
    4.2024   -0.9807   -1.6412 O   0  0  0  0  0  0  0  0  0  0  0  0
   -0.3954    1.2887    0.4814 C   0  0  0  0  0  0  0  0  0  0  0  0
   -1.2761    1.9015   -0.1256 O   0  0  0  0  0  0  0  0  0  0  0  0
    0.4051    1.8919    1.3699 N   0  0  0  0  0  0  0  0  0  0  0  0
    1.1380    1.3380    1.7875 H   0  0  0  0  0  0  0  0  0  0  0  0
    0.3573    3.3183    1.6807 C   0  0  0  0  0  0  0  0  0  0  0  0
   -0.6670    3.6090    1.9198 H   0  0  0  0  0  0  0  0  0  0  0  0
    1.0066    3.5397    2.5289 H   0  0  0  0  0  0  0  0  0  0  0  0
    0.6896    3.8897    0.8118 H   0  0  0  0  0  0  0  0  0  0  0  0
  5  6  2  0  0  0  0
  5  7  1  0  0  0  0
  2  3  1  0  0  0  0
  2  4  1  0  0  0  0
  2  5  1  0  0  0  0
  1  2  1  0  0  0  0
 20 21  2  0  0  0  0
 20 22  1  0  0  0  0
 17 18  1  0  0  0  0
 17 19  2  0  0  0  0
 14 15  1  0  0  0  0
 14 16  1  0  0  0  0
 14 17  1  0  0  0  0
 11 12  1  0  0  0  0
 11 13  1  0  0  0  0
 11 14  1  0  0  0  0
  9 10  1  0  0  0  0
  9 11  1  0  0  0  0
  9 20  1  0  0  0  0
  7  8  1  0  0  0  0
  7  9  1  0  0  0  0
 24 25  1  0  0  0  0
 24 26  1  0  0  0  0
 24 27  1  0  0  0  0
 22 23  1  0  0  0  0
 22 24  1  0  0  0  0
M  CHG  1  18  -1
M  END
$$$$
default_name
  -OEChem-02102213163D

 27 26  0     1  0  0  0  0  0999 V2000
   -3.2406   -3.5400    1.2326 H   0  0  0  0  0  0  0  0  0  0  0  0
   -3.1436   -2.6190    0.6606 C   0  0  0  0  0  0  0  0  0  0  0  0
   -3.8786   -1.8920    0.9996 H   0  0  0  0  0  0  0  0  0  0  0  0
   -3.2846   -2.8280   -0.3984 H   0  0  0  0  0  0  0  0  0  0  0  0
   -1.7586   -2.0580    0.8686 C   0  0  0  0  0  0  0  0  0  0  0  0
   -0.9666   -2.6340    1.6026 O   0  0  0  0  0  0  0  0  0  0  0  0
   -1.4866   -0.9220    0.2366 N   0  0  0  0  0  0  0  0  0  0  0  0
   -2.2166   -0.4790   -0.2994 H   0  0  0  0  0  0  0  0  0  0  0  0
   -0.1956   -0.2250    0.2596 C   0  0  1  0  0  0  0  0  0  0  0  0
    0.3927   -0.6026    1.0964 H   0  0  0  0  0  0  0  0  0  0  0  0
    0.5767   -0.5489   -1.0351 C   0  0  0  0  0  0  0  0  0  0  0  0
    0.4927   -1.6214   -1.2174 H   0  0  0  0  0  0  0  0  0  0  0  0
    0.1162   -0.0201   -1.8710 H   0  0  0  0  0  0  0  0  0  0  0  0
    2.0686   -0.1815   -0.9662 C   0  0  0  0  0  0  0  0  0  0  0  0
    2.1971    0.8535   -1.2919 H   0  0  0  0  0  0  0  0  0  0  0  0
    2.3908   -0.2493    0.0763 H   0  0  0  0  0  0  0  0  0  0  0  0
    2.9601   -1.0846   -1.8315 C   0  0  0  0  0  0  0  0  0  0  0  0
    2.4397   -2.0806   -2.3825 O   0  5  0  0  0  0  0  0  0  0  0  0
    4.1583   -0.7442   -1.9480 O   0  0  0  0  0  0  0  0  0  0  0  0
   -0.3954    1.2887    0.4814 C   0  0  0  0  0  0  0  0  0  0  0  0
   -1.2761    1.9015   -0.1256 O   0  0  0  0  0  0  0  0  0  0  0  0
    0.4051    1.8919    1.3699 N   0  0  0  0  0  0  0  0  0  0  0  0
    1.1380    1.3380    1.7875 H   0  0  0  0  0  0  0  0  0  0  0  0
    0.3573    3.3183    1.6807 C   0  0  0  0  0  0  0  0  0  0  0  0
   -0.6670    3.6090    1.9198 H   0  0  0  0  0  0  0  0  0  0  0  0
    1.0066    3.5397    2.5289 H   0  0  0  0  0  0  0  0  0  0  0  0
    0.6896    3.8897    0.8118 H   0  0  0  0  0  0  0  0  0  0  0  0
  5  6  2  0  0  0  0
  5  7  1  0  0  0  0
  2  3  1  0  0  0  0
  2  4  1  0  0  0  0
  2  5  1  0  0  0  0
  1  2  1  0  0  0  0
 20 21  2  0  0  0  0
 20 22  1  0  0  0  0
 17 18  1  0  0  0  0
 17 19  2  0  0  0  0
 14 15  1  0  0  0  0
 14 16  1  0  0  0  0
 14 17  1  0  0  0  0
 11 12  1  0  0  0  0
 11 13  1  0  0  0  0
 11 14  1  0  0  0  0
  9 10  1  0  0  0  0
  9 11  1  0  0  0  0
  9 20  1  0  0  0  0
  7  8  1  0  0  0  0
  7  9  1  0  0  0  0
 24 25  1  0  0  0  0
 24 26  1  0  0  0  0
 24 27  1  0  0  0  0
 22 23  1  0  0  0  0
 22 24  1  0  0  0  0
M  CHG  1  18  -1
M  END
$$$$
default_name
  -OEChem-02102213163D

 27 26  0     1  0  0  0  0  0999 V2000
   -3.2406   -3.5400    1.2326 H   0  0  0  0  0  0  0  0  0  0  0  0
   -3.1436   -2.6190    0.6606 C   0  0  0  0  0  0  0  0  0  0  0  0
   -3.8786   -1.8920    0.9996 H   0  0  0  0  0  0  0  0  0  0  0  0
   -3.2846   -2.8280   -0.3984 H   0  0  0  0  0  0  0  0  0  0  0  0
   -1.7586   -2.0580    0.8686 C   0  0  0  0  0  0  0  0  0  0  0  0
   -0.9666   -2.6340    1.6026 O   0  0  0  0  0  0  0  0  0  0  0  0
   -1.4866   -0.9220    0.2366 N   0  0  0  0  0  0  0  0  0  0  0  0
   -2.2166   -0.4790   -0.2994 H   0  0  0  0  0  0  0  0  0  0  0  0
   -0.1956   -0.2250    0.2596 C   0  0  1  0  0  0  0  0  0  0  0  0
    0.3927   -0.6026    1.0964 H   0  0  0  0  0  0  0  0  0  0  0  0
    0.5767   -0.5489   -1.0351 C   0  0  0  0  0  0  0  0  0  0  0  0
    0.4927   -1.6214   -1.2174 H   0  0  0  0  0  0  0  0  0  0  0  0
    0.1162   -0.0201   -1.8710 H   0  0  0  0  0  0  0  0  0  0  0  0
    2.0686   -0.1815   -0.9662 C   0  0  0  0  0  0  0  0  0  0  0  0
    2.1724    0.9044   -1.0284 H   0  0  0  0  0  0  0  0  0  0  0  0
    2.4563   -0.5022    0.0043 H   0  0  0  0  0  0  0  0  0  0  0  0
    2.9068   -0.8213   -2.0829 C   0  0  0  0  0  0  0  0  0  0  0  0
    2.3563   -1.6573   -2.8342 O   0  5  0  0  0  0  0  0  0  0  0  0
    4.0941   -0.4393   -2.1822 O   0  0  0  0  0  0  0  0  0  0  0  0
   -0.3954    1.2887    0.4814 C   0  0  0  0  0  0  0  0  0  0  0  0
   -1.2761    1.9015   -0.1256 O   0  0  0  0  0  0  0  0  0  0  0  0
    0.4051    1.8919    1.3699 N   0  0  0  0  0  0  0  0  0  0  0  0
    1.1380    1.3380    1.7875 H   0  0  0  0  0  0  0  0  0  0  0  0
    0.3573    3.3183    1.6807 C   0  0  0  0  0  0  0  0  0  0  0  0
   -0.6670    3.6090    1.9198 H   0  0  0  0  0  0  0  0  0  0  0  0
    1.0066    3.5397    2.5289 H   0  0  0  0  0  0  0  0  0  0  0  0
    0.6896    3.8897    0.8118 H   0  0  0  0  0  0  0  0  0  0  0  0
  5  6  2  0  0  0  0
  5  7  1  0  0  0  0
  2  3  1  0  0  0  0
  2  4  1  0  0  0  0
  2  5  1  0  0  0  0
  1  2  1  0  0  0  0
 20 21  2  0  0  0  0
 20 22  1  0  0  0  0
 17 18  1  0  0  0  0
 17 19  2  0  0  0  0
 14 15  1  0  0  0  0
 14 16  1  0  0  0  0
 14 17  1  0  0  0  0
 11 12  1  0  0  0  0
 11 13  1  0  0  0  0
 11 14  1  0  0  0  0
  9 10  1  0  0  0  0
  9 11  1  0  0  0  0
  9 20  1  0  0  0  0
  7  8  1  0  0  0  0
  7  9  1  0  0  0  0
 24 25  1  0  0  0  0
 24 26  1  0  0  0  0
 24 27  1  0  0  0  0
 22 23  1  0  0  0  0
 22 24  1  0  0  0  0
M  CHG  1  18  -1
M  END
$$$$
default_name
  -OEChem-02102213163D

 27 26  0     1  0  0  0  0  0999 V2000
   -3.2406   -3.5400    1.2326 H   0  0  0  0  0  0  0  0  0  0  0  0
   -3.1436   -2.6190    0.6606 C   0  0  0  0  0  0  0  0  0  0  0  0
   -3.8786   -1.8920    0.9996 H   0  0  0  0  0  0  0  0  0  0  0  0
   -3.2846   -2.8280   -0.3984 H   0  0  0  0  0  0  0  0  0  0  0  0
   -1.7586   -2.0580    0.8686 C   0  0  0  0  0  0  0  0  0  0  0  0
   -0.9666   -2.6340    1.6026 O   0  0  0  0  0  0  0  0  0  0  0  0
   -1.4866   -0.9220    0.2366 N   0  0  0  0  0  0  0  0  0  0  0  0
   -2.2166   -0.4790   -0.2994 H   0  0  0  0  0  0  0  0  0  0  0  0
   -0.1956   -0.2250    0.2596 C   0  0  1  0  0  0  0  0  0  0  0  0
    0.3927   -0.6026    1.0964 H   0  0  0  0  0  0  0  0  0  0  0  0
    0.5767   -0.5489   -1.0351 C   0  0  0  0  0  0  0  0  0  0  0  0
    0.2781   -1.5453   -1.3644 H   0  0  0  0  0  0  0  0  0  0  0  0
    0.2984    0.1677   -1.8093 H   0  0  0  0  0  0  0  0  0  0  0  0
    2.1043   -0.5316   -0.8574 C   0  0  0  0  0  0  0  0  0  0  0  0
    2.4117    0.4556   -0.5039 H   0  0  0  0  0  0  0  0  0  0  0  0
    2.3684   -1.2622   -0.0883 H   0  0  0  0  0  0  0  0  0  0  0  0
    2.8725   -0.8542   -2.1476 C   0  0  0  0  0  0  0  0  0  0  0  0
    2.2208   -1.2224   -3.1507 O   0  5  0  0  0  0  0  0  0  0  0  0
    4.1138   -0.7013   -2.1146 O   0  0  0  0  0  0  0  0  0  0  0  0
   -0.3954    1.2887    0.4814 C   0  0  0  0  0  0  0  0  0  0  0  0
   -1.2761    1.9015   -0.1256 O   0  0  0  0  0  0  0  0  0  0  0  0
    0.4051    1.8919    1.3699 N   0  0  0  0  0  0  0  0  0  0  0  0
    1.1380    1.3380    1.7875 H   0  0  0  0  0  0  0  0  0  0  0  0
    0.3573    3.3183    1.6807 C   0  0  0  0  0  0  0  0  0  0  0  0
   -0.6670    3.6090    1.9198 H   0  0  0  0  0  0  0  0  0  0  0  0
    1.0066    3.5397    2.5289 H   0  0  0  0  0  0  0  0  0  0  0  0
    0.6896    3.8897    0.8118 H   0  0  0  0  0  0  0  0  0  0  0  0
  5  6  2  0  0  0  0
  5  7  1  0  0  0  0
  2  3  1  0  0  0  0
  2  4  1  0  0  0  0
  2  5  1  0  0  0  0
  1  2  1  0  0  0  0
 20 21  2  0  0  0  0
 20 22  1  0  0  0  0
 17 18  1  0  0  0  0
 17 19  2  0  0  0  0
 14 15  1  0  0  0  0
 14 16  1  0  0  0  0
 14 17  1  0  0  0  0
 11 12  1  0  0  0  0
 11 13  1  0  0  0  0
 11 14  1  0  0  0  0
  9 10  1  0  0  0  0
  9 11  1  0  0  0  0
  9 20  1  0  0  0  0
  7  8  1  0  0  0  0
  7  9  1  0  0  0  0
 24 25  1  0  0  0  0
 24 26  1  0  0  0  0
 24 27  1  0  0  0  0
 22 23  1  0  0  0  0
 22 24  1  0  0  0  0
M  CHG  1  18  -1
M  END
$$$$
default_name
  -OEChem-02102213163D

 27 26  0     1  0  0  0  0  0999 V2000
   -3.2406   -3.5400    1.2326 H   0  0  0  0  0  0  0  0  0  0  0  0
   -3.1436   -2.6190    0.6606 C   0  0  0  0  0  0  0  0  0  0  0  0
   -3.8786   -1.8920    0.9996 H   0  0  0  0  0  0  0  0  0  0  0  0
   -3.2846   -2.8280   -0.3984 H   0  0  0  0  0  0  0  0  0  0  0  0
   -1.7586   -2.0580    0.8686 C   0  0  0  0  0  0  0  0  0  0  0  0
   -0.9666   -2.6340    1.6026 O   0  0  0  0  0  0  0  0  0  0  0  0
   -1.4866   -0.9220    0.2366 N   0  0  0  0  0  0  0  0  0  0  0  0
   -2.2166   -0.4790   -0.2994 H   0  0  0  0  0  0  0  0  0  0  0  0
   -0.1956   -0.2250    0.2596 C   0  0  1  0  0  0  0  0  0  0  0  0
    0.3927   -0.6026    1.0964 H   0  0  0  0  0  0  0  0  0  0  0  0
    0.5767   -0.5489   -1.0351 C   0  0  0  0  0  0  0  0  0  0  0  0
    0.2781   -1.5453   -1.3644 H   0  0  0  0  0  0  0  0  0  0  0  0
    0.2984    0.1677   -1.8093 H   0  0  0  0  0  0  0  0  0  0  0  0
    2.1043   -0.5316   -0.8574 C   0  0  0  0  0  0  0  0  0  0  0  0
    2.3848    0.3404   -0.2617 H   0  0  0  0  0  0  0  0  0  0  0  0
    2.3951   -1.4270   -0.3018 H   0  0  0  0  0  0  0  0  0  0  0  0
    2.8729   -0.4884   -2.1864 C   0  0  0  0  0  0  0  0  0  0  0  0
    2.2255   -0.6059   -3.2511 O   0  5  0  0  0  0  0  0  0  0  0  0
    4.1093   -0.3115   -2.1139 O   0  0  0  0  0  0  0  0  0  0  0  0
   -0.3954    1.2887    0.4814 C   0  0  0  0  0  0  0  0  0  0  0  0
   -1.2761    1.9015   -0.1256 O   0  0  0  0  0  0  0  0  0  0  0  0
    0.4051    1.8919    1.3699 N   0  0  0  0  0  0  0  0  0  0  0  0
    1.1380    1.3380    1.7875 H   0  0  0  0  0  0  0  0  0  0  0  0
    0.3573    3.3183    1.6807 C   0  0  0  0  0  0  0  0  0  0  0  0
   -0.6670    3.6090    1.9198 H   0  0  0  0  0  0  0  0  0  0  0  0
    1.0066    3.5397    2.5289 H   0  0  0  0  0  0  0  0  0  0  0  0
    0.6896    3.8897    0.8118 H   0  0  0  0  0  0  0  0  0  0  0  0
  5  6  2  0  0  0  0
  5  7  1  0  0  0  0
  2  3  1  0  0  0  0
  2  4  1  0  0  0  0
  2  5  1  0  0  0  0
  1  2  1  0  0  0  0
 20 21  2  0  0  0  0
 20 22  1  0  0  0  0
 17 18  1  0  0  0  0
 17 19  2  0  0  0  0
 14 15  1  0  0  0  0
 14 16  1  0  0  0  0
 14 17  1  0  0  0  0
 11 12  1  0  0  0  0
 11 13  1  0  0  0  0
 11 14  1  0  0  0  0
  9 10  1  0  0  0  0
  9 11  1  0  0  0  0
  9 20  1  0  0  0  0
  7  8  1  0  0  0  0
  7  9  1  0  0  0  0
 24 25  1  0  0  0  0
 24 26  1  0  0  0  0
 24 27  1  0  0  0  0
 22 23  1  0  0  0  0
 22 24  1  0  0  0  0
M  CHG  1  18  -1
M  END
$$$$
default_name
  -OEChem-02102213163D

 27 26  0     1  0  0  0  0  0999 V2000
   -3.2406   -3.5400    1.2326 H   0  0  0  0  0  0  0  0  0  0  0  0
   -3.1436   -2.6190    0.6606 C   0  0  0  0  0  0  0  0  0  0  0  0
   -3.8786   -1.8920    0.9996 H   0  0  0  0  0  0  0  0  0  0  0  0
   -3.2846   -2.8280   -0.3984 H   0  0  0  0  0  0  0  0  0  0  0  0
   -1.7586   -2.0580    0.8686 C   0  0  0  0  0  0  0  0  0  0  0  0
   -0.9666   -2.6340    1.6026 O   0  0  0  0  0  0  0  0  0  0  0  0
   -1.4866   -0.9220    0.2366 N   0  0  0  0  0  0  0  0  0  0  0  0
   -2.2166   -0.4790   -0.2994 H   0  0  0  0  0  0  0  0  0  0  0  0
   -0.1956   -0.2250    0.2596 C   0  0  1  0  0  0  0  0  0  0  0  0
    0.3927   -0.6026    1.0964 H   0  0  0  0  0  0  0  0  0  0  0  0
    0.5767   -0.5489   -1.0351 C   0  0  0  0  0  0  0  0  0  0  0  0
    0.2781   -1.5453   -1.3644 H   0  0  0  0  0  0  0  0  0  0  0  0
    0.2984    0.1677   -1.8093 H   0  0  0  0  0  0  0  0  0  0  0  0
    2.1043   -0.5316   -0.8574 C   0  0  0  0  0  0  0  0  0  0  0  0
    2.3630    0.1661   -0.0572 H   0  0  0  0  0  0  0  0  0  0  0  0
    2.4252   -1.5305   -0.5504 H   0  0  0  0  0  0  0  0  0  0  0  0
    2.8622   -0.1250   -2.1299 C   0  0  0  0  0  0  0  0  0  0  0  0
    2.2113    0.0155   -3.1896 O   0  5  0  0  0  0  0  0  0  0  0  0
    4.0933    0.0647   -2.0131 O   0  0  0  0  0  0  0  0  0  0  0  0
   -0.3954    1.2887    0.4814 C   0  0  0  0  0  0  0  0  0  0  0  0
   -1.2761    1.9015   -0.1256 O   0  0  0  0  0  0  0  0  0  0  0  0
    0.4051    1.8919    1.3699 N   0  0  0  0  0  0  0  0  0  0  0  0
    1.1380    1.3380    1.7875 H   0  0  0  0  0  0  0  0  0  0  0  0
    0.3573    3.3183    1.6807 C   0  0  0  0  0  0  0  0  0  0  0  0
   -0.6670    3.6090    1.9198 H   0  0  0  0  0  0  0  0  0  0  0  0
    1.0066    3.5397    2.5289 H   0  0  0  0  0  0  0  0  0  0  0  0
    0.6896    3.8897    0.8118 H   0  0  0  0  0  0  0  0  0  0  0  0
  5  6  2  0  0  0  0
  5  7  1  0  0  0  0
  2  3  1  0  0  0  0
  2  4  1  0  0  0  0
  2  5  1  0  0  0  0
  1  2  1  0  0  0  0
 20 21  2  0  0  0  0
 20 22  1  0  0  0  0
 17 18  1  0  0  0  0
 17 19  2  0  0  0  0
 14 15  1  0  0  0  0
 14 16  1  0  0  0  0
 14 17  1  0  0  0  0
 11 12  1  0  0  0  0
 11 13  1  0  0  0  0
 11 14  1  0  0  0  0
  9 10  1  0  0  0  0
  9 11  1  0  0  0  0
  9 20  1  0  0  0  0
  7  8  1  0  0  0  0
  7  9  1  0  0  0  0
 24 25  1  0  0  0  0
 24 26  1  0  0  0  0
 24 27  1  0  0  0  0
 22 23  1  0  0  0  0
 22 24  1  0  0  0  0
M  CHG  1  18  -1
M  END
$$$$
default_name
  -OEChem-02102213163D

 27 26  0     1  0  0  0  0  0999 V2000
   -3.2406   -3.5400    1.2326 H   0  0  0  0  0  0  0  0  0  0  0  0
   -3.1436   -2.6190    0.6606 C   0  0  0  0  0  0  0  0  0  0  0  0
   -3.8786   -1.8920    0.9996 H   0  0  0  0  0  0  0  0  0  0  0  0
   -3.2846   -2.8280   -0.3984 H   0  0  0  0  0  0  0  0  0  0  0  0
   -1.7586   -2.0580    0.8686 C   0  0  0  0  0  0  0  0  0  0  0  0
   -0.9666   -2.6340    1.6026 O   0  0  0  0  0  0  0  0  0  0  0  0
   -1.4866   -0.9220    0.2366 N   0  0  0  0  0  0  0  0  0  0  0  0
   -2.2166   -0.4790   -0.2994 H   0  0  0  0  0  0  0  0  0  0  0  0
   -0.1956   -0.2250    0.2596 C   0  0  1  0  0  0  0  0  0  0  0  0
    0.3927   -0.6026    1.0964 H   0  0  0  0  0  0  0  0  0  0  0  0
    0.5767   -0.5489   -1.0351 C   0  0  0  0  0  0  0  0  0  0  0  0
    0.2781   -1.5453   -1.3644 H   0  0  0  0  0  0  0  0  0  0  0  0
    0.2984    0.1677   -1.8093 H   0  0  0  0  0  0  0  0  0  0  0  0
    2.1043   -0.5316   -0.8574 C   0  0  0  0  0  0  0  0  0  0  0  0
    2.3477   -0.0555    0.0955 H   0  0  0  0  0  0  0  0  0  0  0  0
    2.4567   -1.5657   -0.8172 H   0  0  0  0  0  0  0  0  0  0  0  0
    2.8412    0.2112   -1.9818 C   0  0  0  0  0  0  0  0  0  0  0  0
    2.1792    0.5996   -2.9704 O   0  5  0  0  0  0  0  0  0  0  0  0
    4.0669    0.4017   -1.8189 O   0  0  0  0  0  0  0  0  0  0  0  0
   -0.3954    1.2887    0.4814 C   0  0  0  0  0  0  0  0  0  0  0  0
   -1.2761    1.9015   -0.1256 O   0  0  0  0  0  0  0  0  0  0  0  0
    0.4051    1.8919    1.3699 N   0  0  0  0  0  0  0  0  0  0  0  0
    1.1380    1.3380    1.7875 H   0  0  0  0  0  0  0  0  0  0  0  0
    0.3573    3.3183    1.6807 C   0  0  0  0  0  0  0  0  0  0  0  0
   -0.6670    3.6090    1.9198 H   0  0  0  0  0  0  0  0  0  0  0  0
    1.0066    3.5397    2.5289 H   0  0  0  0  0  0  0  0  0  0  0  0
    0.6896    3.8897    0.8118 H   0  0  0  0  0  0  0  0  0  0  0  0
  5  6  2  0  0  0  0
  5  7  1  0  0  0  0
  2  3  1  0  0  0  0
  2  4  1  0  0  0  0
  2  5  1  0  0  0  0
  1  2  1  0  0  0  0
 20 21  2  0  0  0  0
 20 22  1  0  0  0  0
 17 18  1  0  0  0  0
 17 19  2  0  0  0  0
 14 15  1  0  0  0  0
 14 16  1  0  0  0  0
 14 17  1  0  0  0  0
 11 12  1  0  0  0  0
 11 13  1  0  0  0  0
 11 14  1  0  0  0  0
  9 10  1  0  0  0  0
  9 11  1  0  0  0  0
  9 20  1  0  0  0  0
  7  8  1  0  0  0  0
  7  9  1  0  0  0  0
 24 25  1  0  0  0  0
 24 26  1  0  0  0  0
 24 27  1  0  0  0  0
 22 23  1  0  0  0  0
 22 24  1  0  0  0  0
M  CHG  1  18  -1
M  END
$$$$
default_name
  -OEChem-02102213163D

 27 26  0     1  0  0  0  0  0999 V2000
   -3.2406   -3.5400    1.2326 H   0  0  0  0  0  0  0  0  0  0  0  0
   -3.1436   -2.6190    0.6606 C   0  0  0  0  0  0  0  0  0  0  0  0
   -3.8786   -1.8920    0.9996 H   0  0  0  0  0  0  0  0  0  0  0  0
   -3.2846   -2.8280   -0.3984 H   0  0  0  0  0  0  0  0  0  0  0  0
   -1.7586   -2.0580    0.8686 C   0  0  0  0  0  0  0  0  0  0  0  0
   -0.9666   -2.6340    1.6026 O   0  0  0  0  0  0  0  0  0  0  0  0
   -1.4866   -0.9220    0.2366 N   0  0  0  0  0  0  0  0  0  0  0  0
   -2.2166   -0.4790   -0.2994 H   0  0  0  0  0  0  0  0  0  0  0  0
   -0.1956   -0.2250    0.2596 C   0  0  1  0  0  0  0  0  0  0  0  0
    0.3927   -0.6026    1.0964 H   0  0  0  0  0  0  0  0  0  0  0  0
    0.5767   -0.5489   -1.0351 C   0  0  0  0  0  0  0  0  0  0  0  0
    0.2781   -1.5453   -1.3644 H   0  0  0  0  0  0  0  0  0  0  0  0
    0.2984    0.1677   -1.8093 H   0  0  0  0  0  0  0  0  0  0  0  0
    2.1043   -0.5316   -0.8574 C   0  0  0  0  0  0  0  0  0  0  0  0
    2.3401   -0.3092    0.1861 H   0  0  0  0  0  0  0  0  0  0  0  0
    2.4874   -1.5301   -1.0841 H   0  0  0  0  0  0  0  0  0  0  0  0
    2.8112    0.4972   -1.7523 C   0  0  0  0  0  0  0  0  0  0  0  0
    2.1313    1.1064   -2.6085 O   0  5  0  0  0  0  0  0  0  0  0  0
    4.0319    0.6765   -1.5447 O   0  0  0  0  0  0  0  0  0  0  0  0
   -0.3954    1.2887    0.4814 C   0  0  0  0  0  0  0  0  0  0  0  0
   -1.2761    1.9015   -0.1256 O   0  0  0  0  0  0  0  0  0  0  0  0
    0.4051    1.8919    1.3699 N   0  0  0  0  0  0  0  0  0  0  0  0
    1.1380    1.3380    1.7875 H   0  0  0  0  0  0  0  0  0  0  0  0
    0.3573    3.3183    1.6807 C   0  0  0  0  0  0  0  0  0  0  0  0
   -0.6670    3.6090    1.9198 H   0  0  0  0  0  0  0  0  0  0  0  0
    1.0066    3.5397    2.5289 H   0  0  0  0  0  0  0  0  0  0  0  0
    0.6896    3.8897    0.8118 H   0  0  0  0  0  0  0  0  0  0  0  0
  5  6  2  0  0  0  0
  5  7  1  0  0  0  0
  2  3  1  0  0  0  0
  2  4  1  0  0  0  0
  2  5  1  0  0  0  0
  1  2  1  0  0  0  0
 20 21  2  0  0  0  0
 20 22  1  0  0  0  0
 17 18  1  0  0  0  0
 17 19  2  0  0  0  0
 14 15  1  0  0  0  0
 14 16  1  0  0  0  0
 14 17  1  0  0  0  0
 11 12  1  0  0  0  0
 11 13  1  0  0  0  0
 11 14  1  0  0  0  0
  9 10  1  0  0  0  0
  9 11  1  0  0  0  0
  9 20  1  0  0  0  0
  7  8  1  0  0  0  0
  7  9  1  0  0  0  0
 24 25  1  0  0  0  0
 24 26  1  0  0  0  0
 24 27  1  0  0  0  0
 22 23  1  0  0  0  0
 22 24  1  0  0  0  0
M  CHG  1  18  -1
M  END
$$$$
default_name
  -OEChem-02102213163D

 27 26  0     1  0  0  0  0  0999 V2000
   -3.2406   -3.5400    1.2326 H   0  0  0  0  0  0  0  0  0  0  0  0
   -3.1436   -2.6190    0.6606 C   0  0  0  0  0  0  0  0  0  0  0  0
   -3.8786   -1.8920    0.9996 H   0  0  0  0  0  0  0  0  0  0  0  0
   -3.2846   -2.8280   -0.3984 H   0  0  0  0  0  0  0  0  0  0  0  0
   -1.7586   -2.0580    0.8686 C   0  0  0  0  0  0  0  0  0  0  0  0
   -0.9666   -2.6340    1.6026 O   0  0  0  0  0  0  0  0  0  0  0  0
   -1.4866   -0.9220    0.2366 N   0  0  0  0  0  0  0  0  0  0  0  0
   -2.2166   -0.4790   -0.2994 H   0  0  0  0  0  0  0  0  0  0  0  0
   -0.1956   -0.2250    0.2596 C   0  0  1  0  0  0  0  0  0  0  0  0
    0.3927   -0.6026    1.0964 H   0  0  0  0  0  0  0  0  0  0  0  0
    0.5767   -0.5489   -1.0351 C   0  0  0  0  0  0  0  0  0  0  0  0
    0.2781   -1.5453   -1.3644 H   0  0  0  0  0  0  0  0  0  0  0  0
    0.2984    0.1677   -1.8093 H   0  0  0  0  0  0  0  0  0  0  0  0
    2.1043   -0.5316   -0.8574 C   0  0  0  0  0  0  0  0  0  0  0  0
    2.3405   -0.5779    0.2084 H   0  0  0  0  0  0  0  0  0  0  0  0
    2.5151   -1.4262   -1.3328 H   0  0  0  0  0  0  0  0  0  0  0  0
    2.7744    0.7136   -1.4569 C   0  0  0  0  0  0  0  0  0  0  0  0
    2.0710    1.5015   -2.1285 O   0  5  0  0  0  0  0  0  0  0  0  0
    3.9906    0.8704   -1.2090 O   0  0  0  0  0  0  0  0  0  0  0  0
   -0.3954    1.2887    0.4814 C   0  0  0  0  0  0  0  0  0  0  0  0
   -1.2761    1.9015   -0.1256 O   0  0  0  0  0  0  0  0  0  0  0  0
    0.4051    1.8919    1.3699 N   0  0  0  0  0  0  0  0  0  0  0  0
    1.1380    1.3380    1.7875 H   0  0  0  0  0  0  0  0  0  0  0  0
    0.3573    3.3183    1.6807 C   0  0  0  0  0  0  0  0  0  0  0  0
   -0.6670    3.6090    1.9198 H   0  0  0  0  0  0  0  0  0  0  0  0
    1.0066    3.5397    2.5289 H   0  0  0  0  0  0  0  0  0  0  0  0
    0.6896    3.8897    0.8118 H   0  0  0  0  0  0  0  0  0  0  0  0
  5  6  2  0  0  0  0
  5  7  1  0  0  0  0
  2  3  1  0  0  0  0
  2  4  1  0  0  0  0
  2  5  1  0  0  0  0
  1  2  1  0  0  0  0
 20 21  2  0  0  0  0
 20 22  1  0  0  0  0
 17 18  1  0  0  0  0
 17 19  2  0  0  0  0
 14 15  1  0  0  0  0
 14 16  1  0  0  0  0
 14 17  1  0  0  0  0
 11 12  1  0  0  0  0
 11 13  1  0  0  0  0
 11 14  1  0  0  0  0
  9 10  1  0  0  0  0
  9 11  1  0  0  0  0
  9 20  1  0  0  0  0
  7  8  1  0  0  0  0
  7  9  1  0  0  0  0
 24 25  1  0  0  0  0
 24 26  1  0  0  0  0
 24 27  1  0  0  0  0
 22 23  1  0  0  0  0
 22 24  1  0  0  0  0
M  CHG  1  18  -1
M  END
$$$$
default_name
  -OEChem-02102213163D

 27 26  0     1  0  0  0  0  0999 V2000
   -3.2406   -3.5400    1.2326 H   0  0  0  0  0  0  0  0  0  0  0  0
   -3.1436   -2.6190    0.6606 C   0  0  0  0  0  0  0  0  0  0  0  0
   -3.8786   -1.8920    0.9996 H   0  0  0  0  0  0  0  0  0  0  0  0
   -3.2846   -2.8280   -0.3984 H   0  0  0  0  0  0  0  0  0  0  0  0
   -1.7586   -2.0580    0.8686 C   0  0  0  0  0  0  0  0  0  0  0  0
   -0.9666   -2.6340    1.6026 O   0  0  0  0  0  0  0  0  0  0  0  0
   -1.4866   -0.9220    0.2366 N   0  0  0  0  0  0  0  0  0  0  0  0
   -2.2166   -0.4790   -0.2994 H   0  0  0  0  0  0  0  0  0  0  0  0
   -0.1956   -0.2250    0.2596 C   0  0  1  0  0  0  0  0  0  0  0  0
    0.3927   -0.6026    1.0964 H   0  0  0  0  0  0  0  0  0  0  0  0
    0.5767   -0.5489   -1.0351 C   0  0  0  0  0  0  0  0  0  0  0  0
    0.2781   -1.5453   -1.3644 H   0  0  0  0  0  0  0  0  0  0  0  0
    0.2984    0.1677   -1.8093 H   0  0  0  0  0  0  0  0  0  0  0  0
    2.1043   -0.5316   -0.8574 C   0  0  0  0  0  0  0  0  0  0  0  0
    2.3490   -0.8431    0.1610 H   0  0  0  0  0  0  0  0  0  0  0  0
    2.5381   -1.2611   -1.5464 H   0  0  0  0  0  0  0  0  0  0  0  0
    2.7332    0.8456   -1.1160 C   0  0  0  0  0  0  0  0  0  0  0  0
    2.0023    1.7579   -1.5630 O   0  5  0  0  0  0  0  0  0  0  0  0
    3.9459    0.9702   -0.8348 O   0  0  0  0  0  0  0  0  0  0  0  0
   -0.3954    1.2887    0.4814 C   0  0  0  0  0  0  0  0  0  0  0  0
   -1.2761    1.9015   -0.1256 O   0  0  0  0  0  0  0  0  0  0  0  0
    0.4051    1.8919    1.3699 N   0  0  0  0  0  0  0  0  0  0  0  0
    1.1380    1.3380    1.7875 H   0  0  0  0  0  0  0  0  0  0  0  0
    0.3573    3.3183    1.6807 C   0  0  0  0  0  0  0  0  0  0  0  0
   -0.6670    3.6090    1.9198 H   0  0  0  0  0  0  0  0  0  0  0  0
    1.0066    3.5397    2.5289 H   0  0  0  0  0  0  0  0  0  0  0  0
    0.6896    3.8897    0.8118 H   0  0  0  0  0  0  0  0  0  0  0  0
  5  6  2  0  0  0  0
  5  7  1  0  0  0  0
  2  3  1  0  0  0  0
  2  4  1  0  0  0  0
  2  5  1  0  0  0  0
  1  2  1  0  0  0  0
 20 21  2  0  0  0  0
 20 22  1  0  0  0  0
 17 18  1  0  0  0  0
 17 19  2  0  0  0  0
 14 15  1  0  0  0  0
 14 16  1  0  0  0  0
 14 17  1  0  0  0  0
 11 12  1  0  0  0  0
 11 13  1  0  0  0  0
 11 14  1  0  0  0  0
  9 10  1  0  0  0  0
  9 11  1  0  0  0  0
  9 20  1  0  0  0  0
  7  8  1  0  0  0  0
  7  9  1  0  0  0  0
 24 25  1  0  0  0  0
 24 26  1  0  0  0  0
 24 27  1  0  0  0  0
 22 23  1  0  0  0  0
 22 24  1  0  0  0  0
M  CHG  1  18  -1
M  END
$$$$
default_name
  -OEChem-02102213163D

 27 26  0     1  0  0  0  0  0999 V2000
   -3.2406   -3.5400    1.2326 H   0  0  0  0  0  0  0  0  0  0  0  0
   -3.1436   -2.6190    0.6606 C   0  0  0  0  0  0  0  0  0  0  0  0
   -3.8786   -1.8920    0.9996 H   0  0  0  0  0  0  0  0  0  0  0  0
   -3.2846   -2.8280   -0.3984 H   0  0  0  0  0  0  0  0  0  0  0  0
   -1.7586   -2.0580    0.8686 C   0  0  0  0  0  0  0  0  0  0  0  0
   -0.9666   -2.6340    1.6026 O   0  0  0  0  0  0  0  0  0  0  0  0
   -1.4866   -0.9220    0.2366 N   0  0  0  0  0  0  0  0  0  0  0  0
   -2.2166   -0.4790   -0.2994 H   0  0  0  0  0  0  0  0  0  0  0  0
   -0.1956   -0.2250    0.2596 C   0  0  1  0  0  0  0  0  0  0  0  0
    0.3927   -0.6026    1.0964 H   0  0  0  0  0  0  0  0  0  0  0  0
    0.5767   -0.5489   -1.0351 C   0  0  0  0  0  0  0  0  0  0  0  0
    0.2781   -1.5453   -1.3644 H   0  0  0  0  0  0  0  0  0  0  0  0
    0.2984    0.1677   -1.8093 H   0  0  0  0  0  0  0  0  0  0  0  0
    2.1043   -0.5316   -0.8574 C   0  0  0  0  0  0  0  0  0  0  0  0
    2.3651   -1.0868    0.0469 H   0  0  0  0  0  0  0  0  0  0  0  0
    2.5548   -1.0460   -1.7104 H   0  0  0  0  0  0  0  0  0  0  0  0
    2.6905    0.8842   -0.7526 C   0  0  0  0  0  0  0  0  0  0  0  0
    1.9299    1.8582   -0.9508 O   0  5  0  0  0  0  0  0  0  0  0  0
    3.9009    0.9690   -0.4476 O   0  0  0  0  0  0  0  0  0  0  0  0
   -0.3954    1.2887    0.4814 C   0  0  0  0  0  0  0  0  0  0  0  0
   -1.2761    1.9015   -0.1256 O   0  0  0  0  0  0  0  0  0  0  0  0
    0.4051    1.8919    1.3699 N   0  0  0  0  0  0  0  0  0  0  0  0
    1.1380    1.3380    1.7875 H   0  0  0  0  0  0  0  0  0  0  0  0
    0.3573    3.3183    1.6807 C   0  0  0  0  0  0  0  0  0  0  0  0
   -0.6670    3.6090    1.9198 H   0  0  0  0  0  0  0  0  0  0  0  0
    1.0066    3.5397    2.5289 H   0  0  0  0  0  0  0  0  0  0  0  0
    0.6896    3.8897    0.8118 H   0  0  0  0  0  0  0  0  0  0  0  0
  5  6  2  0  0  0  0
  5  7  1  0  0  0  0
  2  3  1  0  0  0  0
  2  4  1  0  0  0  0
  2  5  1  0  0  0  0
  1  2  1  0  0  0  0
 20 21  2  0  0  0  0
 20 22  1  0  0  0  0
 17 18  1  0  0  0  0
 17 19  2  0  0  0  0
 14 15  1  0  0  0  0
 14 16  1  0  0  0  0
 14 17  1  0  0  0  0
 11 12  1  0  0  0  0
 11 13  1  0  0  0  0
 11 14  1  0  0  0  0
  9 10  1  0  0  0  0
  9 11  1  0  0  0  0
  9 20  1  0  0  0  0
  7  8  1  0  0  0  0
  7  9  1  0  0  0  0
 24 25  1  0  0  0  0
 24 26  1  0  0  0  0
 24 27  1  0  0  0  0
 22 23  1  0  0  0  0
 22 24  1  0  0  0  0
M  CHG  1  18  -1
M  END
$$$$
default_name
  -OEChem-02102213163D

 27 26  0     1  0  0  0  0  0999 V2000
   -3.2406   -3.5400    1.2326 H   0  0  0  0  0  0  0  0  0  0  0  0
   -3.1436   -2.6190    0.6606 C   0  0  0  0  0  0  0  0  0  0  0  0
   -3.8786   -1.8920    0.9996 H   0  0  0  0  0  0  0  0  0  0  0  0
   -3.2846   -2.8280   -0.3984 H   0  0  0  0  0  0  0  0  0  0  0  0
   -1.7586   -2.0580    0.8686 C   0  0  0  0  0  0  0  0  0  0  0  0
   -0.9666   -2.6340    1.6026 O   0  0  0  0  0  0  0  0  0  0  0  0
   -1.4866   -0.9220    0.2366 N   0  0  0  0  0  0  0  0  0  0  0  0
   -2.2166   -0.4790   -0.2994 H   0  0  0  0  0  0  0  0  0  0  0  0
   -0.1956   -0.2250    0.2596 C   0  0  1  0  0  0  0  0  0  0  0  0
    0.3927   -0.6026    1.0964 H   0  0  0  0  0  0  0  0  0  0  0  0
    0.5767   -0.5489   -1.0351 C   0  0  0  0  0  0  0  0  0  0  0  0
    0.2781   -1.5453   -1.3644 H   0  0  0  0  0  0  0  0  0  0  0  0
    0.2984    0.1677   -1.8093 H   0  0  0  0  0  0  0  0  0  0  0  0
    2.1043   -0.5316   -0.8574 C   0  0  0  0  0  0  0  0  0  0  0  0
    2.3875   -1.2924   -0.1260 H   0  0  0  0  0  0  0  0  0  0  0  0
    2.5639   -0.7955   -1.8135 H   0  0  0  0  0  0  0  0  0  0  0  0
    2.6491    0.8268   -0.3915 C   0  0  0  0  0  0  0  0  0  0  0  0
    1.8588    1.7955   -0.3333 O   0  5  0  0  0  0  0  0  0  0  0  0
    3.8585    0.8670   -0.0738 O   0  0  0  0  0  0  0  0  0  0  0  0
   -0.3954    1.2887    0.4814 C   0  0  0  0  0  0  0  0  0  0  0  0
   -1.2761    1.9015   -0.1256 O   0  0  0  0  0  0  0  0  0  0  0  0
    0.4051    1.8919    1.3699 N   0  0  0  0  0  0  0  0  0  0  0  0
    1.1380    1.3380    1.7875 H   0  0  0  0  0  0  0  0  0  0  0  0
    0.3573    3.3183    1.6807 C   0  0  0  0  0  0  0  0  0  0  0  0
   -0.6670    3.6090    1.9198 H   0  0  0  0  0  0  0  0  0  0  0  0
    1.0066    3.5397    2.5289 H   0  0  0  0  0  0  0  0  0  0  0  0
    0.6896    3.8897    0.8118 H   0  0  0  0  0  0  0  0  0  0  0  0
  5  6  2  0  0  0  0
  5  7  1  0  0  0  0
  2  3  1  0  0  0  0
  2  4  1  0  0  0  0
  2  5  1  0  0  0  0
  1  2  1  0  0  0  0
 20 21  2  0  0  0  0
 20 22  1  0  0  0  0
 17 18  1  0  0  0  0
 17 19  2  0  0  0  0
 14 15  1  0  0  0  0
 14 16  1  0  0  0  0
 14 17  1  0  0  0  0
 11 12  1  0  0  0  0
 11 13  1  0  0  0  0
 11 14  1  0  0  0  0
  9 10  1  0  0  0  0
  9 11  1  0  0  0  0
  9 20  1  0  0  0  0
  7  8  1  0  0  0  0
  7  9  1  0  0  0  0
 24 25  1  0  0  0  0
 24 26  1  0  0  0  0
 24 27  1  0  0  0  0
 22 23  1  0  0  0  0
 22 24  1  0  0  0  0
M  CHG  1  18  -1
M  END
$$$$
default_name
  -OEChem-02102213163D

 27 26  0     1  0  0  0  0  0999 V2000
   -3.2406   -3.5400    1.2326 H   0  0  0  0  0  0  0  0  0  0  0  0
   -3.1436   -2.6190    0.6606 C   0  0  0  0  0  0  0  0  0  0  0  0
   -3.8786   -1.8920    0.9996 H   0  0  0  0  0  0  0  0  0  0  0  0
   -3.2846   -2.8280   -0.3984 H   0  0  0  0  0  0  0  0  0  0  0  0
   -1.7586   -2.0580    0.8686 C   0  0  0  0  0  0  0  0  0  0  0  0
   -0.9666   -2.6340    1.6026 O   0  0  0  0  0  0  0  0  0  0  0  0
   -1.4866   -0.9220    0.2366 N   0  0  0  0  0  0  0  0  0  0  0  0
   -2.2166   -0.4790   -0.2994 H   0  0  0  0  0  0  0  0  0  0  0  0
   -0.1956   -0.2250    0.2596 C   0  0  1  0  0  0  0  0  0  0  0  0
    0.3927   -0.6026    1.0964 H   0  0  0  0  0  0  0  0  0  0  0  0
    0.5767   -0.5489   -1.0351 C   0  0  0  0  0  0  0  0  0  0  0  0
    0.2781   -1.5453   -1.3644 H   0  0  0  0  0  0  0  0  0  0  0  0
    0.2984    0.1677   -1.8093 H   0  0  0  0  0  0  0  0  0  0  0  0
    2.1043   -0.5316   -0.8574 C   0  0  0  0  0  0  0  0  0  0  0  0
    2.4148   -1.4458   -0.3459 H   0  0  0  0  0  0  0  0  0  0  0  0
    2.5650   -0.5269   -1.8488 H   0  0  0  0  0  0  0  0  0  0  0  0
    2.6119    0.6772   -0.0574 C   0  0  0  0  0  0  0  0  0  0  0  0
    1.7937    1.5741    0.2471 O   0  5  0  0  0  0  0  0  0  0  0  0
    3.8218    0.6711    0.2612 O   0  0  0  0  0  0  0  0  0  0  0  0
   -0.3954    1.2887    0.4814 C   0  0  0  0  0  0  0  0  0  0  0  0
   -1.2761    1.9015   -0.1256 O   0  0  0  0  0  0  0  0  0  0  0  0
    0.4051    1.8919    1.3699 N   0  0  0  0  0  0  0  0  0  0  0  0
    1.1380    1.3380    1.7875 H   0  0  0  0  0  0  0  0  0  0  0  0
    0.3573    3.3183    1.6807 C   0  0  0  0  0  0  0  0  0  0  0  0
   -0.6670    3.6090    1.9198 H   0  0  0  0  0  0  0  0  0  0  0  0
    1.0066    3.5397    2.5289 H   0  0  0  0  0  0  0  0  0  0  0  0
    0.6896    3.8897    0.8118 H   0  0  0  0  0  0  0  0  0  0  0  0
  5  6  2  0  0  0  0
  5  7  1  0  0  0  0
  2  3  1  0  0  0  0
  2  4  1  0  0  0  0
  2  5  1  0  0  0  0
  1  2  1  0  0  0  0
 20 21  2  0  0  0  0
 20 22  1  0  0  0  0
 17 18  1  0  0  0  0
 17 19  2  0  0  0  0
 14 15  1  0  0  0  0
 14 16  1  0  0  0  0
 14 17  1  0  0  0  0
 11 12  1  0  0  0  0
 11 13  1  0  0  0  0
 11 14  1  0  0  0  0
  9 10  1  0  0  0  0
  9 11  1  0  0  0  0
  9 20  1  0  0  0  0
  7  8  1  0  0  0  0
  7  9  1  0  0  0  0
 24 25  1  0  0  0  0
 24 26  1  0  0  0  0
 24 27  1  0  0  0  0
 22 23  1  0  0  0  0
 22 24  1  0  0  0  0
M  CHG  1  18  -1
M  END
$$$$
default_name
  -OEChem-02102213163D

 27 26  0     1  0  0  0  0  0999 V2000
   -3.2406   -3.5400    1.2326 H   0  0  0  0  0  0  0  0  0  0  0  0
   -3.1436   -2.6190    0.6606 C   0  0  0  0  0  0  0  0  0  0  0  0
   -3.8786   -1.8920    0.9996 H   0  0  0  0  0  0  0  0  0  0  0  0
   -3.2846   -2.8280   -0.3984 H   0  0  0  0  0  0  0  0  0  0  0  0
   -1.7586   -2.0580    0.8686 C   0  0  0  0  0  0  0  0  0  0  0  0
   -0.9666   -2.6340    1.6026 O   0  0  0  0  0  0  0  0  0  0  0  0
   -1.4866   -0.9220    0.2366 N   0  0  0  0  0  0  0  0  0  0  0  0
   -2.2166   -0.4790   -0.2994 H   0  0  0  0  0  0  0  0  0  0  0  0
   -0.1956   -0.2250    0.2596 C   0  0  1  0  0  0  0  0  0  0  0  0
    0.3927   -0.6026    1.0964 H   0  0  0  0  0  0  0  0  0  0  0  0
    0.5767   -0.5489   -1.0351 C   0  0  0  0  0  0  0  0  0  0  0  0
    0.2781   -1.5453   -1.3644 H   0  0  0  0  0  0  0  0  0  0  0  0
    0.2984    0.1677   -1.8093 H   0  0  0  0  0  0  0  0  0  0  0  0
    2.1043   -0.5316   -0.8574 C   0  0  0  0  0  0  0  0  0  0  0  0
    2.4452   -1.5367   -0.5979 H   0  0  0  0  0  0  0  0  0  0  0  0
    2.5579   -0.2583   -1.8138 H   0  0  0  0  0  0  0  0  0  0  0  0
    2.5814    0.4458    0.2270 C   0  0  0  0  0  0  0  0  0  0  0  0
    1.7392    1.2091    0.7511 O   0  5  0  0  0  0  0  0  0  0  0  0
    3.7931    0.3947    0.5346 O   0  0  0  0  0  0  0  0  0  0  0  0
   -0.3954    1.2887    0.4814 C   0  0  0  0  0  0  0  0  0  0  0  0
   -1.2761    1.9015   -0.1256 O   0  0  0  0  0  0  0  0  0  0  0  0
    0.4051    1.8919    1.3699 N   0  0  0  0  0  0  0  0  0  0  0  0
    1.1380    1.3380    1.7875 H   0  0  0  0  0  0  0  0  0  0  0  0
    0.3573    3.3183    1.6807 C   0  0  0  0  0  0  0  0  0  0  0  0
   -0.6670    3.6090    1.9198 H   0  0  0  0  0  0  0  0  0  0  0  0
    1.0066    3.5397    2.5289 H   0  0  0  0  0  0  0  0  0  0  0  0
    0.6896    3.8897    0.8118 H   0  0  0  0  0  0  0  0  0  0  0  0
  5  6  2  0  0  0  0
  5  7  1  0  0  0  0
  2  3  1  0  0  0  0
  2  4  1  0  0  0  0
  2  5  1  0  0  0  0
  1  2  1  0  0  0  0
 20 21  2  0  0  0  0
 20 22  1  0  0  0  0
 17 18  1  0  0  0  0
 17 19  2  0  0  0  0
 14 15  1  0  0  0  0
 14 16  1  0  0  0  0
 14 17  1  0  0  0  0
 11 12  1  0  0  0  0
 11 13  1  0  0  0  0
 11 14  1  0  0  0  0
  9 10  1  0  0  0  0
  9 11  1  0  0  0  0
  9 20  1  0  0  0  0
  7  8  1  0  0  0  0
  7  9  1  0  0  0  0
 24 25  1  0  0  0  0
 24 26  1  0  0  0  0
 24 27  1  0  0  0  0
 22 23  1  0  0  0  0
 22 24  1  0  0  0  0
M  CHG  1  18  -1
M  END
$$$$
default_name
  -OEChem-02102213163D

 27 26  0     1  0  0  0  0  0999 V2000
   -3.2406   -3.5400    1.2326 H   0  0  0  0  0  0  0  0  0  0  0  0
   -3.1436   -2.6190    0.6606 C   0  0  0  0  0  0  0  0  0  0  0  0
   -3.8786   -1.8920    0.9996 H   0  0  0  0  0  0  0  0  0  0  0  0
   -3.2846   -2.8280   -0.3984 H   0  0  0  0  0  0  0  0  0  0  0  0
   -1.7586   -2.0580    0.8686 C   0  0  0  0  0  0  0  0  0  0  0  0
   -0.9666   -2.6340    1.6026 O   0  0  0  0  0  0  0  0  0  0  0  0
   -1.4866   -0.9220    0.2366 N   0  0  0  0  0  0  0  0  0  0  0  0
   -2.2166   -0.4790   -0.2994 H   0  0  0  0  0  0  0  0  0  0  0  0
   -0.1956   -0.2250    0.2596 C   0  0  1  0  0  0  0  0  0  0  0  0
    0.3927   -0.6026    1.0964 H   0  0  0  0  0  0  0  0  0  0  0  0
    0.5767   -0.5489   -1.0351 C   0  0  0  0  0  0  0  0  0  0  0  0
    0.2781   -1.5453   -1.3644 H   0  0  0  0  0  0  0  0  0  0  0  0
    0.2984    0.1677   -1.8093 H   0  0  0  0  0  0  0  0  0  0  0  0
    2.1043   -0.5316   -0.8574 C   0  0  0  0  0  0  0  0  0  0  0  0
    2.4765   -1.5589   -0.8647 H   0  0  0  0  0  0  0  0  0  0  0  0
    2.5431   -0.0080   -1.7109 H   0  0  0  0  0  0  0  0  0  0  0  0
    2.5598    0.1482    0.4424 C   0  0  0  0  0  0  0  0  0  0  0  0
    1.6989    0.7253    1.1442 O   0  5  0  0  0  0  0  0  0  0  0  0
    3.7745    0.0565    0.7276 O   0  0  0  0  0  0  0  0  0  0  0  0
   -0.3954    1.2887    0.4814 C   0  0  0  0  0  0  0  0  0  0  0  0
   -1.2761    1.9015   -0.1256 O   0  0  0  0  0  0  0  0  0  0  0  0
    0.4051    1.8919    1.3699 N   0  0  0  0  0  0  0  0  0  0  0  0
    1.1380    1.3380    1.7875 H   0  0  0  0  0  0  0  0  0  0  0  0
    0.3573    3.3183    1.6807 C   0  0  0  0  0  0  0  0  0  0  0  0
   -0.6670    3.6090    1.9198 H   0  0  0  0  0  0  0  0  0  0  0  0
    1.0066    3.5397    2.5289 H   0  0  0  0  0  0  0  0  0  0  0  0
    0.6896    3.8897    0.8118 H   0  0  0  0  0  0  0  0  0  0  0  0
  5  6  2  0  0  0  0
  5  7  1  0  0  0  0
  2  3  1  0  0  0  0
  2  4  1  0  0  0  0
  2  5  1  0  0  0  0
  1  2  1  0  0  0  0
 20 21  2  0  0  0  0
 20 22  1  0  0  0  0
 17 18  1  0  0  0  0
 17 19  2  0  0  0  0
 14 15  1  0  0  0  0
 14 16  1  0  0  0  0
 14 17  1  0  0  0  0
 11 12  1  0  0  0  0
 11 13  1  0  0  0  0
 11 14  1  0  0  0  0
  9 10  1  0  0  0  0
  9 11  1  0  0  0  0
  9 20  1  0  0  0  0
  7  8  1  0  0  0  0
  7  9  1  0  0  0  0
 24 25  1  0  0  0  0
 24 26  1  0  0  0  0
 24 27  1  0  0  0  0
 22 23  1  0  0  0  0
 22 24  1  0  0  0  0
M  CHG  1  18  -1
M  END
$$$$
default_name
  -OEChem-02102213163D

 27 26  0     1  0  0  0  0  0999 V2000
   -3.2406   -3.5400    1.2326 H   0  0  0  0  0  0  0  0  0  0  0  0
   -3.1436   -2.6190    0.6606 C   0  0  0  0  0  0  0  0  0  0  0  0
   -3.8786   -1.8920    0.9996 H   0  0  0  0  0  0  0  0  0  0  0  0
   -3.2846   -2.8280   -0.3984 H   0  0  0  0  0  0  0  0  0  0  0  0
   -1.7586   -2.0580    0.8686 C   0  0  0  0  0  0  0  0  0  0  0  0
   -0.9666   -2.6340    1.6026 O   0  0  0  0  0  0  0  0  0  0  0  0
   -1.4866   -0.9220    0.2366 N   0  0  0  0  0  0  0  0  0  0  0  0
   -2.2166   -0.4790   -0.2994 H   0  0  0  0  0  0  0  0  0  0  0  0
   -0.1956   -0.2250    0.2596 C   0  0  1  0  0  0  0  0  0  0  0  0
    0.3927   -0.6026    1.0964 H   0  0  0  0  0  0  0  0  0  0  0  0
    0.5767   -0.5489   -1.0351 C   0  0  0  0  0  0  0  0  0  0  0  0
    0.2781   -1.5453   -1.3644 H   0  0  0  0  0  0  0  0  0  0  0  0
    0.2984    0.1677   -1.8093 H   0  0  0  0  0  0  0  0  0  0  0  0
    2.1043   -0.5316   -0.8574 C   0  0  0  0  0  0  0  0  0  0  0  0
    2.5066   -1.5107   -1.1282 H   0  0  0  0  0  0  0  0  0  0  0  0
    2.5216    0.2068   -1.5472 H   0  0  0  0  0  0  0  0  0  0  0  0
    2.5483   -0.1952    0.5739 C   0  0  0  0  0  0  0  0  0  0  0  0
    1.6757    0.1557    1.3996 O   0  5  0  0  0  0  0  0  0  0  0  0
    3.7671   -0.3203    0.8272 O   0  0  0  0  0  0  0  0  0  0  0  0
   -0.3954    1.2887    0.4814 C   0  0  0  0  0  0  0  0  0  0  0  0
   -1.2761    1.9015   -0.1256 O   0  0  0  0  0  0  0  0  0  0  0  0
    0.4051    1.8919    1.3699 N   0  0  0  0  0  0  0  0  0  0  0  0
    1.1380    1.3380    1.7875 H   0  0  0  0  0  0  0  0  0  0  0  0
    0.3573    3.3183    1.6807 C   0  0  0  0  0  0  0  0  0  0  0  0
   -0.6670    3.6090    1.9198 H   0  0  0  0  0  0  0  0  0  0  0  0
    1.0066    3.5397    2.5289 H   0  0  0  0  0  0  0  0  0  0  0  0
    0.6896    3.8897    0.8118 H   0  0  0  0  0  0  0  0  0  0  0  0
  5  6  2  0  0  0  0
  5  7  1  0  0  0  0
  2  3  1  0  0  0  0
  2  4  1  0  0  0  0
  2  5  1  0  0  0  0
  1  2  1  0  0  0  0
 20 21  2  0  0  0  0
 20 22  1  0  0  0  0
 17 18  1  0  0  0  0
 17 19  2  0  0  0  0
 14 15  1  0  0  0  0
 14 16  1  0  0  0  0
 14 17  1  0  0  0  0
 11 12  1  0  0  0  0
 11 13  1  0  0  0  0
 11 14  1  0  0  0  0
  9 10  1  0  0  0  0
  9 11  1  0  0  0  0
  9 20  1  0  0  0  0
  7  8  1  0  0  0  0
  7  9  1  0  0  0  0
 24 25  1  0  0  0  0
 24 26  1  0  0  0  0
 24 27  1  0  0  0  0
 22 23  1  0  0  0  0
 22 24  1  0  0  0  0
M  CHG  1  18  -1
M  END
$$$$
default_name
  -OEChem-02102213163D

 27 26  0     1  0  0  0  0  0999 V2000
   -3.2406   -3.5400    1.2326 H   0  0  0  0  0  0  0  0  0  0  0  0
   -3.1436   -2.6190    0.6606 C   0  0  0  0  0  0  0  0  0  0  0  0
   -3.8786   -1.8920    0.9996 H   0  0  0  0  0  0  0  0  0  0  0  0
   -3.2846   -2.8280   -0.3984 H   0  0  0  0  0  0  0  0  0  0  0  0
   -1.7586   -2.0580    0.8686 C   0  0  0  0  0  0  0  0  0  0  0  0
   -0.9666   -2.6340    1.6026 O   0  0  0  0  0  0  0  0  0  0  0  0
   -1.4866   -0.9220    0.2366 N   0  0  0  0  0  0  0  0  0  0  0  0
   -2.2166   -0.4790   -0.2994 H   0  0  0  0  0  0  0  0  0  0  0  0
   -0.1956   -0.2250    0.2596 C   0  0  1  0  0  0  0  0  0  0  0  0
    0.3927   -0.6026    1.0964 H   0  0  0  0  0  0  0  0  0  0  0  0
    0.5767   -0.5489   -1.0351 C   0  0  0  0  0  0  0  0  0  0  0  0
    0.2781   -1.5453   -1.3644 H   0  0  0  0  0  0  0  0  0  0  0  0
    0.2984    0.1677   -1.8093 H   0  0  0  0  0  0  0  0  0  0  0  0
    2.1043   -0.5316   -0.8574 C   0  0  0  0  0  0  0  0  0  0  0  0
    2.5335   -1.3956   -1.3705 H   0  0  0  0  0  0  0  0  0  0  0  0
    2.4949    0.3716   -1.3337 H   0  0  0  0  0  0  0  0  0  0  0  0
    2.5480   -0.5611    0.6127 C   0  0  0  0  0  0  0  0  0  0  0  0
    1.6709   -0.4608    1.5000 O   0  5  0  0  0  0  0  0  0  0  0  0
    3.7716   -0.7101    0.8266 O   0  0  0  0  0  0  0  0  0  0  0  0
   -0.3954    1.2887    0.4814 C   0  0  0  0  0  0  0  0  0  0  0  0
   -1.2761    1.9015   -0.1256 O   0  0  0  0  0  0  0  0  0  0  0  0
    0.4051    1.8919    1.3699 N   0  0  0  0  0  0  0  0  0  0  0  0
    1.1380    1.3380    1.7875 H   0  0  0  0  0  0  0  0  0  0  0  0
    0.3573    3.3183    1.6807 C   0  0  0  0  0  0  0  0  0  0  0  0
   -0.6670    3.6090    1.9198 H   0  0  0  0  0  0  0  0  0  0  0  0
    1.0066    3.5397    2.5289 H   0  0  0  0  0  0  0  0  0  0  0  0
    0.6896    3.8897    0.8118 H   0  0  0  0  0  0  0  0  0  0  0  0
  5  6  2  0  0  0  0
  5  7  1  0  0  0  0
  2  3  1  0  0  0  0
  2  4  1  0  0  0  0
  2  5  1  0  0  0  0
  1  2  1  0  0  0  0
 20 21  2  0  0  0  0
 20 22  1  0  0  0  0
 17 18  1  0  0  0  0
 17 19  2  0  0  0  0
 14 15  1  0  0  0  0
 14 16  1  0  0  0  0
 14 17  1  0  0  0  0
 11 12  1  0  0  0  0
 11 13  1  0  0  0  0
 11 14  1  0  0  0  0
  9 10  1  0  0  0  0
  9 11  1  0  0  0  0
  9 20  1  0  0  0  0
  7  8  1  0  0  0  0
  7  9  1  0  0  0  0
 24 25  1  0  0  0  0
 24 26  1  0  0  0  0
 24 27  1  0  0  0  0
 22 23  1  0  0  0  0
 22 24  1  0  0  0  0
M  CHG  1  18  -1
M  END
$$$$
default_name
  -OEChem-02102213163D

 27 26  0     1  0  0  0  0  0999 V2000
   -3.2406   -3.5400    1.2326 H   0  0  0  0  0  0  0  0  0  0  0  0
   -3.1436   -2.6190    0.6606 C   0  0  0  0  0  0  0  0  0  0  0  0
   -3.8786   -1.8920    0.9996 H   0  0  0  0  0  0  0  0  0  0  0  0
   -3.2846   -2.8280   -0.3984 H   0  0  0  0  0  0  0  0  0  0  0  0
   -1.7586   -2.0580    0.8686 C   0  0  0  0  0  0  0  0  0  0  0  0
   -0.9666   -2.6340    1.6026 O   0  0  0  0  0  0  0  0  0  0  0  0
   -1.4866   -0.9220    0.2366 N   0  0  0  0  0  0  0  0  0  0  0  0
   -2.2166   -0.4790   -0.2994 H   0  0  0  0  0  0  0  0  0  0  0  0
   -0.1956   -0.2250    0.2596 C   0  0  1  0  0  0  0  0  0  0  0  0
    0.3927   -0.6026    1.0964 H   0  0  0  0  0  0  0  0  0  0  0  0
    0.5767   -0.5489   -1.0351 C   0  0  0  0  0  0  0  0  0  0  0  0
    0.2781   -1.5453   -1.3644 H   0  0  0  0  0  0  0  0  0  0  0  0
    0.2984    0.1677   -1.8093 H   0  0  0  0  0  0  0  0  0  0  0  0
    2.1043   -0.5316   -0.8574 C   0  0  0  0  0  0  0  0  0  0  0  0
    2.5553   -1.2212   -1.5749 H   0  0  0  0  0  0  0  0  0  0  0  0
    2.4648    0.4751   -1.0851 H   0  0  0  0  0  0  0  0  0  0  0  0
    2.5587   -0.9245    0.5562 C   0  0  0  0  0  0  0  0  0  0  0  0
    1.6851   -1.0822    1.4385 O   0  5  0  0  0  0  0  0  0  0  0  0
    3.7876   -1.0863    0.7257 O   0  0  0  0  0  0  0  0  0  0  0  0
   -0.3954    1.2887    0.4814 C   0  0  0  0  0  0  0  0  0  0  0  0
   -1.2761    1.9015   -0.1256 O   0  0  0  0  0  0  0  0  0  0  0  0
    0.4051    1.8919    1.3699 N   0  0  0  0  0  0  0  0  0  0  0  0
    1.1380    1.3380    1.7875 H   0  0  0  0  0  0  0  0  0  0  0  0
    0.3573    3.3183    1.6807 C   0  0  0  0  0  0  0  0  0  0  0  0
   -0.6670    3.6090    1.9198 H   0  0  0  0  0  0  0  0  0  0  0  0
    1.0066    3.5397    2.5289 H   0  0  0  0  0  0  0  0  0  0  0  0
    0.6896    3.8897    0.8118 H   0  0  0  0  0  0  0  0  0  0  0  0
  5  6  2  0  0  0  0
  5  7  1  0  0  0  0
  2  3  1  0  0  0  0
  2  4  1  0  0  0  0
  2  5  1  0  0  0  0
  1  2  1  0  0  0  0
 20 21  2  0  0  0  0
 20 22  1  0  0  0  0
 17 18  1  0  0  0  0
 17 19  2  0  0  0  0
 14 15  1  0  0  0  0
 14 16  1  0  0  0  0
 14 17  1  0  0  0  0
 11 12  1  0  0  0  0
 11 13  1  0  0  0  0
 11 14  1  0  0  0  0
  9 10  1  0  0  0  0
  9 11  1  0  0  0  0
  9 20  1  0  0  0  0
  7  8  1  0  0  0  0
  7  9  1  0  0  0  0
 24 25  1  0  0  0  0
 24 26  1  0  0  0  0
 24 27  1  0  0  0  0
 22 23  1  0  0  0  0
 22 24  1  0  0  0  0
M  CHG  1  18  -1
M  END
$$$$
default_name
  -OEChem-02102213163D

 27 26  0     1  0  0  0  0  0999 V2000
   -3.2406   -3.5400    1.2326 H   0  0  0  0  0  0  0  0  0  0  0  0
   -3.1436   -2.6190    0.6606 C   0  0  0  0  0  0  0  0  0  0  0  0
   -3.8786   -1.8920    0.9996 H   0  0  0  0  0  0  0  0  0  0  0  0
   -3.2846   -2.8280   -0.3984 H   0  0  0  0  0  0  0  0  0  0  0  0
   -1.7586   -2.0580    0.8686 C   0  0  0  0  0  0  0  0  0  0  0  0
   -0.9666   -2.6340    1.6026 O   0  0  0  0  0  0  0  0  0  0  0  0
   -1.4866   -0.9220    0.2366 N   0  0  0  0  0  0  0  0  0  0  0  0
   -2.2166   -0.4790   -0.2994 H   0  0  0  0  0  0  0  0  0  0  0  0
   -0.1956   -0.2250    0.2596 C   0  0  1  0  0  0  0  0  0  0  0  0
    0.3927   -0.6026    1.0964 H   0  0  0  0  0  0  0  0  0  0  0  0
    0.5767   -0.5489   -1.0351 C   0  0  0  0  0  0  0  0  0  0  0  0
    0.2781   -1.5453   -1.3644 H   0  0  0  0  0  0  0  0  0  0  0  0
    0.2984    0.1677   -1.8093 H   0  0  0  0  0  0  0  0  0  0  0  0
    2.1043   -0.5316   -0.8574 C   0  0  0  0  0  0  0  0  0  0  0  0
    2.5706   -0.9997   -1.7277 H   0  0  0  0  0  0  0  0  0  0  0  0
    2.4333    0.5102   -0.8182 H   0  0  0  0  0  0  0  0  0  0  0  0
    2.5797   -1.2606    0.4081 C   0  0  0  0  0  0  0  0  0  0  0  0
    1.7173   -1.6663    1.2194 O   0  5  0  0  0  0  0  0  0  0  0  0
    3.8140   -1.4233    0.5315 O   0  0  0  0  0  0  0  0  0  0  0  0
   -0.3954    1.2887    0.4814 C   0  0  0  0  0  0  0  0  0  0  0  0
   -1.2761    1.9015   -0.1256 O   0  0  0  0  0  0  0  0  0  0  0  0
    0.4051    1.8919    1.3699 N   0  0  0  0  0  0  0  0  0  0  0  0
    1.1380    1.3380    1.7875 H   0  0  0  0  0  0  0  0  0  0  0  0
    0.3573    3.3183    1.6807 C   0  0  0  0  0  0  0  0  0  0  0  0
   -0.6670    3.6090    1.9198 H   0  0  0  0  0  0  0  0  0  0  0  0
    1.0066    3.5397    2.5289 H   0  0  0  0  0  0  0  0  0  0  0  0
    0.6896    3.8897    0.8118 H   0  0  0  0  0  0  0  0  0  0  0  0
  5  6  2  0  0  0  0
  5  7  1  0  0  0  0
  2  3  1  0  0  0  0
  2  4  1  0  0  0  0
  2  5  1  0  0  0  0
  1  2  1  0  0  0  0
 20 21  2  0  0  0  0
 20 22  1  0  0  0  0
 17 18  1  0  0  0  0
 17 19  2  0  0  0  0
 14 15  1  0  0  0  0
 14 16  1  0  0  0  0
 14 17  1  0  0  0  0
 11 12  1  0  0  0  0
 11 13  1  0  0  0  0
 11 14  1  0  0  0  0
  9 10  1  0  0  0  0
  9 11  1  0  0  0  0
  9 20  1  0  0  0  0
  7  8  1  0  0  0  0
  7  9  1  0  0  0  0
 24 25  1  0  0  0  0
 24 26  1  0  0  0  0
 24 27  1  0  0  0  0
 22 23  1  0  0  0  0
 22 24  1  0  0  0  0
M  CHG  1  18  -1
M  END
$$$$
default_name
  -OEChem-02102213163D

 27 26  0     1  0  0  0  0  0999 V2000
   -3.2406   -3.5400    1.2326 H   0  0  0  0  0  0  0  0  0  0  0  0
   -3.1436   -2.6190    0.6606 C   0  0  0  0  0  0  0  0  0  0  0  0
   -3.8786   -1.8920    0.9996 H   0  0  0  0  0  0  0  0  0  0  0  0
   -3.2846   -2.8280   -0.3984 H   0  0  0  0  0  0  0  0  0  0  0  0
   -1.7586   -2.0580    0.8686 C   0  0  0  0  0  0  0  0  0  0  0  0
   -0.9666   -2.6340    1.6026 O   0  0  0  0  0  0  0  0  0  0  0  0
   -1.4866   -0.9220    0.2366 N   0  0  0  0  0  0  0  0  0  0  0  0
   -2.2166   -0.4790   -0.2994 H   0  0  0  0  0  0  0  0  0  0  0  0
   -0.1956   -0.2250    0.2596 C   0  0  1  0  0  0  0  0  0  0  0  0
    0.3927   -0.6026    1.0964 H   0  0  0  0  0  0  0  0  0  0  0  0
    0.5767   -0.5489   -1.0351 C   0  0  0  0  0  0  0  0  0  0  0  0
    0.2781   -1.5453   -1.3644 H   0  0  0  0  0  0  0  0  0  0  0  0
    0.2984    0.1677   -1.8093 H   0  0  0  0  0  0  0  0  0  0  0  0
    2.1043   -0.5316   -0.8574 C   0  0  0  0  0  0  0  0  0  0  0  0
    2.5783   -0.7459   -1.8183 H   0  0  0  0  0  0  0  0  0  0  0  0
    2.4027    0.4746   -0.5514 H   0  0  0  0  0  0  0  0  0  0  0  0
    2.6096   -1.5467    0.1786 C   0  0  0  0  0  0  0  0  0  0  0  0
    1.7651   -2.1731    0.8574 O   0  5  0  0  0  0  0  0  0  0  0  0
    3.8491   -1.6981    0.2573 O   0  0  0  0  0  0  0  0  0  0  0  0
   -0.3954    1.2887    0.4814 C   0  0  0  0  0  0  0  0  0  0  0  0
   -1.2761    1.9015   -0.1256 O   0  0  0  0  0  0  0  0  0  0  0  0
    0.4051    1.8919    1.3699 N   0  0  0  0  0  0  0  0  0  0  0  0
    1.1380    1.3380    1.7875 H   0  0  0  0  0  0  0  0  0  0  0  0
    0.3573    3.3183    1.6807 C   0  0  0  0  0  0  0  0  0  0  0  0
   -0.6670    3.6090    1.9198 H   0  0  0  0  0  0  0  0  0  0  0  0
    1.0066    3.5397    2.5289 H   0  0  0  0  0  0  0  0  0  0  0  0
    0.6896    3.8897    0.8118 H   0  0  0  0  0  0  0  0  0  0  0  0
  5  6  2  0  0  0  0
  5  7  1  0  0  0  0
  2  3  1  0  0  0  0
  2  4  1  0  0  0  0
  2  5  1  0  0  0  0
  1  2  1  0  0  0  0
 20 21  2  0  0  0  0
 20 22  1  0  0  0  0
 17 18  1  0  0  0  0
 17 19  2  0  0  0  0
 14 15  1  0  0  0  0
 14 16  1  0  0  0  0
 14 17  1  0  0  0  0
 11 12  1  0  0  0  0
 11 13  1  0  0  0  0
 11 14  1  0  0  0  0
  9 10  1  0  0  0  0
  9 11  1  0  0  0  0
  9 20  1  0  0  0  0
  7  8  1  0  0  0  0
  7  9  1  0  0  0  0
 24 25  1  0  0  0  0
 24 26  1  0  0  0  0
 24 27  1  0  0  0  0
 22 23  1  0  0  0  0
 22 24  1  0  0  0  0
M  CHG  1  18  -1
M  END
$$$$
default_name
  -OEChem-02102213163D

 27 26  0     1  0  0  0  0  0999 V2000
   -3.2406   -3.5400    1.2326 H   0  0  0  0  0  0  0  0  0  0  0  0
   -3.1436   -2.6190    0.6606 C   0  0  0  0  0  0  0  0  0  0  0  0
   -3.8786   -1.8920    0.9996 H   0  0  0  0  0  0  0  0  0  0  0  0
   -3.2846   -2.8280   -0.3984 H   0  0  0  0  0  0  0  0  0  0  0  0
   -1.7586   -2.0580    0.8686 C   0  0  0  0  0  0  0  0  0  0  0  0
   -0.9666   -2.6340    1.6026 O   0  0  0  0  0  0  0  0  0  0  0  0
   -1.4866   -0.9220    0.2366 N   0  0  0  0  0  0  0  0  0  0  0  0
   -2.2166   -0.4790   -0.2994 H   0  0  0  0  0  0  0  0  0  0  0  0
   -0.1956   -0.2250    0.2596 C   0  0  1  0  0  0  0  0  0  0  0  0
    0.3927   -0.6026    1.0964 H   0  0  0  0  0  0  0  0  0  0  0  0
    0.5767   -0.5489   -1.0351 C   0  0  0  0  0  0  0  0  0  0  0  0
    0.2781   -1.5453   -1.3644 H   0  0  0  0  0  0  0  0  0  0  0  0
    0.2984    0.1677   -1.8093 H   0  0  0  0  0  0  0  0  0  0  0  0
    2.1043   -0.5316   -0.8574 C   0  0  0  0  0  0  0  0  0  0  0  0
    2.5778   -0.4773   -1.8406 H   0  0  0  0  0  0  0  0  0  0  0  0
    2.3749    0.3707   -0.3026 H   0  0  0  0  0  0  0  0  0  0  0  0
    2.6465   -1.7630   -0.1167 C   0  0  0  0  0  0  0  0  0  0  0  0
    1.8255   -2.5682    0.3774 O   0  5  0  0  0  0  0  0  0  0  0  0
    3.8903   -1.8920   -0.0784 O   0  0  0  0  0  0  0  0  0  0  0  0
   -0.3954    1.2887    0.4814 C   0  0  0  0  0  0  0  0  0  0  0  0
   -1.2761    1.9015   -0.1256 O   0  0  0  0  0  0  0  0  0  0  0  0
    0.4051    1.8919    1.3699 N   0  0  0  0  0  0  0  0  0  0  0  0
    1.1380    1.3380    1.7875 H   0  0  0  0  0  0  0  0  0  0  0  0
    0.3573    3.3183    1.6807 C   0  0  0  0  0  0  0  0  0  0  0  0
   -0.6670    3.6090    1.9198 H   0  0  0  0  0  0  0  0  0  0  0  0
    1.0066    3.5397    2.5289 H   0  0  0  0  0  0  0  0  0  0  0  0
    0.6896    3.8897    0.8118 H   0  0  0  0  0  0  0  0  0  0  0  0
  5  6  2  0  0  0  0
  5  7  1  0  0  0  0
  2  3  1  0  0  0  0
  2  4  1  0  0  0  0
  2  5  1  0  0  0  0
  1  2  1  0  0  0  0
 20 21  2  0  0  0  0
 20 22  1  0  0  0  0
 17 18  1  0  0  0  0
 17 19  2  0  0  0  0
 14 15  1  0  0  0  0
 14 16  1  0  0  0  0
 14 17  1  0  0  0  0
 11 12  1  0  0  0  0
 11 13  1  0  0  0  0
 11 14  1  0  0  0  0
  9 10  1  0  0  0  0
  9 11  1  0  0  0  0
  9 20  1  0  0  0  0
  7  8  1  0  0  0  0
  7  9  1  0  0  0  0
 24 25  1  0  0  0  0
 24 26  1  0  0  0  0
 24 27  1  0  0  0  0
 22 23  1  0  0  0  0
 22 24  1  0  0  0  0
M  CHG  1  18  -1
M  END
$$$$
default_name
  -OEChem-02102213163D

 27 26  0     1  0  0  0  0  0999 V2000
   -3.2406   -3.5400    1.2326 H   0  0  0  0  0  0  0  0  0  0  0  0
   -3.1436   -2.6190    0.6606 C   0  0  0  0  0  0  0  0  0  0  0  0
   -3.8786   -1.8920    0.9996 H   0  0  0  0  0  0  0  0  0  0  0  0
   -3.2846   -2.8280   -0.3984 H   0  0  0  0  0  0  0  0  0  0  0  0
   -1.7586   -2.0580    0.8686 C   0  0  0  0  0  0  0  0  0  0  0  0
   -0.9666   -2.6340    1.6026 O   0  0  0  0  0  0  0  0  0  0  0  0
   -1.4866   -0.9220    0.2366 N   0  0  0  0  0  0  0  0  0  0  0  0
   -2.2166   -0.4790   -0.2994 H   0  0  0  0  0  0  0  0  0  0  0  0
   -0.1956   -0.2250    0.2596 C   0  0  1  0  0  0  0  0  0  0  0  0
    0.3927   -0.6026    1.0964 H   0  0  0  0  0  0  0  0  0  0  0  0
    0.5767   -0.5489   -1.0351 C   0  0  0  0  0  0  0  0  0  0  0  0
    0.2781   -1.5453   -1.3644 H   0  0  0  0  0  0  0  0  0  0  0  0
    0.2984    0.1677   -1.8093 H   0  0  0  0  0  0  0  0  0  0  0  0
    2.1043   -0.5316   -0.8574 C   0  0  0  0  0  0  0  0  0  0  0  0
    2.5693   -0.2121   -1.7931 H   0  0  0  0  0  0  0  0  0  0  0  0
    2.3519    0.2056   -0.0890 H   0  0  0  0  0  0  0  0  0  0  0  0
    2.6876   -1.8950   -0.4577 C   0  0  0  0  0  0  0  0  0  0  0  0
    1.8942   -2.8246   -0.1880 O   0  5  0  0  0  0  0  0  0  0  0  0
    3.9350   -1.9918   -0.4525 O   0  0  0  0  0  0  0  0  0  0  0  0
   -0.3954    1.2887    0.4814 C   0  0  0  0  0  0  0  0  0  0  0  0
   -1.2761    1.9015   -0.1256 O   0  0  0  0  0  0  0  0  0  0  0  0
    0.4051    1.8919    1.3699 N   0  0  0  0  0  0  0  0  0  0  0  0
    1.1380    1.3380    1.7875 H   0  0  0  0  0  0  0  0  0  0  0  0
    0.3573    3.3183    1.6807 C   0  0  0  0  0  0  0  0  0  0  0  0
   -0.6670    3.6090    1.9198 H   0  0  0  0  0  0  0  0  0  0  0  0
    1.0066    3.5397    2.5289 H   0  0  0  0  0  0  0  0  0  0  0  0
    0.6896    3.8897    0.8118 H   0  0  0  0  0  0  0  0  0  0  0  0
  5  6  2  0  0  0  0
  5  7  1  0  0  0  0
  2  3  1  0  0  0  0
  2  4  1  0  0  0  0
  2  5  1  0  0  0  0
  1  2  1  0  0  0  0
 20 21  2  0  0  0  0
 20 22  1  0  0  0  0
 17 18  1  0  0  0  0
 17 19  2  0  0  0  0
 14 15  1  0  0  0  0
 14 16  1  0  0  0  0
 14 17  1  0  0  0  0
 11 12  1  0  0  0  0
 11 13  1  0  0  0  0
 11 14  1  0  0  0  0
  9 10  1  0  0  0  0
  9 11  1  0  0  0  0
  9 20  1  0  0  0  0
  7  8  1  0  0  0  0
  7  9  1  0  0  0  0
 24 25  1  0  0  0  0
 24 26  1  0  0  0  0
 24 27  1  0  0  0  0
 22 23  1  0  0  0  0
 22 24  1  0  0  0  0
M  CHG  1  18  -1
M  END
$$$$
default_name
  -OEChem-02102213163D

 27 26  0     1  0  0  0  0  0999 V2000
   -3.2406   -3.5400    1.2326 H   0  0  0  0  0  0  0  0  0  0  0  0
   -3.1436   -2.6190    0.6606 C   0  0  0  0  0  0  0  0  0  0  0  0
   -3.8786   -1.8920    0.9996 H   0  0  0  0  0  0  0  0  0  0  0  0
   -3.2846   -2.8280   -0.3984 H   0  0  0  0  0  0  0  0  0  0  0  0
   -1.7586   -2.0580    0.8686 C   0  0  0  0  0  0  0  0  0  0  0  0
   -0.9666   -2.6340    1.6026 O   0  0  0  0  0  0  0  0  0  0  0  0
   -1.4866   -0.9220    0.2366 N   0  0  0  0  0  0  0  0  0  0  0  0
   -2.2166   -0.4790   -0.2994 H   0  0  0  0  0  0  0  0  0  0  0  0
   -0.1956   -0.2250    0.2596 C   0  0  1  0  0  0  0  0  0  0  0  0
    0.3927   -0.6026    1.0964 H   0  0  0  0  0  0  0  0  0  0  0  0
    0.5767   -0.5489   -1.0351 C   0  0  0  0  0  0  0  0  0  0  0  0
    0.2781   -1.5453   -1.3644 H   0  0  0  0  0  0  0  0  0  0  0  0
    0.2984    0.1677   -1.8093 H   0  0  0  0  0  0  0  0  0  0  0  0
    2.1043   -0.5316   -0.8574 C   0  0  0  0  0  0  0  0  0  0  0  0
    2.5533    0.0317   -1.6790 H   0  0  0  0  0  0  0  0  0  0  0  0
    2.3353   -0.0095    0.0749 H   0  0  0  0  0  0  0  0  0  0  0  0
    2.7304   -1.9336   -0.8211 C   0  0  0  0  0  0  0  0  0  0  0  0
    1.9665   -2.9249   -0.8003 O   0  5  0  0  0  0  0  0  0  0  0  0
    3.9800   -1.9906   -0.8398 O   0  0  0  0  0  0  0  0  0  0  0  0
   -0.3954    1.2887    0.4814 C   0  0  0  0  0  0  0  0  0  0  0  0
   -1.2761    1.9015   -0.1256 O   0  0  0  0  0  0  0  0  0  0  0  0
    0.4051    1.8919    1.3699 N   0  0  0  0  0  0  0  0  0  0  0  0
    1.1380    1.3380    1.7875 H   0  0  0  0  0  0  0  0  0  0  0  0
    0.3573    3.3183    1.6807 C   0  0  0  0  0  0  0  0  0  0  0  0
   -0.6670    3.6090    1.9198 H   0  0  0  0  0  0  0  0  0  0  0  0
    1.0066    3.5397    2.5289 H   0  0  0  0  0  0  0  0  0  0  0  0
    0.6896    3.8897    0.8118 H   0  0  0  0  0  0  0  0  0  0  0  0
  5  6  2  0  0  0  0
  5  7  1  0  0  0  0
  2  3  1  0  0  0  0
  2  4  1  0  0  0  0
  2  5  1  0  0  0  0
  1  2  1  0  0  0  0
 20 21  2  0  0  0  0
 20 22  1  0  0  0  0
 17 18  1  0  0  0  0
 17 19  2  0  0  0  0
 14 15  1  0  0  0  0
 14 16  1  0  0  0  0
 14 17  1  0  0  0  0
 11 12  1  0  0  0  0
 11 13  1  0  0  0  0
 11 14  1  0  0  0  0
  9 10  1  0  0  0  0
  9 11  1  0  0  0  0
  9 20  1  0  0  0  0
  7  8  1  0  0  0  0
  7  9  1  0  0  0  0
 24 25  1  0  0  0  0
 24 26  1  0  0  0  0
 24 27  1  0  0  0  0
 22 23  1  0  0  0  0
 22 24  1  0  0  0  0
M  CHG  1  18  -1
M  END
$$$$
default_name
  -OEChem-02102213163D

 27 26  0     1  0  0  0  0  0999 V2000
   -3.2406   -3.5400    1.2326 H   0  0  0  0  0  0  0  0  0  0  0  0
   -3.1436   -2.6190    0.6606 C   0  0  0  0  0  0  0  0  0  0  0  0
   -3.8786   -1.8920    0.9996 H   0  0  0  0  0  0  0  0  0  0  0  0
   -3.2846   -2.8280   -0.3984 H   0  0  0  0  0  0  0  0  0  0  0  0
   -1.7586   -2.0580    0.8686 C   0  0  0  0  0  0  0  0  0  0  0  0
   -0.9666   -2.6340    1.6026 O   0  0  0  0  0  0  0  0  0  0  0  0
   -1.4866   -0.9220    0.2366 N   0  0  0  0  0  0  0  0  0  0  0  0
   -2.2166   -0.4790   -0.2994 H   0  0  0  0  0  0  0  0  0  0  0  0
   -0.1956   -0.2250    0.2596 C   0  0  1  0  0  0  0  0  0  0  0  0
    0.3927   -0.6026    1.0964 H   0  0  0  0  0  0  0  0  0  0  0  0
    0.5767   -0.5489   -1.0351 C   0  0  0  0  0  0  0  0  0  0  0  0
    0.2781   -1.5453   -1.3644 H   0  0  0  0  0  0  0  0  0  0  0  0
    0.2984    0.1677   -1.8093 H   0  0  0  0  0  0  0  0  0  0  0  0
    2.1043   -0.5316   -0.8574 C   0  0  0  0  0  0  0  0  0  0  0  0
    2.5308    0.2373   -1.5062 H   0  0  0  0  0  0  0  0  0  0  0  0
    2.3261   -0.2599    0.1781 H   0  0  0  0  0  0  0  0  0  0  0  0
    2.7717   -1.8762   -1.1822 C   0  0  0  0  0  0  0  0  0  0  0  0
    2.0377   -2.8622   -1.4177 O   0  5  0  0  0  0  0  0  0  0  0  0
    4.0224   -1.8886   -1.2136 O   0  0  0  0  0  0  0  0  0  0  0  0
   -0.3954    1.2887    0.4814 C   0  0  0  0  0  0  0  0  0  0  0  0
   -1.2761    1.9015   -0.1256 O   0  0  0  0  0  0  0  0  0  0  0  0
    0.4051    1.8919    1.3699 N   0  0  0  0  0  0  0  0  0  0  0  0
    1.1380    1.3380    1.7875 H   0  0  0  0  0  0  0  0  0  0  0  0
    0.3573    3.3183    1.6807 C   0  0  0  0  0  0  0  0  0  0  0  0
   -0.6670    3.6090    1.9198 H   0  0  0  0  0  0  0  0  0  0  0  0
    1.0066    3.5397    2.5289 H   0  0  0  0  0  0  0  0  0  0  0  0
    0.6896    3.8897    0.8118 H   0  0  0  0  0  0  0  0  0  0  0  0
  5  6  2  0  0  0  0
  5  7  1  0  0  0  0
  2  3  1  0  0  0  0
  2  4  1  0  0  0  0
  2  5  1  0  0  0  0
  1  2  1  0  0  0  0
 20 21  2  0  0  0  0
 20 22  1  0  0  0  0
 17 18  1  0  0  0  0
 17 19  2  0  0  0  0
 14 15  1  0  0  0  0
 14 16  1  0  0  0  0
 14 17  1  0  0  0  0
 11 12  1  0  0  0  0
 11 13  1  0  0  0  0
 11 14  1  0  0  0  0
  9 10  1  0  0  0  0
  9 11  1  0  0  0  0
  9 20  1  0  0  0  0
  7  8  1  0  0  0  0
  7  9  1  0  0  0  0
 24 25  1  0  0  0  0
 24 26  1  0  0  0  0
 24 27  1  0  0  0  0
 22 23  1  0  0  0  0
 22 24  1  0  0  0  0
M  CHG  1  18  -1
M  END
$$$$
default_name
  -OEChem-02102213163D

 27 26  0     1  0  0  0  0  0999 V2000
   -3.2406   -3.5400    1.2326 H   0  0  0  0  0  0  0  0  0  0  0  0
   -3.1436   -2.6190    0.6606 C   0  0  0  0  0  0  0  0  0  0  0  0
   -3.8786   -1.8920    0.9996 H   0  0  0  0  0  0  0  0  0  0  0  0
   -3.2846   -2.8280   -0.3984 H   0  0  0  0  0  0  0  0  0  0  0  0
   -1.7586   -2.0580    0.8686 C   0  0  0  0  0  0  0  0  0  0  0  0
   -0.9666   -2.6340    1.6026 O   0  0  0  0  0  0  0  0  0  0  0  0
   -1.4866   -0.9220    0.2366 N   0  0  0  0  0  0  0  0  0  0  0  0
   -2.2166   -0.4790   -0.2994 H   0  0  0  0  0  0  0  0  0  0  0  0
   -0.1956   -0.2250    0.2596 C   0  0  1  0  0  0  0  0  0  0  0  0
    0.3927   -0.6026    1.0964 H   0  0  0  0  0  0  0  0  0  0  0  0
    0.5767   -0.5489   -1.0351 C   0  0  0  0  0  0  0  0  0  0  0  0
    0.2781   -1.5453   -1.3644 H   0  0  0  0  0  0  0  0  0  0  0  0
    0.2984    0.1677   -1.8093 H   0  0  0  0  0  0  0  0  0  0  0  0
    2.1043   -0.5316   -0.8574 C   0  0  0  0  0  0  0  0  0  0  0  0
    2.5035    0.3907   -1.2862 H   0  0  0  0  0  0  0  0  0  0  0  0
    2.3250   -0.5286    0.2133 H   0  0  0  0  0  0  0  0  0  0  0  0
    2.8089   -1.7267   -1.5163 C   0  0  0  0  0  0  0  0  0  0  0  0
    2.1027   -2.6408   -1.9982 O   0  5  0  0  0  0  0  0  0  0  0  0
    4.0592   -1.6927   -1.5486 O   0  0  0  0  0  0  0  0  0  0  0  0
   -0.3954    1.2887    0.4814 C   0  0  0  0  0  0  0  0  0  0  0  0
   -1.2761    1.9015   -0.1256 O   0  0  0  0  0  0  0  0  0  0  0  0
    0.4051    1.8919    1.3699 N   0  0  0  0  0  0  0  0  0  0  0  0
    1.1380    1.3380    1.7875 H   0  0  0  0  0  0  0  0  0  0  0  0
    0.3573    3.3183    1.6807 C   0  0  0  0  0  0  0  0  0  0  0  0
   -0.6670    3.6090    1.9198 H   0  0  0  0  0  0  0  0  0  0  0  0
    1.0066    3.5397    2.5289 H   0  0  0  0  0  0  0  0  0  0  0  0
    0.6896    3.8897    0.8118 H   0  0  0  0  0  0  0  0  0  0  0  0
  5  6  2  0  0  0  0
  5  7  1  0  0  0  0
  2  3  1  0  0  0  0
  2  4  1  0  0  0  0
  2  5  1  0  0  0  0
  1  2  1  0  0  0  0
 20 21  2  0  0  0  0
 20 22  1  0  0  0  0
 17 18  1  0  0  0  0
 17 19  2  0  0  0  0
 14 15  1  0  0  0  0
 14 16  1  0  0  0  0
 14 17  1  0  0  0  0
 11 12  1  0  0  0  0
 11 13  1  0  0  0  0
 11 14  1  0  0  0  0
  9 10  1  0  0  0  0
  9 11  1  0  0  0  0
  9 20  1  0  0  0  0
  7  8  1  0  0  0  0
  7  9  1  0  0  0  0
 24 25  1  0  0  0  0
 24 26  1  0  0  0  0
 24 27  1  0  0  0  0
 22 23  1  0  0  0  0
 22 24  1  0  0  0  0
M  CHG  1  18  -1
M  END
$$$$
default_name
  -OEChem-02102213163D

 27 26  0     1  0  0  0  0  0999 V2000
   -3.2406   -3.5400    1.2326 H   0  0  0  0  0  0  0  0  0  0  0  0
   -3.1436   -2.6190    0.6606 C   0  0  0  0  0  0  0  0  0  0  0  0
   -3.8786   -1.8920    0.9996 H   0  0  0  0  0  0  0  0  0  0  0  0
   -3.2846   -2.8280   -0.3984 H   0  0  0  0  0  0  0  0  0  0  0  0
   -1.7586   -2.0580    0.8686 C   0  0  0  0  0  0  0  0  0  0  0  0
   -0.9666   -2.6340    1.6026 O   0  0  0  0  0  0  0  0  0  0  0  0
   -1.4866   -0.9220    0.2366 N   0  0  0  0  0  0  0  0  0  0  0  0
   -2.2166   -0.4790   -0.2994 H   0  0  0  0  0  0  0  0  0  0  0  0
   -0.1956   -0.2250    0.2596 C   0  0  1  0  0  0  0  0  0  0  0  0
    0.3927   -0.6026    1.0964 H   0  0  0  0  0  0  0  0  0  0  0  0
    0.5767   -0.5489   -1.0351 C   0  0  0  0  0  0  0  0  0  0  0  0
    0.2781   -1.5453   -1.3644 H   0  0  0  0  0  0  0  0  0  0  0  0
    0.2984    0.1677   -1.8093 H   0  0  0  0  0  0  0  0  0  0  0  0
    2.1043   -0.5316   -0.8574 C   0  0  0  0  0  0  0  0  0  0  0  0
    2.4731    0.4816   -1.0343 H   0  0  0  0  0  0  0  0  0  0  0  0
    2.3321   -0.7972    0.1783 H   0  0  0  0  0  0  0  0  0  0  0  0
    2.8394   -1.4952   -1.8007 C   0  0  0  0  0  0  0  0  0  0  0  0
    2.1572   -2.2757   -2.5021 O   0  5  0  0  0  0  0  0  0  0  0  0
    4.0878   -1.4162   -1.8220 O   0  0  0  0  0  0  0  0  0  0  0  0
   -0.3954    1.2887    0.4814 C   0  0  0  0  0  0  0  0  0  0  0  0
   -1.2761    1.9015   -0.1256 O   0  0  0  0  0  0  0  0  0  0  0  0
    0.4051    1.8919    1.3699 N   0  0  0  0  0  0  0  0  0  0  0  0
    1.1380    1.3380    1.7875 H   0  0  0  0  0  0  0  0  0  0  0  0
    0.3573    3.3183    1.6807 C   0  0  0  0  0  0  0  0  0  0  0  0
   -0.6670    3.6090    1.9198 H   0  0  0  0  0  0  0  0  0  0  0  0
    1.0066    3.5397    2.5289 H   0  0  0  0  0  0  0  0  0  0  0  0
    0.6896    3.8897    0.8118 H   0  0  0  0  0  0  0  0  0  0  0  0
  5  6  2  0  0  0  0
  5  7  1  0  0  0  0
  2  3  1  0  0  0  0
  2  4  1  0  0  0  0
  2  5  1  0  0  0  0
  1  2  1  0  0  0  0
 20 21  2  0  0  0  0
 20 22  1  0  0  0  0
 17 18  1  0  0  0  0
 17 19  2  0  0  0  0
 14 15  1  0  0  0  0
 14 16  1  0  0  0  0
 14 17  1  0  0  0  0
 11 12  1  0  0  0  0
 11 13  1  0  0  0  0
 11 14  1  0  0  0  0
  9 10  1  0  0  0  0
  9 11  1  0  0  0  0
  9 20  1  0  0  0  0
  7  8  1  0  0  0  0
  7  9  1  0  0  0  0
 24 25  1  0  0  0  0
 24 26  1  0  0  0  0
 24 27  1  0  0  0  0
 22 23  1  0  0  0  0
 22 24  1  0  0  0  0
M  CHG  1  18  -1
M  END
$$$$
default_name
  -OEChem-02102213163D

 27 26  0     1  0  0  0  0  0999 V2000
   -3.2406   -3.5400    1.2326 H   0  0  0  0  0  0  0  0  0  0  0  0
   -3.1436   -2.6190    0.6606 C   0  0  0  0  0  0  0  0  0  0  0  0
   -3.8786   -1.8920    0.9996 H   0  0  0  0  0  0  0  0  0  0  0  0
   -3.2846   -2.8280   -0.3984 H   0  0  0  0  0  0  0  0  0  0  0  0
   -1.7586   -2.0580    0.8686 C   0  0  0  0  0  0  0  0  0  0  0  0
   -0.9666   -2.6340    1.6026 O   0  0  0  0  0  0  0  0  0  0  0  0
   -1.4866   -0.9220    0.2366 N   0  0  0  0  0  0  0  0  0  0  0  0
   -2.2166   -0.4790   -0.2994 H   0  0  0  0  0  0  0  0  0  0  0  0
   -0.1956   -0.2250    0.2596 C   0  0  1  0  0  0  0  0  0  0  0  0
    0.3927   -0.6026    1.0964 H   0  0  0  0  0  0  0  0  0  0  0  0
    0.5767   -0.5489   -1.0351 C   0  0  0  0  0  0  0  0  0  0  0  0
    0.2781   -1.5453   -1.3644 H   0  0  0  0  0  0  0  0  0  0  0  0
    0.2984    0.1677   -1.8093 H   0  0  0  0  0  0  0  0  0  0  0  0
    2.1043   -0.5316   -0.8574 C   0  0  0  0  0  0  0  0  0  0  0  0
    2.4418    0.5038   -0.7675 H   0  0  0  0  0  0  0  0  0  0  0  0
    2.3470   -1.0474    0.0754 H   0  0  0  0  0  0  0  0  0  0  0  0
    2.8611   -1.1977   -2.0161 C   0  0  0  0  0  0  0  0  0  0  0  0
    2.1975   -1.7920   -2.8952 O   0  5  0  0  0  0  0  0  0  0  0  0
    4.1065   -1.0781   -2.0150 O   0  0  0  0  0  0  0  0  0  0  0  0
   -0.3954    1.2887    0.4814 C   0  0  0  0  0  0  0  0  0  0  0  0
   -1.2761    1.9015   -0.1256 O   0  0  0  0  0  0  0  0  0  0  0  0
    0.4051    1.8919    1.3699 N   0  0  0  0  0  0  0  0  0  0  0  0
    1.1380    1.3380    1.7875 H   0  0  0  0  0  0  0  0  0  0  0  0
    0.3573    3.3183    1.6807 C   0  0  0  0  0  0  0  0  0  0  0  0
   -0.6670    3.6090    1.9198 H   0  0  0  0  0  0  0  0  0  0  0  0
    1.0066    3.5397    2.5289 H   0  0  0  0  0  0  0  0  0  0  0  0
    0.6896    3.8897    0.8118 H   0  0  0  0  0  0  0  0  0  0  0  0
  5  6  2  0  0  0  0
  5  7  1  0  0  0  0
  2  3  1  0  0  0  0
  2  4  1  0  0  0  0
  2  5  1  0  0  0  0
  1  2  1  0  0  0  0
 20 21  2  0  0  0  0
 20 22  1  0  0  0  0
 17 18  1  0  0  0  0
 17 19  2  0  0  0  0
 14 15  1  0  0  0  0
 14 16  1  0  0  0  0
 14 17  1  0  0  0  0
 11 12  1  0  0  0  0
 11 13  1  0  0  0  0
 11 14  1  0  0  0  0
  9 10  1  0  0  0  0
  9 11  1  0  0  0  0
  9 20  1  0  0  0  0
  7  8  1  0  0  0  0
  7  9  1  0  0  0  0
 24 25  1  0  0  0  0
 24 26  1  0  0  0  0
 24 27  1  0  0  0  0
 22 23  1  0  0  0  0
 22 24  1  0  0  0  0
M  CHG  1  18  -1
M  END
$$$$
default_name
  -OEChem-02102213163D

 27 26  0     1  0  0  0  0  0999 V2000
   -3.2406   -3.5400    1.2326 H   0  0  0  0  0  0  0  0  0  0  0  0
   -3.1436   -2.6190    0.6606 C   0  0  0  0  0  0  0  0  0  0  0  0
   -3.8786   -1.8920    0.9996 H   0  0  0  0  0  0  0  0  0  0  0  0
   -3.2846   -2.8280   -0.3984 H   0  0  0  0  0  0  0  0  0  0  0  0
   -1.7586   -2.0580    0.8686 C   0  0  0  0  0  0  0  0  0  0  0  0
   -0.9666   -2.6340    1.6026 O   0  0  0  0  0  0  0  0  0  0  0  0
   -1.4866   -0.9220    0.2366 N   0  0  0  0  0  0  0  0  0  0  0  0
   -2.2166   -0.4790   -0.2994 H   0  0  0  0  0  0  0  0  0  0  0  0
   -0.1956   -0.2250    0.2596 C   0  0  1  0  0  0  0  0  0  0  0  0
    0.3927   -0.6026    1.0964 H   0  0  0  0  0  0  0  0  0  0  0  0
    0.5767   -0.5489   -1.0351 C   0  0  0  0  0  0  0  0  0  0  0  0
    0.0953   -1.4062   -1.5082 H   0  0  0  0  0  0  0  0  0  0  0  0
    0.5118    0.3016   -1.7154 H   0  0  0  0  0  0  0  0  0  0  0  0
    2.0568   -0.8916   -0.7957 C   0  0  0  0  0  0  0  0  0  0  0  0
    2.5431   -0.0482   -0.2996 H   0  0  0  0  0  0  0  0  0  0  0  0
    2.1052   -1.7519   -0.1229 H   0  0  0  0  0  0  0  0  0  0  0  0
    2.8250   -1.2139   -2.0860 C   0  0  0  0  0  0  0  0  0  0  0  0
    2.1802   -1.3022   -3.1550 O   0  5  0  0  0  0  0  0  0  0  0  0
    4.0651   -1.3442   -1.9828 O   0  0  0  0  0  0  0  0  0  0  0  0
   -0.3954    1.2887    0.4814 C   0  0  0  0  0  0  0  0  0  0  0  0
   -1.2761    1.9015   -0.1256 O   0  0  0  0  0  0  0  0  0  0  0  0
    0.4051    1.8919    1.3699 N   0  0  0  0  0  0  0  0  0  0  0  0
    1.1380    1.3380    1.7875 H   0  0  0  0  0  0  0  0  0  0  0  0
    0.3573    3.3183    1.6807 C   0  0  0  0  0  0  0  0  0  0  0  0
   -0.6670    3.6090    1.9198 H   0  0  0  0  0  0  0  0  0  0  0  0
    1.0066    3.5397    2.5289 H   0  0  0  0  0  0  0  0  0  0  0  0
    0.6896    3.8897    0.8118 H   0  0  0  0  0  0  0  0  0  0  0  0
  5  6  2  0  0  0  0
  5  7  1  0  0  0  0
  2  3  1  0  0  0  0
  2  4  1  0  0  0  0
  2  5  1  0  0  0  0
  1  2  1  0  0  0  0
 20 21  2  0  0  0  0
 20 22  1  0  0  0  0
 17 18  1  0  0  0  0
 17 19  2  0  0  0  0
 14 15  1  0  0  0  0
 14 16  1  0  0  0  0
 14 17  1  0  0  0  0
 11 12  1  0  0  0  0
 11 13  1  0  0  0  0
 11 14  1  0  0  0  0
  9 10  1  0  0  0  0
  9 11  1  0  0  0  0
  9 20  1  0  0  0  0
  7  8  1  0  0  0  0
  7  9  1  0  0  0  0
 24 25  1  0  0  0  0
 24 26  1  0  0  0  0
 24 27  1  0  0  0  0
 22 23  1  0  0  0  0
 22 24  1  0  0  0  0
M  CHG  1  18  -1
M  END
$$$$
default_name
  -OEChem-02102213163D

 27 26  0     1  0  0  0  0  0999 V2000
   -3.2406   -3.5400    1.2326 H   0  0  0  0  0  0  0  0  0  0  0  0
   -3.1436   -2.6190    0.6606 C   0  0  0  0  0  0  0  0  0  0  0  0
   -3.8786   -1.8920    0.9996 H   0  0  0  0  0  0  0  0  0  0  0  0
   -3.2846   -2.8280   -0.3984 H   0  0  0  0  0  0  0  0  0  0  0  0
   -1.7586   -2.0580    0.8686 C   0  0  0  0  0  0  0  0  0  0  0  0
   -0.9666   -2.6340    1.6026 O   0  0  0  0  0  0  0  0  0  0  0  0
   -1.4866   -0.9220    0.2366 N   0  0  0  0  0  0  0  0  0  0  0  0
   -2.2166   -0.4790   -0.2994 H   0  0  0  0  0  0  0  0  0  0  0  0
   -0.1956   -0.2250    0.2596 C   0  0  1  0  0  0  0  0  0  0  0  0
    0.3927   -0.6026    1.0964 H   0  0  0  0  0  0  0  0  0  0  0  0
    0.5767   -0.5489   -1.0351 C   0  0  0  0  0  0  0  0  0  0  0  0
    0.0953   -1.4062   -1.5082 H   0  0  0  0  0  0  0  0  0  0  0  0
    0.5118    0.3016   -1.7154 H   0  0  0  0  0  0  0  0  0  0  0  0
    2.0568   -0.8916   -0.7957 C   0  0  0  0  0  0  0  0  0  0  0  0
    2.4756   -0.1836   -0.0765 H   0  0  0  0  0  0  0  0  0  0  0  0
    2.1107   -1.8908   -0.3555 H   0  0  0  0  0  0  0  0  0  0  0  0
    2.9063   -0.8553   -2.0747 C   0  0  0  0  0  0  0  0  0  0  0  0
    2.3234   -0.6944   -3.1706 O   0  5  0  0  0  0  0  0  0  0  0  0
    4.1440   -0.9662   -1.9295 O   0  0  0  0  0  0  0  0  0  0  0  0
   -0.3954    1.2887    0.4814 C   0  0  0  0  0  0  0  0  0  0  0  0
   -1.2761    1.9015   -0.1256 O   0  0  0  0  0  0  0  0  0  0  0  0
    0.4051    1.8919    1.3699 N   0  0  0  0  0  0  0  0  0  0  0  0
    1.1380    1.3380    1.7875 H   0  0  0  0  0  0  0  0  0  0  0  0
    0.3573    3.3183    1.6807 C   0  0  0  0  0  0  0  0  0  0  0  0
   -0.6670    3.6090    1.9198 H   0  0  0  0  0  0  0  0  0  0  0  0
    1.0066    3.5397    2.5289 H   0  0  0  0  0  0  0  0  0  0  0  0
    0.6896    3.8897    0.8118 H   0  0  0  0  0  0  0  0  0  0  0  0
  5  6  2  0  0  0  0
  5  7  1  0  0  0  0
  2  3  1  0  0  0  0
  2  4  1  0  0  0  0
  2  5  1  0  0  0  0
  1  2  1  0  0  0  0
 20 21  2  0  0  0  0
 20 22  1  0  0  0  0
 17 18  1  0  0  0  0
 17 19  2  0  0  0  0
 14 15  1  0  0  0  0
 14 16  1  0  0  0  0
 14 17  1  0  0  0  0
 11 12  1  0  0  0  0
 11 13  1  0  0  0  0
 11 14  1  0  0  0  0
  9 10  1  0  0  0  0
  9 11  1  0  0  0  0
  9 20  1  0  0  0  0
  7  8  1  0  0  0  0
  7  9  1  0  0  0  0
 24 25  1  0  0  0  0
 24 26  1  0  0  0  0
 24 27  1  0  0  0  0
 22 23  1  0  0  0  0
 22 24  1  0  0  0  0
M  CHG  1  18  -1
M  END
$$$$
default_name
  -OEChem-02102213163D

 27 26  0     1  0  0  0  0  0999 V2000
   -3.2406   -3.5400    1.2326 H   0  0  0  0  0  0  0  0  0  0  0  0
   -3.1436   -2.6190    0.6606 C   0  0  0  0  0  0  0  0  0  0  0  0
   -3.8786   -1.8920    0.9996 H   0  0  0  0  0  0  0  0  0  0  0  0
   -3.2846   -2.8280   -0.3984 H   0  0  0  0  0  0  0  0  0  0  0  0
   -1.7586   -2.0580    0.8686 C   0  0  0  0  0  0  0  0  0  0  0  0
   -0.9666   -2.6340    1.6026 O   0  0  0  0  0  0  0  0  0  0  0  0
   -1.4866   -0.9220    0.2366 N   0  0  0  0  0  0  0  0  0  0  0  0
   -2.2166   -0.4790   -0.2994 H   0  0  0  0  0  0  0  0  0  0  0  0
   -0.1956   -0.2250    0.2596 C   0  0  1  0  0  0  0  0  0  0  0  0
    0.3927   -0.6026    1.0964 H   0  0  0  0  0  0  0  0  0  0  0  0
    0.5767   -0.5489   -1.0351 C   0  0  0  0  0  0  0  0  0  0  0  0
    0.0953   -1.4062   -1.5082 H   0  0  0  0  0  0  0  0  0  0  0  0
    0.5118    0.3016   -1.7154 H   0  0  0  0  0  0  0  0  0  0  0  0
    2.0568   -0.8916   -0.7957 C   0  0  0  0  0  0  0  0  0  0  0  0
    2.4031   -0.3727    0.1014 H   0  0  0  0  0  0  0  0  0  0  0  0
    2.1349   -1.9668   -0.6144 H   0  0  0  0  0  0  0  0  0  0  0  0
    2.9696   -0.5083   -1.9699 C   0  0  0  0  0  0  0  0  0  0  0  0
    2.4382   -0.0976   -3.0260 O   0  5  0  0  0  0  0  0  0  0  0  0
    4.2019   -0.6112   -1.7793 O   0  0  0  0  0  0  0  0  0  0  0  0
   -0.3954    1.2887    0.4814 C   0  0  0  0  0  0  0  0  0  0  0  0
   -1.2761    1.9015   -0.1256 O   0  0  0  0  0  0  0  0  0  0  0  0
    0.4051    1.8919    1.3699 N   0  0  0  0  0  0  0  0  0  0  0  0
    1.1380    1.3380    1.7875 H   0  0  0  0  0  0  0  0  0  0  0  0
    0.3573    3.3183    1.6807 C   0  0  0  0  0  0  0  0  0  0  0  0
   -0.6670    3.6090    1.9198 H   0  0  0  0  0  0  0  0  0  0  0  0
    1.0066    3.5397    2.5289 H   0  0  0  0  0  0  0  0  0  0  0  0
    0.6896    3.8897    0.8118 H   0  0  0  0  0  0  0  0  0  0  0  0
  5  6  2  0  0  0  0
  5  7  1  0  0  0  0
  2  3  1  0  0  0  0
  2  4  1  0  0  0  0
  2  5  1  0  0  0  0
  1  2  1  0  0  0  0
 20 21  2  0  0  0  0
 20 22  1  0  0  0  0
 17 18  1  0  0  0  0
 17 19  2  0  0  0  0
 14 15  1  0  0  0  0
 14 16  1  0  0  0  0
 14 17  1  0  0  0  0
 11 12  1  0  0  0  0
 11 13  1  0  0  0  0
 11 14  1  0  0  0  0
  9 10  1  0  0  0  0
  9 11  1  0  0  0  0
  9 20  1  0  0  0  0
  7  8  1  0  0  0  0
  7  9  1  0  0  0  0
 24 25  1  0  0  0  0
 24 26  1  0  0  0  0
 24 27  1  0  0  0  0
 22 23  1  0  0  0  0
 22 24  1  0  0  0  0
M  CHG  1  18  -1
M  END
$$$$
default_name
  -OEChem-02102213163D

 27 26  0     1  0  0  0  0  0999 V2000
   -3.2406   -3.5400    1.2326 H   0  0  0  0  0  0  0  0  0  0  0  0
   -3.1436   -2.6190    0.6606 C   0  0  0  0  0  0  0  0  0  0  0  0
   -3.8786   -1.8920    0.9996 H   0  0  0  0  0  0  0  0  0  0  0  0
   -3.2846   -2.8280   -0.3984 H   0  0  0  0  0  0  0  0  0  0  0  0
   -1.7586   -2.0580    0.8686 C   0  0  0  0  0  0  0  0  0  0  0  0
   -0.9666   -2.6340    1.6026 O   0  0  0  0  0  0  0  0  0  0  0  0
   -1.4866   -0.9220    0.2366 N   0  0  0  0  0  0  0  0  0  0  0  0
   -2.2166   -0.4790   -0.2994 H   0  0  0  0  0  0  0  0  0  0  0  0
   -0.1956   -0.2250    0.2596 C   0  0  1  0  0  0  0  0  0  0  0  0
    0.3927   -0.6026    1.0964 H   0  0  0  0  0  0  0  0  0  0  0  0
    0.5767   -0.5489   -1.0351 C   0  0  0  0  0  0  0  0  0  0  0  0
    0.0953   -1.4062   -1.5082 H   0  0  0  0  0  0  0  0  0  0  0  0
    0.5118    0.3016   -1.7154 H   0  0  0  0  0  0  0  0  0  0  0  0
    2.0568   -0.8916   -0.7957 C   0  0  0  0  0  0  0  0  0  0  0  0
    2.3303   -0.6025    0.2219 H   0  0  0  0  0  0  0  0  0  0  0  0
    2.1764   -1.9748   -0.8821 H   0  0  0  0  0  0  0  0  0  0  0  0
    3.0108   -0.1968   -1.7785 C   0  0  0  0  0  0  0  0  0  0  0  0
    2.5167    0.4474   -2.7311 O   0  5  0  0  0  0  0  0  0  0  0  0
    4.2348   -0.3034   -1.5424 O   0  0  0  0  0  0  0  0  0  0  0  0
   -0.3954    1.2887    0.4814 C   0  0  0  0  0  0  0  0  0  0  0  0
   -1.2761    1.9015   -0.1256 O   0  0  0  0  0  0  0  0  0  0  0  0
    0.4051    1.8919    1.3699 N   0  0  0  0  0  0  0  0  0  0  0  0
    1.1380    1.3380    1.7875 H   0  0  0  0  0  0  0  0  0  0  0  0
    0.3573    3.3183    1.6807 C   0  0  0  0  0  0  0  0  0  0  0  0
   -0.6670    3.6090    1.9198 H   0  0  0  0  0  0  0  0  0  0  0  0
    1.0066    3.5397    2.5289 H   0  0  0  0  0  0  0  0  0  0  0  0
    0.6896    3.8897    0.8118 H   0  0  0  0  0  0  0  0  0  0  0  0
  5  6  2  0  0  0  0
  5  7  1  0  0  0  0
  2  3  1  0  0  0  0
  2  4  1  0  0  0  0
  2  5  1  0  0  0  0
  1  2  1  0  0  0  0
 20 21  2  0  0  0  0
 20 22  1  0  0  0  0
 17 18  1  0  0  0  0
 17 19  2  0  0  0  0
 14 15  1  0  0  0  0
 14 16  1  0  0  0  0
 14 17  1  0  0  0  0
 11 12  1  0  0  0  0
 11 13  1  0  0  0  0
 11 14  1  0  0  0  0
  9 10  1  0  0  0  0
  9 11  1  0  0  0  0
  9 20  1  0  0  0  0
  7  8  1  0  0  0  0
  7  9  1  0  0  0  0
 24 25  1  0  0  0  0
 24 26  1  0  0  0  0
 24 27  1  0  0  0  0
 22 23  1  0  0  0  0
 22 24  1  0  0  0  0
M  CHG  1  18  -1
M  END
$$$$
default_name
  -OEChem-02102213163D

 27 26  0     1  0  0  0  0  0999 V2000
   -3.2406   -3.5400    1.2326 H   0  0  0  0  0  0  0  0  0  0  0  0
   -3.1436   -2.6190    0.6606 C   0  0  0  0  0  0  0  0  0  0  0  0
   -3.8786   -1.8920    0.9996 H   0  0  0  0  0  0  0  0  0  0  0  0
   -3.2846   -2.8280   -0.3984 H   0  0  0  0  0  0  0  0  0  0  0  0
   -1.7586   -2.0580    0.8686 C   0  0  0  0  0  0  0  0  0  0  0  0
   -0.9666   -2.6340    1.6026 O   0  0  0  0  0  0  0  0  0  0  0  0
   -1.4866   -0.9220    0.2366 N   0  0  0  0  0  0  0  0  0  0  0  0
   -2.2166   -0.4790   -0.2994 H   0  0  0  0  0  0  0  0  0  0  0  0
   -0.1956   -0.2250    0.2596 C   0  0  1  0  0  0  0  0  0  0  0  0
    0.3927   -0.6026    1.0964 H   0  0  0  0  0  0  0  0  0  0  0  0
    0.5767   -0.5489   -1.0351 C   0  0  0  0  0  0  0  0  0  0  0  0
    0.0953   -1.4062   -1.5082 H   0  0  0  0  0  0  0  0  0  0  0  0
    0.5118    0.3016   -1.7154 H   0  0  0  0  0  0  0  0  0  0  0  0
    2.0568   -0.8916   -0.7957 C   0  0  0  0  0  0  0  0  0  0  0  0
    2.2624   -0.8575    0.2769 H   0  0  0  0  0  0  0  0  0  0  0  0
    2.2322   -1.9141   -1.1402 H   0  0  0  0  0  0  0  0  0  0  0  0
    3.0270    0.0582   -1.5137 C   0  0  0  0  0  0  0  0  0  0  0  0
    2.5535    0.9036   -2.3060 O   0  5  0  0  0  0  0  0  0  0  0  0
    4.2406   -0.0637   -1.2351 O   0  0  0  0  0  0  0  0  0  0  0  0
   -0.3954    1.2887    0.4814 C   0  0  0  0  0  0  0  0  0  0  0  0
   -1.2761    1.9015   -0.1256 O   0  0  0  0  0  0  0  0  0  0  0  0
    0.4051    1.8919    1.3699 N   0  0  0  0  0  0  0  0  0  0  0  0
    1.1380    1.3380    1.7875 H   0  0  0  0  0  0  0  0  0  0  0  0
    0.3573    3.3183    1.6807 C   0  0  0  0  0  0  0  0  0  0  0  0
   -0.6670    3.6090    1.9198 H   0  0  0  0  0  0  0  0  0  0  0  0
    1.0066    3.5397    2.5289 H   0  0  0  0  0  0  0  0  0  0  0  0
    0.6896    3.8897    0.8118 H   0  0  0  0  0  0  0  0  0  0  0  0
  5  6  2  0  0  0  0
  5  7  1  0  0  0  0
  2  3  1  0  0  0  0
  2  4  1  0  0  0  0
  2  5  1  0  0  0  0
  1  2  1  0  0  0  0
 20 21  2  0  0  0  0
 20 22  1  0  0  0  0
 17 18  1  0  0  0  0
 17 19  2  0  0  0  0
 14 15  1  0  0  0  0
 14 16  1  0  0  0  0
 14 17  1  0  0  0  0
 11 12  1  0  0  0  0
 11 13  1  0  0  0  0
 11 14  1  0  0  0  0
  9 10  1  0  0  0  0
  9 11  1  0  0  0  0
  9 20  1  0  0  0  0
  7  8  1  0  0  0  0
  7  9  1  0  0  0  0
 24 25  1  0  0  0  0
 24 26  1  0  0  0  0
 24 27  1  0  0  0  0
 22 23  1  0  0  0  0
 22 24  1  0  0  0  0
M  CHG  1  18  -1
M  END
$$$$
default_name
  -OEChem-02102213163D

 27 26  0     1  0  0  0  0  0999 V2000
   -3.2406   -3.5400    1.2326 H   0  0  0  0  0  0  0  0  0  0  0  0
   -3.1436   -2.6190    0.6606 C   0  0  0  0  0  0  0  0  0  0  0  0
   -3.8786   -1.8920    0.9996 H   0  0  0  0  0  0  0  0  0  0  0  0
   -3.2846   -2.8280   -0.3984 H   0  0  0  0  0  0  0  0  0  0  0  0
   -1.7586   -2.0580    0.8686 C   0  0  0  0  0  0  0  0  0  0  0  0
   -0.9666   -2.6340    1.6026 O   0  0  0  0  0  0  0  0  0  0  0  0
   -1.4866   -0.9220    0.2366 N   0  0  0  0  0  0  0  0  0  0  0  0
   -2.2166   -0.4790   -0.2994 H   0  0  0  0  0  0  0  0  0  0  0  0
   -0.1956   -0.2250    0.2596 C   0  0  1  0  0  0  0  0  0  0  0  0
    0.3927   -0.6026    1.0964 H   0  0  0  0  0  0  0  0  0  0  0  0
    0.5767   -0.5489   -1.0351 C   0  0  0  0  0  0  0  0  0  0  0  0
    0.0953   -1.4062   -1.5082 H   0  0  0  0  0  0  0  0  0  0  0  0
    0.5118    0.3016   -1.7154 H   0  0  0  0  0  0  0  0  0  0  0  0
    2.0568   -0.8916   -0.7957 C   0  0  0  0  0  0  0  0  0  0  0  0
    2.2039   -1.1203    0.2626 H   0  0  0  0  0  0  0  0  0  0  0  0
    2.2986   -1.7890   -1.3712 H   0  0  0  0  0  0  0  0  0  0  0  0
    3.0171    0.2391   -1.1935 C   0  0  0  0  0  0  0  0  0  0  0  0
    2.5462    1.2398   -1.7796 O   0  5  0  0  0  0  0  0  0  0  0  0
    4.2188    0.0915   -0.8781 O   0  0  0  0  0  0  0  0  0  0  0  0
   -0.3954    1.2887    0.4814 C   0  0  0  0  0  0  0  0  0  0  0  0
   -1.2761    1.9015   -0.1256 O   0  0  0  0  0  0  0  0  0  0  0  0
    0.4051    1.8919    1.3699 N   0  0  0  0  0  0  0  0  0  0  0  0
    1.1380    1.3380    1.7875 H   0  0  0  0  0  0  0  0  0  0  0  0
    0.3573    3.3183    1.6807 C   0  0  0  0  0  0  0  0  0  0  0  0
   -0.6670    3.6090    1.9198 H   0  0  0  0  0  0  0  0  0  0  0  0
    1.0066    3.5397    2.5289 H   0  0  0  0  0  0  0  0  0  0  0  0
    0.6896    3.8897    0.8118 H   0  0  0  0  0  0  0  0  0  0  0  0
  5  6  2  0  0  0  0
  5  7  1  0  0  0  0
  2  3  1  0  0  0  0
  2  4  1  0  0  0  0
  2  5  1  0  0  0  0
  1  2  1  0  0  0  0
 20 21  2  0  0  0  0
 20 22  1  0  0  0  0
 17 18  1  0  0  0  0
 17 19  2  0  0  0  0
 14 15  1  0  0  0  0
 14 16  1  0  0  0  0
 14 17  1  0  0  0  0
 11 12  1  0  0  0  0
 11 13  1  0  0  0  0
 11 14  1  0  0  0  0
  9 10  1  0  0  0  0
  9 11  1  0  0  0  0
  9 20  1  0  0  0  0
  7  8  1  0  0  0  0
  7  9  1  0  0  0  0
 24 25  1  0  0  0  0
 24 26  1  0  0  0  0
 24 27  1  0  0  0  0
 22 23  1  0  0  0  0
 22 24  1  0  0  0  0
M  CHG  1  18  -1
M  END
$$$$
default_name
  -OEChem-02102213163D

 27 26  0     1  0  0  0  0  0999 V2000
   -3.2406   -3.5400    1.2326 H   0  0  0  0  0  0  0  0  0  0  0  0
   -3.1436   -2.6190    0.6606 C   0  0  0  0  0  0  0  0  0  0  0  0
   -3.8786   -1.8920    0.9996 H   0  0  0  0  0  0  0  0  0  0  0  0
   -3.2846   -2.8280   -0.3984 H   0  0  0  0  0  0  0  0  0  0  0  0
   -1.7586   -2.0580    0.8686 C   0  0  0  0  0  0  0  0  0  0  0  0
   -0.9666   -2.6340    1.6026 O   0  0  0  0  0  0  0  0  0  0  0  0
   -1.4866   -0.9220    0.2366 N   0  0  0  0  0  0  0  0  0  0  0  0
   -2.2166   -0.4790   -0.2994 H   0  0  0  0  0  0  0  0  0  0  0  0
   -0.1956   -0.2250    0.2596 C   0  0  1  0  0  0  0  0  0  0  0  0
    0.3927   -0.6026    1.0964 H   0  0  0  0  0  0  0  0  0  0  0  0
    0.5767   -0.5489   -1.0351 C   0  0  0  0  0  0  0  0  0  0  0  0
    0.0953   -1.4062   -1.5082 H   0  0  0  0  0  0  0  0  0  0  0  0
    0.5118    0.3016   -1.7154 H   0  0  0  0  0  0  0  0  0  0  0  0
    2.0568   -0.8916   -0.7957 C   0  0  0  0  0  0  0  0  0  0  0  0
    2.1588   -1.3729    0.1800 H   0  0  0  0  0  0  0  0  0  0  0  0
    2.3709   -1.6080   -1.5594 H   0  0  0  0  0  0  0  0  0  0  0  0
    2.9818    0.3338   -0.8397 C   0  0  0  0  0  0  0  0  0  0  0  0
    2.4952    1.4331   -1.1878 O   0  5  0  0  0  0  0  0  0  0  0  0
    4.1709    0.1517   -0.4960 O   0  0  0  0  0  0  0  0  0  0  0  0
   -0.3954    1.2887    0.4814 C   0  0  0  0  0  0  0  0  0  0  0  0
   -1.2761    1.9015   -0.1256 O   0  0  0  0  0  0  0  0  0  0  0  0
    0.4051    1.8919    1.3699 N   0  0  0  0  0  0  0  0  0  0  0  0
    1.1380    1.3380    1.7875 H   0  0  0  0  0  0  0  0  0  0  0  0
    0.3573    3.3183    1.6807 C   0  0  0  0  0  0  0  0  0  0  0  0
   -0.6670    3.6090    1.9198 H   0  0  0  0  0  0  0  0  0  0  0  0
    1.0066    3.5397    2.5289 H   0  0  0  0  0  0  0  0  0  0  0  0
    0.6896    3.8897    0.8118 H   0  0  0  0  0  0  0  0  0  0  0  0
  5  6  2  0  0  0  0
  5  7  1  0  0  0  0
  2  3  1  0  0  0  0
  2  4  1  0  0  0  0
  2  5  1  0  0  0  0
  1  2  1  0  0  0  0
 20 21  2  0  0  0  0
 20 22  1  0  0  0  0
 17 18  1  0  0  0  0
 17 19  2  0  0  0  0
 14 15  1  0  0  0  0
 14 16  1  0  0  0  0
 14 17  1  0  0  0  0
 11 12  1  0  0  0  0
 11 13  1  0  0  0  0
 11 14  1  0  0  0  0
  9 10  1  0  0  0  0
  9 11  1  0  0  0  0
  9 20  1  0  0  0  0
  7  8  1  0  0  0  0
  7  9  1  0  0  0  0
 24 25  1  0  0  0  0
 24 26  1  0  0  0  0
 24 27  1  0  0  0  0
 22 23  1  0  0  0  0
 22 24  1  0  0  0  0
M  CHG  1  18  -1
M  END
$$$$
default_name
  -OEChem-02102213163D

 27 26  0     1  0  0  0  0  0999 V2000
   -3.2406   -3.5400    1.2326 H   0  0  0  0  0  0  0  0  0  0  0  0
   -3.1436   -2.6190    0.6606 C   0  0  0  0  0  0  0  0  0  0  0  0
   -3.8786   -1.8920    0.9996 H   0  0  0  0  0  0  0  0  0  0  0  0
   -3.2846   -2.8280   -0.3984 H   0  0  0  0  0  0  0  0  0  0  0  0
   -1.7586   -2.0580    0.8686 C   0  0  0  0  0  0  0  0  0  0  0  0
   -0.9666   -2.6340    1.6026 O   0  0  0  0  0  0  0  0  0  0  0  0
   -1.4866   -0.9220    0.2366 N   0  0  0  0  0  0  0  0  0  0  0  0
   -2.2166   -0.4790   -0.2994 H   0  0  0  0  0  0  0  0  0  0  0  0
   -0.1956   -0.2250    0.2596 C   0  0  1  0  0  0  0  0  0  0  0  0
    0.3927   -0.6026    1.0964 H   0  0  0  0  0  0  0  0  0  0  0  0
    0.5767   -0.5489   -1.0351 C   0  0  0  0  0  0  0  0  0  0  0  0
    0.0953   -1.4062   -1.5082 H   0  0  0  0  0  0  0  0  0  0  0  0
    0.5118    0.3016   -1.7154 H   0  0  0  0  0  0  0  0  0  0  0  0
    2.0568   -0.8916   -0.7957 C   0  0  0  0  0  0  0  0  0  0  0  0
    2.1301   -1.5981    0.0346 H   0  0  0  0  0  0  0  0  0  0  0  0
    2.4444   -1.3833   -1.6919 H   0  0  0  0  0  0  0  0  0  0  0  0
    2.9234    0.3356   -0.4764 C   0  0  0  0  0  0  0  0  0  0  0  0
    2.4041    1.4704   -0.5710 O   0  5  0  0  0  0  0  0  0  0  0  0
    4.1001    0.1126   -0.1146 O   0  0  0  0  0  0  0  0  0  0  0  0
   -0.3954    1.2887    0.4814 C   0  0  0  0  0  0  0  0  0  0  0  0
   -1.2761    1.9015   -0.1256 O   0  0  0  0  0  0  0  0  0  0  0  0
    0.4051    1.8919    1.3699 N   0  0  0  0  0  0  0  0  0  0  0  0
    1.1380    1.3380    1.7875 H   0  0  0  0  0  0  0  0  0  0  0  0
    0.3573    3.3183    1.6807 C   0  0  0  0  0  0  0  0  0  0  0  0
   -0.6670    3.6090    1.9198 H   0  0  0  0  0  0  0  0  0  0  0  0
    1.0066    3.5397    2.5289 H   0  0  0  0  0  0  0  0  0  0  0  0
    0.6896    3.8897    0.8118 H   0  0  0  0  0  0  0  0  0  0  0  0
  5  6  2  0  0  0  0
  5  7  1  0  0  0  0
  2  3  1  0  0  0  0
  2  4  1  0  0  0  0
  2  5  1  0  0  0  0
  1  2  1  0  0  0  0
 20 21  2  0  0  0  0
 20 22  1  0  0  0  0
 17 18  1  0  0  0  0
 17 19  2  0  0  0  0
 14 15  1  0  0  0  0
 14 16  1  0  0  0  0
 14 17  1  0  0  0  0
 11 12  1  0  0  0  0
 11 13  1  0  0  0  0
 11 14  1  0  0  0  0
  9 10  1  0  0  0  0
  9 11  1  0  0  0  0
  9 20  1  0  0  0  0
  7  8  1  0  0  0  0
  7  9  1  0  0  0  0
 24 25  1  0  0  0  0
 24 26  1  0  0  0  0
 24 27  1  0  0  0  0
 22 23  1  0  0  0  0
 22 24  1  0  0  0  0
M  CHG  1  18  -1
M  END
$$$$
default_name
  -OEChem-02102213163D

 27 26  0     1  0  0  0  0  0999 V2000
   -3.2406   -3.5400    1.2326 H   0  0  0  0  0  0  0  0  0  0  0  0
   -3.1436   -2.6190    0.6606 C   0  0  0  0  0  0  0  0  0  0  0  0
   -3.8786   -1.8920    0.9996 H   0  0  0  0  0  0  0  0  0  0  0  0
   -3.2846   -2.8280   -0.3984 H   0  0  0  0  0  0  0  0  0  0  0  0
   -1.7586   -2.0580    0.8686 C   0  0  0  0  0  0  0  0  0  0  0  0
   -0.9666   -2.6340    1.6026 O   0  0  0  0  0  0  0  0  0  0  0  0
   -1.4866   -0.9220    0.2366 N   0  0  0  0  0  0  0  0  0  0  0  0
   -2.2166   -0.4790   -0.2994 H   0  0  0  0  0  0  0  0  0  0  0  0
   -0.1956   -0.2250    0.2596 C   0  0  1  0  0  0  0  0  0  0  0  0
    0.3927   -0.6026    1.0964 H   0  0  0  0  0  0  0  0  0  0  0  0
    0.5767   -0.5489   -1.0351 C   0  0  0  0  0  0  0  0  0  0  0  0
    0.0953   -1.4062   -1.5082 H   0  0  0  0  0  0  0  0  0  0  0  0
    0.5118    0.3016   -1.7154 H   0  0  0  0  0  0  0  0  0  0  0  0
    2.0568   -0.8916   -0.7957 C   0  0  0  0  0  0  0  0  0  0  0  0
    2.1199   -1.7806   -0.1635 H   0  0  0  0  0  0  0  0  0  0  0  0
    2.5139   -1.1303   -1.7596 H   0  0  0  0  0  0  0  0  0  0  0  0
    2.8460    0.2446   -0.1284 C   0  0  0  0  0  0  0  0  0  0  0  0
    2.2789    1.3492    0.0289 O   0  5  0  0  0  0  0  0  0  0  0  0
    4.0114   -0.0229    0.2399 O   0  0  0  0  0  0  0  0  0  0  0  0
   -0.3954    1.2887    0.4814 C   0  0  0  0  0  0  0  0  0  0  0  0
   -1.2761    1.9015   -0.1256 O   0  0  0  0  0  0  0  0  0  0  0  0
    0.4051    1.8919    1.3699 N   0  0  0  0  0  0  0  0  0  0  0  0
    1.1380    1.3380    1.7875 H   0  0  0  0  0  0  0  0  0  0  0  0
    0.3573    3.3183    1.6807 C   0  0  0  0  0  0  0  0  0  0  0  0
   -0.6670    3.6090    1.9198 H   0  0  0  0  0  0  0  0  0  0  0  0
    1.0066    3.5397    2.5289 H   0  0  0  0  0  0  0  0  0  0  0  0
    0.6896    3.8897    0.8118 H   0  0  0  0  0  0  0  0  0  0  0  0
  5  6  2  0  0  0  0
  5  7  1  0  0  0  0
  2  3  1  0  0  0  0
  2  4  1  0  0  0  0
  2  5  1  0  0  0  0
  1  2  1  0  0  0  0
 20 21  2  0  0  0  0
 20 22  1  0  0  0  0
 17 18  1  0  0  0  0
 17 19  2  0  0  0  0
 14 15  1  0  0  0  0
 14 16  1  0  0  0  0
 14 17  1  0  0  0  0
 11 12  1  0  0  0  0
 11 13  1  0  0  0  0
 11 14  1  0  0  0  0
  9 10  1  0  0  0  0
  9 11  1  0  0  0  0
  9 20  1  0  0  0  0
  7  8  1  0  0  0  0
  7  9  1  0  0  0  0
 24 25  1  0  0  0  0
 24 26  1  0  0  0  0
 24 27  1  0  0  0  0
 22 23  1  0  0  0  0
 22 24  1  0  0  0  0
M  CHG  1  18  -1
M  END
$$$$
default_name
  -OEChem-02102213163D

 27 26  0     1  0  0  0  0  0999 V2000
   -3.2406   -3.5400    1.2326 H   0  0  0  0  0  0  0  0  0  0  0  0
   -3.1436   -2.6190    0.6606 C   0  0  0  0  0  0  0  0  0  0  0  0
   -3.8786   -1.8920    0.9996 H   0  0  0  0  0  0  0  0  0  0  0  0
   -3.2846   -2.8280   -0.3984 H   0  0  0  0  0  0  0  0  0  0  0  0
   -1.7586   -2.0580    0.8686 C   0  0  0  0  0  0  0  0  0  0  0  0
   -0.9666   -2.6340    1.6026 O   0  0  0  0  0  0  0  0  0  0  0  0
   -1.4866   -0.9220    0.2366 N   0  0  0  0  0  0  0  0  0  0  0  0
   -2.2166   -0.4790   -0.2994 H   0  0  0  0  0  0  0  0  0  0  0  0
   -0.1956   -0.2250    0.2596 C   0  0  1  0  0  0  0  0  0  0  0  0
    0.3927   -0.6026    1.0964 H   0  0  0  0  0  0  0  0  0  0  0  0
    0.5767   -0.5489   -1.0351 C   0  0  0  0  0  0  0  0  0  0  0  0
    0.0953   -1.4062   -1.5082 H   0  0  0  0  0  0  0  0  0  0  0  0
    0.5118    0.3016   -1.7154 H   0  0  0  0  0  0  0  0  0  0  0  0
    2.0568   -0.8916   -0.7957 C   0  0  0  0  0  0  0  0  0  0  0  0
    2.1289   -1.9079   -0.4009 H   0  0  0  0  0  0  0  0  0  0  0  0
    2.5748   -0.8662   -1.7580 H   0  0  0  0  0  0  0  0  0  0  0  0
    2.7549    0.0668    0.1806 C   0  0  0  0  0  0  0  0  0  0  0  0
    2.1283    1.0776    0.5709 O   0  5  0  0  0  0  0  0  0  0  0  0
    3.9107   -0.2457    0.5435 O   0  0  0  0  0  0  0  0  0  0  0  0
   -0.3954    1.2887    0.4814 C   0  0  0  0  0  0  0  0  0  0  0  0
   -1.2761    1.9015   -0.1256 O   0  0  0  0  0  0  0  0  0  0  0  0
    0.4051    1.8919    1.3699 N   0  0  0  0  0  0  0  0  0  0  0  0
    1.1380    1.3380    1.7875 H   0  0  0  0  0  0  0  0  0  0  0  0
    0.3573    3.3183    1.6807 C   0  0  0  0  0  0  0  0  0  0  0  0
   -0.6670    3.6090    1.9198 H   0  0  0  0  0  0  0  0  0  0  0  0
    1.0066    3.5397    2.5289 H   0  0  0  0  0  0  0  0  0  0  0  0
    0.6896    3.8897    0.8118 H   0  0  0  0  0  0  0  0  0  0  0  0
  5  6  2  0  0  0  0
  5  7  1  0  0  0  0
  2  3  1  0  0  0  0
  2  4  1  0  0  0  0
  2  5  1  0  0  0  0
  1  2  1  0  0  0  0
 20 21  2  0  0  0  0
 20 22  1  0  0  0  0
 17 18  1  0  0  0  0
 17 19  2  0  0  0  0
 14 15  1  0  0  0  0
 14 16  1  0  0  0  0
 14 17  1  0  0  0  0
 11 12  1  0  0  0  0
 11 13  1  0  0  0  0
 11 14  1  0  0  0  0
  9 10  1  0  0  0  0
  9 11  1  0  0  0  0
  9 20  1  0  0  0  0
  7  8  1  0  0  0  0
  7  9  1  0  0  0  0
 24 25  1  0  0  0  0
 24 26  1  0  0  0  0
 24 27  1  0  0  0  0
 22 23  1  0  0  0  0
 22 24  1  0  0  0  0
M  CHG  1  18  -1
M  END
$$$$
default_name
  -OEChem-02102213163D

 27 26  0     1  0  0  0  0  0999 V2000
   -3.2406   -3.5400    1.2326 H   0  0  0  0  0  0  0  0  0  0  0  0
   -3.1436   -2.6190    0.6606 C   0  0  0  0  0  0  0  0  0  0  0  0
   -3.8786   -1.8920    0.9996 H   0  0  0  0  0  0  0  0  0  0  0  0
   -3.2846   -2.8280   -0.3984 H   0  0  0  0  0  0  0  0  0  0  0  0
   -1.7586   -2.0580    0.8686 C   0  0  0  0  0  0  0  0  0  0  0  0
   -0.9666   -2.6340    1.6026 O   0  0  0  0  0  0  0  0  0  0  0  0
   -1.4866   -0.9220    0.2366 N   0  0  0  0  0  0  0  0  0  0  0  0
   -2.2166   -0.4790   -0.2994 H   0  0  0  0  0  0  0  0  0  0  0  0
   -0.1956   -0.2250    0.2596 C   0  0  1  0  0  0  0  0  0  0  0  0
    0.3927   -0.6026    1.0964 H   0  0  0  0  0  0  0  0  0  0  0  0
    0.5767   -0.5489   -1.0351 C   0  0  0  0  0  0  0  0  0  0  0  0
    0.0953   -1.4062   -1.5082 H   0  0  0  0  0  0  0  0  0  0  0  0
    0.5118    0.3016   -1.7154 H   0  0  0  0  0  0  0  0  0  0  0  0
    2.0568   -0.8916   -0.7957 C   0  0  0  0  0  0  0  0  0  0  0  0
    2.1563   -1.9714   -0.6615 H   0  0  0  0  0  0  0  0  0  0  0  0
    2.6229   -0.6091   -1.6872 H   0  0  0  0  0  0  0  0  0  0  0  0
    2.6562   -0.1855    0.4295 C   0  0  0  0  0  0  0  0  0  0  0  0
    1.9626    0.6742    1.0181 O   0  5  0  0  0  0  0  0  0  0  0  0
    3.8049   -0.5406    0.7755 O   0  0  0  0  0  0  0  0  0  0  0  0
   -0.3954    1.2887    0.4814 C   0  0  0  0  0  0  0  0  0  0  0  0
   -1.2761    1.9015   -0.1256 O   0  0  0  0  0  0  0  0  0  0  0  0
    0.4051    1.8919    1.3699 N   0  0  0  0  0  0  0  0  0  0  0  0
    1.1380    1.3380    1.7875 H   0  0  0  0  0  0  0  0  0  0  0  0
    0.3573    3.3183    1.6807 C   0  0  0  0  0  0  0  0  0  0  0  0
   -0.6670    3.6090    1.9198 H   0  0  0  0  0  0  0  0  0  0  0  0
    1.0066    3.5397    2.5289 H   0  0  0  0  0  0  0  0  0  0  0  0
    0.6896    3.8897    0.8118 H   0  0  0  0  0  0  0  0  0  0  0  0
  5  6  2  0  0  0  0
  5  7  1  0  0  0  0
  2  3  1  0  0  0  0
  2  4  1  0  0  0  0
  2  5  1  0  0  0  0
  1  2  1  0  0  0  0
 20 21  2  0  0  0  0
 20 22  1  0  0  0  0
 17 18  1  0  0  0  0
 17 19  2  0  0  0  0
 14 15  1  0  0  0  0
 14 16  1  0  0  0  0
 14 17  1  0  0  0  0
 11 12  1  0  0  0  0
 11 13  1  0  0  0  0
 11 14  1  0  0  0  0
  9 10  1  0  0  0  0
  9 11  1  0  0  0  0
  9 20  1  0  0  0  0
  7  8  1  0  0  0  0
  7  9  1  0  0  0  0
 24 25  1  0  0  0  0
 24 26  1  0  0  0  0
 24 27  1  0  0  0  0
 22 23  1  0  0  0  0
 22 24  1  0  0  0  0
M  CHG  1  18  -1
M  END
$$$$
default_name
  -OEChem-02102213163D

 27 26  0     1  0  0  0  0  0999 V2000
   -3.2406   -3.5400    1.2326 H   0  0  0  0  0  0  0  0  0  0  0  0
   -3.1436   -2.6190    0.6606 C   0  0  0  0  0  0  0  0  0  0  0  0
   -3.8786   -1.8920    0.9996 H   0  0  0  0  0  0  0  0  0  0  0  0
   -3.2846   -2.8280   -0.3984 H   0  0  0  0  0  0  0  0  0  0  0  0
   -1.7586   -2.0580    0.8686 C   0  0  0  0  0  0  0  0  0  0  0  0
   -0.9666   -2.6340    1.6026 O   0  0  0  0  0  0  0  0  0  0  0  0
   -1.4866   -0.9220    0.2366 N   0  0  0  0  0  0  0  0  0  0  0  0
   -2.2166   -0.4790   -0.2994 H   0  0  0  0  0  0  0  0  0  0  0  0
   -0.1956   -0.2250    0.2596 C   0  0  1  0  0  0  0  0  0  0  0  0
    0.3927   -0.6026    1.0964 H   0  0  0  0  0  0  0  0  0  0  0  0
    0.5767   -0.5489   -1.0351 C   0  0  0  0  0  0  0  0  0  0  0  0
    0.0953   -1.4062   -1.5082 H   0  0  0  0  0  0  0  0  0  0  0  0
    0.5118    0.3016   -1.7154 H   0  0  0  0  0  0  0  0  0  0  0  0
    2.0568   -0.8916   -0.7957 C   0  0  0  0  0  0  0  0  0  0  0  0
    2.2004   -1.9667   -0.9274 H   0  0  0  0  0  0  0  0  0  0  0  0
    2.6549   -0.3765   -1.5521 H   0  0  0  0  0  0  0  0  0  0  0  0
    2.5567   -0.4952    0.6014 C   0  0  0  0  0  0  0  0  0  0  0  0
    1.7929    0.1665    1.3400 O   0  5  0  0  0  0  0  0  0  0  0  0
    3.7012   -0.8875    0.9200 O   0  0  0  0  0  0  0  0  0  0  0  0
   -0.3954    1.2887    0.4814 C   0  0  0  0  0  0  0  0  0  0  0  0
   -1.2761    1.9015   -0.1256 O   0  0  0  0  0  0  0  0  0  0  0  0
    0.4051    1.8919    1.3699 N   0  0  0  0  0  0  0  0  0  0  0  0
    1.1380    1.3380    1.7875 H   0  0  0  0  0  0  0  0  0  0  0  0
    0.3573    3.3183    1.6807 C   0  0  0  0  0  0  0  0  0  0  0  0
   -0.6670    3.6090    1.9198 H   0  0  0  0  0  0  0  0  0  0  0  0
    1.0066    3.5397    2.5289 H   0  0  0  0  0  0  0  0  0  0  0  0
    0.6896    3.8897    0.8118 H   0  0  0  0  0  0  0  0  0  0  0  0
  5  6  2  0  0  0  0
  5  7  1  0  0  0  0
  2  3  1  0  0  0  0
  2  4  1  0  0  0  0
  2  5  1  0  0  0  0
  1  2  1  0  0  0  0
 20 21  2  0  0  0  0
 20 22  1  0  0  0  0
 17 18  1  0  0  0  0
 17 19  2  0  0  0  0
 14 15  1  0  0  0  0
 14 16  1  0  0  0  0
 14 17  1  0  0  0  0
 11 12  1  0  0  0  0
 11 13  1  0  0  0  0
 11 14  1  0  0  0  0
  9 10  1  0  0  0  0
  9 11  1  0  0  0  0
  9 20  1  0  0  0  0
  7  8  1  0  0  0  0
  7  9  1  0  0  0  0
 24 25  1  0  0  0  0
 24 26  1  0  0  0  0
 24 27  1  0  0  0  0
 22 23  1  0  0  0  0
 22 24  1  0  0  0  0
M  CHG  1  18  -1
M  END
$$$$
default_name
  -OEChem-02102213163D

 27 26  0     1  0  0  0  0  0999 V2000
   -3.2406   -3.5400    1.2326 H   0  0  0  0  0  0  0  0  0  0  0  0
   -3.1436   -2.6190    0.6606 C   0  0  0  0  0  0  0  0  0  0  0  0
   -3.8786   -1.8920    0.9996 H   0  0  0  0  0  0  0  0  0  0  0  0
   -3.2846   -2.8280   -0.3984 H   0  0  0  0  0  0  0  0  0  0  0  0
   -1.7586   -2.0580    0.8686 C   0  0  0  0  0  0  0  0  0  0  0  0
   -0.9666   -2.6340    1.6026 O   0  0  0  0  0  0  0  0  0  0  0  0
   -1.4866   -0.9220    0.2366 N   0  0  0  0  0  0  0  0  0  0  0  0
   -2.2166   -0.4790   -0.2994 H   0  0  0  0  0  0  0  0  0  0  0  0
   -0.1956   -0.2250    0.2596 C   0  0  1  0  0  0  0  0  0  0  0  0
    0.3927   -0.6026    1.0964 H   0  0  0  0  0  0  0  0  0  0  0  0
    0.5767   -0.5489   -1.0351 C   0  0  0  0  0  0  0  0  0  0  0  0
    0.0953   -1.4062   -1.5082 H   0  0  0  0  0  0  0  0  0  0  0  0
    0.5118    0.3016   -1.7154 H   0  0  0  0  0  0  0  0  0  0  0  0
    2.0568   -0.8916   -0.7957 C   0  0  0  0  0  0  0  0  0  0  0  0
    2.2582   -1.8942   -1.1805 H   0  0  0  0  0  0  0  0  0  0  0  0
    2.6686   -0.1841   -1.3617 H   0  0  0  0  0  0  0  0  0  0  0  0
    2.4631   -0.8412    0.6846 C   0  0  0  0  0  0  0  0  0  0  0  0
    1.6310   -0.4109    1.5147 O   0  5  0  0  0  0  0  0  0  0  0  0
    3.6066   -1.2628    0.9672 O   0  0  0  0  0  0  0  0  0  0  0  0
   -0.3954    1.2887    0.4814 C   0  0  0  0  0  0  0  0  0  0  0  0
   -1.2761    1.9015   -0.1256 O   0  0  0  0  0  0  0  0  0  0  0  0
    0.4051    1.8919    1.3699 N   0  0  0  0  0  0  0  0  0  0  0  0
    1.1380    1.3380    1.7875 H   0  0  0  0  0  0  0  0  0  0  0  0
    0.3573    3.3183    1.6807 C   0  0  0  0  0  0  0  0  0  0  0  0
   -0.6670    3.6090    1.9198 H   0  0  0  0  0  0  0  0  0  0  0  0
    1.0066    3.5397    2.5289 H   0  0  0  0  0  0  0  0  0  0  0  0
    0.6896    3.8897    0.8118 H   0  0  0  0  0  0  0  0  0  0  0  0
  5  6  2  0  0  0  0
  5  7  1  0  0  0  0
  2  3  1  0  0  0  0
  2  4  1  0  0  0  0
  2  5  1  0  0  0  0
  1  2  1  0  0  0  0
 20 21  2  0  0  0  0
 20 22  1  0  0  0  0
 17 18  1  0  0  0  0
 17 19  2  0  0  0  0
 14 15  1  0  0  0  0
 14 16  1  0  0  0  0
 14 17  1  0  0  0  0
 11 12  1  0  0  0  0
 11 13  1  0  0  0  0
 11 14  1  0  0  0  0
  9 10  1  0  0  0  0
  9 11  1  0  0  0  0
  9 20  1  0  0  0  0
  7  8  1  0  0  0  0
  7  9  1  0  0  0  0
 24 25  1  0  0  0  0
 24 26  1  0  0  0  0
 24 27  1  0  0  0  0
 22 23  1  0  0  0  0
 22 24  1  0  0  0  0
M  CHG  1  18  -1
M  END
$$$$
default_name
  -OEChem-02102213163D

 27 26  0     1  0  0  0  0  0999 V2000
   -3.2406   -3.5400    1.2326 H   0  0  0  0  0  0  0  0  0  0  0  0
   -3.1436   -2.6190    0.6606 C   0  0  0  0  0  0  0  0  0  0  0  0
   -3.8786   -1.8920    0.9996 H   0  0  0  0  0  0  0  0  0  0  0  0
   -3.2846   -2.8280   -0.3984 H   0  0  0  0  0  0  0  0  0  0  0  0
   -1.7586   -2.0580    0.8686 C   0  0  0  0  0  0  0  0  0  0  0  0
   -0.9666   -2.6340    1.6026 O   0  0  0  0  0  0  0  0  0  0  0  0
   -1.4866   -0.9220    0.2366 N   0  0  0  0  0  0  0  0  0  0  0  0
   -2.2166   -0.4790   -0.2994 H   0  0  0  0  0  0  0  0  0  0  0  0
   -0.1956   -0.2250    0.2596 C   0  0  1  0  0  0  0  0  0  0  0  0
    0.3927   -0.6026    1.0964 H   0  0  0  0  0  0  0  0  0  0  0  0
    0.5767   -0.5489   -1.0351 C   0  0  0  0  0  0  0  0  0  0  0  0
    0.0953   -1.4062   -1.5082 H   0  0  0  0  0  0  0  0  0  0  0  0
    0.5118    0.3016   -1.7154 H   0  0  0  0  0  0  0  0  0  0  0  0
    2.0568   -0.8916   -0.7957 C   0  0  0  0  0  0  0  0  0  0  0  0
    2.3256   -1.7588   -1.4036 H   0  0  0  0  0  0  0  0  0  0  0  0
    2.6632   -0.0452   -1.1291 H   0  0  0  0  0  0  0  0  0  0  0  0
    2.3819   -1.1998    0.6734 C   0  0  0  0  0  0  0  0  0  0  0  0
    1.4877   -1.0187    1.5303 O   0  5  0  0  0  0  0  0  0  0  0  0
    3.5277   -1.6408    0.9139 O   0  0  0  0  0  0  0  0  0  0  0  0
   -0.3954    1.2887    0.4814 C   0  0  0  0  0  0  0  0  0  0  0  0
   -1.2761    1.9015   -0.1256 O   0  0  0  0  0  0  0  0  0  0  0  0
    0.4051    1.8919    1.3699 N   0  0  0  0  0  0  0  0  0  0  0  0
    1.1380    1.3380    1.7875 H   0  0  0  0  0  0  0  0  0  0  0  0
    0.3573    3.3183    1.6807 C   0  0  0  0  0  0  0  0  0  0  0  0
   -0.6670    3.6090    1.9198 H   0  0  0  0  0  0  0  0  0  0  0  0
    1.0066    3.5397    2.5289 H   0  0  0  0  0  0  0  0  0  0  0  0
    0.6896    3.8897    0.8118 H   0  0  0  0  0  0  0  0  0  0  0  0
  5  6  2  0  0  0  0
  5  7  1  0  0  0  0
  2  3  1  0  0  0  0
  2  4  1  0  0  0  0
  2  5  1  0  0  0  0
  1  2  1  0  0  0  0
 20 21  2  0  0  0  0
 20 22  1  0  0  0  0
 17 18  1  0  0  0  0
 17 19  2  0  0  0  0
 14 15  1  0  0  0  0
 14 16  1  0  0  0  0
 14 17  1  0  0  0  0
 11 12  1  0  0  0  0
 11 13  1  0  0  0  0
 11 14  1  0  0  0  0
  9 10  1  0  0  0  0
  9 11  1  0  0  0  0
  9 20  1  0  0  0  0
  7  8  1  0  0  0  0
  7  9  1  0  0  0  0
 24 25  1  0  0  0  0
 24 26  1  0  0  0  0
 24 27  1  0  0  0  0
 22 23  1  0  0  0  0
 22 24  1  0  0  0  0
M  CHG  1  18  -1
M  END
$$$$
default_name
  -OEChem-02102213163D

 27 26  0     1  0  0  0  0  0999 V2000
   -3.2406   -3.5400    1.2326 H   0  0  0  0  0  0  0  0  0  0  0  0
   -3.1436   -2.6190    0.6606 C   0  0  0  0  0  0  0  0  0  0  0  0
   -3.8786   -1.8920    0.9996 H   0  0  0  0  0  0  0  0  0  0  0  0
   -3.2846   -2.8280   -0.3984 H   0  0  0  0  0  0  0  0  0  0  0  0
   -1.7586   -2.0580    0.8686 C   0  0  0  0  0  0  0  0  0  0  0  0
   -0.9666   -2.6340    1.6026 O   0  0  0  0  0  0  0  0  0  0  0  0
   -1.4866   -0.9220    0.2366 N   0  0  0  0  0  0  0  0  0  0  0  0
   -2.2166   -0.4790   -0.2994 H   0  0  0  0  0  0  0  0  0  0  0  0
   -0.1956   -0.2250    0.2596 C   0  0  1  0  0  0  0  0  0  0  0  0
    0.3927   -0.6026    1.0964 H   0  0  0  0  0  0  0  0  0  0  0  0
    0.5767   -0.5489   -1.0351 C   0  0  0  0  0  0  0  0  0  0  0  0
    0.0953   -1.4062   -1.5082 H   0  0  0  0  0  0  0  0  0  0  0  0
    0.5118    0.3016   -1.7154 H   0  0  0  0  0  0  0  0  0  0  0  0
    2.0568   -0.8916   -0.7957 C   0  0  0  0  0  0  0  0  0  0  0  0
    2.3982   -1.5697   -1.5815 H   0  0  0  0  0  0  0  0  0  0  0  0
    2.6389    0.0308   -0.8701 H   0  0  0  0  0  0  0  0  0  0  0  0
    2.3185   -1.5468    0.5686 C   0  0  0  0  0  0  0  0  0  0  0  0
    1.3729   -1.6155    1.3857 O   0  5  0  0  0  0  0  0  0  0  0  0
    3.4698   -1.9958    0.7636 O   0  0  0  0  0  0  0  0  0  0  0  0
   -0.3954    1.2887    0.4814 C   0  0  0  0  0  0  0  0  0  0  0  0
   -1.2761    1.9015   -0.1256 O   0  0  0  0  0  0  0  0  0  0  0  0
    0.4051    1.8919    1.3699 N   0  0  0  0  0  0  0  0  0  0  0  0
    1.1380    1.3380    1.7875 H   0  0  0  0  0  0  0  0  0  0  0  0
    0.3573    3.3183    1.6807 C   0  0  0  0  0  0  0  0  0  0  0  0
   -0.6670    3.6090    1.9198 H   0  0  0  0  0  0  0  0  0  0  0  0
    1.0066    3.5397    2.5289 H   0  0  0  0  0  0  0  0  0  0  0  0
    0.6896    3.8897    0.8118 H   0  0  0  0  0  0  0  0  0  0  0  0
  5  6  2  0  0  0  0
  5  7  1  0  0  0  0
  2  3  1  0  0  0  0
  2  4  1  0  0  0  0
  2  5  1  0  0  0  0
  1  2  1  0  0  0  0
 20 21  2  0  0  0  0
 20 22  1  0  0  0  0
 17 18  1  0  0  0  0
 17 19  2  0  0  0  0
 14 15  1  0  0  0  0
 14 16  1  0  0  0  0
 14 17  1  0  0  0  0
 11 12  1  0  0  0  0
 11 13  1  0  0  0  0
 11 14  1  0  0  0  0
  9 10  1  0  0  0  0
  9 11  1  0  0  0  0
  9 20  1  0  0  0  0
  7  8  1  0  0  0  0
  7  9  1  0  0  0  0
 24 25  1  0  0  0  0
 24 26  1  0  0  0  0
 24 27  1  0  0  0  0
 22 23  1  0  0  0  0
 22 24  1  0  0  0  0
M  CHG  1  18  -1
M  END
$$$$
default_name
  -OEChem-02102213163D

 27 26  0     1  0  0  0  0  0999 V2000
   -3.2406   -3.5400    1.2326 H   0  0  0  0  0  0  0  0  0  0  0  0
   -3.1436   -2.6190    0.6606 C   0  0  0  0  0  0  0  0  0  0  0  0
   -3.8786   -1.8920    0.9996 H   0  0  0  0  0  0  0  0  0  0  0  0
   -3.2846   -2.8280   -0.3984 H   0  0  0  0  0  0  0  0  0  0  0  0
   -1.7586   -2.0580    0.8686 C   0  0  0  0  0  0  0  0  0  0  0  0
   -0.9666   -2.6340    1.6026 O   0  0  0  0  0  0  0  0  0  0  0  0
   -1.4866   -0.9220    0.2366 N   0  0  0  0  0  0  0  0  0  0  0  0
   -2.2166   -0.4790   -0.2994 H   0  0  0  0  0  0  0  0  0  0  0  0
   -0.1956   -0.2250    0.2596 C   0  0  1  0  0  0  0  0  0  0  0  0
    0.3927   -0.6026    1.0964 H   0  0  0  0  0  0  0  0  0  0  0  0
    0.5767   -0.5489   -1.0351 C   0  0  0  0  0  0  0  0  0  0  0  0
    0.0953   -1.4062   -1.5082 H   0  0  0  0  0  0  0  0  0  0  0  0
    0.5118    0.3016   -1.7154 H   0  0  0  0  0  0  0  0  0  0  0  0
    2.0568   -0.8916   -0.7957 C   0  0  0  0  0  0  0  0  0  0  0  0
    2.4709   -1.3398   -1.7020 H   0  0  0  0  0  0  0  0  0  0  0  0
    2.5974    0.0388   -0.6025 H   0  0  0  0  0  0  0  0  0  0  0  0
    2.2773   -1.8583    0.3772 C   0  0  0  0  0  0  0  0  0  0  0  0
    1.2945   -2.1605    1.0908 O   0  5  0  0  0  0  0  0  0  0  0  0
    3.4369   -2.3036    0.5268 O   0  0  0  0  0  0  0  0  0  0  0  0
   -0.3954    1.2887    0.4814 C   0  0  0  0  0  0  0  0  0  0  0  0
   -1.2761    1.9015   -0.1256 O   0  0  0  0  0  0  0  0  0  0  0  0
    0.4051    1.8919    1.3699 N   0  0  0  0  0  0  0  0  0  0  0  0
    1.1380    1.3380    1.7875 H   0  0  0  0  0  0  0  0  0  0  0  0
    0.3573    3.3183    1.6807 C   0  0  0  0  0  0  0  0  0  0  0  0
   -0.6670    3.6090    1.9198 H   0  0  0  0  0  0  0  0  0  0  0  0
    1.0066    3.5397    2.5289 H   0  0  0  0  0  0  0  0  0  0  0  0
    0.6896    3.8897    0.8118 H   0  0  0  0  0  0  0  0  0  0  0  0
  5  6  2  0  0  0  0
  5  7  1  0  0  0  0
  2  3  1  0  0  0  0
  2  4  1  0  0  0  0
  2  5  1  0  0  0  0
  1  2  1  0  0  0  0
 20 21  2  0  0  0  0
 20 22  1  0  0  0  0
 17 18  1  0  0  0  0
 17 19  2  0  0  0  0
 14 15  1  0  0  0  0
 14 16  1  0  0  0  0
 14 17  1  0  0  0  0
 11 12  1  0  0  0  0
 11 13  1  0  0  0  0
 11 14  1  0  0  0  0
  9 10  1  0  0  0  0
  9 11  1  0  0  0  0
  9 20  1  0  0  0  0
  7  8  1  0  0  0  0
  7  9  1  0  0  0  0
 24 25  1  0  0  0  0
 24 26  1  0  0  0  0
 24 27  1  0  0  0  0
 22 23  1  0  0  0  0
 22 24  1  0  0  0  0
M  CHG  1  18  -1
M  END
$$$$
default_name
  -OEChem-02102213163D

 27 26  0     1  0  0  0  0  0999 V2000
   -3.2406   -3.5400    1.2326 H   0  0  0  0  0  0  0  0  0  0  0  0
   -3.1436   -2.6190    0.6606 C   0  0  0  0  0  0  0  0  0  0  0  0
   -3.8786   -1.8920    0.9996 H   0  0  0  0  0  0  0  0  0  0  0  0
   -3.2846   -2.8280   -0.3984 H   0  0  0  0  0  0  0  0  0  0  0  0
   -1.7586   -2.0580    0.8686 C   0  0  0  0  0  0  0  0  0  0  0  0
   -0.9666   -2.6340    1.6026 O   0  0  0  0  0  0  0  0  0  0  0  0
   -1.4866   -0.9220    0.2366 N   0  0  0  0  0  0  0  0  0  0  0  0
   -2.2166   -0.4790   -0.2994 H   0  0  0  0  0  0  0  0  0  0  0  0
   -0.1956   -0.2250    0.2596 C   0  0  1  0  0  0  0  0  0  0  0  0
    0.3927   -0.6026    1.0964 H   0  0  0  0  0  0  0  0  0  0  0  0
    0.5767   -0.5489   -1.0351 C   0  0  0  0  0  0  0  0  0  0  0  0
    0.0953   -1.4062   -1.5082 H   0  0  0  0  0  0  0  0  0  0  0  0
    0.5118    0.3016   -1.7154 H   0  0  0  0  0  0  0  0  0  0  0  0
    2.0568   -0.8916   -0.7957 C   0  0  0  0  0  0  0  0  0  0  0  0
    2.5388   -1.0848   -1.7570 H   0  0  0  0  0  0  0  0  0  0  0  0
    2.5416   -0.0219   -0.3443 H   0  0  0  0  0  0  0  0  0  0  0  0
    2.2611   -2.1133    0.1124 C   0  0  0  0  0  0  0  0  0  0  0  0
    1.2576   -2.6167    0.6657 O   0  5  0  0  0  0  0  0  0  0  0  0
    3.4311   -2.5433    0.2194 O   0  0  0  0  0  0  0  0  0  0  0  0
   -0.3954    1.2887    0.4814 C   0  0  0  0  0  0  0  0  0  0  0  0
   -1.2761    1.9015   -0.1256 O   0  0  0  0  0  0  0  0  0  0  0  0
    0.4051    1.8919    1.3699 N   0  0  0  0  0  0  0  0  0  0  0  0
    1.1380    1.3380    1.7875 H   0  0  0  0  0  0  0  0  0  0  0  0
    0.3573    3.3183    1.6807 C   0  0  0  0  0  0  0  0  0  0  0  0
   -0.6670    3.6090    1.9198 H   0  0  0  0  0  0  0  0  0  0  0  0
    1.0066    3.5397    2.5289 H   0  0  0  0  0  0  0  0  0  0  0  0
    0.6896    3.8897    0.8118 H   0  0  0  0  0  0  0  0  0  0  0  0
  5  6  2  0  0  0  0
  5  7  1  0  0  0  0
  2  3  1  0  0  0  0
  2  4  1  0  0  0  0
  2  5  1  0  0  0  0
  1  2  1  0  0  0  0
 20 21  2  0  0  0  0
 20 22  1  0  0  0  0
 17 18  1  0  0  0  0
 17 19  2  0  0  0  0
 14 15  1  0  0  0  0
 14 16  1  0  0  0  0
 14 17  1  0  0  0  0
 11 12  1  0  0  0  0
 11 13  1  0  0  0  0
 11 14  1  0  0  0  0
  9 10  1  0  0  0  0
  9 11  1  0  0  0  0
  9 20  1  0  0  0  0
  7  8  1  0  0  0  0
  7  9  1  0  0  0  0
 24 25  1  0  0  0  0
 24 26  1  0  0  0  0
 24 27  1  0  0  0  0
 22 23  1  0  0  0  0
 22 24  1  0  0  0  0
M  CHG  1  18  -1
M  END
$$$$
default_name
  -OEChem-02102213163D

 27 26  0     1  0  0  0  0  0999 V2000
   -3.2406   -3.5400    1.2326 H   0  0  0  0  0  0  0  0  0  0  0  0
   -3.1436   -2.6190    0.6606 C   0  0  0  0  0  0  0  0  0  0  0  0
   -3.8786   -1.8920    0.9996 H   0  0  0  0  0  0  0  0  0  0  0  0
   -3.2846   -2.8280   -0.3984 H   0  0  0  0  0  0  0  0  0  0  0  0
   -1.7586   -2.0580    0.8686 C   0  0  0  0  0  0  0  0  0  0  0  0
   -0.9666   -2.6340    1.6026 O   0  0  0  0  0  0  0  0  0  0  0  0
   -1.4866   -0.9220    0.2366 N   0  0  0  0  0  0  0  0  0  0  0  0
   -2.2166   -0.4790   -0.2994 H   0  0  0  0  0  0  0  0  0  0  0  0
   -0.1956   -0.2250    0.2596 C   0  0  1  0  0  0  0  0  0  0  0  0
    0.3927   -0.6026    1.0964 H   0  0  0  0  0  0  0  0  0  0  0  0
    0.5767   -0.5489   -1.0351 C   0  0  0  0  0  0  0  0  0  0  0  0
    0.0953   -1.4062   -1.5082 H   0  0  0  0  0  0  0  0  0  0  0  0
    0.5118    0.3016   -1.7154 H   0  0  0  0  0  0  0  0  0  0  0  0
    2.0568   -0.8916   -0.7957 C   0  0  0  0  0  0  0  0  0  0  0  0
    2.5974   -0.8221   -1.7427 H   0  0  0  0  0  0  0  0  0  0  0  0
    2.4752   -0.1470   -0.1133 H   0  0  0  0  0  0  0  0  0  0  0  0
    2.2710   -2.2942   -0.2078 C   0  0  0  0  0  0  0  0  0  0  0  0
    1.2649   -2.9529    0.1393 O   0  5  0  0  0  0  0  0  0  0  0  0
    3.4529   -2.6985   -0.1375 O   0  0  0  0  0  0  0  0  0  0  0  0
   -0.3954    1.2887    0.4814 C   0  0  0  0  0  0  0  0  0  0  0  0
   -1.2761    1.9015   -0.1256 O   0  0  0  0  0  0  0  0  0  0  0  0
    0.4051    1.8919    1.3699 N   0  0  0  0  0  0  0  0  0  0  0  0
    1.1380    1.3380    1.7875 H   0  0  0  0  0  0  0  0  0  0  0  0
    0.3573    3.3183    1.6807 C   0  0  0  0  0  0  0  0  0  0  0  0
   -0.6670    3.6090    1.9198 H   0  0  0  0  0  0  0  0  0  0  0  0
    1.0066    3.5397    2.5289 H   0  0  0  0  0  0  0  0  0  0  0  0
    0.6896    3.8897    0.8118 H   0  0  0  0  0  0  0  0  0  0  0  0
  5  6  2  0  0  0  0
  5  7  1  0  0  0  0
  2  3  1  0  0  0  0
  2  4  1  0  0  0  0
  2  5  1  0  0  0  0
  1  2  1  0  0  0  0
 20 21  2  0  0  0  0
 20 22  1  0  0  0  0
 17 18  1  0  0  0  0
 17 19  2  0  0  0  0
 14 15  1  0  0  0  0
 14 16  1  0  0  0  0
 14 17  1  0  0  0  0
 11 12  1  0  0  0  0
 11 13  1  0  0  0  0
 11 14  1  0  0  0  0
  9 10  1  0  0  0  0
  9 11  1  0  0  0  0
  9 20  1  0  0  0  0
  7  8  1  0  0  0  0
  7  9  1  0  0  0  0
 24 25  1  0  0  0  0
 24 26  1  0  0  0  0
 24 27  1  0  0  0  0
 22 23  1  0  0  0  0
 22 24  1  0  0  0  0
M  CHG  1  18  -1
M  END
$$$$
default_name
  -OEChem-02102213163D

 27 26  0     1  0  0  0  0  0999 V2000
   -3.2406   -3.5400    1.2326 H   0  0  0  0  0  0  0  0  0  0  0  0
   -3.1436   -2.6190    0.6606 C   0  0  0  0  0  0  0  0  0  0  0  0
   -3.8786   -1.8920    0.9996 H   0  0  0  0  0  0  0  0  0  0  0  0
   -3.2846   -2.8280   -0.3984 H   0  0  0  0  0  0  0  0  0  0  0  0
   -1.7586   -2.0580    0.8686 C   0  0  0  0  0  0  0  0  0  0  0  0
   -0.9666   -2.6340    1.6026 O   0  0  0  0  0  0  0  0  0  0  0  0
   -1.4866   -0.9220    0.2366 N   0  0  0  0  0  0  0  0  0  0  0  0
   -2.2166   -0.4790   -0.2994 H   0  0  0  0  0  0  0  0  0  0  0  0
   -0.1956   -0.2250    0.2596 C   0  0  1  0  0  0  0  0  0  0  0  0
    0.3927   -0.6026    1.0964 H   0  0  0  0  0  0  0  0  0  0  0  0
    0.5767   -0.5489   -1.0351 C   0  0  0  0  0  0  0  0  0  0  0  0
    0.0953   -1.4062   -1.5082 H   0  0  0  0  0  0  0  0  0  0  0  0
    0.5118    0.3016   -1.7154 H   0  0  0  0  0  0  0  0  0  0  0  0
    2.0568   -0.8916   -0.7957 C   0  0  0  0  0  0  0  0  0  0  0  0
    2.6425   -0.5695   -1.6601 H   0  0  0  0  0  0  0  0  0  0  0  0
    2.4029   -0.3281    0.0748 H   0  0  0  0  0  0  0  0  0  0  0  0
    2.3064   -2.3889   -0.5616 C   0  0  0  0  0  0  0  0  0  0  0  0
    1.3159   -3.1462   -0.4525 O   0  5  0  0  0  0  0  0  0  0  0  0
    3.5008   -2.7587   -0.5197 O   0  0  0  0  0  0  0  0  0  0  0  0
   -0.3954    1.2887    0.4814 C   0  0  0  0  0  0  0  0  0  0  0  0
   -1.2761    1.9015   -0.1256 O   0  0  0  0  0  0  0  0  0  0  0  0
    0.4051    1.8919    1.3699 N   0  0  0  0  0  0  0  0  0  0  0  0
    1.1380    1.3380    1.7875 H   0  0  0  0  0  0  0  0  0  0  0  0
    0.3573    3.3183    1.6807 C   0  0  0  0  0  0  0  0  0  0  0  0
   -0.6670    3.6090    1.9198 H   0  0  0  0  0  0  0  0  0  0  0  0
    1.0066    3.5397    2.5289 H   0  0  0  0  0  0  0  0  0  0  0  0
    0.6896    3.8897    0.8118 H   0  0  0  0  0  0  0  0  0  0  0  0
  5  6  2  0  0  0  0
  5  7  1  0  0  0  0
  2  3  1  0  0  0  0
  2  4  1  0  0  0  0
  2  5  1  0  0  0  0
  1  2  1  0  0  0  0
 20 21  2  0  0  0  0
 20 22  1  0  0  0  0
 17 18  1  0  0  0  0
 17 19  2  0  0  0  0
 14 15  1  0  0  0  0
 14 16  1  0  0  0  0
 14 17  1  0  0  0  0
 11 12  1  0  0  0  0
 11 13  1  0  0  0  0
 11 14  1  0  0  0  0
  9 10  1  0  0  0  0
  9 11  1  0  0  0  0
  9 20  1  0  0  0  0
  7  8  1  0  0  0  0
  7  9  1  0  0  0  0
 24 25  1  0  0  0  0
 24 26  1  0  0  0  0
 24 27  1  0  0  0  0
 22 23  1  0  0  0  0
 22 24  1  0  0  0  0
M  CHG  1  18  -1
M  END
$$$$
default_name
  -OEChem-02102213163D

 27 26  0     1  0  0  0  0  0999 V2000
   -3.2406   -3.5400    1.2326 H   0  0  0  0  0  0  0  0  0  0  0  0
   -3.1436   -2.6190    0.6606 C   0  0  0  0  0  0  0  0  0  0  0  0
   -3.8786   -1.8920    0.9996 H   0  0  0  0  0  0  0  0  0  0  0  0
   -3.2846   -2.8280   -0.3984 H   0  0  0  0  0  0  0  0  0  0  0  0
   -1.7586   -2.0580    0.8686 C   0  0  0  0  0  0  0  0  0  0  0  0
   -0.9666   -2.6340    1.6026 O   0  0  0  0  0  0  0  0  0  0  0  0
   -1.4866   -0.9220    0.2366 N   0  0  0  0  0  0  0  0  0  0  0  0
   -2.2166   -0.4790   -0.2994 H   0  0  0  0  0  0  0  0  0  0  0  0
   -0.1956   -0.2250    0.2596 C   0  0  1  0  0  0  0  0  0  0  0  0
    0.3927   -0.6026    1.0964 H   0  0  0  0  0  0  0  0  0  0  0  0
    0.5767   -0.5489   -1.0351 C   0  0  0  0  0  0  0  0  0  0  0  0
    0.0953   -1.4062   -1.5082 H   0  0  0  0  0  0  0  0  0  0  0  0
    0.5118    0.3016   -1.7154 H   0  0  0  0  0  0  0  0  0  0  0  0
    2.0568   -0.8916   -0.7957 C   0  0  0  0  0  0  0  0  0  0  0  0
    2.6711   -0.3443   -1.5147 H   0  0  0  0  0  0  0  0  0  0  0  0
    2.3294   -0.5527    0.2073 H   0  0  0  0  0  0  0  0  0  0  0  0
    2.3647   -2.3907   -0.9249 C   0  0  0  0  0  0  0  0  0  0  0  0
    1.4071   -3.1835   -1.0693 O   0  5  0  0  0  0  0  0  0  0  0  0
    3.5716   -2.7196   -0.9011 O   0  0  0  0  0  0  0  0  0  0  0  0
   -0.3954    1.2887    0.4814 C   0  0  0  0  0  0  0  0  0  0  0  0
   -1.2761    1.9015   -0.1256 O   0  0  0  0  0  0  0  0  0  0  0  0
    0.4051    1.8919    1.3699 N   0  0  0  0  0  0  0  0  0  0  0  0
    1.1380    1.3380    1.7875 H   0  0  0  0  0  0  0  0  0  0  0  0
    0.3573    3.3183    1.6807 C   0  0  0  0  0  0  0  0  0  0  0  0
   -0.6670    3.6090    1.9198 H   0  0  0  0  0  0  0  0  0  0  0  0
    1.0066    3.5397    2.5289 H   0  0  0  0  0  0  0  0  0  0  0  0
    0.6896    3.8897    0.8118 H   0  0  0  0  0  0  0  0  0  0  0  0
  5  6  2  0  0  0  0
  5  7  1  0  0  0  0
  2  3  1  0  0  0  0
  2  4  1  0  0  0  0
  2  5  1  0  0  0  0
  1  2  1  0  0  0  0
 20 21  2  0  0  0  0
 20 22  1  0  0  0  0
 17 18  1  0  0  0  0
 17 19  2  0  0  0  0
 14 15  1  0  0  0  0
 14 16  1  0  0  0  0
 14 17  1  0  0  0  0
 11 12  1  0  0  0  0
 11 13  1  0  0  0  0
 11 14  1  0  0  0  0
  9 10  1  0  0  0  0
  9 11  1  0  0  0  0
  9 20  1  0  0  0  0
  7  8  1  0  0  0  0
  7  9  1  0  0  0  0
 24 25  1  0  0  0  0
 24 26  1  0  0  0  0
 24 27  1  0  0  0  0
 22 23  1  0  0  0  0
 22 24  1  0  0  0  0
M  CHG  1  18  -1
M  END
$$$$
default_name
  -OEChem-02102213163D

 27 26  0     1  0  0  0  0  0999 V2000
   -3.2406   -3.5400    1.2326 H   0  0  0  0  0  0  0  0  0  0  0  0
   -3.1436   -2.6190    0.6606 C   0  0  0  0  0  0  0  0  0  0  0  0
   -3.8786   -1.8920    0.9996 H   0  0  0  0  0  0  0  0  0  0  0  0
   -3.2846   -2.8280   -0.3984 H   0  0  0  0  0  0  0  0  0  0  0  0
   -1.7586   -2.0580    0.8686 C   0  0  0  0  0  0  0  0  0  0  0  0
   -0.9666   -2.6340    1.6026 O   0  0  0  0  0  0  0  0  0  0  0  0
   -1.4866   -0.9220    0.2366 N   0  0  0  0  0  0  0  0  0  0  0  0
   -2.2166   -0.4790   -0.2994 H   0  0  0  0  0  0  0  0  0  0  0  0
   -0.1956   -0.2250    0.2596 C   0  0  1  0  0  0  0  0  0  0  0  0
    0.3927   -0.6026    1.0964 H   0  0  0  0  0  0  0  0  0  0  0  0
    0.5767   -0.5489   -1.0351 C   0  0  0  0  0  0  0  0  0  0  0  0
    0.0953   -1.4062   -1.5082 H   0  0  0  0  0  0  0  0  0  0  0  0
    0.5118    0.3016   -1.7154 H   0  0  0  0  0  0  0  0  0  0  0  0
    2.0568   -0.8916   -0.7957 C   0  0  0  0  0  0  0  0  0  0  0  0
    2.6813   -0.1618   -1.3166 H   0  0  0  0  0  0  0  0  0  0  0  0
    2.2599   -0.8057    0.2751 H   0  0  0  0  0  0  0  0  0  0  0  0
    2.4421   -2.2997   -1.2729 C   0  0  0  0  0  0  0  0  0  0  0  0
    1.5322   -3.0623   -1.6692 O   0  5  0  0  0  0  0  0  0  0  0  0
    3.6603   -2.5841   -1.2556 O   0  0  0  0  0  0  0  0  0  0  0  0
   -0.3954    1.2887    0.4814 C   0  0  0  0  0  0  0  0  0  0  0  0
   -1.2761    1.9015   -0.1256 O   0  0  0  0  0  0  0  0  0  0  0  0
    0.4051    1.8919    1.3699 N   0  0  0  0  0  0  0  0  0  0  0  0
    1.1380    1.3380    1.7875 H   0  0  0  0  0  0  0  0  0  0  0  0
    0.3573    3.3183    1.6807 C   0  0  0  0  0  0  0  0  0  0  0  0
   -0.6670    3.6090    1.9198 H   0  0  0  0  0  0  0  0  0  0  0  0
    1.0066    3.5397    2.5289 H   0  0  0  0  0  0  0  0  0  0  0  0
    0.6896    3.8897    0.8118 H   0  0  0  0  0  0  0  0  0  0  0  0
  5  6  2  0  0  0  0
  5  7  1  0  0  0  0
  2  3  1  0  0  0  0
  2  4  1  0  0  0  0
  2  5  1  0  0  0  0
  1  2  1  0  0  0  0
 20 21  2  0  0  0  0
 20 22  1  0  0  0  0
 17 18  1  0  0  0  0
 17 19  2  0  0  0  0
 14 15  1  0  0  0  0
 14 16  1  0  0  0  0
 14 17  1  0  0  0  0
 11 12  1  0  0  0  0
 11 13  1  0  0  0  0
 11 14  1  0  0  0  0
  9 10  1  0  0  0  0
  9 11  1  0  0  0  0
  9 20  1  0  0  0  0
  7  8  1  0  0  0  0
  7  9  1  0  0  0  0
 24 25  1  0  0  0  0
 24 26  1  0  0  0  0
 24 27  1  0  0  0  0
 22 23  1  0  0  0  0
 22 24  1  0  0  0  0
M  CHG  1  18  -1
M  END
$$$$
default_name
  -OEChem-02102213163D

 27 26  0     1  0  0  0  0  0999 V2000
   -3.2406   -3.5400    1.2326 H   0  0  0  0  0  0  0  0  0  0  0  0
   -3.1436   -2.6190    0.6606 C   0  0  0  0  0  0  0  0  0  0  0  0
   -3.8786   -1.8920    0.9996 H   0  0  0  0  0  0  0  0  0  0  0  0
   -3.2846   -2.8280   -0.3984 H   0  0  0  0  0  0  0  0  0  0  0  0
   -1.7586   -2.0580    0.8686 C   0  0  0  0  0  0  0  0  0  0  0  0
   -0.9666   -2.6340    1.6026 O   0  0  0  0  0  0  0  0  0  0  0  0
   -1.4866   -0.9220    0.2366 N   0  0  0  0  0  0  0  0  0  0  0  0
   -2.2166   -0.4790   -0.2994 H   0  0  0  0  0  0  0  0  0  0  0  0
   -0.1956   -0.2250    0.2596 C   0  0  1  0  0  0  0  0  0  0  0  0
    0.3927   -0.6026    1.0964 H   0  0  0  0  0  0  0  0  0  0  0  0
    0.5767   -0.5489   -1.0351 C   0  0  0  0  0  0  0  0  0  0  0  0
    0.0953   -1.4062   -1.5082 H   0  0  0  0  0  0  0  0  0  0  0  0
    0.5118    0.3016   -1.7154 H   0  0  0  0  0  0  0  0  0  0  0  0
    2.0568   -0.8916   -0.7957 C   0  0  0  0  0  0  0  0  0  0  0  0
    2.6724   -0.0345   -1.0792 H   0  0  0  0  0  0  0  0  0  0  0  0
    2.1990   -1.0698    0.2735 H   0  0  0  0  0  0  0  0  0  0  0  0
    2.5332   -2.1219   -1.5819 C   0  0  0  0  0  0  0  0  0  0  0  0
    1.6828   -2.7907   -2.2112 O   0  5  0  0  0  0  0  0  0  0  0  0
    3.7610   -2.3613   -1.5592 O   0  0  0  0  0  0  0  0  0  0  0  0
   -0.3954    1.2887    0.4814 C   0  0  0  0  0  0  0  0  0  0  0  0
   -1.2761    1.9015   -0.1256 O   0  0  0  0  0  0  0  0  0  0  0  0
    0.4051    1.8919    1.3699 N   0  0  0  0  0  0  0  0  0  0  0  0
    1.1380    1.3380    1.7875 H   0  0  0  0  0  0  0  0  0  0  0  0
    0.3573    3.3183    1.6807 C   0  0  0  0  0  0  0  0  0  0  0  0
   -0.6670    3.6090    1.9198 H   0  0  0  0  0  0  0  0  0  0  0  0
    1.0066    3.5397    2.5289 H   0  0  0  0  0  0  0  0  0  0  0  0
    0.6896    3.8897    0.8118 H   0  0  0  0  0  0  0  0  0  0  0  0
  5  6  2  0  0  0  0
  5  7  1  0  0  0  0
  2  3  1  0  0  0  0
  2  4  1  0  0  0  0
  2  5  1  0  0  0  0
  1  2  1  0  0  0  0
 20 21  2  0  0  0  0
 20 22  1  0  0  0  0
 17 18  1  0  0  0  0
 17 19  2  0  0  0  0
 14 15  1  0  0  0  0
 14 16  1  0  0  0  0
 14 17  1  0  0  0  0
 11 12  1  0  0  0  0
 11 13  1  0  0  0  0
 11 14  1  0  0  0  0
  9 10  1  0  0  0  0
  9 11  1  0  0  0  0
  9 20  1  0  0  0  0
  7  8  1  0  0  0  0
  7  9  1  0  0  0  0
 24 25  1  0  0  0  0
 24 26  1  0  0  0  0
 24 27  1  0  0  0  0
 22 23  1  0  0  0  0
 22 24  1  0  0  0  0
M  CHG  1  18  -1
M  END
$$$$
default_name
  -OEChem-02102213163D

 27 26  0     1  0  0  0  0  0999 V2000
   -3.2406   -3.5400    1.2326 H   0  0  0  0  0  0  0  0  0  0  0  0
   -3.1436   -2.6190    0.6606 C   0  0  0  0  0  0  0  0  0  0  0  0
   -3.8786   -1.8920    0.9996 H   0  0  0  0  0  0  0  0  0  0  0  0
   -3.2846   -2.8280   -0.3984 H   0  0  0  0  0  0  0  0  0  0  0  0
   -1.7586   -2.0580    0.8686 C   0  0  0  0  0  0  0  0  0  0  0  0
   -0.9666   -2.6340    1.6026 O   0  0  0  0  0  0  0  0  0  0  0  0
   -1.4866   -0.9220    0.2366 N   0  0  0  0  0  0  0  0  0  0  0  0
   -2.2166   -0.4790   -0.2994 H   0  0  0  0  0  0  0  0  0  0  0  0
   -0.1956   -0.2250    0.2596 C   0  0  1  0  0  0  0  0  0  0  0  0
    0.3927   -0.6026    1.0964 H   0  0  0  0  0  0  0  0  0  0  0  0
    0.5767   -0.5489   -1.0351 C   0  0  0  0  0  0  0  0  0  0  0  0
    0.0953   -1.4062   -1.5082 H   0  0  0  0  0  0  0  0  0  0  0  0
    0.5118    0.3016   -1.7154 H   0  0  0  0  0  0  0  0  0  0  0  0
    2.0568   -0.8916   -0.7957 C   0  0  0  0  0  0  0  0  0  0  0  0
    2.6449    0.0290   -0.8186 H   0  0  0  0  0  0  0  0  0  0  0  0
    2.1509   -1.3269    0.2027 H   0  0  0  0  0  0  0  0  0  0  0  0
    2.6319   -1.8696   -1.8308 C   0  0  0  0  0  0  0  0  0  0  0  0
    1.8485   -2.3873   -2.6584 O   0  5  0  0  0  0  0  0  0  0  0  0
    3.8669   -2.0664   -1.7912 O   0  0  0  0  0  0  0  0  0  0  0  0
   -0.3954    1.2887    0.4814 C   0  0  0  0  0  0  0  0  0  0  0  0
   -1.2761    1.9015   -0.1256 O   0  0  0  0  0  0  0  0  0  0  0  0
    0.4051    1.8919    1.3699 N   0  0  0  0  0  0  0  0  0  0  0  0
    1.1380    1.3380    1.7875 H   0  0  0  0  0  0  0  0  0  0  0  0
    0.3573    3.3183    1.6807 C   0  0  0  0  0  0  0  0  0  0  0  0
   -0.6670    3.6090    1.9198 H   0  0  0  0  0  0  0  0  0  0  0  0
    1.0066    3.5397    2.5289 H   0  0  0  0  0  0  0  0  0  0  0  0
    0.6896    3.8897    0.8118 H   0  0  0  0  0  0  0  0  0  0  0  0
  5  6  2  0  0  0  0
  5  7  1  0  0  0  0
  2  3  1  0  0  0  0
  2  4  1  0  0  0  0
  2  5  1  0  0  0  0
  1  2  1  0  0  0  0
 20 21  2  0  0  0  0
 20 22  1  0  0  0  0
 17 18  1  0  0  0  0
 17 19  2  0  0  0  0
 14 15  1  0  0  0  0
 14 16  1  0  0  0  0
 14 17  1  0  0  0  0
 11 12  1  0  0  0  0
 11 13  1  0  0  0  0
 11 14  1  0  0  0  0
  9 10  1  0  0  0  0
  9 11  1  0  0  0  0
  9 20  1  0  0  0  0
  7  8  1  0  0  0  0
  7  9  1  0  0  0  0
 24 25  1  0  0  0  0
 24 26  1  0  0  0  0
 24 27  1  0  0  0  0
 22 23  1  0  0  0  0
 22 24  1  0  0  0  0
M  CHG  1  18  -1
M  END
$$$$
default_name
  -OEChem-02102213163D

 27 26  0     1  0  0  0  0  0999 V2000
   -3.2406   -3.5400    1.2326 H   0  0  0  0  0  0  0  0  0  0  0  0
   -3.1436   -2.6190    0.6606 C   0  0  0  0  0  0  0  0  0  0  0  0
   -3.8786   -1.8920    0.9996 H   0  0  0  0  0  0  0  0  0  0  0  0
   -3.2846   -2.8280   -0.3984 H   0  0  0  0  0  0  0  0  0  0  0  0
   -1.7586   -2.0580    0.8686 C   0  0  0  0  0  0  0  0  0  0  0  0
   -0.9666   -2.6340    1.6026 O   0  0  0  0  0  0  0  0  0  0  0  0
   -1.4866   -0.9220    0.2366 N   0  0  0  0  0  0  0  0  0  0  0  0
   -2.2166   -0.4790   -0.2994 H   0  0  0  0  0  0  0  0  0  0  0  0
   -0.1956   -0.2250    0.2596 C   0  0  1  0  0  0  0  0  0  0  0  0
    0.3927   -0.6026    1.0964 H   0  0  0  0  0  0  0  0  0  0  0  0
    0.5767   -0.5489   -1.0351 C   0  0  0  0  0  0  0  0  0  0  0  0
    0.0953   -1.4062   -1.5082 H   0  0  0  0  0  0  0  0  0  0  0  0
    0.5118    0.3016   -1.7154 H   0  0  0  0  0  0  0  0  0  0  0  0
    2.0568   -0.8916   -0.7957 C   0  0  0  0  0  0  0  0  0  0  0  0
    2.6008    0.0244   -0.5527 H   0  0  0  0  0  0  0  0  0  0  0  0
    2.1189   -1.5595    0.0675 H   0  0  0  0  0  0  0  0  0  0  0  0
    2.7315   -1.5599   -2.0028 C   0  0  0  0  0  0  0  0  0  0  0  0
    2.0182   -1.8796   -2.9803 O   0  5  0  0  0  0  0  0  0  0  0  0
    3.9706   -1.7195   -1.9357 O   0  0  0  0  0  0  0  0  0  0  0  0
   -0.3954    1.2887    0.4814 C   0  0  0  0  0  0  0  0  0  0  0  0
   -1.2761    1.9015   -0.1256 O   0  0  0  0  0  0  0  0  0  0  0  0
    0.4051    1.8919    1.3699 N   0  0  0  0  0  0  0  0  0  0  0  0
    1.1380    1.3380    1.7875 H   0  0  0  0  0  0  0  0  0  0  0  0
    0.3573    3.3183    1.6807 C   0  0  0  0  0  0  0  0  0  0  0  0
   -0.6670    3.6090    1.9198 H   0  0  0  0  0  0  0  0  0  0  0  0
    1.0066    3.5397    2.5289 H   0  0  0  0  0  0  0  0  0  0  0  0
    0.6896    3.8897    0.8118 H   0  0  0  0  0  0  0  0  0  0  0  0
  5  6  2  0  0  0  0
  5  7  1  0  0  0  0
  2  3  1  0  0  0  0
  2  4  1  0  0  0  0
  2  5  1  0  0  0  0
  1  2  1  0  0  0  0
 20 21  2  0  0  0  0
 20 22  1  0  0  0  0
 17 18  1  0  0  0  0
 17 19  2  0  0  0  0
 14 15  1  0  0  0  0
 14 16  1  0  0  0  0
 14 17  1  0  0  0  0
 11 12  1  0  0  0  0
 11 13  1  0  0  0  0
 11 14  1  0  0  0  0
  9 10  1  0  0  0  0
  9 11  1  0  0  0  0
  9 20  1  0  0  0  0
  7  8  1  0  0  0  0
  7  9  1  0  0  0  0
 24 25  1  0  0  0  0
 24 26  1  0  0  0  0
 24 27  1  0  0  0  0
 22 23  1  0  0  0  0
 22 24  1  0  0  0  0
M  CHG  1  18  -1
M  END
$$$$
default_name
  -OEChem-02102213163D

 27 26  0     1  0  0  0  0  0999 V2000
   -3.2406   -3.5400    1.2326 H   0  0  0  0  0  0  0  0  0  0  0  0
   -3.1436   -2.6190    0.6606 C   0  0  0  0  0  0  0  0  0  0  0  0
   -3.8786   -1.8920    0.9996 H   0  0  0  0  0  0  0  0  0  0  0  0
   -3.2846   -2.8280   -0.3984 H   0  0  0  0  0  0  0  0  0  0  0  0
   -1.7586   -2.0580    0.8686 C   0  0  0  0  0  0  0  0  0  0  0  0
   -0.9666   -2.6340    1.6026 O   0  0  0  0  0  0  0  0  0  0  0  0
   -1.4866   -0.9220    0.2366 N   0  0  0  0  0  0  0  0  0  0  0  0
   -2.2166   -0.4790   -0.2994 H   0  0  0  0  0  0  0  0  0  0  0  0
   -0.1956   -0.2250    0.2596 C   0  0  1  0  0  0  0  0  0  0  0  0
    0.3927   -0.6026    1.0964 H   0  0  0  0  0  0  0  0  0  0  0  0
    0.5767   -0.5489   -1.0351 C   0  0  0  0  0  0  0  0  0  0  0  0
   -0.0431   -1.2135   -1.6390 H   0  0  0  0  0  0  0  0  0  0  0  0
    0.7420    0.3723   -1.5958 H   0  0  0  0  0  0  0  0  0  0  0  0
    1.9293   -1.2370   -0.7853 C   0  0  0  0  0  0  0  0  0  0  0  0
    2.5494   -0.5898   -0.1604 H   0  0  0  0  0  0  0  0  0  0  0  0
    1.7464   -2.1631   -0.2340 H   0  0  0  0  0  0  0  0  0  0  0  0
    2.6977   -1.5591   -2.0756 C   0  0  0  0  0  0  0  0  0  0  0  0
    2.1238   -1.3698   -3.1717 O   0  5  0  0  0  0  0  0  0  0  0  0
    3.8711   -1.9718   -1.9416 O   0  0  0  0  0  0  0  0  0  0  0  0
   -0.3954    1.2887    0.4814 C   0  0  0  0  0  0  0  0  0  0  0  0
   -1.2761    1.9015   -0.1256 O   0  0  0  0  0  0  0  0  0  0  0  0
    0.4051    1.8919    1.3699 N   0  0  0  0  0  0  0  0  0  0  0  0
    1.1380    1.3380    1.7875 H   0  0  0  0  0  0  0  0  0  0  0  0
    0.3573    3.3183    1.6807 C   0  0  0  0  0  0  0  0  0  0  0  0
   -0.6670    3.6090    1.9198 H   0  0  0  0  0  0  0  0  0  0  0  0
    1.0066    3.5397    2.5289 H   0  0  0  0  0  0  0  0  0  0  0  0
    0.6896    3.8897    0.8118 H   0  0  0  0  0  0  0  0  0  0  0  0
  5  6  2  0  0  0  0
  5  7  1  0  0  0  0
  2  3  1  0  0  0  0
  2  4  1  0  0  0  0
  2  5  1  0  0  0  0
  1  2  1  0  0  0  0
 20 21  2  0  0  0  0
 20 22  1  0  0  0  0
 17 18  1  0  0  0  0
 17 19  2  0  0  0  0
 14 15  1  0  0  0  0
 14 16  1  0  0  0  0
 14 17  1  0  0  0  0
 11 12  1  0  0  0  0
 11 13  1  0  0  0  0
 11 14  1  0  0  0  0
  9 10  1  0  0  0  0
  9 11  1  0  0  0  0
  9 20  1  0  0  0  0
  7  8  1  0  0  0  0
  7  9  1  0  0  0  0
 24 25  1  0  0  0  0
 24 26  1  0  0  0  0
 24 27  1  0  0  0  0
 22 23  1  0  0  0  0
 22 24  1  0  0  0  0
M  CHG  1  18  -1
M  END
$$$$
default_name
  -OEChem-02102213163D

 27 26  0     1  0  0  0  0  0999 V2000
   -3.2406   -3.5400    1.2326 H   0  0  0  0  0  0  0  0  0  0  0  0
   -3.1436   -2.6190    0.6606 C   0  0  0  0  0  0  0  0  0  0  0  0
   -3.8786   -1.8920    0.9996 H   0  0  0  0  0  0  0  0  0  0  0  0
   -3.2846   -2.8280   -0.3984 H   0  0  0  0  0  0  0  0  0  0  0  0
   -1.7586   -2.0580    0.8686 C   0  0  0  0  0  0  0  0  0  0  0  0
   -0.9666   -2.6340    1.6026 O   0  0  0  0  0  0  0  0  0  0  0  0
   -1.4866   -0.9220    0.2366 N   0  0  0  0  0  0  0  0  0  0  0  0
   -2.2166   -0.4790   -0.2994 H   0  0  0  0  0  0  0  0  0  0  0  0
   -0.1956   -0.2250    0.2596 C   0  0  1  0  0  0  0  0  0  0  0  0
    0.3927   -0.6026    1.0964 H   0  0  0  0  0  0  0  0  0  0  0  0
    0.5767   -0.5489   -1.0351 C   0  0  0  0  0  0  0  0  0  0  0  0
   -0.0431   -1.2135   -1.6390 H   0  0  0  0  0  0  0  0  0  0  0  0
    0.7420    0.3723   -1.5958 H   0  0  0  0  0  0  0  0  0  0  0  0
    1.9293   -1.2370   -0.7853 C   0  0  0  0  0  0  0  0  0  0  0  0
    2.4394   -0.7335    0.0394 H   0  0  0  0  0  0  0  0  0  0  0  0
    1.7380   -2.2700   -0.4829 H   0  0  0  0  0  0  0  0  0  0  0  0
    2.8527   -1.2314   -2.0126 C   0  0  0  0  0  0  0  0  0  0  0  0
    2.3944   -0.8115   -3.0989 O   0  5  0  0  0  0  0  0  0  0  0  0
    4.0251   -1.6301   -1.8344 O   0  0  0  0  0  0  0  0  0  0  0  0
   -0.3954    1.2887    0.4814 C   0  0  0  0  0  0  0  0  0  0  0  0
   -1.2761    1.9015   -0.1256 O   0  0  0  0  0  0  0  0  0  0  0  0
    0.4051    1.8919    1.3699 N   0  0  0  0  0  0  0  0  0  0  0  0
    1.1380    1.3380    1.7875 H   0  0  0  0  0  0  0  0  0  0  0  0
    0.3573    3.3183    1.6807 C   0  0  0  0  0  0  0  0  0  0  0  0
   -0.6670    3.6090    1.9198 H   0  0  0  0  0  0  0  0  0  0  0  0
    1.0066    3.5397    2.5289 H   0  0  0  0  0  0  0  0  0  0  0  0
    0.6896    3.8897    0.8118 H   0  0  0  0  0  0  0  0  0  0  0  0
  5  6  2  0  0  0  0
  5  7  1  0  0  0  0
  2  3  1  0  0  0  0
  2  4  1  0  0  0  0
  2  5  1  0  0  0  0
  1  2  1  0  0  0  0
 20 21  2  0  0  0  0
 20 22  1  0  0  0  0
 17 18  1  0  0  0  0
 17 19  2  0  0  0  0
 14 15  1  0  0  0  0
 14 16  1  0  0  0  0
 14 17  1  0  0  0  0
 11 12  1  0  0  0  0
 11 13  1  0  0  0  0
 11 14  1  0  0  0  0
  9 10  1  0  0  0  0
  9 11  1  0  0  0  0
  9 20  1  0  0  0  0
  7  8  1  0  0  0  0
  7  9  1  0  0  0  0
 24 25  1  0  0  0  0
 24 26  1  0  0  0  0
 24 27  1  0  0  0  0
 22 23  1  0  0  0  0
 22 24  1  0  0  0  0
M  CHG  1  18  -1
M  END
$$$$
default_name
  -OEChem-02102213163D

 27 26  0     1  0  0  0  0  0999 V2000
   -3.2406   -3.5400    1.2326 H   0  0  0  0  0  0  0  0  0  0  0  0
   -3.1436   -2.6190    0.6606 C   0  0  0  0  0  0  0  0  0  0  0  0
   -3.8786   -1.8920    0.9996 H   0  0  0  0  0  0  0  0  0  0  0  0
   -3.2846   -2.8280   -0.3984 H   0  0  0  0  0  0  0  0  0  0  0  0
   -1.7586   -2.0580    0.8686 C   0  0  0  0  0  0  0  0  0  0  0  0
   -0.9666   -2.6340    1.6026 O   0  0  0  0  0  0  0  0  0  0  0  0
   -1.4866   -0.9220    0.2366 N   0  0  0  0  0  0  0  0  0  0  0  0
   -2.2166   -0.4790   -0.2994 H   0  0  0  0  0  0  0  0  0  0  0  0
   -0.1956   -0.2250    0.2596 C   0  0  1  0  0  0  0  0  0  0  0  0
    0.3927   -0.6026    1.0964 H   0  0  0  0  0  0  0  0  0  0  0  0
    0.5767   -0.5489   -1.0351 C   0  0  0  0  0  0  0  0  0  0  0  0
   -0.0431   -1.2135   -1.6390 H   0  0  0  0  0  0  0  0  0  0  0  0
    0.7420    0.3723   -1.5958 H   0  0  0  0  0  0  0  0  0  0  0  0
    1.9293   -1.2370   -0.7853 C   0  0  0  0  0  0  0  0  0  0  0  0
    2.3160   -0.9223    0.1870 H   0  0  0  0  0  0  0  0  0  0  0  0
    1.7632   -2.3169   -0.7486 H   0  0  0  0  0  0  0  0  0  0  0  0
    2.9814   -0.9227   -1.8592 C   0  0  0  0  0  0  0  0  0  0  0  0
    2.6239   -0.2774   -2.8703 O   0  5  0  0  0  0  0  0  0  0  0  0
    4.1471   -1.3180   -1.6352 O   0  0  0  0  0  0  0  0  0  0  0  0
   -0.3954    1.2887    0.4814 C   0  0  0  0  0  0  0  0  0  0  0  0
   -1.2761    1.9015   -0.1256 O   0  0  0  0  0  0  0  0  0  0  0  0
    0.4051    1.8919    1.3699 N   0  0  0  0  0  0  0  0  0  0  0  0
    1.1380    1.3380    1.7875 H   0  0  0  0  0  0  0  0  0  0  0  0
    0.3573    3.3183    1.6807 C   0  0  0  0  0  0  0  0  0  0  0  0
   -0.6670    3.6090    1.9198 H   0  0  0  0  0  0  0  0  0  0  0  0
    1.0066    3.5397    2.5289 H   0  0  0  0  0  0  0  0  0  0  0  0
    0.6896    3.8897    0.8118 H   0  0  0  0  0  0  0  0  0  0  0  0
  5  6  2  0  0  0  0
  5  7  1  0  0  0  0
  2  3  1  0  0  0  0
  2  4  1  0  0  0  0
  2  5  1  0  0  0  0
  1  2  1  0  0  0  0
 20 21  2  0  0  0  0
 20 22  1  0  0  0  0
 17 18  1  0  0  0  0
 17 19  2  0  0  0  0
 14 15  1  0  0  0  0
 14 16  1  0  0  0  0
 14 17  1  0  0  0  0
 11 12  1  0  0  0  0
 11 13  1  0  0  0  0
 11 14  1  0  0  0  0
  9 10  1  0  0  0  0
  9 11  1  0  0  0  0
  9 20  1  0  0  0  0
  7  8  1  0  0  0  0
  7  9  1  0  0  0  0
 24 25  1  0  0  0  0
 24 26  1  0  0  0  0
 24 27  1  0  0  0  0
 22 23  1  0  0  0  0
 22 24  1  0  0  0  0
M  CHG  1  18  -1
M  END
$$$$
default_name
  -OEChem-02102213163D

 27 26  0     1  0  0  0  0  0999 V2000
   -3.2406   -3.5400    1.2326 H   0  0  0  0  0  0  0  0  0  0  0  0
   -3.1436   -2.6190    0.6606 C   0  0  0  0  0  0  0  0  0  0  0  0
   -3.8786   -1.8920    0.9996 H   0  0  0  0  0  0  0  0  0  0  0  0
   -3.2846   -2.8280   -0.3984 H   0  0  0  0  0  0  0  0  0  0  0  0
   -1.7586   -2.0580    0.8686 C   0  0  0  0  0  0  0  0  0  0  0  0
   -0.9666   -2.6340    1.6026 O   0  0  0  0  0  0  0  0  0  0  0  0
   -1.4866   -0.9220    0.2366 N   0  0  0  0  0  0  0  0  0  0  0  0
   -2.2166   -0.4790   -0.2994 H   0  0  0  0  0  0  0  0  0  0  0  0
   -0.1956   -0.2250    0.2596 C   0  0  1  0  0  0  0  0  0  0  0  0
    0.3927   -0.6026    1.0964 H   0  0  0  0  0  0  0  0  0  0  0  0
    0.5767   -0.5489   -1.0351 C   0  0  0  0  0  0  0  0  0  0  0  0
   -0.0431   -1.2135   -1.6390 H   0  0  0  0  0  0  0  0  0  0  0  0
    0.7420    0.3723   -1.5958 H   0  0  0  0  0  0  0  0  0  0  0  0
    1.9293   -1.2370   -0.7853 C   0  0  0  0  0  0  0  0  0  0  0  0
    2.1878   -1.1436    0.2722 H   0  0  0  0  0  0  0  0  0  0  0  0
    1.8203   -2.3007   -1.0130 H   0  0  0  0  0  0  0  0  0  0  0  0
    3.0750   -0.6541   -1.6259 C   0  0  0  0  0  0  0  0  0  0  0  0
    2.7966    0.1960   -2.5013 O   0  5  0  0  0  0  0  0  0  0  0  0
    4.2288   -1.0568   -1.3576 O   0  0  0  0  0  0  0  0  0  0  0  0
   -0.3954    1.2887    0.4814 C   0  0  0  0  0  0  0  0  0  0  0  0
   -1.2761    1.9015   -0.1256 O   0  0  0  0  0  0  0  0  0  0  0  0
    0.4051    1.8919    1.3699 N   0  0  0  0  0  0  0  0  0  0  0  0
    1.1380    1.3380    1.7875 H   0  0  0  0  0  0  0  0  0  0  0  0
    0.3573    3.3183    1.6807 C   0  0  0  0  0  0  0  0  0  0  0  0
   -0.6670    3.6090    1.9198 H   0  0  0  0  0  0  0  0  0  0  0  0
    1.0066    3.5397    2.5289 H   0  0  0  0  0  0  0  0  0  0  0  0
    0.6896    3.8897    0.8118 H   0  0  0  0  0  0  0  0  0  0  0  0
  5  6  2  0  0  0  0
  5  7  1  0  0  0  0
  2  3  1  0  0  0  0
  2  4  1  0  0  0  0
  2  5  1  0  0  0  0
  1  2  1  0  0  0  0
 20 21  2  0  0  0  0
 20 22  1  0  0  0  0
 17 18  1  0  0  0  0
 17 19  2  0  0  0  0
 14 15  1  0  0  0  0
 14 16  1  0  0  0  0
 14 17  1  0  0  0  0
 11 12  1  0  0  0  0
 11 13  1  0  0  0  0
 11 14  1  0  0  0  0
  9 10  1  0  0  0  0
  9 11  1  0  0  0  0
  9 20  1  0  0  0  0
  7  8  1  0  0  0  0
  7  9  1  0  0  0  0
 24 25  1  0  0  0  0
 24 26  1  0  0  0  0
 24 27  1  0  0  0  0
 22 23  1  0  0  0  0
 22 24  1  0  0  0  0
M  CHG  1  18  -1
M  END
$$$$
default_name
  -OEChem-02102213163D

 27 26  0     1  0  0  0  0  0999 V2000
   -3.2406   -3.5400    1.2326 H   0  0  0  0  0  0  0  0  0  0  0  0
   -3.1436   -2.6190    0.6606 C   0  0  0  0  0  0  0  0  0  0  0  0
   -3.8786   -1.8920    0.9996 H   0  0  0  0  0  0  0  0  0  0  0  0
   -3.2846   -2.8280   -0.3984 H   0  0  0  0  0  0  0  0  0  0  0  0
   -1.7586   -2.0580    0.8686 C   0  0  0  0  0  0  0  0  0  0  0  0
   -0.9666   -2.6340    1.6026 O   0  0  0  0  0  0  0  0  0  0  0  0
   -1.4866   -0.9220    0.2366 N   0  0  0  0  0  0  0  0  0  0  0  0
   -2.2166   -0.4790   -0.2994 H   0  0  0  0  0  0  0  0  0  0  0  0
   -0.1956   -0.2250    0.2596 C   0  0  1  0  0  0  0  0  0  0  0  0
    0.3927   -0.6026    1.0964 H   0  0  0  0  0  0  0  0  0  0  0  0
    0.5767   -0.5489   -1.0351 C   0  0  0  0  0  0  0  0  0  0  0  0
   -0.0431   -1.2135   -1.6390 H   0  0  0  0  0  0  0  0  0  0  0  0
    0.7420    0.3723   -1.5958 H   0  0  0  0  0  0  0  0  0  0  0  0
    1.9293   -1.2370   -0.7853 C   0  0  0  0  0  0  0  0  0  0  0  0
    2.0633   -1.3820    0.2894 H   0  0  0  0  0  0  0  0  0  0  0  0
    1.9054   -2.2224   -1.2581 H   0  0  0  0  0  0  0  0  0  0  0  0
    3.1271   -0.4437   -1.3285 C   0  0  0  0  0  0  0  0  0  0  0  0
    2.9008    0.5767   -2.0171 O   0  5  0  0  0  0  0  0  0  0  0  0
    4.2645   -0.8641   -1.0206 O   0  0  0  0  0  0  0  0  0  0  0  0
   -0.3954    1.2887    0.4814 C   0  0  0  0  0  0  0  0  0  0  0  0
   -1.2761    1.9015   -0.1256 O   0  0  0  0  0  0  0  0  0  0  0  0
    0.4051    1.8919    1.3699 N   0  0  0  0  0  0  0  0  0  0  0  0
    1.1380    1.3380    1.7875 H   0  0  0  0  0  0  0  0  0  0  0  0
    0.3573    3.3183    1.6807 C   0  0  0  0  0  0  0  0  0  0  0  0
   -0.6670    3.6090    1.9198 H   0  0  0  0  0  0  0  0  0  0  0  0
    1.0066    3.5397    2.5289 H   0  0  0  0  0  0  0  0  0  0  0  0
    0.6896    3.8897    0.8118 H   0  0  0  0  0  0  0  0  0  0  0  0
  5  6  2  0  0  0  0
  5  7  1  0  0  0  0
  2  3  1  0  0  0  0
  2  4  1  0  0  0  0
  2  5  1  0  0  0  0
  1  2  1  0  0  0  0
 20 21  2  0  0  0  0
 20 22  1  0  0  0  0
 17 18  1  0  0  0  0
 17 19  2  0  0  0  0
 14 15  1  0  0  0  0
 14 16  1  0  0  0  0
 14 17  1  0  0  0  0
 11 12  1  0  0  0  0
 11 13  1  0  0  0  0
 11 14  1  0  0  0  0
  9 10  1  0  0  0  0
  9 11  1  0  0  0  0
  9 20  1  0  0  0  0
  7  8  1  0  0  0  0
  7  9  1  0  0  0  0
 24 25  1  0  0  0  0
 24 26  1  0  0  0  0
 24 27  1  0  0  0  0
 22 23  1  0  0  0  0
 22 24  1  0  0  0  0
M  CHG  1  18  -1
M  END
$$$$
default_name
  -OEChem-02102213163D

 27 26  0     1  0  0  0  0  0999 V2000
   -3.2406   -3.5400    1.2326 H   0  0  0  0  0  0  0  0  0  0  0  0
   -3.1436   -2.6190    0.6606 C   0  0  0  0  0  0  0  0  0  0  0  0
   -3.8786   -1.8920    0.9996 H   0  0  0  0  0  0  0  0  0  0  0  0
   -3.2846   -2.8280   -0.3984 H   0  0  0  0  0  0  0  0  0  0  0  0
   -1.7586   -2.0580    0.8686 C   0  0  0  0  0  0  0  0  0  0  0  0
   -0.9666   -2.6340    1.6026 O   0  0  0  0  0  0  0  0  0  0  0  0
   -1.4866   -0.9220    0.2366 N   0  0  0  0  0  0  0  0  0  0  0  0
   -2.2166   -0.4790   -0.2994 H   0  0  0  0  0  0  0  0  0  0  0  0
   -0.1956   -0.2250    0.2596 C   0  0  1  0  0  0  0  0  0  0  0  0
    0.3927   -0.6026    1.0964 H   0  0  0  0  0  0  0  0  0  0  0  0
    0.5767   -0.5489   -1.0351 C   0  0  0  0  0  0  0  0  0  0  0  0
   -0.0431   -1.2135   -1.6390 H   0  0  0  0  0  0  0  0  0  0  0  0
    0.7420    0.3723   -1.5958 H   0  0  0  0  0  0  0  0  0  0  0  0
    1.9293   -1.2370   -0.7853 C   0  0  0  0  0  0  0  0  0  0  0  0
    1.9511   -1.6215    0.2372 H   0  0  0  0  0  0  0  0  0  0  0  0
    2.0126   -2.0875   -1.4671 H   0  0  0  0  0  0  0  0  0  0  0  0
    3.1341   -0.3061   -0.9874 C   0  0  0  0  0  0  0  0  0  0  0  0
    2.9294    0.8385   -1.4507 O   0  5  0  0  0  0  0  0  0  0  0  0
    4.2519   -0.7533   -0.6471 O   0  0  0  0  0  0  0  0  0  0  0  0
   -0.3954    1.2887    0.4814 C   0  0  0  0  0  0  0  0  0  0  0  0
   -1.2761    1.9015   -0.1256 O   0  0  0  0  0  0  0  0  0  0  0  0
    0.4051    1.8919    1.3699 N   0  0  0  0  0  0  0  0  0  0  0  0
    1.1380    1.3380    1.7875 H   0  0  0  0  0  0  0  0  0  0  0  0
    0.3573    3.3183    1.6807 C   0  0  0  0  0  0  0  0  0  0  0  0
   -0.6670    3.6090    1.9198 H   0  0  0  0  0  0  0  0  0  0  0  0
    1.0066    3.5397    2.5289 H   0  0  0  0  0  0  0  0  0  0  0  0
    0.6896    3.8897    0.8118 H   0  0  0  0  0  0  0  0  0  0  0  0
  5  6  2  0  0  0  0
  5  7  1  0  0  0  0
  2  3  1  0  0  0  0
  2  4  1  0  0  0  0
  2  5  1  0  0  0  0
  1  2  1  0  0  0  0
 20 21  2  0  0  0  0
 20 22  1  0  0  0  0
 17 18  1  0  0  0  0
 17 19  2  0  0  0  0
 14 15  1  0  0  0  0
 14 16  1  0  0  0  0
 14 17  1  0  0  0  0
 11 12  1  0  0  0  0
 11 13  1  0  0  0  0
 11 14  1  0  0  0  0
  9 10  1  0  0  0  0
  9 11  1  0  0  0  0
  9 20  1  0  0  0  0
  7  8  1  0  0  0  0
  7  9  1  0  0  0  0
 24 25  1  0  0  0  0
 24 26  1  0  0  0  0
 24 27  1  0  0  0  0
 22 23  1  0  0  0  0
 22 24  1  0  0  0  0
M  CHG  1  18  -1
M  END
$$$$
default_name
  -OEChem-02102213163D

 27 26  0     1  0  0  0  0  0999 V2000
   -3.2406   -3.5400    1.2326 H   0  0  0  0  0  0  0  0  0  0  0  0
   -3.1436   -2.6190    0.6606 C   0  0  0  0  0  0  0  0  0  0  0  0
   -3.8786   -1.8920    0.9996 H   0  0  0  0  0  0  0  0  0  0  0  0
   -3.2846   -2.8280   -0.3984 H   0  0  0  0  0  0  0  0  0  0  0  0
   -1.7586   -2.0580    0.8686 C   0  0  0  0  0  0  0  0  0  0  0  0
   -0.9666   -2.6340    1.6026 O   0  0  0  0  0  0  0  0  0  0  0  0
   -1.4866   -0.9220    0.2366 N   0  0  0  0  0  0  0  0  0  0  0  0
   -2.2166   -0.4790   -0.2994 H   0  0  0  0  0  0  0  0  0  0  0  0
   -0.1956   -0.2250    0.2596 C   0  0  1  0  0  0  0  0  0  0  0  0
    0.3927   -0.6026    1.0964 H   0  0  0  0  0  0  0  0  0  0  0  0
    0.5767   -0.5489   -1.0351 C   0  0  0  0  0  0  0  0  0  0  0  0
   -0.0431   -1.2135   -1.6390 H   0  0  0  0  0  0  0  0  0  0  0  0
    0.7420    0.3723   -1.5958 H   0  0  0  0  0  0  0  0  0  0  0  0
    1.9293   -1.2370   -0.7853 C   0  0  0  0  0  0  0  0  0  0  0  0
    1.8588   -1.8457    0.1193 H   0  0  0  0  0  0  0  0  0  0  0  0
    2.1348   -1.9050   -1.6259 H   0  0  0  0  0  0  0  0  0  0  0  0
    3.0956   -0.2504   -0.6257 C   0  0  0  0  0  0  0  0  0  0  0  0
    2.8804    0.9636   -0.8406 O   0  5  0  0  0  0  0  0  0  0  0  0
    4.1918   -0.7318   -0.2625 O   0  0  0  0  0  0  0  0  0  0  0  0
   -0.3954    1.2887    0.4814 C   0  0  0  0  0  0  0  0  0  0  0  0
   -1.2761    1.9015   -0.1256 O   0  0  0  0  0  0  0  0  0  0  0  0
    0.4051    1.8919    1.3699 N   0  0  0  0  0  0  0  0  0  0  0  0
    1.1380    1.3380    1.7875 H   0  0  0  0  0  0  0  0  0  0  0  0
    0.3573    3.3183    1.6807 C   0  0  0  0  0  0  0  0  0  0  0  0
   -0.6670    3.6090    1.9198 H   0  0  0  0  0  0  0  0  0  0  0  0
    1.0066    3.5397    2.5289 H   0  0  0  0  0  0  0  0  0  0  0  0
    0.6896    3.8897    0.8118 H   0  0  0  0  0  0  0  0  0  0  0  0
  5  6  2  0  0  0  0
  5  7  1  0  0  0  0
  2  3  1  0  0  0  0
  2  4  1  0  0  0  0
  2  5  1  0  0  0  0
  1  2  1  0  0  0  0
 20 21  2  0  0  0  0
 20 22  1  0  0  0  0
 17 18  1  0  0  0  0
 17 19  2  0  0  0  0
 14 15  1  0  0  0  0
 14 16  1  0  0  0  0
 14 17  1  0  0  0  0
 11 12  1  0  0  0  0
 11 13  1  0  0  0  0
 11 14  1  0  0  0  0
  9 10  1  0  0  0  0
  9 11  1  0  0  0  0
  9 20  1  0  0  0  0
  7  8  1  0  0  0  0
  7  9  1  0  0  0  0
 24 25  1  0  0  0  0
 24 26  1  0  0  0  0
 24 27  1  0  0  0  0
 22 23  1  0  0  0  0
 22 24  1  0  0  0  0
M  CHG  1  18  -1
M  END
$$$$
default_name
  -OEChem-02102213163D

 27 26  0     1  0  0  0  0  0999 V2000
   -3.2406   -3.5400    1.2326 H   0  0  0  0  0  0  0  0  0  0  0  0
   -3.1436   -2.6190    0.6606 C   0  0  0  0  0  0  0  0  0  0  0  0
   -3.8786   -1.8920    0.9996 H   0  0  0  0  0  0  0  0  0  0  0  0
   -3.2846   -2.8280   -0.3984 H   0  0  0  0  0  0  0  0  0  0  0  0
   -1.7586   -2.0580    0.8686 C   0  0  0  0  0  0  0  0  0  0  0  0
   -0.9666   -2.6340    1.6026 O   0  0  0  0  0  0  0  0  0  0  0  0
   -1.4866   -0.9220    0.2366 N   0  0  0  0  0  0  0  0  0  0  0  0
   -2.2166   -0.4790   -0.2994 H   0  0  0  0  0  0  0  0  0  0  0  0
   -0.1956   -0.2250    0.2596 C   0  0  1  0  0  0  0  0  0  0  0  0
    0.3927   -0.6026    1.0964 H   0  0  0  0  0  0  0  0  0  0  0  0
    0.5767   -0.5489   -1.0351 C   0  0  0  0  0  0  0  0  0  0  0  0
   -0.0431   -1.2135   -1.6390 H   0  0  0  0  0  0  0  0  0  0  0  0
    0.7420    0.3723   -1.5958 H   0  0  0  0  0  0  0  0  0  0  0  0
    1.9293   -1.2370   -0.7853 C   0  0  0  0  0  0  0  0  0  0  0  0
    1.7927   -2.0393   -0.0563 H   0  0  0  0  0  0  0  0  0  0  0  0
    2.2635   -1.6875   -1.7237 H   0  0  0  0  0  0  0  0  0  0  0  0
    3.0142   -0.2807   -0.2682 C   0  0  0  0  0  0  0  0  0  0  0  0
    2.7571    0.9436   -0.2286 O   0  5  0  0  0  0  0  0  0  0  0  0
    4.0883   -0.8011    0.1069 O   0  0  0  0  0  0  0  0  0  0  0  0
   -0.3954    1.2887    0.4814 C   0  0  0  0  0  0  0  0  0  0  0  0
   -1.2761    1.9015   -0.1256 O   0  0  0  0  0  0  0  0  0  0  0  0
    0.4051    1.8919    1.3699 N   0  0  0  0  0  0  0  0  0  0  0  0
    1.1380    1.3380    1.7875 H   0  0  0  0  0  0  0  0  0  0  0  0
    0.3573    3.3183    1.6807 C   0  0  0  0  0  0  0  0  0  0  0  0
   -0.6670    3.6090    1.9198 H   0  0  0  0  0  0  0  0  0  0  0  0
    1.0066    3.5397    2.5289 H   0  0  0  0  0  0  0  0  0  0  0  0
    0.6896    3.8897    0.8118 H   0  0  0  0  0  0  0  0  0  0  0  0
  5  6  2  0  0  0  0
  5  7  1  0  0  0  0
  2  3  1  0  0  0  0
  2  4  1  0  0  0  0
  2  5  1  0  0  0  0
  1  2  1  0  0  0  0
 20 21  2  0  0  0  0
 20 22  1  0  0  0  0
 17 18  1  0  0  0  0
 17 19  2  0  0  0  0
 14 15  1  0  0  0  0
 14 16  1  0  0  0  0
 14 17  1  0  0  0  0
 11 12  1  0  0  0  0
 11 13  1  0  0  0  0
 11 14  1  0  0  0  0
  9 10  1  0  0  0  0
  9 11  1  0  0  0  0
  9 20  1  0  0  0  0
  7  8  1  0  0  0  0
  7  9  1  0  0  0  0
 24 25  1  0  0  0  0
 24 26  1  0  0  0  0
 24 27  1  0  0  0  0
 22 23  1  0  0  0  0
 22 24  1  0  0  0  0
M  CHG  1  18  -1
M  END
$$$$
default_name
  -OEChem-02102213163D

 27 26  0     1  0  0  0  0  0999 V2000
   -3.2406   -3.5400    1.2326 H   0  0  0  0  0  0  0  0  0  0  0  0
   -3.1436   -2.6190    0.6606 C   0  0  0  0  0  0  0  0  0  0  0  0
   -3.8786   -1.8920    0.9996 H   0  0  0  0  0  0  0  0  0  0  0  0
   -3.2846   -2.8280   -0.3984 H   0  0  0  0  0  0  0  0  0  0  0  0
   -1.7586   -2.0580    0.8686 C   0  0  0  0  0  0  0  0  0  0  0  0
   -0.9666   -2.6340    1.6026 O   0  0  0  0  0  0  0  0  0  0  0  0
   -1.4866   -0.9220    0.2366 N   0  0  0  0  0  0  0  0  0  0  0  0
   -2.2166   -0.4790   -0.2994 H   0  0  0  0  0  0  0  0  0  0  0  0
   -0.1956   -0.2250    0.2596 C   0  0  1  0  0  0  0  0  0  0  0  0
    0.3927   -0.6026    1.0964 H   0  0  0  0  0  0  0  0  0  0  0  0
    0.5767   -0.5489   -1.0351 C   0  0  0  0  0  0  0  0  0  0  0  0
   -0.0431   -1.2135   -1.6390 H   0  0  0  0  0  0  0  0  0  0  0  0
    0.7420    0.3723   -1.5958 H   0  0  0  0  0  0  0  0  0  0  0  0
    1.9293   -1.2370   -0.7853 C   0  0  0  0  0  0  0  0  0  0  0  0
    1.7574   -2.1891   -0.2776 H   0  0  0  0  0  0  0  0  0  0  0  0
    2.3900   -1.4497   -1.7537 H   0  0  0  0  0  0  0  0  0  0  0  0
    2.8954   -0.3947    0.0609 C   0  0  0  0  0  0  0  0  0  0  0  0
    2.5681    0.7798    0.3438 O   0  5  0  0  0  0  0  0  0  0  0  0
    3.9485   -0.9564    0.4359 O   0  0  0  0  0  0  0  0  0  0  0  0
   -0.3954    1.2887    0.4814 C   0  0  0  0  0  0  0  0  0  0  0  0
   -1.2761    1.9015   -0.1256 O   0  0  0  0  0  0  0  0  0  0  0  0
    0.4051    1.8919    1.3699 N   0  0  0  0  0  0  0  0  0  0  0  0
    1.1380    1.3380    1.7875 H   0  0  0  0  0  0  0  0  0  0  0  0
    0.3573    3.3183    1.6807 C   0  0  0  0  0  0  0  0  0  0  0  0
   -0.6670    3.6090    1.9198 H   0  0  0  0  0  0  0  0  0  0  0  0
    1.0066    3.5397    2.5289 H   0  0  0  0  0  0  0  0  0  0  0  0
    0.6896    3.8897    0.8118 H   0  0  0  0  0  0  0  0  0  0  0  0
  5  6  2  0  0  0  0
  5  7  1  0  0  0  0
  2  3  1  0  0  0  0
  2  4  1  0  0  0  0
  2  5  1  0  0  0  0
  1  2  1  0  0  0  0
 20 21  2  0  0  0  0
 20 22  1  0  0  0  0
 17 18  1  0  0  0  0
 17 19  2  0  0  0  0
 14 15  1  0  0  0  0
 14 16  1  0  0  0  0
 14 17  1  0  0  0  0
 11 12  1  0  0  0  0
 11 13  1  0  0  0  0
 11 14  1  0  0  0  0
  9 10  1  0  0  0  0
  9 11  1  0  0  0  0
  9 20  1  0  0  0  0
  7  8  1  0  0  0  0
  7  9  1  0  0  0  0
 24 25  1  0  0  0  0
 24 26  1  0  0  0  0
 24 27  1  0  0  0  0
 22 23  1  0  0  0  0
 22 24  1  0  0  0  0
M  CHG  1  18  -1
M  END
$$$$
default_name
  -OEChem-02102213163D

 27 26  0     1  0  0  0  0  0999 V2000
   -3.2406   -3.5400    1.2326 H   0  0  0  0  0  0  0  0  0  0  0  0
   -3.1436   -2.6190    0.6606 C   0  0  0  0  0  0  0  0  0  0  0  0
   -3.8786   -1.8920    0.9996 H   0  0  0  0  0  0  0  0  0  0  0  0
   -3.2846   -2.8280   -0.3984 H   0  0  0  0  0  0  0  0  0  0  0  0
   -1.7586   -2.0580    0.8686 C   0  0  0  0  0  0  0  0  0  0  0  0
   -0.9666   -2.6340    1.6026 O   0  0  0  0  0  0  0  0  0  0  0  0
   -1.4866   -0.9220    0.2366 N   0  0  0  0  0  0  0  0  0  0  0  0
   -2.2166   -0.4790   -0.2994 H   0  0  0  0  0  0  0  0  0  0  0  0
   -0.1956   -0.2250    0.2596 C   0  0  1  0  0  0  0  0  0  0  0  0
    0.3927   -0.6026    1.0964 H   0  0  0  0  0  0  0  0  0  0  0  0
    0.5767   -0.5489   -1.0351 C   0  0  0  0  0  0  0  0  0  0  0  0
   -0.0431   -1.2135   -1.6390 H   0  0  0  0  0  0  0  0  0  0  0  0
    0.7420    0.3723   -1.5958 H   0  0  0  0  0  0  0  0  0  0  0  0
    1.9293   -1.2370   -0.7853 C   0  0  0  0  0  0  0  0  0  0  0  0
    1.7552   -2.2849   -0.5295 H   0  0  0  0  0  0  0  0  0  0  0  0
    2.5056   -1.2079   -1.7138 H   0  0  0  0  0  0  0  0  0  0  0  0
    2.7474   -0.5847    0.3390 C   0  0  0  0  0  0  0  0  0  0  0  0
    2.3261    0.4833    0.8374 O   0  5  0  0  0  0  0  0  0  0  0  0
    3.7819   -1.1873    0.7022 O   0  0  0  0  0  0  0  0  0  0  0  0
   -0.3954    1.2887    0.4814 C   0  0  0  0  0  0  0  0  0  0  0  0
   -1.2761    1.9015   -0.1256 O   0  0  0  0  0  0  0  0  0  0  0  0
    0.4051    1.8919    1.3699 N   0  0  0  0  0  0  0  0  0  0  0  0
    1.1380    1.3380    1.7875 H   0  0  0  0  0  0  0  0  0  0  0  0
    0.3573    3.3183    1.6807 C   0  0  0  0  0  0  0  0  0  0  0  0
   -0.6670    3.6090    1.9198 H   0  0  0  0  0  0  0  0  0  0  0  0
    1.0066    3.5397    2.5289 H   0  0  0  0  0  0  0  0  0  0  0  0
    0.6896    3.8897    0.8118 H   0  0  0  0  0  0  0  0  0  0  0  0
  5  6  2  0  0  0  0
  5  7  1  0  0  0  0
  2  3  1  0  0  0  0
  2  4  1  0  0  0  0
  2  5  1  0  0  0  0
  1  2  1  0  0  0  0
 20 21  2  0  0  0  0
 20 22  1  0  0  0  0
 17 18  1  0  0  0  0
 17 19  2  0  0  0  0
 14 15  1  0  0  0  0
 14 16  1  0  0  0  0
 14 17  1  0  0  0  0
 11 12  1  0  0  0  0
 11 13  1  0  0  0  0
 11 14  1  0  0  0  0
  9 10  1  0  0  0  0
  9 11  1  0  0  0  0
  9 20  1  0  0  0  0
  7  8  1  0  0  0  0
  7  9  1  0  0  0  0
 24 25  1  0  0  0  0
 24 26  1  0  0  0  0
 24 27  1  0  0  0  0
 22 23  1  0  0  0  0
 22 24  1  0  0  0  0
M  CHG  1  18  -1
M  END
$$$$
default_name
  -OEChem-02102213163D

 27 26  0     1  0  0  0  0  0999 V2000
   -3.2406   -3.5400    1.2326 H   0  0  0  0  0  0  0  0  0  0  0  0
   -3.1436   -2.6190    0.6606 C   0  0  0  0  0  0  0  0  0  0  0  0
   -3.8786   -1.8920    0.9996 H   0  0  0  0  0  0  0  0  0  0  0  0
   -3.2846   -2.8280   -0.3984 H   0  0  0  0  0  0  0  0  0  0  0  0
   -1.7586   -2.0580    0.8686 C   0  0  0  0  0  0  0  0  0  0  0  0
   -0.9666   -2.6340    1.6026 O   0  0  0  0  0  0  0  0  0  0  0  0
   -1.4866   -0.9220    0.2366 N   0  0  0  0  0  0  0  0  0  0  0  0
   -2.2166   -0.4790   -0.2994 H   0  0  0  0  0  0  0  0  0  0  0  0
   -0.1956   -0.2250    0.2596 C   0  0  1  0  0  0  0  0  0  0  0  0
    0.3927   -0.6026    1.0964 H   0  0  0  0  0  0  0  0  0  0  0  0
    0.5767   -0.5489   -1.0351 C   0  0  0  0  0  0  0  0  0  0  0  0
   -0.0431   -1.2135   -1.6390 H   0  0  0  0  0  0  0  0  0  0  0  0
    0.7420    0.3723   -1.5958 H   0  0  0  0  0  0  0  0  0  0  0  0
    1.9293   -1.2370   -0.7853 C   0  0  0  0  0  0  0  0  0  0  0  0
    1.7863   -2.3202   -0.7949 H   0  0  0  0  0  0  0  0  0  0  0  0
    2.6026   -0.9786   -1.6070 H   0  0  0  0  0  0  0  0  0  0  0  0
    2.5802   -0.8377    0.5473 C   0  0  0  0  0  0  0  0  0  0  0  0
    2.0476    0.0744    1.2188 O   0  5  0  0  0  0  0  0  0  0  0  0
    3.5998   -1.4779    0.8876 O   0  0  0  0  0  0  0  0  0  0  0  0
   -0.3954    1.2887    0.4814 C   0  0  0  0  0  0  0  0  0  0  0  0
   -1.2761    1.9015   -0.1256 O   0  0  0  0  0  0  0  0  0  0  0  0
    0.4051    1.8919    1.3699 N   0  0  0  0  0  0  0  0  0  0  0  0
    1.1380    1.3380    1.7875 H   0  0  0  0  0  0  0  0  0  0  0  0
    0.3573    3.3183    1.6807 C   0  0  0  0  0  0  0  0  0  0  0  0
   -0.6670    3.6090    1.9198 H   0  0  0  0  0  0  0  0  0  0  0  0
    1.0066    3.5397    2.5289 H   0  0  0  0  0  0  0  0  0  0  0  0
    0.6896    3.8897    0.8118 H   0  0  0  0  0  0  0  0  0  0  0  0
  5  6  2  0  0  0  0
  5  7  1  0  0  0  0
  2  3  1  0  0  0  0
  2  4  1  0  0  0  0
  2  5  1  0  0  0  0
  1  2  1  0  0  0  0
 20 21  2  0  0  0  0
 20 22  1  0  0  0  0
 17 18  1  0  0  0  0
 17 19  2  0  0  0  0
 14 15  1  0  0  0  0
 14 16  1  0  0  0  0
 14 17  1  0  0  0  0
 11 12  1  0  0  0  0
 11 13  1  0  0  0  0
 11 14  1  0  0  0  0
  9 10  1  0  0  0  0
  9 11  1  0  0  0  0
  9 20  1  0  0  0  0
  7  8  1  0  0  0  0
  7  9  1  0  0  0  0
 24 25  1  0  0  0  0
 24 26  1  0  0  0  0
 24 27  1  0  0  0  0
 22 23  1  0  0  0  0
 22 24  1  0  0  0  0
M  CHG  1  18  -1
M  END
$$$$
default_name
  -OEChem-02102213163D

 27 26  0     1  0  0  0  0  0999 V2000
   -3.2406   -3.5400    1.2326 H   0  0  0  0  0  0  0  0  0  0  0  0
   -3.1436   -2.6190    0.6606 C   0  0  0  0  0  0  0  0  0  0  0  0
   -3.8786   -1.8920    0.9996 H   0  0  0  0  0  0  0  0  0  0  0  0
   -3.2846   -2.8280   -0.3984 H   0  0  0  0  0  0  0  0  0  0  0  0
   -1.7586   -2.0580    0.8686 C   0  0  0  0  0  0  0  0  0  0  0  0
   -0.9666   -2.6340    1.6026 O   0  0  0  0  0  0  0  0  0  0  0  0
   -1.4866   -0.9220    0.2366 N   0  0  0  0  0  0  0  0  0  0  0  0
   -2.2166   -0.4790   -0.2994 H   0  0  0  0  0  0  0  0  0  0  0  0
   -0.1956   -0.2250    0.2596 C   0  0  1  0  0  0  0  0  0  0  0  0
    0.3927   -0.6026    1.0964 H   0  0  0  0  0  0  0  0  0  0  0  0
    0.5767   -0.5489   -1.0351 C   0  0  0  0  0  0  0  0  0  0  0  0
   -0.0431   -1.2135   -1.6390 H   0  0  0  0  0  0  0  0  0  0  0  0
    0.7420    0.3723   -1.5958 H   0  0  0  0  0  0  0  0  0  0  0  0
    1.9293   -1.2370   -0.7853 C   0  0  0  0  0  0  0  0  0  0  0  0
    1.8485   -2.2926   -1.0558 H   0  0  0  0  0  0  0  0  0  0  0  0
    2.6742   -0.7773   -1.4403 H   0  0  0  0  0  0  0  0  0  0  0  0
    2.4052   -1.1366    0.6715 C   0  0  0  0  0  0  0  0  0  0  0  0
    1.7517   -0.4191    1.4618 O   0  5  0  0  0  0  0  0  0  0  0  0
    3.4147   -1.8084    0.9795 O   0  0  0  0  0  0  0  0  0  0  0  0
   -0.3954    1.2887    0.4814 C   0  0  0  0  0  0  0  0  0  0  0  0
   -1.2761    1.9015   -0.1256 O   0  0  0  0  0  0  0  0  0  0  0  0
    0.4051    1.8919    1.3699 N   0  0  0  0  0  0  0  0  0  0  0  0
    1.1380    1.3380    1.7875 H   0  0  0  0  0  0  0  0  0  0  0  0
    0.3573    3.3183    1.6807 C   0  0  0  0  0  0  0  0  0  0  0  0
   -0.6670    3.6090    1.9198 H   0  0  0  0  0  0  0  0  0  0  0  0
    1.0066    3.5397    2.5289 H   0  0  0  0  0  0  0  0  0  0  0  0
    0.6896    3.8897    0.8118 H   0  0  0  0  0  0  0  0  0  0  0  0
  5  6  2  0  0  0  0
  5  7  1  0  0  0  0
  2  3  1  0  0  0  0
  2  4  1  0  0  0  0
  2  5  1  0  0  0  0
  1  2  1  0  0  0  0
 20 21  2  0  0  0  0
 20 22  1  0  0  0  0
 17 18  1  0  0  0  0
 17 19  2  0  0  0  0
 14 15  1  0  0  0  0
 14 16  1  0  0  0  0
 14 17  1  0  0  0  0
 11 12  1  0  0  0  0
 11 13  1  0  0  0  0
 11 14  1  0  0  0  0
  9 10  1  0  0  0  0
  9 11  1  0  0  0  0
  9 20  1  0  0  0  0
  7  8  1  0  0  0  0
  7  9  1  0  0  0  0
 24 25  1  0  0  0  0
 24 26  1  0  0  0  0
 24 27  1  0  0  0  0
 22 23  1  0  0  0  0
 22 24  1  0  0  0  0
M  CHG  1  18  -1
M  END
$$$$
default_name
  -OEChem-02102213163D

 27 26  0     1  0  0  0  0  0999 V2000
   -3.2406   -3.5400    1.2326 H   0  0  0  0  0  0  0  0  0  0  0  0
   -3.1436   -2.6190    0.6606 C   0  0  0  0  0  0  0  0  0  0  0  0
   -3.8786   -1.8920    0.9996 H   0  0  0  0  0  0  0  0  0  0  0  0
   -3.2846   -2.8280   -0.3984 H   0  0  0  0  0  0  0  0  0  0  0  0
   -1.7586   -2.0580    0.8686 C   0  0  0  0  0  0  0  0  0  0  0  0
   -0.9666   -2.6340    1.6026 O   0  0  0  0  0  0  0  0  0  0  0  0
   -1.4866   -0.9220    0.2366 N   0  0  0  0  0  0  0  0  0  0  0  0
   -2.2166   -0.4790   -0.2994 H   0  0  0  0  0  0  0  0  0  0  0  0
   -0.1956   -0.2250    0.2596 C   0  0  1  0  0  0  0  0  0  0  0  0
    0.3927   -0.6026    1.0964 H   0  0  0  0  0  0  0  0  0  0  0  0
    0.5767   -0.5489   -1.0351 C   0  0  0  0  0  0  0  0  0  0  0  0
   -0.0431   -1.2135   -1.6390 H   0  0  0  0  0  0  0  0  0  0  0  0
    0.7420    0.3723   -1.5958 H   0  0  0  0  0  0  0  0  0  0  0  0
    1.9293   -1.2370   -0.7853 C   0  0  0  0  0  0  0  0  0  0  0  0
    1.9377   -2.2039   -1.2942 H   0  0  0  0  0  0  0  0  0  0  0  0
    2.7156   -0.6178   -1.2252 H   0  0  0  0  0  0  0  0  0  0  0  0
    2.2343   -1.4609    0.7032 C   0  0  0  0  0  0  0  0  0  0  0  0
    1.4584   -0.9635    1.5500 O   0  5  0  0  0  0  0  0  0  0  0  0
    3.2392   -2.1564    0.9715 O   0  0  0  0  0  0  0  0  0  0  0  0
   -0.3954    1.2887    0.4814 C   0  0  0  0  0  0  0  0  0  0  0  0
   -1.2761    1.9015   -0.1256 O   0  0  0  0  0  0  0  0  0  0  0  0
    0.4051    1.8919    1.3699 N   0  0  0  0  0  0  0  0  0  0  0  0
    1.1380    1.3380    1.7875 H   0  0  0  0  0  0  0  0  0  0  0  0
    0.3573    3.3183    1.6807 C   0  0  0  0  0  0  0  0  0  0  0  0
   -0.6670    3.6090    1.9198 H   0  0  0  0  0  0  0  0  0  0  0  0
    1.0066    3.5397    2.5289 H   0  0  0  0  0  0  0  0  0  0  0  0
    0.6896    3.8897    0.8118 H   0  0  0  0  0  0  0  0  0  0  0  0
  5  6  2  0  0  0  0
  5  7  1  0  0  0  0
  2  3  1  0  0  0  0
  2  4  1  0  0  0  0
  2  5  1  0  0  0  0
  1  2  1  0  0  0  0
 20 21  2  0  0  0  0
 20 22  1  0  0  0  0
 17 18  1  0  0  0  0
 17 19  2  0  0  0  0
 14 15  1  0  0  0  0
 14 16  1  0  0  0  0
 14 17  1  0  0  0  0
 11 12  1  0  0  0  0
 11 13  1  0  0  0  0
 11 14  1  0  0  0  0
  9 10  1  0  0  0  0
  9 11  1  0  0  0  0
  9 20  1  0  0  0  0
  7  8  1  0  0  0  0
  7  9  1  0  0  0  0
 24 25  1  0  0  0  0
 24 26  1  0  0  0  0
 24 27  1  0  0  0  0
 22 23  1  0  0  0  0
 22 24  1  0  0  0  0
M  CHG  1  18  -1
M  END
$$$$
default_name
  -OEChem-02102213163D

 27 26  0     1  0  0  0  0  0999 V2000
   -3.2406   -3.5400    1.2326 H   0  0  0  0  0  0  0  0  0  0  0  0
   -3.1436   -2.6190    0.6606 C   0  0  0  0  0  0  0  0  0  0  0  0
   -3.8786   -1.8920    0.9996 H   0  0  0  0  0  0  0  0  0  0  0  0
   -3.2846   -2.8280   -0.3984 H   0  0  0  0  0  0  0  0  0  0  0  0
   -1.7586   -2.0580    0.8686 C   0  0  0  0  0  0  0  0  0  0  0  0
   -0.9666   -2.6340    1.6026 O   0  0  0  0  0  0  0  0  0  0  0  0
   -1.4866   -0.9220    0.2366 N   0  0  0  0  0  0  0  0  0  0  0  0
   -2.2166   -0.4790   -0.2994 H   0  0  0  0  0  0  0  0  0  0  0  0
   -0.1956   -0.2250    0.2596 C   0  0  1  0  0  0  0  0  0  0  0  0
    0.3927   -0.6026    1.0964 H   0  0  0  0  0  0  0  0  0  0  0  0
    0.5767   -0.5489   -1.0351 C   0  0  0  0  0  0  0  0  0  0  0  0
   -0.0431   -1.2135   -1.6390 H   0  0  0  0  0  0  0  0  0  0  0  0
    0.7420    0.3723   -1.5958 H   0  0  0  0  0  0  0  0  0  0  0  0
    1.9293   -1.2370   -0.7853 C   0  0  0  0  0  0  0  0  0  0  0  0
    2.0477   -2.0602   -1.4940 H   0  0  0  0  0  0  0  0  0  0  0  0
    2.7240   -0.5109   -0.9763 H   0  0  0  0  0  0  0  0  0  0  0  0
    2.0793   -1.7886    0.6402 C   0  0  0  0  0  0  0  0  0  0  0  0
    1.1878   -1.5218    1.4772 O   0  5  0  0  0  0  0  0  0  0  0  0
    3.0852   -2.4980    0.8643 O   0  0  0  0  0  0  0  0  0  0  0  0
   -0.3954    1.2887    0.4814 C   0  0  0  0  0  0  0  0  0  0  0  0
   -1.2761    1.9015   -0.1256 O   0  0  0  0  0  0  0  0  0  0  0  0
    0.4051    1.8919    1.3699 N   0  0  0  0  0  0  0  0  0  0  0  0
    1.1380    1.3380    1.7875 H   0  0  0  0  0  0  0  0  0  0  0  0
    0.3573    3.3183    1.6807 C   0  0  0  0  0  0  0  0  0  0  0  0
   -0.6670    3.6090    1.9198 H   0  0  0  0  0  0  0  0  0  0  0  0
    1.0066    3.5397    2.5289 H   0  0  0  0  0  0  0  0  0  0  0  0
    0.6896    3.8897    0.8118 H   0  0  0  0  0  0  0  0  0  0  0  0
  5  6  2  0  0  0  0
  5  7  1  0  0  0  0
  2  3  1  0  0  0  0
  2  4  1  0  0  0  0
  2  5  1  0  0  0  0
  1  2  1  0  0  0  0
 20 21  2  0  0  0  0
 20 22  1  0  0  0  0
 17 18  1  0  0  0  0
 17 19  2  0  0  0  0
 14 15  1  0  0  0  0
 14 16  1  0  0  0  0
 14 17  1  0  0  0  0
 11 12  1  0  0  0  0
 11 13  1  0  0  0  0
 11 14  1  0  0  0  0
  9 10  1  0  0  0  0
  9 11  1  0  0  0  0
  9 20  1  0  0  0  0
  7  8  1  0  0  0  0
  7  9  1  0  0  0  0
 24 25  1  0  0  0  0
 24 26  1  0  0  0  0
 24 27  1  0  0  0  0
 22 23  1  0  0  0  0
 22 24  1  0  0  0  0
M  CHG  1  18  -1
M  END
$$$$
default_name
  -OEChem-02102213163D

 27 26  0     1  0  0  0  0  0999 V2000
   -3.2406   -3.5400    1.2326 H   0  0  0  0  0  0  0  0  0  0  0  0
   -3.1436   -2.6190    0.6606 C   0  0  0  0  0  0  0  0  0  0  0  0
   -3.8786   -1.8920    0.9996 H   0  0  0  0  0  0  0  0  0  0  0  0
   -3.2846   -2.8280   -0.3984 H   0  0  0  0  0  0  0  0  0  0  0  0
   -1.7586   -2.0580    0.8686 C   0  0  0  0  0  0  0  0  0  0  0  0
   -0.9666   -2.6340    1.6026 O   0  0  0  0  0  0  0  0  0  0  0  0
   -1.4866   -0.9220    0.2366 N   0  0  0  0  0  0  0  0  0  0  0  0
   -2.2166   -0.4790   -0.2994 H   0  0  0  0  0  0  0  0  0  0  0  0
   -0.1956   -0.2250    0.2596 C   0  0  1  0  0  0  0  0  0  0  0  0
    0.3927   -0.6026    1.0964 H   0  0  0  0  0  0  0  0  0  0  0  0
    0.5767   -0.5489   -1.0351 C   0  0  0  0  0  0  0  0  0  0  0  0
   -0.0431   -1.2135   -1.6390 H   0  0  0  0  0  0  0  0  0  0  0  0
    0.7420    0.3723   -1.5958 H   0  0  0  0  0  0  0  0  0  0  0  0
    1.9293   -1.2370   -0.7853 C   0  0  0  0  0  0  0  0  0  0  0  0
    2.1710   -1.8713   -1.6416 H   0  0  0  0  0  0  0  0  0  0  0  0
    2.6988   -0.4640   -0.7106 H   0  0  0  0  0  0  0  0  0  0  0  0
    1.9506   -2.0973    0.4868 C   0  0  0  0  0  0  0  0  0  0  0  0
    0.9584   -2.0559    1.2486 O   0  5  0  0  0  0  0  0  0  0  0  0
    2.9632   -2.8101    0.6651 O   0  0  0  0  0  0  0  0  0  0  0  0
   -0.3954    1.2887    0.4814 C   0  0  0  0  0  0  0  0  0  0  0  0
   -1.2761    1.9015   -0.1256 O   0  0  0  0  0  0  0  0  0  0  0  0
    0.4051    1.8919    1.3699 N   0  0  0  0  0  0  0  0  0  0  0  0
    1.1380    1.3380    1.7875 H   0  0  0  0  0  0  0  0  0  0  0  0
    0.3573    3.3183    1.6807 C   0  0  0  0  0  0  0  0  0  0  0  0
   -0.6670    3.6090    1.9198 H   0  0  0  0  0  0  0  0  0  0  0  0
    1.0066    3.5397    2.5289 H   0  0  0  0  0  0  0  0  0  0  0  0
    0.6896    3.8897    0.8118 H   0  0  0  0  0  0  0  0  0  0  0  0
  5  6  2  0  0  0  0
  5  7  1  0  0  0  0
  2  3  1  0  0  0  0
  2  4  1  0  0  0  0
  2  5  1  0  0  0  0
  1  2  1  0  0  0  0
 20 21  2  0  0  0  0
 20 22  1  0  0  0  0
 17 18  1  0  0  0  0
 17 19  2  0  0  0  0
 14 15  1  0  0  0  0
 14 16  1  0  0  0  0
 14 17  1  0  0  0  0
 11 12  1  0  0  0  0
 11 13  1  0  0  0  0
 11 14  1  0  0  0  0
  9 10  1  0  0  0  0
  9 11  1  0  0  0  0
  9 20  1  0  0  0  0
  7  8  1  0  0  0  0
  7  9  1  0  0  0  0
 24 25  1  0  0  0  0
 24 26  1  0  0  0  0
 24 27  1  0  0  0  0
 22 23  1  0  0  0  0
 22 24  1  0  0  0  0
M  CHG  1  18  -1
M  END
$$$$
default_name
  -OEChem-02102213163D

 27 26  0     1  0  0  0  0  0999 V2000
   -3.2406   -3.5400    1.2326 H   0  0  0  0  0  0  0  0  0  0  0  0
   -3.1436   -2.6190    0.6606 C   0  0  0  0  0  0  0  0  0  0  0  0
   -3.8786   -1.8920    0.9996 H   0  0  0  0  0  0  0  0  0  0  0  0
   -3.2846   -2.8280   -0.3984 H   0  0  0  0  0  0  0  0  0  0  0  0
   -1.7586   -2.0580    0.8686 C   0  0  0  0  0  0  0  0  0  0  0  0
   -0.9666   -2.6340    1.6026 O   0  0  0  0  0  0  0  0  0  0  0  0
   -1.4866   -0.9220    0.2366 N   0  0  0  0  0  0  0  0  0  0  0  0
   -2.2166   -0.4790   -0.2994 H   0  0  0  0  0  0  0  0  0  0  0  0
   -0.1956   -0.2250    0.2596 C   0  0  1  0  0  0  0  0  0  0  0  0
    0.3927   -0.6026    1.0964 H   0  0  0  0  0  0  0  0  0  0  0  0
    0.5767   -0.5489   -1.0351 C   0  0  0  0  0  0  0  0  0  0  0  0
   -0.0431   -1.2135   -1.6390 H   0  0  0  0  0  0  0  0  0  0  0  0
    0.7420    0.3723   -1.5958 H   0  0  0  0  0  0  0  0  0  0  0  0
    1.9293   -1.2370   -0.7853 C   0  0  0  0  0  0  0  0  0  0  0  0
    2.2993   -1.6501   -1.7268 H   0  0  0  0  0  0  0  0  0  0  0  0
    2.6417   -0.4802   -0.4462 H   0  0  0  0  0  0  0  0  0  0  0  0
    1.8570   -2.3660    0.2535 C   0  0  0  0  0  0  0  0  0  0  0  0
    0.7856   -2.5294    0.8796 O   0  5  0  0  0  0  0  0  0  0  0  0
    2.8815   -3.0714    0.3875 O   0  0  0  0  0  0  0  0  0  0  0  0
   -0.3954    1.2887    0.4814 C   0  0  0  0  0  0  0  0  0  0  0  0
   -1.2761    1.9015   -0.1256 O   0  0  0  0  0  0  0  0  0  0  0  0
    0.4051    1.8919    1.3699 N   0  0  0  0  0  0  0  0  0  0  0  0
    1.1380    1.3380    1.7875 H   0  0  0  0  0  0  0  0  0  0  0  0
    0.3573    3.3183    1.6807 C   0  0  0  0  0  0  0  0  0  0  0  0
   -0.6670    3.6090    1.9198 H   0  0  0  0  0  0  0  0  0  0  0  0
    1.0066    3.5397    2.5289 H   0  0  0  0  0  0  0  0  0  0  0  0
    0.6896    3.8897    0.8118 H   0  0  0  0  0  0  0  0  0  0  0  0
  5  6  2  0  0  0  0
  5  7  1  0  0  0  0
  2  3  1  0  0  0  0
  2  4  1  0  0  0  0
  2  5  1  0  0  0  0
  1  2  1  0  0  0  0
 20 21  2  0  0  0  0
 20 22  1  0  0  0  0
 17 18  1  0  0  0  0
 17 19  2  0  0  0  0
 14 15  1  0  0  0  0
 14 16  1  0  0  0  0
 14 17  1  0  0  0  0
 11 12  1  0  0  0  0
 11 13  1  0  0  0  0
 11 14  1  0  0  0  0
  9 10  1  0  0  0  0
  9 11  1  0  0  0  0
  9 20  1  0  0  0  0
  7  8  1  0  0  0  0
  7  9  1  0  0  0  0
 24 25  1  0  0  0  0
 24 26  1  0  0  0  0
 24 27  1  0  0  0  0
 22 23  1  0  0  0  0
 22 24  1  0  0  0  0
M  CHG  1  18  -1
M  END
$$$$
default_name
  -OEChem-02102213163D

 27 26  0     1  0  0  0  0  0999 V2000
   -3.2406   -3.5400    1.2326 H   0  0  0  0  0  0  0  0  0  0  0  0
   -3.1436   -2.6190    0.6606 C   0  0  0  0  0  0  0  0  0  0  0  0
   -3.8786   -1.8920    0.9996 H   0  0  0  0  0  0  0  0  0  0  0  0
   -3.2846   -2.8280   -0.3984 H   0  0  0  0  0  0  0  0  0  0  0  0
   -1.7586   -2.0580    0.8686 C   0  0  0  0  0  0  0  0  0  0  0  0
   -0.9666   -2.6340    1.6026 O   0  0  0  0  0  0  0  0  0  0  0  0
   -1.4866   -0.9220    0.2366 N   0  0  0  0  0  0  0  0  0  0  0  0
   -2.2166   -0.4790   -0.2994 H   0  0  0  0  0  0  0  0  0  0  0  0
   -0.1956   -0.2250    0.2596 C   0  0  1  0  0  0  0  0  0  0  0  0
    0.3927   -0.6026    1.0964 H   0  0  0  0  0  0  0  0  0  0  0  0
    0.5767   -0.5489   -1.0351 C   0  0  0  0  0  0  0  0  0  0  0  0
   -0.0431   -1.2135   -1.6390 H   0  0  0  0  0  0  0  0  0  0  0  0
    0.7420    0.3723   -1.5958 H   0  0  0  0  0  0  0  0  0  0  0  0
    1.9293   -1.2370   -0.7853 C   0  0  0  0  0  0  0  0  0  0  0  0
    2.4238   -1.4116   -1.7439 H   0  0  0  0  0  0  0  0  0  0  0  0
    2.5566   -0.5585   -0.2011 H   0  0  0  0  0  0  0  0  0  0  0  0
    1.8049   -2.5763   -0.0439 C   0  0  0  0  0  0  0  0  0  0  0  0
    0.6815   -2.9100    0.3954 O   0  5  0  0  0  0  0  0  0  0  0  0
    2.8458   -3.2640    0.0505 O   0  0  0  0  0  0  0  0  0  0  0  0
   -0.3954    1.2887    0.4814 C   0  0  0  0  0  0  0  0  0  0  0  0
   -1.2761    1.9015   -0.1256 O   0  0  0  0  0  0  0  0  0  0  0  0
    0.4051    1.8919    1.3699 N   0  0  0  0  0  0  0  0  0  0  0  0
    1.1380    1.3380    1.7875 H   0  0  0  0  0  0  0  0  0  0  0  0
    0.3573    3.3183    1.6807 C   0  0  0  0  0  0  0  0  0  0  0  0
   -0.6670    3.6090    1.9198 H   0  0  0  0  0  0  0  0  0  0  0  0
    1.0066    3.5397    2.5289 H   0  0  0  0  0  0  0  0  0  0  0  0
    0.6896    3.8897    0.8118 H   0  0  0  0  0  0  0  0  0  0  0  0
  5  6  2  0  0  0  0
  5  7  1  0  0  0  0
  2  3  1  0  0  0  0
  2  4  1  0  0  0  0
  2  5  1  0  0  0  0
  1  2  1  0  0  0  0
 20 21  2  0  0  0  0
 20 22  1  0  0  0  0
 17 18  1  0  0  0  0
 17 19  2  0  0  0  0
 14 15  1  0  0  0  0
 14 16  1  0  0  0  0
 14 17  1  0  0  0  0
 11 12  1  0  0  0  0
 11 13  1  0  0  0  0
 11 14  1  0  0  0  0
  9 10  1  0  0  0  0
  9 11  1  0  0  0  0
  9 20  1  0  0  0  0
  7  8  1  0  0  0  0
  7  9  1  0  0  0  0
 24 25  1  0  0  0  0
 24 26  1  0  0  0  0
 24 27  1  0  0  0  0
 22 23  1  0  0  0  0
 22 24  1  0  0  0  0
M  CHG  1  18  -1
M  END
$$$$
default_name
  -OEChem-02102213163D

 27 26  0     1  0  0  0  0  0999 V2000
   -3.2406   -3.5400    1.2326 H   0  0  0  0  0  0  0  0  0  0  0  0
   -3.1436   -2.6190    0.6606 C   0  0  0  0  0  0  0  0  0  0  0  0
   -3.8786   -1.8920    0.9996 H   0  0  0  0  0  0  0  0  0  0  0  0
   -3.2846   -2.8280   -0.3984 H   0  0  0  0  0  0  0  0  0  0  0  0
   -1.7586   -2.0580    0.8686 C   0  0  0  0  0  0  0  0  0  0  0  0
   -0.9666   -2.6340    1.6026 O   0  0  0  0  0  0  0  0  0  0  0  0
   -1.4866   -0.9220    0.2366 N   0  0  0  0  0  0  0  0  0  0  0  0
   -2.2166   -0.4790   -0.2994 H   0  0  0  0  0  0  0  0  0  0  0  0
   -0.1956   -0.2250    0.2596 C   0  0  1  0  0  0  0  0  0  0  0  0
    0.3927   -0.6026    1.0964 H   0  0  0  0  0  0  0  0  0  0  0  0
    0.5767   -0.5489   -1.0351 C   0  0  0  0  0  0  0  0  0  0  0  0
   -0.0431   -1.2135   -1.6390 H   0  0  0  0  0  0  0  0  0  0  0  0
    0.7420    0.3723   -1.5958 H   0  0  0  0  0  0  0  0  0  0  0  0
    1.9293   -1.2370   -0.7853 C   0  0  0  0  0  0  0  0  0  0  0  0
    2.5360   -1.1721   -1.6918 H   0  0  0  0  0  0  0  0  0  0  0  0
    2.4494   -0.6934    0.0079 H   0  0  0  0  0  0  0  0  0  0  0  0
    1.7979   -2.7139   -0.3850 C   0  0  0  0  0  0  0  0  0  0  0  0
    0.6529   -3.1718   -0.1710 O   0  5  0  0  0  0  0  0  0  0  0  0
    2.8584   -3.3749   -0.3230 O   0  0  0  0  0  0  0  0  0  0  0  0
   -0.3954    1.2887    0.4814 C   0  0  0  0  0  0  0  0  0  0  0  0
   -1.2761    1.9015   -0.1256 O   0  0  0  0  0  0  0  0  0  0  0  0
    0.4051    1.8919    1.3699 N   0  0  0  0  0  0  0  0  0  0  0  0
    1.1380    1.3380    1.7875 H   0  0  0  0  0  0  0  0  0  0  0  0
    0.3573    3.3183    1.6807 C   0  0  0  0  0  0  0  0  0  0  0  0
   -0.6670    3.6090    1.9198 H   0  0  0  0  0  0  0  0  0  0  0  0
    1.0066    3.5397    2.5289 H   0  0  0  0  0  0  0  0  0  0  0  0
    0.6896    3.8897    0.8118 H   0  0  0  0  0  0  0  0  0  0  0  0
  5  6  2  0  0  0  0
  5  7  1  0  0  0  0
  2  3  1  0  0  0  0
  2  4  1  0  0  0  0
  2  5  1  0  0  0  0
  1  2  1  0  0  0  0
 20 21  2  0  0  0  0
 20 22  1  0  0  0  0
 17 18  1  0  0  0  0
 17 19  2  0  0  0  0
 14 15  1  0  0  0  0
 14 16  1  0  0  0  0
 14 17  1  0  0  0  0
 11 12  1  0  0  0  0
 11 13  1  0  0  0  0
 11 14  1  0  0  0  0
  9 10  1  0  0  0  0
  9 11  1  0  0  0  0
  9 20  1  0  0  0  0
  7  8  1  0  0  0  0
  7  9  1  0  0  0  0
 24 25  1  0  0  0  0
 24 26  1  0  0  0  0
 24 27  1  0  0  0  0
 22 23  1  0  0  0  0
 22 24  1  0  0  0  0
M  CHG  1  18  -1
M  END
$$$$
default_name
  -OEChem-02102213163D

 27 26  0     1  0  0  0  0  0999 V2000
   -3.2406   -3.5400    1.2326 H   0  0  0  0  0  0  0  0  0  0  0  0
   -3.1436   -2.6190    0.6606 C   0  0  0  0  0  0  0  0  0  0  0  0
   -3.8786   -1.8920    0.9996 H   0  0  0  0  0  0  0  0  0  0  0  0
   -3.2846   -2.8280   -0.3984 H   0  0  0  0  0  0  0  0  0  0  0  0
   -1.7586   -2.0580    0.8686 C   0  0  0  0  0  0  0  0  0  0  0  0
   -0.9666   -2.6340    1.6026 O   0  0  0  0  0  0  0  0  0  0  0  0
   -1.4866   -0.9220    0.2366 N   0  0  0  0  0  0  0  0  0  0  0  0
   -2.2166   -0.4790   -0.2994 H   0  0  0  0  0  0  0  0  0  0  0  0
   -0.1956   -0.2250    0.2596 C   0  0  1  0  0  0  0  0  0  0  0  0
    0.3927   -0.6026    1.0964 H   0  0  0  0  0  0  0  0  0  0  0  0
    0.5767   -0.5489   -1.0351 C   0  0  0  0  0  0  0  0  0  0  0  0
   -0.0431   -1.2135   -1.6390 H   0  0  0  0  0  0  0  0  0  0  0  0
    0.7420    0.3723   -1.5958 H   0  0  0  0  0  0  0  0  0  0  0  0
    1.9293   -1.2370   -0.7853 C   0  0  0  0  0  0  0  0  0  0  0  0
    2.6283   -0.9479   -1.5739 H   0  0  0  0  0  0  0  0  0  0  0  0
    2.3272   -0.8759    0.1667 H   0  0  0  0  0  0  0  0  0  0  0  0
    1.8364   -2.7696   -0.7467 C   0  0  0  0  0  0  0  0  0  0  0  0
    0.7019   -3.2970   -0.7811 O   0  5  0  0  0  0  0  0  0  0  0  0
    2.9185   -3.3964   -0.7076 O   0  0  0  0  0  0  0  0  0  0  0  0
   -0.3954    1.2887    0.4814 C   0  0  0  0  0  0  0  0  0  0  0  0
   -1.2761    1.9015   -0.1256 O   0  0  0  0  0  0  0  0  0  0  0  0
    0.4051    1.8919    1.3699 N   0  0  0  0  0  0  0  0  0  0  0  0
    1.1380    1.3380    1.7875 H   0  0  0  0  0  0  0  0  0  0  0  0
    0.3573    3.3183    1.6807 C   0  0  0  0  0  0  0  0  0  0  0  0
   -0.6670    3.6090    1.9198 H   0  0  0  0  0  0  0  0  0  0  0  0
    1.0066    3.5397    2.5289 H   0  0  0  0  0  0  0  0  0  0  0  0
    0.6896    3.8897    0.8118 H   0  0  0  0  0  0  0  0  0  0  0  0
  5  6  2  0  0  0  0
  5  7  1  0  0  0  0
  2  3  1  0  0  0  0
  2  4  1  0  0  0  0
  2  5  1  0  0  0  0
  1  2  1  0  0  0  0
 20 21  2  0  0  0  0
 20 22  1  0  0  0  0
 17 18  1  0  0  0  0
 17 19  2  0  0  0  0
 14 15  1  0  0  0  0
 14 16  1  0  0  0  0
 14 17  1  0  0  0  0
 11 12  1  0  0  0  0
 11 13  1  0  0  0  0
 11 14  1  0  0  0  0
  9 10  1  0  0  0  0
  9 11  1  0  0  0  0
  9 20  1  0  0  0  0
  7  8  1  0  0  0  0
  7  9  1  0  0  0  0
 24 25  1  0  0  0  0
 24 26  1  0  0  0  0
 24 27  1  0  0  0  0
 22 23  1  0  0  0  0
 22 24  1  0  0  0  0
M  CHG  1  18  -1
M  END
$$$$
default_name
  -OEChem-02102213163D

 27 26  0     1  0  0  0  0  0999 V2000
   -3.2406   -3.5400    1.2326 H   0  0  0  0  0  0  0  0  0  0  0  0
   -3.1436   -2.6190    0.6606 C   0  0  0  0  0  0  0  0  0  0  0  0
   -3.8786   -1.8920    0.9996 H   0  0  0  0  0  0  0  0  0  0  0  0
   -3.2846   -2.8280   -0.3984 H   0  0  0  0  0  0  0  0  0  0  0  0
   -1.7586   -2.0580    0.8686 C   0  0  0  0  0  0  0  0  0  0  0  0
   -0.9666   -2.6340    1.6026 O   0  0  0  0  0  0  0  0  0  0  0  0
   -1.4866   -0.9220    0.2366 N   0  0  0  0  0  0  0  0  0  0  0  0
   -2.2166   -0.4790   -0.2994 H   0  0  0  0  0  0  0  0  0  0  0  0
   -0.1956   -0.2250    0.2596 C   0  0  1  0  0  0  0  0  0  0  0  0
    0.3927   -0.6026    1.0964 H   0  0  0  0  0  0  0  0  0  0  0  0
    0.5767   -0.5489   -1.0351 C   0  0  0  0  0  0  0  0  0  0  0  0
   -0.0431   -1.2135   -1.6390 H   0  0  0  0  0  0  0  0  0  0  0  0
    0.7420    0.3723   -1.5958 H   0  0  0  0  0  0  0  0  0  0  0  0
    1.9293   -1.2370   -0.7853 C   0  0  0  0  0  0  0  0  0  0  0  0
    2.6943   -0.7543   -1.3983 H   0  0  0  0  0  0  0  0  0  0  0  0
    2.1985   -1.0934    0.2645 H   0  0  0  0  0  0  0  0  0  0  0  0
    1.9178   -2.7393   -1.1042 C   0  0  0  0  0  0  0  0  0  0  0  0
    0.8251   -3.2769   -1.3931 O   0  5  0  0  0  0  0  0  0  0  0  0
    3.0219   -3.3271   -1.0770 O   0  0  0  0  0  0  0  0  0  0  0  0
   -0.3954    1.2887    0.4814 C   0  0  0  0  0  0  0  0  0  0  0  0
   -1.2761    1.9015   -0.1256 O   0  0  0  0  0  0  0  0  0  0  0  0
    0.4051    1.8919    1.3699 N   0  0  0  0  0  0  0  0  0  0  0  0
    1.1380    1.3380    1.7875 H   0  0  0  0  0  0  0  0  0  0  0  0
    0.3573    3.3183    1.6807 C   0  0  0  0  0  0  0  0  0  0  0  0
   -0.6670    3.6090    1.9198 H   0  0  0  0  0  0  0  0  0  0  0  0
    1.0066    3.5397    2.5289 H   0  0  0  0  0  0  0  0  0  0  0  0
    0.6896    3.8897    0.8118 H   0  0  0  0  0  0  0  0  0  0  0  0
  5  6  2  0  0  0  0
  5  7  1  0  0  0  0
  2  3  1  0  0  0  0
  2  4  1  0  0  0  0
  2  5  1  0  0  0  0
  1  2  1  0  0  0  0
 20 21  2  0  0  0  0
 20 22  1  0  0  0  0
 17 18  1  0  0  0  0
 17 19  2  0  0  0  0
 14 15  1  0  0  0  0
 14 16  1  0  0  0  0
 14 17  1  0  0  0  0
 11 12  1  0  0  0  0
 11 13  1  0  0  0  0
 11 14  1  0  0  0  0
  9 10  1  0  0  0  0
  9 11  1  0  0  0  0
  9 20  1  0  0  0  0
  7  8  1  0  0  0  0
  7  9  1  0  0  0  0
 24 25  1  0  0  0  0
 24 26  1  0  0  0  0
 24 27  1  0  0  0  0
 22 23  1  0  0  0  0
 22 24  1  0  0  0  0
M  CHG  1  18  -1
M  END
$$$$
default_name
  -OEChem-02102213163D

 27 26  0     1  0  0  0  0  0999 V2000
   -3.2406   -3.5400    1.2326 H   0  0  0  0  0  0  0  0  0  0  0  0
   -3.1436   -2.6190    0.6606 C   0  0  0  0  0  0  0  0  0  0  0  0
   -3.8786   -1.8920    0.9996 H   0  0  0  0  0  0  0  0  0  0  0  0
   -3.2846   -2.8280   -0.3984 H   0  0  0  0  0  0  0  0  0  0  0  0
   -1.7586   -2.0580    0.8686 C   0  0  0  0  0  0  0  0  0  0  0  0
   -0.9666   -2.6340    1.6026 O   0  0  0  0  0  0  0  0  0  0  0  0
   -1.4866   -0.9220    0.2366 N   0  0  0  0  0  0  0  0  0  0  0  0
   -2.2166   -0.4790   -0.2994 H   0  0  0  0  0  0  0  0  0  0  0  0
   -0.1956   -0.2250    0.2596 C   0  0  1  0  0  0  0  0  0  0  0  0
    0.3927   -0.6026    1.0964 H   0  0  0  0  0  0  0  0  0  0  0  0
    0.5767   -0.5489   -1.0351 C   0  0  0  0  0  0  0  0  0  0  0  0
   -0.0431   -1.2135   -1.6390 H   0  0  0  0  0  0  0  0  0  0  0  0
    0.7420    0.3723   -1.5958 H   0  0  0  0  0  0  0  0  0  0  0  0
    1.9293   -1.2370   -0.7853 C   0  0  0  0  0  0  0  0  0  0  0  0
    2.7296   -0.6045   -1.1770 H   0  0  0  0  0  0  0  0  0  0  0  0
    2.0720   -1.3311    0.2944 H   0  0  0  0  0  0  0  0  0  0  0  0
    2.0366   -2.6253   -1.4333 C   0  0  0  0  0  0  0  0  0  0  0  0
    1.0142   -3.1131   -1.9655 O   0  5  0  0  0  0  0  0  0  0  0  0
    3.1617   -3.1717   -1.4060 O   0  0  0  0  0  0  0  0  0  0  0  0
   -0.3954    1.2887    0.4814 C   0  0  0  0  0  0  0  0  0  0  0  0
   -1.2761    1.9015   -0.1256 O   0  0  0  0  0  0  0  0  0  0  0  0
    0.4051    1.8919    1.3699 N   0  0  0  0  0  0  0  0  0  0  0  0
    1.1380    1.3380    1.7875 H   0  0  0  0  0  0  0  0  0  0  0  0
    0.3573    3.3183    1.6807 C   0  0  0  0  0  0  0  0  0  0  0  0
   -0.6670    3.6090    1.9198 H   0  0  0  0  0  0  0  0  0  0  0  0
    1.0066    3.5397    2.5289 H   0  0  0  0  0  0  0  0  0  0  0  0
    0.6896    3.8897    0.8118 H   0  0  0  0  0  0  0  0  0  0  0  0
  5  6  2  0  0  0  0
  5  7  1  0  0  0  0
  2  3  1  0  0  0  0
  2  4  1  0  0  0  0
  2  5  1  0  0  0  0
  1  2  1  0  0  0  0
 20 21  2  0  0  0  0
 20 22  1  0  0  0  0
 17 18  1  0  0  0  0
 17 19  2  0  0  0  0
 14 15  1  0  0  0  0
 14 16  1  0  0  0  0
 14 17  1  0  0  0  0
 11 12  1  0  0  0  0
 11 13  1  0  0  0  0
 11 14  1  0  0  0  0
  9 10  1  0  0  0  0
  9 11  1  0  0  0  0
  9 20  1  0  0  0  0
  7  8  1  0  0  0  0
  7  9  1  0  0  0  0
 24 25  1  0  0  0  0
 24 26  1  0  0  0  0
 24 27  1  0  0  0  0
 22 23  1  0  0  0  0
 22 24  1  0  0  0  0
M  CHG  1  18  -1
M  END
$$$$
default_name
  -OEChem-02102213163D

 27 26  0     1  0  0  0  0  0999 V2000
   -3.2406   -3.5400    1.2326 H   0  0  0  0  0  0  0  0  0  0  0  0
   -3.1436   -2.6190    0.6606 C   0  0  0  0  0  0  0  0  0  0  0  0
   -3.8786   -1.8920    0.9996 H   0  0  0  0  0  0  0  0  0  0  0  0
   -3.2846   -2.8280   -0.3984 H   0  0  0  0  0  0  0  0  0  0  0  0
   -1.7586   -2.0580    0.8686 C   0  0  0  0  0  0  0  0  0  0  0  0
   -0.9666   -2.6340    1.6026 O   0  0  0  0  0  0  0  0  0  0  0  0
   -1.4866   -0.9220    0.2366 N   0  0  0  0  0  0  0  0  0  0  0  0
   -2.2166   -0.4790   -0.2994 H   0  0  0  0  0  0  0  0  0  0  0  0
   -0.1956   -0.2250    0.2596 C   0  0  1  0  0  0  0  0  0  0  0  0
    0.3927   -0.6026    1.0964 H   0  0  0  0  0  0  0  0  0  0  0  0
    0.5767   -0.5489   -1.0351 C   0  0  0  0  0  0  0  0  0  0  0  0
   -0.0431   -1.2135   -1.6390 H   0  0  0  0  0  0  0  0  0  0  0  0
    0.7420    0.3723   -1.5958 H   0  0  0  0  0  0  0  0  0  0  0  0
    1.9293   -1.2370   -0.7853 C   0  0  0  0  0  0  0  0  0  0  0  0
    2.7318   -0.5087   -0.9251 H   0  0  0  0  0  0  0  0  0  0  0  0
    1.9564   -1.5729    0.2546 H   0  0  0  0  0  0  0  0  0  0  0  0
    2.1846   -2.4353   -1.7114 C   0  0  0  0  0  0  0  0  0  0  0  0
    1.2562   -2.8166   -2.4591 O   0  5  0  0  0  0  0  0  0  0  0  0
    3.3284   -2.9409   -1.6723 O   0  0  0  0  0  0  0  0  0  0  0  0
   -0.3954    1.2887    0.4814 C   0  0  0  0  0  0  0  0  0  0  0  0
   -1.2761    1.9015   -0.1256 O   0  0  0  0  0  0  0  0  0  0  0  0
    0.4051    1.8919    1.3699 N   0  0  0  0  0  0  0  0  0  0  0  0
    1.1380    1.3380    1.7875 H   0  0  0  0  0  0  0  0  0  0  0  0
    0.3573    3.3183    1.6807 C   0  0  0  0  0  0  0  0  0  0  0  0
   -0.6670    3.6090    1.9198 H   0  0  0  0  0  0  0  0  0  0  0  0
    1.0066    3.5397    2.5289 H   0  0  0  0  0  0  0  0  0  0  0  0
    0.6896    3.8897    0.8118 H   0  0  0  0  0  0  0  0  0  0  0  0
  5  6  2  0  0  0  0
  5  7  1  0  0  0  0
  2  3  1  0  0  0  0
  2  4  1  0  0  0  0
  2  5  1  0  0  0  0
  1  2  1  0  0  0  0
 20 21  2  0  0  0  0
 20 22  1  0  0  0  0
 17 18  1  0  0  0  0
 17 19  2  0  0  0  0
 14 15  1  0  0  0  0
 14 16  1  0  0  0  0
 14 17  1  0  0  0  0
 11 12  1  0  0  0  0
 11 13  1  0  0  0  0
 11 14  1  0  0  0  0
  9 10  1  0  0  0  0
  9 11  1  0  0  0  0
  9 20  1  0  0  0  0
  7  8  1  0  0  0  0
  7  9  1  0  0  0  0
 24 25  1  0  0  0  0
 24 26  1  0  0  0  0
 24 27  1  0  0  0  0
 22 23  1  0  0  0  0
 22 24  1  0  0  0  0
M  CHG  1  18  -1
M  END
$$$$
default_name
  -OEChem-02102213163D

 27 26  0     1  0  0  0  0  0999 V2000
   -3.2406   -3.5400    1.2326 H   0  0  0  0  0  0  0  0  0  0  0  0
   -3.1436   -2.6190    0.6606 C   0  0  0  0  0  0  0  0  0  0  0  0
   -3.8786   -1.8920    0.9996 H   0  0  0  0  0  0  0  0  0  0  0  0
   -3.2846   -2.8280   -0.3984 H   0  0  0  0  0  0  0  0  0  0  0  0
   -1.7586   -2.0580    0.8686 C   0  0  0  0  0  0  0  0  0  0  0  0
   -0.9666   -2.6340    1.6026 O   0  0  0  0  0  0  0  0  0  0  0  0
   -1.4866   -0.9220    0.2366 N   0  0  0  0  0  0  0  0  0  0  0  0
   -2.2166   -0.4790   -0.2994 H   0  0  0  0  0  0  0  0  0  0  0  0
   -0.1956   -0.2250    0.2596 C   0  0  1  0  0  0  0  0  0  0  0  0
    0.3927   -0.6026    1.0964 H   0  0  0  0  0  0  0  0  0  0  0  0
    0.5767   -0.5489   -1.0351 C   0  0  0  0  0  0  0  0  0  0  0  0
   -0.0431   -1.2135   -1.6390 H   0  0  0  0  0  0  0  0  0  0  0  0
    0.7420    0.3723   -1.5958 H   0  0  0  0  0  0  0  0  0  0  0  0
    1.9293   -1.2370   -0.7853 C   0  0  0  0  0  0  0  0  0  0  0  0
    2.7008   -0.4734   -0.6596 H   0  0  0  0  0  0  0  0  0  0  0  0
    1.8594   -1.8023    0.1478 H   0  0  0  0  0  0  0  0  0  0  0  0
    2.3518   -2.1823   -1.9197 C   0  0  0  0  0  0  0  0  0  0  0  0
    1.5346   -2.4077   -2.8405 O   0  5  0  0  0  0  0  0  0  0  0  0
    3.5104   -2.6503   -1.8577 O   0  0  0  0  0  0  0  0  0  0  0  0
   -0.3954    1.2887    0.4814 C   0  0  0  0  0  0  0  0  0  0  0  0
   -1.2761    1.9015   -0.1256 O   0  0  0  0  0  0  0  0  0  0  0  0
    0.4051    1.8919    1.3699 N   0  0  0  0  0  0  0  0  0  0  0  0
    1.1380    1.3380    1.7875 H   0  0  0  0  0  0  0  0  0  0  0  0
    0.3573    3.3183    1.6807 C   0  0  0  0  0  0  0  0  0  0  0  0
   -0.6670    3.6090    1.9198 H   0  0  0  0  0  0  0  0  0  0  0  0
    1.0066    3.5397    2.5289 H   0  0  0  0  0  0  0  0  0  0  0  0
    0.6896    3.8897    0.8118 H   0  0  0  0  0  0  0  0  0  0  0  0
  5  6  2  0  0  0  0
  5  7  1  0  0  0  0
  2  3  1  0  0  0  0
  2  4  1  0  0  0  0
  2  5  1  0  0  0  0
  1  2  1  0  0  0  0
 20 21  2  0  0  0  0
 20 22  1  0  0  0  0
 17 18  1  0  0  0  0
 17 19  2  0  0  0  0
 14 15  1  0  0  0  0
 14 16  1  0  0  0  0
 14 17  1  0  0  0  0
 11 12  1  0  0  0  0
 11 13  1  0  0  0  0
 11 14  1  0  0  0  0
  9 10  1  0  0  0  0
  9 11  1  0  0  0  0
  9 20  1  0  0  0  0
  7  8  1  0  0  0  0
  7  9  1  0  0  0  0
 24 25  1  0  0  0  0
 24 26  1  0  0  0  0
 24 27  1  0  0  0  0
 22 23  1  0  0  0  0
 22 24  1  0  0  0  0
M  CHG  1  18  -1
M  END
$$$$
default_name
  -OEChem-02102213163D

 27 26  0     1  0  0  0  0  0999 V2000
   -3.2406   -3.5400    1.2326 H   0  0  0  0  0  0  0  0  0  0  0  0
   -3.1436   -2.6190    0.6606 C   0  0  0  0  0  0  0  0  0  0  0  0
   -3.8786   -1.8920    0.9996 H   0  0  0  0  0  0  0  0  0  0  0  0
   -3.2846   -2.8280   -0.3984 H   0  0  0  0  0  0  0  0  0  0  0  0
   -1.7586   -2.0580    0.8686 C   0  0  0  0  0  0  0  0  0  0  0  0
   -0.9666   -2.6340    1.6026 O   0  0  0  0  0  0  0  0  0  0  0  0
   -1.4866   -0.9220    0.2366 N   0  0  0  0  0  0  0  0  0  0  0  0
   -2.2166   -0.4790   -0.2994 H   0  0  0  0  0  0  0  0  0  0  0  0
   -0.1956   -0.2250    0.2596 C   0  0  1  0  0  0  0  0  0  0  0  0
    0.3927   -0.6026    1.0964 H   0  0  0  0  0  0  0  0  0  0  0  0
    0.5767   -0.5489   -1.0351 C   0  0  0  0  0  0  0  0  0  0  0  0
   -0.0431   -1.2135   -1.6390 H   0  0  0  0  0  0  0  0  0  0  0  0
    0.7420    0.3723   -1.5958 H   0  0  0  0  0  0  0  0  0  0  0  0
    1.9293   -1.2370   -0.7853 C   0  0  0  0  0  0  0  0  0  0  0  0
    2.6385   -0.5011   -0.3988 H   0  0  0  0  0  0  0  0  0  0  0  0
    1.7878   -2.0036   -0.0189 H   0  0  0  0  0  0  0  0  0  0  0  0
    2.5268   -1.8834   -2.0439 C   0  0  0  0  0  0  0  0  0  0  0  0
    1.8306   -1.9142   -3.0835 O   0  5  0  0  0  0  0  0  0  0  0  0
    3.6956   -2.3198   -1.9495 O   0  0  0  0  0  0  0  0  0  0  0  0
   -0.3954    1.2887    0.4814 C   0  0  0  0  0  0  0  0  0  0  0  0
   -1.2761    1.9015   -0.1256 O   0  0  0  0  0  0  0  0  0  0  0  0
    0.4051    1.8919    1.3699 N   0  0  0  0  0  0  0  0  0  0  0  0
    1.1380    1.3380    1.7875 H   0  0  0  0  0  0  0  0  0  0  0  0
    0.3573    3.3183    1.6807 C   0  0  0  0  0  0  0  0  0  0  0  0
   -0.6670    3.6090    1.9198 H   0  0  0  0  0  0  0  0  0  0  0  0
    1.0066    3.5397    2.5289 H   0  0  0  0  0  0  0  0  0  0  0  0
    0.6896    3.8897    0.8118 H   0  0  0  0  0  0  0  0  0  0  0  0
  5  6  2  0  0  0  0
  5  7  1  0  0  0  0
  2  3  1  0  0  0  0
  2  4  1  0  0  0  0
  2  5  1  0  0  0  0
  1  2  1  0  0  0  0
 20 21  2  0  0  0  0
 20 22  1  0  0  0  0
 17 18  1  0  0  0  0
 17 19  2  0  0  0  0
 14 15  1  0  0  0  0
 14 16  1  0  0  0  0
 14 17  1  0  0  0  0
 11 12  1  0  0  0  0
 11 13  1  0  0  0  0
 11 14  1  0  0  0  0
  9 10  1  0  0  0  0
  9 11  1  0  0  0  0
  9 20  1  0  0  0  0
  7  8  1  0  0  0  0
  7  9  1  0  0  0  0
 24 25  1  0  0  0  0
 24 26  1  0  0  0  0
 24 27  1  0  0  0  0
 22 23  1  0  0  0  0
 22 24  1  0  0  0  0
M  CHG  1  18  -1
M  END
$$$$
default_name
  -OEChem-02102213163D

 27 26  0     1  0  0  0  0  0999 V2000
   -3.2406   -3.5400    1.2326 H   0  0  0  0  0  0  0  0  0  0  0  0
   -3.1436   -2.6190    0.6606 C   0  0  0  0  0  0  0  0  0  0  0  0
   -3.8786   -1.8920    0.9996 H   0  0  0  0  0  0  0  0  0  0  0  0
   -3.2846   -2.8280   -0.3984 H   0  0  0  0  0  0  0  0  0  0  0  0
   -1.7586   -2.0580    0.8686 C   0  0  0  0  0  0  0  0  0  0  0  0
   -0.9666   -2.6340    1.6026 O   0  0  0  0  0  0  0  0  0  0  0  0
   -1.4866   -0.9220    0.2366 N   0  0  0  0  0  0  0  0  0  0  0  0
   -2.2166   -0.4790   -0.2994 H   0  0  0  0  0  0  0  0  0  0  0  0
   -0.1956   -0.2250    0.2596 C   0  0  1  0  0  0  0  0  0  0  0  0
    0.3927   -0.6026    1.0964 H   0  0  0  0  0  0  0  0  0  0  0  0
    0.5767   -0.5489   -1.0351 C   0  0  0  0  0  0  0  0  0  0  0  0
   -0.1279   -0.9802   -1.7479 H   0  0  0  0  0  0  0  0  0  0  0  0
    0.9732    0.3751   -1.4587 H   0  0  0  0  0  0  0  0  0  0  0  0
    1.7306   -1.5442   -0.8270 C   0  0  0  0  0  0  0  0  0  0  0  0
    2.4302   -1.1324   -0.0958 H   0  0  0  0  0  0  0  0  0  0  0  0
    1.3165   -2.4679   -0.4142 H   0  0  0  0  0  0  0  0  0  0  0  0
    2.4991   -1.8661   -2.1173 C   0  0  0  0  0  0  0  0  0  0  0  0
    2.0556   -1.4207   -3.1996 O   0  5  0  0  0  0  0  0  0  0  0  0
    3.5451   -2.5412   -1.9936 O   0  0  0  0  0  0  0  0  0  0  0  0
   -0.3954    1.2887    0.4814 C   0  0  0  0  0  0  0  0  0  0  0  0
   -1.2761    1.9015   -0.1256 O   0  0  0  0  0  0  0  0  0  0  0  0
    0.4051    1.8919    1.3699 N   0  0  0  0  0  0  0  0  0  0  0  0
    1.1380    1.3380    1.7875 H   0  0  0  0  0  0  0  0  0  0  0  0
    0.3573    3.3183    1.6807 C   0  0  0  0  0  0  0  0  0  0  0  0
   -0.6670    3.6090    1.9198 H   0  0  0  0  0  0  0  0  0  0  0  0
    1.0066    3.5397    2.5289 H   0  0  0  0  0  0  0  0  0  0  0  0
    0.6896    3.8897    0.8118 H   0  0  0  0  0  0  0  0  0  0  0  0
  5  6  2  0  0  0  0
  5  7  1  0  0  0  0
  2  3  1  0  0  0  0
  2  4  1  0  0  0  0
  2  5  1  0  0  0  0
  1  2  1  0  0  0  0
 20 21  2  0  0  0  0
 20 22  1  0  0  0  0
 17 18  1  0  0  0  0
 17 19  2  0  0  0  0
 14 15  1  0  0  0  0
 14 16  1  0  0  0  0
 14 17  1  0  0  0  0
 11 12  1  0  0  0  0
 11 13  1  0  0  0  0
 11 14  1  0  0  0  0
  9 10  1  0  0  0  0
  9 11  1  0  0  0  0
  9 20  1  0  0  0  0
  7  8  1  0  0  0  0
  7  9  1  0  0  0  0
 24 25  1  0  0  0  0
 24 26  1  0  0  0  0
 24 27  1  0  0  0  0
 22 23  1  0  0  0  0
 22 24  1  0  0  0  0
M  CHG  1  18  -1
M  END
$$$$
default_name
  -OEChem-02102213163D

 27 26  0     1  0  0  0  0  0999 V2000
   -3.2406   -3.5400    1.2326 H   0  0  0  0  0  0  0  0  0  0  0  0
   -3.1436   -2.6190    0.6606 C   0  0  0  0  0  0  0  0  0  0  0  0
   -3.8786   -1.8920    0.9996 H   0  0  0  0  0  0  0  0  0  0  0  0
   -3.2846   -2.8280   -0.3984 H   0  0  0  0  0  0  0  0  0  0  0  0
   -1.7586   -2.0580    0.8686 C   0  0  0  0  0  0  0  0  0  0  0  0
   -0.9666   -2.6340    1.6026 O   0  0  0  0  0  0  0  0  0  0  0  0
   -1.4866   -0.9220    0.2366 N   0  0  0  0  0  0  0  0  0  0  0  0
   -2.2166   -0.4790   -0.2994 H   0  0  0  0  0  0  0  0  0  0  0  0
   -0.1956   -0.2250    0.2596 C   0  0  1  0  0  0  0  0  0  0  0  0
    0.3927   -0.6026    1.0964 H   0  0  0  0  0  0  0  0  0  0  0  0
    0.5767   -0.5489   -1.0351 C   0  0  0  0  0  0  0  0  0  0  0  0
   -0.1279   -0.9802   -1.7479 H   0  0  0  0  0  0  0  0  0  0  0  0
    0.9732    0.3751   -1.4587 H   0  0  0  0  0  0  0  0  0  0  0  0
    1.7306   -1.5442   -0.8270 C   0  0  0  0  0  0  0  0  0  0  0  0
    2.2786   -1.2718    0.0781 H   0  0  0  0  0  0  0  0  0  0  0  0
    1.3025   -2.5387   -0.6754 H   0  0  0  0  0  0  0  0  0  0  0  0
    2.7159   -1.5911   -2.0043 C   0  0  0  0  0  0  0  0  0  0  0  0
    2.4336   -0.9494   -3.0411 O   0  5  0  0  0  0  0  0  0  0  0  0
    3.7609   -2.2579   -1.8350 O   0  0  0  0  0  0  0  0  0  0  0  0
   -0.3954    1.2887    0.4814 C   0  0  0  0  0  0  0  0  0  0  0  0
   -1.2761    1.9015   -0.1256 O   0  0  0  0  0  0  0  0  0  0  0  0
    0.4051    1.8919    1.3699 N   0  0  0  0  0  0  0  0  0  0  0  0
    1.1380    1.3380    1.7875 H   0  0  0  0  0  0  0  0  0  0  0  0
    0.3573    3.3183    1.6807 C   0  0  0  0  0  0  0  0  0  0  0  0
   -0.6670    3.6090    1.9198 H   0  0  0  0  0  0  0  0  0  0  0  0
    1.0066    3.5397    2.5289 H   0  0  0  0  0  0  0  0  0  0  0  0
    0.6896    3.8897    0.8118 H   0  0  0  0  0  0  0  0  0  0  0  0
  5  6  2  0  0  0  0
  5  7  1  0  0  0  0
  2  3  1  0  0  0  0
  2  4  1  0  0  0  0
  2  5  1  0  0  0  0
  1  2  1  0  0  0  0
 20 21  2  0  0  0  0
 20 22  1  0  0  0  0
 17 18  1  0  0  0  0
 17 19  2  0  0  0  0
 14 15  1  0  0  0  0
 14 16  1  0  0  0  0
 14 17  1  0  0  0  0
 11 12  1  0  0  0  0
 11 13  1  0  0  0  0
 11 14  1  0  0  0  0
  9 10  1  0  0  0  0
  9 11  1  0  0  0  0
  9 20  1  0  0  0  0
  7  8  1  0  0  0  0
  7  9  1  0  0  0  0
 24 25  1  0  0  0  0
 24 26  1  0  0  0  0
 24 27  1  0  0  0  0
 22 23  1  0  0  0  0
 22 24  1  0  0  0  0
M  CHG  1  18  -1
M  END
$$$$
default_name
  -OEChem-02102213163D

 27 26  0     1  0  0  0  0  0999 V2000
   -3.2406   -3.5400    1.2326 H   0  0  0  0  0  0  0  0  0  0  0  0
   -3.1436   -2.6190    0.6606 C   0  0  0  0  0  0  0  0  0  0  0  0
   -3.8786   -1.8920    0.9996 H   0  0  0  0  0  0  0  0  0  0  0  0
   -3.2846   -2.8280   -0.3984 H   0  0  0  0  0  0  0  0  0  0  0  0
   -1.7586   -2.0580    0.8686 C   0  0  0  0  0  0  0  0  0  0  0  0
   -0.9666   -2.6340    1.6026 O   0  0  0  0  0  0  0  0  0  0  0  0
   -1.4866   -0.9220    0.2366 N   0  0  0  0  0  0  0  0  0  0  0  0
   -2.2166   -0.4790   -0.2994 H   0  0  0  0  0  0  0  0  0  0  0  0
   -0.1956   -0.2250    0.2596 C   0  0  1  0  0  0  0  0  0  0  0  0
    0.3927   -0.6026    1.0964 H   0  0  0  0  0  0  0  0  0  0  0  0
    0.5767   -0.5489   -1.0351 C   0  0  0  0  0  0  0  0  0  0  0  0
   -0.1279   -0.9802   -1.7479 H   0  0  0  0  0  0  0  0  0  0  0  0
    0.9732    0.3751   -1.4587 H   0  0  0  0  0  0  0  0  0  0  0  0
    1.7306   -1.5442   -0.8270 C   0  0  0  0  0  0  0  0  0  0  0  0
    2.1079   -1.4455    0.1937 H   0  0  0  0  0  0  0  0  0  0  0  0
    1.3353   -2.5568   -0.9438 H   0  0  0  0  0  0  0  0  0  0  0  0
    2.8967   -1.3399   -1.8054 C   0  0  0  0  0  0  0  0  0  0  0  0
    2.7557   -0.5117   -2.7331 O   0  5  0  0  0  0  0  0  0  0  0  0
    3.9328   -2.0075   -1.5906 O   0  0  0  0  0  0  0  0  0  0  0  0
   -0.3954    1.2887    0.4814 C   0  0  0  0  0  0  0  0  0  0  0  0
   -1.2761    1.9015   -0.1256 O   0  0  0  0  0  0  0  0  0  0  0  0
    0.4051    1.8919    1.3699 N   0  0  0  0  0  0  0  0  0  0  0  0
    1.1380    1.3380    1.7875 H   0  0  0  0  0  0  0  0  0  0  0  0
    0.3573    3.3183    1.6807 C   0  0  0  0  0  0  0  0  0  0  0  0
   -0.6670    3.6090    1.9198 H   0  0  0  0  0  0  0  0  0  0  0  0
    1.0066    3.5397    2.5289 H   0  0  0  0  0  0  0  0  0  0  0  0
    0.6896    3.8897    0.8118 H   0  0  0  0  0  0  0  0  0  0  0  0
  5  6  2  0  0  0  0
  5  7  1  0  0  0  0
  2  3  1  0  0  0  0
  2  4  1  0  0  0  0
  2  5  1  0  0  0  0
  1  2  1  0  0  0  0
 20 21  2  0  0  0  0
 20 22  1  0  0  0  0
 17 18  1  0  0  0  0
 17 19  2  0  0  0  0
 14 15  1  0  0  0  0
 14 16  1  0  0  0  0
 14 17  1  0  0  0  0
 11 12  1  0  0  0  0
 11 13  1  0  0  0  0
 11 14  1  0  0  0  0
  9 10  1  0  0  0  0
  9 11  1  0  0  0  0
  9 20  1  0  0  0  0
  7  8  1  0  0  0  0
  7  9  1  0  0  0  0
 24 25  1  0  0  0  0
 24 26  1  0  0  0  0
 24 27  1  0  0  0  0
 22 23  1  0  0  0  0
 22 24  1  0  0  0  0
M  CHG  1  18  -1
M  END
$$$$
default_name
  -OEChem-02102213163D

 27 26  0     1  0  0  0  0  0999 V2000
   -3.2406   -3.5400    1.2326 H   0  0  0  0  0  0  0  0  0  0  0  0
   -3.1436   -2.6190    0.6606 C   0  0  0  0  0  0  0  0  0  0  0  0
   -3.8786   -1.8920    0.9996 H   0  0  0  0  0  0  0  0  0  0  0  0
   -3.2846   -2.8280   -0.3984 H   0  0  0  0  0  0  0  0  0  0  0  0
   -1.7586   -2.0580    0.8686 C   0  0  0  0  0  0  0  0  0  0  0  0
   -0.9666   -2.6340    1.6026 O   0  0  0  0  0  0  0  0  0  0  0  0
   -1.4866   -0.9220    0.2366 N   0  0  0  0  0  0  0  0  0  0  0  0
   -2.2166   -0.4790   -0.2994 H   0  0  0  0  0  0  0  0  0  0  0  0
   -0.1956   -0.2250    0.2596 C   0  0  1  0  0  0  0  0  0  0  0  0
    0.3927   -0.6026    1.0964 H   0  0  0  0  0  0  0  0  0  0  0  0
    0.5767   -0.5489   -1.0351 C   0  0  0  0  0  0  0  0  0  0  0  0
   -0.1279   -0.9802   -1.7479 H   0  0  0  0  0  0  0  0  0  0  0  0
    0.9732    0.3751   -1.4587 H   0  0  0  0  0  0  0  0  0  0  0  0
    1.7306   -1.5442   -0.8270 C   0  0  0  0  0  0  0  0  0  0  0  0
    1.9297   -1.6417    0.2429 H   0  0  0  0  0  0  0  0  0  0  0  0
    1.4126   -2.5210   -1.2010 H   0  0  0  0  0  0  0  0  0  0  0  0
    3.0293   -1.1295   -1.5342 C   0  0  0  0  0  0  0  0  0  0  0  0
    2.9998   -0.1374   -2.2967 O   0  5  0  0  0  0  0  0  0  0  0  0
    4.0491   -1.8071   -1.2771 O   0  0  0  0  0  0  0  0  0  0  0  0
   -0.3954    1.2887    0.4814 C   0  0  0  0  0  0  0  0  0  0  0  0
   -1.2761    1.9015   -0.1256 O   0  0  0  0  0  0  0  0  0  0  0  0
    0.4051    1.8919    1.3699 N   0  0  0  0  0  0  0  0  0  0  0  0
    1.1380    1.3380    1.7875 H   0  0  0  0  0  0  0  0  0  0  0  0
    0.3573    3.3183    1.6807 C   0  0  0  0  0  0  0  0  0  0  0  0
   -0.6670    3.6090    1.9198 H   0  0  0  0  0  0  0  0  0  0  0  0
    1.0066    3.5397    2.5289 H   0  0  0  0  0  0  0  0  0  0  0  0
    0.6896    3.8897    0.8118 H   0  0  0  0  0  0  0  0  0  0  0  0
  5  6  2  0  0  0  0
  5  7  1  0  0  0  0
  2  3  1  0  0  0  0
  2  4  1  0  0  0  0
  2  5  1  0  0  0  0
  1  2  1  0  0  0  0
 20 21  2  0  0  0  0
 20 22  1  0  0  0  0
 17 18  1  0  0  0  0
 17 19  2  0  0  0  0
 14 15  1  0  0  0  0
 14 16  1  0  0  0  0
 14 17  1  0  0  0  0
 11 12  1  0  0  0  0
 11 13  1  0  0  0  0
 11 14  1  0  0  0  0
  9 10  1  0  0  0  0
  9 11  1  0  0  0  0
  9 20  1  0  0  0  0
  7  8  1  0  0  0  0
  7  9  1  0  0  0  0
 24 25  1  0  0  0  0
 24 26  1  0  0  0  0
 24 27  1  0  0  0  0
 22 23  1  0  0  0  0
 22 24  1  0  0  0  0
M  CHG  1  18  -1
M  END
$$$$
default_name
  -OEChem-02102213163D

 27 26  0     1  0  0  0  0  0999 V2000
   -3.2406   -3.5400    1.2326 H   0  0  0  0  0  0  0  0  0  0  0  0
   -3.1436   -2.6190    0.6606 C   0  0  0  0  0  0  0  0  0  0  0  0
   -3.8786   -1.8920    0.9996 H   0  0  0  0  0  0  0  0  0  0  0  0
   -3.2846   -2.8280   -0.3984 H   0  0  0  0  0  0  0  0  0  0  0  0
   -1.7586   -2.0580    0.8686 C   0  0  0  0  0  0  0  0  0  0  0  0
   -0.9666   -2.6340    1.6026 O   0  0  0  0  0  0  0  0  0  0  0  0
   -1.4866   -0.9220    0.2366 N   0  0  0  0  0  0  0  0  0  0  0  0
   -2.2166   -0.4790   -0.2994 H   0  0  0  0  0  0  0  0  0  0  0  0
   -0.1956   -0.2250    0.2596 C   0  0  1  0  0  0  0  0  0  0  0  0
    0.3927   -0.6026    1.0964 H   0  0  0  0  0  0  0  0  0  0  0  0
    0.5767   -0.5489   -1.0351 C   0  0  0  0  0  0  0  0  0  0  0  0
   -0.1279   -0.9802   -1.7479 H   0  0  0  0  0  0  0  0  0  0  0  0
    0.9732    0.3751   -1.4587 H   0  0  0  0  0  0  0  0  0  0  0  0
    1.7306   -1.5442   -0.8270 C   0  0  0  0  0  0  0  0  0  0  0  0
    1.7563   -1.8470    0.2225 H   0  0  0  0  0  0  0  0  0  0  0  0
    1.5290   -2.4338   -1.4296 H   0  0  0  0  0  0  0  0  0  0  0  0
    3.1046   -0.9743   -1.2092 C   0  0  0  0  0  0  0  0  0  0  0  0
    3.1495    0.1480   -1.7615 O   0  5  0  0  0  0  0  0  0  0  0  0
    4.1020   -1.6703   -0.9159 O   0  0  0  0  0  0  0  0  0  0  0  0
   -0.3954    1.2887    0.4814 C   0  0  0  0  0  0  0  0  0  0  0  0
   -1.2761    1.9015   -0.1256 O   0  0  0  0  0  0  0  0  0  0  0  0
    0.4051    1.8919    1.3699 N   0  0  0  0  0  0  0  0  0  0  0  0
    1.1380    1.3380    1.7875 H   0  0  0  0  0  0  0  0  0  0  0  0
    0.3573    3.3183    1.6807 C   0  0  0  0  0  0  0  0  0  0  0  0
   -0.6670    3.6090    1.9198 H   0  0  0  0  0  0  0  0  0  0  0  0
    1.0066    3.5397    2.5289 H   0  0  0  0  0  0  0  0  0  0  0  0
    0.6896    3.8897    0.8118 H   0  0  0  0  0  0  0  0  0  0  0  0
  5  6  2  0  0  0  0
  5  7  1  0  0  0  0
  2  3  1  0  0  0  0
  2  4  1  0  0  0  0
  2  5  1  0  0  0  0
  1  2  1  0  0  0  0
 20 21  2  0  0  0  0
 20 22  1  0  0  0  0
 17 18  1  0  0  0  0
 17 19  2  0  0  0  0
 14 15  1  0  0  0  0
 14 16  1  0  0  0  0
 14 17  1  0  0  0  0
 11 12  1  0  0  0  0
 11 13  1  0  0  0  0
 11 14  1  0  0  0  0
  9 10  1  0  0  0  0
  9 11  1  0  0  0  0
  9 20  1  0  0  0  0
  7  8  1  0  0  0  0
  7  9  1  0  0  0  0
 24 25  1  0  0  0  0
 24 26  1  0  0  0  0
 24 27  1  0  0  0  0
 22 23  1  0  0  0  0
 22 24  1  0  0  0  0
M  CHG  1  18  -1
M  END
$$$$
default_name
  -OEChem-02102213163D

 27 26  0     1  0  0  0  0  0999 V2000
   -3.2406   -3.5400    1.2326 H   0  0  0  0  0  0  0  0  0  0  0  0
   -3.1436   -2.6190    0.6606 C   0  0  0  0  0  0  0  0  0  0  0  0
   -3.8786   -1.8920    0.9996 H   0  0  0  0  0  0  0  0  0  0  0  0
   -3.2846   -2.8280   -0.3984 H   0  0  0  0  0  0  0  0  0  0  0  0
   -1.7586   -2.0580    0.8686 C   0  0  0  0  0  0  0  0  0  0  0  0
   -0.9666   -2.6340    1.6026 O   0  0  0  0  0  0  0  0  0  0  0  0
   -1.4866   -0.9220    0.2366 N   0  0  0  0  0  0  0  0  0  0  0  0
   -2.2166   -0.4790   -0.2994 H   0  0  0  0  0  0  0  0  0  0  0  0
   -0.1956   -0.2250    0.2596 C   0  0  1  0  0  0  0  0  0  0  0  0
    0.3927   -0.6026    1.0964 H   0  0  0  0  0  0  0  0  0  0  0  0
    0.5767   -0.5489   -1.0351 C   0  0  0  0  0  0  0  0  0  0  0  0
   -0.1279   -0.9802   -1.7479 H   0  0  0  0  0  0  0  0  0  0  0  0
    0.9732    0.3751   -1.4587 H   0  0  0  0  0  0  0  0  0  0  0  0
    1.7306   -1.5442   -0.8270 C   0  0  0  0  0  0  0  0  0  0  0  0
    1.5993   -2.0475    0.1339 H   0  0  0  0  0  0  0  0  0  0  0  0
    1.6768   -2.3011   -1.6140 H   0  0  0  0  0  0  0  0  0  0  0  0
    3.1174   -0.8848   -0.8526 C   0  0  0  0  0  0  0  0  0  0  0  0
    3.1944    0.3249   -1.1641 O   0  5  0  0  0  0  0  0  0  0  0  0
    4.0877   -1.6065   -0.5316 O   0  0  0  0  0  0  0  0  0  0  0  0
   -0.3954    1.2887    0.4814 C   0  0  0  0  0  0  0  0  0  0  0  0
   -1.2761    1.9015   -0.1256 O   0  0  0  0  0  0  0  0  0  0  0  0
    0.4051    1.8919    1.3699 N   0  0  0  0  0  0  0  0  0  0  0  0
    1.1380    1.3380    1.7875 H   0  0  0  0  0  0  0  0  0  0  0  0
    0.3573    3.3183    1.6807 C   0  0  0  0  0  0  0  0  0  0  0  0
   -0.6670    3.6090    1.9198 H   0  0  0  0  0  0  0  0  0  0  0  0
    1.0066    3.5397    2.5289 H   0  0  0  0  0  0  0  0  0  0  0  0
    0.6896    3.8897    0.8118 H   0  0  0  0  0  0  0  0  0  0  0  0
  5  6  2  0  0  0  0
  5  7  1  0  0  0  0
  2  3  1  0  0  0  0
  2  4  1  0  0  0  0
  2  5  1  0  0  0  0
  1  2  1  0  0  0  0
 20 21  2  0  0  0  0
 20 22  1  0  0  0  0
 17 18  1  0  0  0  0
 17 19  2  0  0  0  0
 14 15  1  0  0  0  0
 14 16  1  0  0  0  0
 14 17  1  0  0  0  0
 11 12  1  0  0  0  0
 11 13  1  0  0  0  0
 11 14  1  0  0  0  0
  9 10  1  0  0  0  0
  9 11  1  0  0  0  0
  9 20  1  0  0  0  0
  7  8  1  0  0  0  0
  7  9  1  0  0  0  0
 24 25  1  0  0  0  0
 24 26  1  0  0  0  0
 24 27  1  0  0  0  0
 22 23  1  0  0  0  0
 22 24  1  0  0  0  0
M  CHG  1  18  -1
M  END
$$$$
default_name
  -OEChem-02102213163D

 27 26  0     1  0  0  0  0  0999 V2000
   -3.2406   -3.5400    1.2326 H   0  0  0  0  0  0  0  0  0  0  0  0
   -3.1436   -2.6190    0.6606 C   0  0  0  0  0  0  0  0  0  0  0  0
   -3.8786   -1.8920    0.9996 H   0  0  0  0  0  0  0  0  0  0  0  0
   -3.2846   -2.8280   -0.3984 H   0  0  0  0  0  0  0  0  0  0  0  0
   -1.7586   -2.0580    0.8686 C   0  0  0  0  0  0  0  0  0  0  0  0
   -0.9666   -2.6340    1.6026 O   0  0  0  0  0  0  0  0  0  0  0  0
   -1.4866   -0.9220    0.2366 N   0  0  0  0  0  0  0  0  0  0  0  0
   -2.2166   -0.4790   -0.2994 H   0  0  0  0  0  0  0  0  0  0  0  0
   -0.1956   -0.2250    0.2596 C   0  0  1  0  0  0  0  0  0  0  0  0
    0.3927   -0.6026    1.0964 H   0  0  0  0  0  0  0  0  0  0  0  0
    0.5767   -0.5489   -1.0351 C   0  0  0  0  0  0  0  0  0  0  0  0
   -0.1279   -0.9802   -1.7479 H   0  0  0  0  0  0  0  0  0  0  0  0
    0.9732    0.3751   -1.4587 H   0  0  0  0  0  0  0  0  0  0  0  0
    1.7306   -1.5442   -0.8270 C   0  0  0  0  0  0  0  0  0  0  0  0
    1.4696   -2.2294   -0.0169 H   0  0  0  0  0  0  0  0  0  0  0  0
    1.8457   -2.1320   -1.7416 H   0  0  0  0  0  0  0  0  0  0  0  0
    3.0670   -0.8672   -0.4885 C   0  0  0  0  0  0  0  0  0  0  0  0
    3.1315    0.3814   -0.5453 O   0  5  0  0  0  0  0  0  0  0  0  0
    4.0074   -1.6199   -0.1504 O   0  0  0  0  0  0  0  0  0  0  0  0
   -0.3954    1.2887    0.4814 C   0  0  0  0  0  0  0  0  0  0  0  0
   -1.2761    1.9015   -0.1256 O   0  0  0  0  0  0  0  0  0  0  0  0
    0.4051    1.8919    1.3699 N   0  0  0  0  0  0  0  0  0  0  0  0
    1.1380    1.3380    1.7875 H   0  0  0  0  0  0  0  0  0  0  0  0
    0.3573    3.3183    1.6807 C   0  0  0  0  0  0  0  0  0  0  0  0
   -0.6670    3.6090    1.9198 H   0  0  0  0  0  0  0  0  0  0  0  0
    1.0066    3.5397    2.5289 H   0  0  0  0  0  0  0  0  0  0  0  0
    0.6896    3.8897    0.8118 H   0  0  0  0  0  0  0  0  0  0  0  0
  5  6  2  0  0  0  0
  5  7  1  0  0  0  0
  2  3  1  0  0  0  0
  2  4  1  0  0  0  0
  2  5  1  0  0  0  0
  1  2  1  0  0  0  0
 20 21  2  0  0  0  0
 20 22  1  0  0  0  0
 17 18  1  0  0  0  0
 17 19  2  0  0  0  0
 14 15  1  0  0  0  0
 14 16  1  0  0  0  0
 14 17  1  0  0  0  0
 11 12  1  0  0  0  0
 11 13  1  0  0  0  0
 11 14  1  0  0  0  0
  9 10  1  0  0  0  0
  9 11  1  0  0  0  0
  9 20  1  0  0  0  0
  7  8  1  0  0  0  0
  7  9  1  0  0  0  0
 24 25  1  0  0  0  0
 24 26  1  0  0  0  0
 24 27  1  0  0  0  0
 22 23  1  0  0  0  0
 22 24  1  0  0  0  0
M  CHG  1  18  -1
M  END
$$$$
default_name
  -OEChem-02102213163D

 27 26  0     1  0  0  0  0  0999 V2000
   -3.2406   -3.5400    1.2326 H   0  0  0  0  0  0  0  0  0  0  0  0
   -3.1436   -2.6190    0.6606 C   0  0  0  0  0  0  0  0  0  0  0  0
   -3.8786   -1.8920    0.9996 H   0  0  0  0  0  0  0  0  0  0  0  0
   -3.2846   -2.8280   -0.3984 H   0  0  0  0  0  0  0  0  0  0  0  0
   -1.7586   -2.0580    0.8686 C   0  0  0  0  0  0  0  0  0  0  0  0
   -0.9666   -2.6340    1.6026 O   0  0  0  0  0  0  0  0  0  0  0  0
   -1.4866   -0.9220    0.2366 N   0  0  0  0  0  0  0  0  0  0  0  0
   -2.2166   -0.4790   -0.2994 H   0  0  0  0  0  0  0  0  0  0  0  0
   -0.1956   -0.2250    0.2596 C   0  0  1  0  0  0  0  0  0  0  0  0
    0.3927   -0.6026    1.0964 H   0  0  0  0  0  0  0  0  0  0  0  0
    0.5767   -0.5489   -1.0351 C   0  0  0  0  0  0  0  0  0  0  0  0
   -0.1279   -0.9802   -1.7479 H   0  0  0  0  0  0  0  0  0  0  0  0
    0.9732    0.3751   -1.4587 H   0  0  0  0  0  0  0  0  0  0  0  0
    1.7306   -1.5442   -0.8270 C   0  0  0  0  0  0  0  0  0  0  0  0
    1.3759   -2.3804   -0.2196 H   0  0  0  0  0  0  0  0  0  0  0  0
    2.0243   -1.9379   -1.8037 H   0  0  0  0  0  0  0  0  0  0  0  0
    2.9566   -0.9227   -0.1419 C   0  0  0  0  0  0  0  0  0  0  0  0
    2.9651    0.3136    0.0530 O   0  5  0  0  0  0  0  0  0  0  0  0
    3.8664   -1.7098    0.2017 O   0  0  0  0  0  0  0  0  0  0  0  0
   -0.3954    1.2887    0.4814 C   0  0  0  0  0  0  0  0  0  0  0  0
   -1.2761    1.9015   -0.1256 O   0  0  0  0  0  0  0  0  0  0  0  0
    0.4051    1.8919    1.3699 N   0  0  0  0  0  0  0  0  0  0  0  0
    1.1380    1.3380    1.7875 H   0  0  0  0  0  0  0  0  0  0  0  0
    0.3573    3.3183    1.6807 C   0  0  0  0  0  0  0  0  0  0  0  0
   -0.6670    3.6090    1.9198 H   0  0  0  0  0  0  0  0  0  0  0  0
    1.0066    3.5397    2.5289 H   0  0  0  0  0  0  0  0  0  0  0  0
    0.6896    3.8897    0.8118 H   0  0  0  0  0  0  0  0  0  0  0  0
  5  6  2  0  0  0  0
  5  7  1  0  0  0  0
  2  3  1  0  0  0  0
  2  4  1  0  0  0  0
  2  5  1  0  0  0  0
  1  2  1  0  0  0  0
 20 21  2  0  0  0  0
 20 22  1  0  0  0  0
 17 18  1  0  0  0  0
 17 19  2  0  0  0  0
 14 15  1  0  0  0  0
 14 16  1  0  0  0  0
 14 17  1  0  0  0  0
 11 12  1  0  0  0  0
 11 13  1  0  0  0  0
 11 14  1  0  0  0  0
  9 10  1  0  0  0  0
  9 11  1  0  0  0  0
  9 20  1  0  0  0  0
  7  8  1  0  0  0  0
  7  9  1  0  0  0  0
 24 25  1  0  0  0  0
 24 26  1  0  0  0  0
 24 27  1  0  0  0  0
 22 23  1  0  0  0  0
 22 24  1  0  0  0  0
M  CHG  1  18  -1
M  END
$$$$
default_name
  -OEChem-02102213163D

 27 26  0     1  0  0  0  0  0999 V2000
   -3.2406   -3.5400    1.2326 H   0  0  0  0  0  0  0  0  0  0  0  0
   -3.1436   -2.6190    0.6606 C   0  0  0  0  0  0  0  0  0  0  0  0
   -3.8786   -1.8920    0.9996 H   0  0  0  0  0  0  0  0  0  0  0  0
   -3.2846   -2.8280   -0.3984 H   0  0  0  0  0  0  0  0  0  0  0  0
   -1.7586   -2.0580    0.8686 C   0  0  0  0  0  0  0  0  0  0  0  0
   -0.9666   -2.6340    1.6026 O   0  0  0  0  0  0  0  0  0  0  0  0
   -1.4866   -0.9220    0.2366 N   0  0  0  0  0  0  0  0  0  0  0  0
   -2.2166   -0.4790   -0.2994 H   0  0  0  0  0  0  0  0  0  0  0  0
   -0.1956   -0.2250    0.2596 C   0  0  1  0  0  0  0  0  0  0  0  0
    0.3927   -0.6026    1.0964 H   0  0  0  0  0  0  0  0  0  0  0  0
    0.5767   -0.5489   -1.0351 C   0  0  0  0  0  0  0  0  0  0  0  0
   -0.1279   -0.9802   -1.7479 H   0  0  0  0  0  0  0  0  0  0  0  0
    0.9732    0.3751   -1.4587 H   0  0  0  0  0  0  0  0  0  0  0  0
    1.7306   -1.5442   -0.8270 C   0  0  0  0  0  0  0  0  0  0  0  0
    1.3246   -2.4901   -0.4604 H   0  0  0  0  0  0  0  0  0  0  0  0
    2.2005   -1.7321   -1.7960 H   0  0  0  0  0  0  0  0  0  0  0  0
    2.7939   -1.0474    0.1636 C   0  0  0  0  0  0  0  0  0  0  0  0
    2.7065    0.1261    0.5898 O   0  5  0  0  0  0  0  0  0  0  0  0
    3.6743   -1.8699    0.5008 O   0  0  0  0  0  0  0  0  0  0  0  0
   -0.3954    1.2887    0.4814 C   0  0  0  0  0  0  0  0  0  0  0  0
   -1.2761    1.9015   -0.1256 O   0  0  0  0  0  0  0  0  0  0  0  0
    0.4051    1.8919    1.3699 N   0  0  0  0  0  0  0  0  0  0  0  0
    1.1380    1.3380    1.7875 H   0  0  0  0  0  0  0  0  0  0  0  0
    0.3573    3.3183    1.6807 C   0  0  0  0  0  0  0  0  0  0  0  0
   -0.6670    3.6090    1.9198 H   0  0  0  0  0  0  0  0  0  0  0  0
    1.0066    3.5397    2.5289 H   0  0  0  0  0  0  0  0  0  0  0  0
    0.6896    3.8897    0.8118 H   0  0  0  0  0  0  0  0  0  0  0  0
  5  6  2  0  0  0  0
  5  7  1  0  0  0  0
  2  3  1  0  0  0  0
  2  4  1  0  0  0  0
  2  5  1  0  0  0  0
  1  2  1  0  0  0  0
 20 21  2  0  0  0  0
 20 22  1  0  0  0  0
 17 18  1  0  0  0  0
 17 19  2  0  0  0  0
 14 15  1  0  0  0  0
 14 16  1  0  0  0  0
 14 17  1  0  0  0  0
 11 12  1  0  0  0  0
 11 13  1  0  0  0  0
 11 14  1  0  0  0  0
  9 10  1  0  0  0  0
  9 11  1  0  0  0  0
  9 20  1  0  0  0  0
  7  8  1  0  0  0  0
  7  9  1  0  0  0  0
 24 25  1  0  0  0  0
 24 26  1  0  0  0  0
 24 27  1  0  0  0  0
 22 23  1  0  0  0  0
 22 24  1  0  0  0  0
M  CHG  1  18  -1
M  END
$$$$
default_name
  -OEChem-02102213163D

 27 26  0     1  0  0  0  0  0999 V2000
   -3.2406   -3.5400    1.2326 H   0  0  0  0  0  0  0  0  0  0  0  0
   -3.1436   -2.6190    0.6606 C   0  0  0  0  0  0  0  0  0  0  0  0
   -3.8786   -1.8920    0.9996 H   0  0  0  0  0  0  0  0  0  0  0  0
   -3.2846   -2.8280   -0.3984 H   0  0  0  0  0  0  0  0  0  0  0  0
   -1.7586   -2.0580    0.8686 C   0  0  0  0  0  0  0  0  0  0  0  0
   -0.9666   -2.6340    1.6026 O   0  0  0  0  0  0  0  0  0  0  0  0
   -1.4866   -0.9220    0.2366 N   0  0  0  0  0  0  0  0  0  0  0  0
   -2.2166   -0.4790   -0.2994 H   0  0  0  0  0  0  0  0  0  0  0  0
   -0.1956   -0.2250    0.2596 C   0  0  1  0  0  0  0  0  0  0  0  0
    0.3927   -0.6026    1.0964 H   0  0  0  0  0  0  0  0  0  0  0  0
    0.5767   -0.5489   -1.0351 C   0  0  0  0  0  0  0  0  0  0  0  0
   -0.1279   -0.9802   -1.7479 H   0  0  0  0  0  0  0  0  0  0  0  0
    0.9732    0.3751   -1.4587 H   0  0  0  0  0  0  0  0  0  0  0  0
    1.7306   -1.5442   -0.8270 C   0  0  0  0  0  0  0  0  0  0  0  0
    1.3193   -2.5512   -0.7229 H   0  0  0  0  0  0  0  0  0  0  0  0
    2.3621   -1.5287   -1.7192 H   0  0  0  0  0  0  0  0  0  0  0  0
    2.5899   -1.2329    0.4073 C   0  0  0  0  0  0  0  0  0  0  0  0
    2.3734   -0.1682    1.0286 O   0  5  0  0  0  0  0  0  0  0  0  0
    3.4443   -2.0893    0.7265 O   0  0  0  0  0  0  0  0  0  0  0  0
   -0.3954    1.2887    0.4814 C   0  0  0  0  0  0  0  0  0  0  0  0
   -1.2761    1.9015   -0.1256 O   0  0  0  0  0  0  0  0  0  0  0  0
    0.4051    1.8919    1.3699 N   0  0  0  0  0  0  0  0  0  0  0  0
    1.1380    1.3380    1.7875 H   0  0  0  0  0  0  0  0  0  0  0  0
    0.3573    3.3183    1.6807 C   0  0  0  0  0  0  0  0  0  0  0  0
   -0.6670    3.6090    1.9198 H   0  0  0  0  0  0  0  0  0  0  0  0
    1.0066    3.5397    2.5289 H   0  0  0  0  0  0  0  0  0  0  0  0
    0.6896    3.8897    0.8118 H   0  0  0  0  0  0  0  0  0  0  0  0
  5  6  2  0  0  0  0
  5  7  1  0  0  0  0
  2  3  1  0  0  0  0
  2  4  1  0  0  0  0
  2  5  1  0  0  0  0
  1  2  1  0  0  0  0
 20 21  2  0  0  0  0
 20 22  1  0  0  0  0
 17 18  1  0  0  0  0
 17 19  2  0  0  0  0
 14 15  1  0  0  0  0
 14 16  1  0  0  0  0
 14 17  1  0  0  0  0
 11 12  1  0  0  0  0
 11 13  1  0  0  0  0
 11 14  1  0  0  0  0
  9 10  1  0  0  0  0
  9 11  1  0  0  0  0
  9 20  1  0  0  0  0
  7  8  1  0  0  0  0
  7  9  1  0  0  0  0
 24 25  1  0  0  0  0
 24 26  1  0  0  0  0
 24 27  1  0  0  0  0
 22 23  1  0  0  0  0
 22 24  1  0  0  0  0
M  CHG  1  18  -1
M  END
$$$$
default_name
  -OEChem-02102213163D

 27 26  0     1  0  0  0  0  0999 V2000
   -3.2406   -3.5400    1.2326 H   0  0  0  0  0  0  0  0  0  0  0  0
   -3.1436   -2.6190    0.6606 C   0  0  0  0  0  0  0  0  0  0  0  0
   -3.8786   -1.8920    0.9996 H   0  0  0  0  0  0  0  0  0  0  0  0
   -3.2846   -2.8280   -0.3984 H   0  0  0  0  0  0  0  0  0  0  0  0
   -1.7586   -2.0580    0.8686 C   0  0  0  0  0  0  0  0  0  0  0  0
   -0.9666   -2.6340    1.6026 O   0  0  0  0  0  0  0  0  0  0  0  0
   -1.4866   -0.9220    0.2366 N   0  0  0  0  0  0  0  0  0  0  0  0
   -2.2166   -0.4790   -0.2994 H   0  0  0  0  0  0  0  0  0  0  0  0
   -0.1956   -0.2250    0.2596 C   0  0  1  0  0  0  0  0  0  0  0  0
    0.3927   -0.6026    1.0964 H   0  0  0  0  0  0  0  0  0  0  0  0
    0.5767   -0.5489   -1.0351 C   0  0  0  0  0  0  0  0  0  0  0  0
   -0.1279   -0.9802   -1.7479 H   0  0  0  0  0  0  0  0  0  0  0  0
    0.9732    0.3751   -1.4587 H   0  0  0  0  0  0  0  0  0  0  0  0
    1.7306   -1.5442   -0.8270 C   0  0  0  0  0  0  0  0  0  0  0  0
    1.3603   -2.5594   -0.9892 H   0  0  0  0  0  0  0  0  0  0  0  0
    2.4983   -1.3414   -1.5784 H   0  0  0  0  0  0  0  0  0  0  0  0
    2.3586   -1.4665    0.5724 C   0  0  0  0  0  0  0  0  0  0  0  0
    1.9885   -0.5495    1.3395 O   0  5  0  0  0  0  0  0  0  0  0  0
    3.1920   -2.3531    0.8633 O   0  0  0  0  0  0  0  0  0  0  0  0
   -0.3954    1.2887    0.4814 C   0  0  0  0  0  0  0  0  0  0  0  0
   -1.2761    1.9015   -0.1256 O   0  0  0  0  0  0  0  0  0  0  0  0
    0.4051    1.8919    1.3699 N   0  0  0  0  0  0  0  0  0  0  0  0
    1.1380    1.3380    1.7875 H   0  0  0  0  0  0  0  0  0  0  0  0
    0.3573    3.3183    1.6807 C   0  0  0  0  0  0  0  0  0  0  0  0
   -0.6670    3.6090    1.9198 H   0  0  0  0  0  0  0  0  0  0  0  0
    1.0066    3.5397    2.5289 H   0  0  0  0  0  0  0  0  0  0  0  0
    0.6896    3.8897    0.8118 H   0  0  0  0  0  0  0  0  0  0  0  0
  5  6  2  0  0  0  0
  5  7  1  0  0  0  0
  2  3  1  0  0  0  0
  2  4  1  0  0  0  0
  2  5  1  0  0  0  0
  1  2  1  0  0  0  0
 20 21  2  0  0  0  0
 20 22  1  0  0  0  0
 17 18  1  0  0  0  0
 17 19  2  0  0  0  0
 14 15  1  0  0  0  0
 14 16  1  0  0  0  0
 14 17  1  0  0  0  0
 11 12  1  0  0  0  0
 11 13  1  0  0  0  0
 11 14  1  0  0  0  0
  9 10  1  0  0  0  0
  9 11  1  0  0  0  0
  9 20  1  0  0  0  0
  7  8  1  0  0  0  0
  7  9  1  0  0  0  0
 24 25  1  0  0  0  0
 24 26  1  0  0  0  0
 24 27  1  0  0  0  0
 22 23  1  0  0  0  0
 22 24  1  0  0  0  0
M  CHG  1  18  -1
M  END
$$$$
default_name
  -OEChem-02102213163D

 27 26  0     1  0  0  0  0  0999 V2000
   -3.2406   -3.5400    1.2326 H   0  0  0  0  0  0  0  0  0  0  0  0
   -3.1436   -2.6190    0.6606 C   0  0  0  0  0  0  0  0  0  0  0  0
   -3.8786   -1.8920    0.9996 H   0  0  0  0  0  0  0  0  0  0  0  0
   -3.2846   -2.8280   -0.3984 H   0  0  0  0  0  0  0  0  0  0  0  0
   -1.7586   -2.0580    0.8686 C   0  0  0  0  0  0  0  0  0  0  0  0
   -0.9666   -2.6340    1.6026 O   0  0  0  0  0  0  0  0  0  0  0  0
   -1.4866   -0.9220    0.2366 N   0  0  0  0  0  0  0  0  0  0  0  0
   -2.2166   -0.4790   -0.2994 H   0  0  0  0  0  0  0  0  0  0  0  0
   -0.1956   -0.2250    0.2596 C   0  0  1  0  0  0  0  0  0  0  0  0
    0.3927   -0.6026    1.0964 H   0  0  0  0  0  0  0  0  0  0  0  0
    0.5767   -0.5489   -1.0351 C   0  0  0  0  0  0  0  0  0  0  0  0
   -0.1279   -0.9802   -1.7479 H   0  0  0  0  0  0  0  0  0  0  0  0
    0.9732    0.3751   -1.4587 H   0  0  0  0  0  0  0  0  0  0  0  0
    1.7306   -1.5442   -0.8270 C   0  0  0  0  0  0  0  0  0  0  0  0
    1.4448   -2.5142   -1.2412 H   0  0  0  0  0  0  0  0  0  0  0  0
    2.5996   -1.1831   -1.3833 H   0  0  0  0  0  0  0  0  0  0  0  0
    2.1157   -1.7324    0.6478 C   0  0  0  0  0  0  0  0  0  0  0  0
    1.5779   -0.9915    1.5014 O   0  5  0  0  0  0  0  0  0  0  0  0
    2.9347   -2.6433    0.9020 O   0  0  0  0  0  0  0  0  0  0  0  0
   -0.3954    1.2887    0.4814 C   0  0  0  0  0  0  0  0  0  0  0  0
   -1.2761    1.9015   -0.1256 O   0  0  0  0  0  0  0  0  0  0  0  0
    0.4051    1.8919    1.3699 N   0  0  0  0  0  0  0  0  0  0  0  0
    1.1380    1.3380    1.7875 H   0  0  0  0  0  0  0  0  0  0  0  0
    0.3573    3.3183    1.6807 C   0  0  0  0  0  0  0  0  0  0  0  0
   -0.6670    3.6090    1.9198 H   0  0  0  0  0  0  0  0  0  0  0  0
    1.0066    3.5397    2.5289 H   0  0  0  0  0  0  0  0  0  0  0  0
    0.6896    3.8897    0.8118 H   0  0  0  0  0  0  0  0  0  0  0  0
  5  6  2  0  0  0  0
  5  7  1  0  0  0  0
  2  3  1  0  0  0  0
  2  4  1  0  0  0  0
  2  5  1  0  0  0  0
  1  2  1  0  0  0  0
 20 21  2  0  0  0  0
 20 22  1  0  0  0  0
 17 18  1  0  0  0  0
 17 19  2  0  0  0  0
 14 15  1  0  0  0  0
 14 16  1  0  0  0  0
 14 17  1  0  0  0  0
 11 12  1  0  0  0  0
 11 13  1  0  0  0  0
 11 14  1  0  0  0  0
  9 10  1  0  0  0  0
  9 11  1  0  0  0  0
  9 20  1  0  0  0  0
  7  8  1  0  0  0  0
  7  9  1  0  0  0  0
 24 25  1  0  0  0  0
 24 26  1  0  0  0  0
 24 27  1  0  0  0  0
 22 23  1  0  0  0  0
 22 24  1  0  0  0  0
M  CHG  1  18  -1
M  END
$$$$
default_name
  -OEChem-02102213163D

 27 26  0     1  0  0  0  0  0999 V2000
   -3.2406   -3.5400    1.2326 H   0  0  0  0  0  0  0  0  0  0  0  0
   -3.1436   -2.6190    0.6606 C   0  0  0  0  0  0  0  0  0  0  0  0
   -3.8786   -1.8920    0.9996 H   0  0  0  0  0  0  0  0  0  0  0  0
   -3.2846   -2.8280   -0.3984 H   0  0  0  0  0  0  0  0  0  0  0  0
   -1.7586   -2.0580    0.8686 C   0  0  0  0  0  0  0  0  0  0  0  0
   -0.9666   -2.6340    1.6026 O   0  0  0  0  0  0  0  0  0  0  0  0
   -1.4866   -0.9220    0.2366 N   0  0  0  0  0  0  0  0  0  0  0  0
   -2.2166   -0.4790   -0.2994 H   0  0  0  0  0  0  0  0  0  0  0  0
   -0.1956   -0.2250    0.2596 C   0  0  1  0  0  0  0  0  0  0  0  0
    0.3927   -0.6026    1.0964 H   0  0  0  0  0  0  0  0  0  0  0  0
    0.5767   -0.5489   -1.0351 C   0  0  0  0  0  0  0  0  0  0  0  0
   -0.1279   -0.9802   -1.7479 H   0  0  0  0  0  0  0  0  0  0  0  0
    0.9732    0.3751   -1.4587 H   0  0  0  0  0  0  0  0  0  0  0  0
    1.7306   -1.5442   -0.8270 C   0  0  0  0  0  0  0  0  0  0  0  0
    1.5670   -2.4186   -1.4616 H   0  0  0  0  0  0  0  0  0  0  0  0
    2.6593   -1.0645   -1.1470 H   0  0  0  0  0  0  0  0  0  0  0  0
    1.8777   -2.0123    0.6284 C   0  0  0  0  0  0  0  0  0  0  0  0
    1.1697   -1.4644    1.5030 O   0  5  0  0  0  0  0  0  0  0  0  0
    2.6898   -2.9402    0.8399 O   0  0  0  0  0  0  0  0  0  0  0  0
   -0.3954    1.2887    0.4814 C   0  0  0  0  0  0  0  0  0  0  0  0
   -1.2761    1.9015   -0.1256 O   0  0  0  0  0  0  0  0  0  0  0  0
    0.4051    1.8919    1.3699 N   0  0  0  0  0  0  0  0  0  0  0  0
    1.1380    1.3380    1.7875 H   0  0  0  0  0  0  0  0  0  0  0  0
    0.3573    3.3183    1.6807 C   0  0  0  0  0  0  0  0  0  0  0  0
   -0.6670    3.6090    1.9198 H   0  0  0  0  0  0  0  0  0  0  0  0
    1.0066    3.5397    2.5289 H   0  0  0  0  0  0  0  0  0  0  0  0
    0.6896    3.8897    0.8118 H   0  0  0  0  0  0  0  0  0  0  0  0
  5  6  2  0  0  0  0
  5  7  1  0  0  0  0
  2  3  1  0  0  0  0
  2  4  1  0  0  0  0
  2  5  1  0  0  0  0
  1  2  1  0  0  0  0
 20 21  2  0  0  0  0
 20 22  1  0  0  0  0
 17 18  1  0  0  0  0
 17 19  2  0  0  0  0
 14 15  1  0  0  0  0
 14 16  1  0  0  0  0
 14 17  1  0  0  0  0
 11 12  1  0  0  0  0
 11 13  1  0  0  0  0
 11 14  1  0  0  0  0
  9 10  1  0  0  0  0
  9 11  1  0  0  0  0
  9 20  1  0  0  0  0
  7  8  1  0  0  0  0
  7  9  1  0  0  0  0
 24 25  1  0  0  0  0
 24 26  1  0  0  0  0
 24 27  1  0  0  0  0
 22 23  1  0  0  0  0
 22 24  1  0  0  0  0
M  CHG  1  18  -1
M  END
$$$$
default_name
  -OEChem-02102213163D

 27 26  0     1  0  0  0  0  0999 V2000
   -3.2406   -3.5400    1.2326 H   0  0  0  0  0  0  0  0  0  0  0  0
   -3.1436   -2.6190    0.6606 C   0  0  0  0  0  0  0  0  0  0  0  0
   -3.8786   -1.8920    0.9996 H   0  0  0  0  0  0  0  0  0  0  0  0
   -3.2846   -2.8280   -0.3984 H   0  0  0  0  0  0  0  0  0  0  0  0
   -1.7586   -2.0580    0.8686 C   0  0  0  0  0  0  0  0  0  0  0  0
   -0.9666   -2.6340    1.6026 O   0  0  0  0  0  0  0  0  0  0  0  0
   -1.4866   -0.9220    0.2366 N   0  0  0  0  0  0  0  0  0  0  0  0
   -2.2166   -0.4790   -0.2994 H   0  0  0  0  0  0  0  0  0  0  0  0
   -0.1956   -0.2250    0.2596 C   0  0  1  0  0  0  0  0  0  0  0  0
    0.3927   -0.6026    1.0964 H   0  0  0  0  0  0  0  0  0  0  0  0
    0.5767   -0.5489   -1.0351 C   0  0  0  0  0  0  0  0  0  0  0  0
   -0.1279   -0.9802   -1.7479 H   0  0  0  0  0  0  0  0  0  0  0  0
    0.9732    0.3751   -1.4587 H   0  0  0  0  0  0  0  0  0  0  0  0
    1.7306   -1.5442   -0.8270 C   0  0  0  0  0  0  0  0  0  0  0  0
    1.7186   -2.2792   -1.6355 H   0  0  0  0  0  0  0  0  0  0  0  0
    2.6732   -0.9938   -0.8858 H   0  0  0  0  0  0  0  0  0  0  0  0
    1.6609   -2.2873    0.5154 C   0  0  0  0  0  0  0  0  0  0  0  0
    0.7917   -1.9357    1.3445 O   0  5  0  0  0  0  0  0  0  0  0  0
    2.4740   -3.2235    0.6812 O   0  0  0  0  0  0  0  0  0  0  0  0
   -0.3954    1.2887    0.4814 C   0  0  0  0  0  0  0  0  0  0  0  0
   -1.2761    1.9015   -0.1256 O   0  0  0  0  0  0  0  0  0  0  0  0
    0.4051    1.8919    1.3699 N   0  0  0  0  0  0  0  0  0  0  0  0
    1.1380    1.3380    1.7875 H   0  0  0  0  0  0  0  0  0  0  0  0
    0.3573    3.3183    1.6807 C   0  0  0  0  0  0  0  0  0  0  0  0
   -0.6670    3.6090    1.9198 H   0  0  0  0  0  0  0  0  0  0  0  0
    1.0066    3.5397    2.5289 H   0  0  0  0  0  0  0  0  0  0  0  0
    0.6896    3.8897    0.8118 H   0  0  0  0  0  0  0  0  0  0  0  0
  5  6  2  0  0  0  0
  5  7  1  0  0  0  0
  2  3  1  0  0  0  0
  2  4  1  0  0  0  0
  2  5  1  0  0  0  0
  1  2  1  0  0  0  0
 20 21  2  0  0  0  0
 20 22  1  0  0  0  0
 17 18  1  0  0  0  0
 17 19  2  0  0  0  0
 14 15  1  0  0  0  0
 14 16  1  0  0  0  0
 14 17  1  0  0  0  0
 11 12  1  0  0  0  0
 11 13  1  0  0  0  0
 11 14  1  0  0  0  0
  9 10  1  0  0  0  0
  9 11  1  0  0  0  0
  9 20  1  0  0  0  0
  7  8  1  0  0  0  0
  7  9  1  0  0  0  0
 24 25  1  0  0  0  0
 24 26  1  0  0  0  0
 24 27  1  0  0  0  0
 22 23  1  0  0  0  0
 22 24  1  0  0  0  0
M  CHG  1  18  -1
M  END
$$$$
default_name
  -OEChem-02102213163D

 27 26  0     1  0  0  0  0  0999 V2000
   -3.2406   -3.5400    1.2326 H   0  0  0  0  0  0  0  0  0  0  0  0
   -3.1436   -2.6190    0.6606 C   0  0  0  0  0  0  0  0  0  0  0  0
   -3.8786   -1.8920    0.9996 H   0  0  0  0  0  0  0  0  0  0  0  0
   -3.2846   -2.8280   -0.3984 H   0  0  0  0  0  0  0  0  0  0  0  0
   -1.7586   -2.0580    0.8686 C   0  0  0  0  0  0  0  0  0  0  0  0
   -0.9666   -2.6340    1.6026 O   0  0  0  0  0  0  0  0  0  0  0  0
   -1.4866   -0.9220    0.2366 N   0  0  0  0  0  0  0  0  0  0  0  0
   -2.2166   -0.4790   -0.2994 H   0  0  0  0  0  0  0  0  0  0  0  0
   -0.1956   -0.2250    0.2596 C   0  0  1  0  0  0  0  0  0  0  0  0
    0.3927   -0.6026    1.0964 H   0  0  0  0  0  0  0  0  0  0  0  0
    0.5767   -0.5489   -1.0351 C   0  0  0  0  0  0  0  0  0  0  0  0
   -0.1279   -0.9802   -1.7479 H   0  0  0  0  0  0  0  0  0  0  0  0
    0.9732    0.3751   -1.4587 H   0  0  0  0  0  0  0  0  0  0  0  0
    1.7306   -1.5442   -0.8270 C   0  0  0  0  0  0  0  0  0  0  0  0
    1.8893   -2.1055   -1.7510 H   0  0  0  0  0  0  0  0  0  0  0  0
    2.6405   -0.9757   -0.6174 H   0  0  0  0  0  0  0  0  0  0  0  0
    1.4800   -2.5385    0.3165 C   0  0  0  0  0  0  0  0  0  0  0  0
    0.4697   -2.3734    1.0365 O   0  5  0  0  0  0  0  0  0  0  0  0
    2.3021   -3.4739    0.4368 O   0  0  0  0  0  0  0  0  0  0  0  0
   -0.3954    1.2887    0.4814 C   0  0  0  0  0  0  0  0  0  0  0  0
   -1.2761    1.9015   -0.1256 O   0  0  0  0  0  0  0  0  0  0  0  0
    0.4051    1.8919    1.3699 N   0  0  0  0  0  0  0  0  0  0  0  0
    1.1380    1.3380    1.7875 H   0  0  0  0  0  0  0  0  0  0  0  0
    0.3573    3.3183    1.6807 C   0  0  0  0  0  0  0  0  0  0  0  0
   -0.6670    3.6090    1.9198 H   0  0  0  0  0  0  0  0  0  0  0  0
    1.0066    3.5397    2.5289 H   0  0  0  0  0  0  0  0  0  0  0  0
    0.6896    3.8897    0.8118 H   0  0  0  0  0  0  0  0  0  0  0  0
  5  6  2  0  0  0  0
  5  7  1  0  0  0  0
  2  3  1  0  0  0  0
  2  4  1  0  0  0  0
  2  5  1  0  0  0  0
  1  2  1  0  0  0  0
 20 21  2  0  0  0  0
 20 22  1  0  0  0  0
 17 18  1  0  0  0  0
 17 19  2  0  0  0  0
 14 15  1  0  0  0  0
 14 16  1  0  0  0  0
 14 17  1  0  0  0  0
 11 12  1  0  0  0  0
 11 13  1  0  0  0  0
 11 14  1  0  0  0  0
  9 10  1  0  0  0  0
  9 11  1  0  0  0  0
  9 20  1  0  0  0  0
  7  8  1  0  0  0  0
  7  9  1  0  0  0  0
 24 25  1  0  0  0  0
 24 26  1  0  0  0  0
 24 27  1  0  0  0  0
 22 23  1  0  0  0  0
 22 24  1  0  0  0  0
M  CHG  1  18  -1
M  END
$$$$
default_name
  -OEChem-02102213163D

 27 26  0     1  0  0  0  0  0999 V2000
   -3.2406   -3.5400    1.2326 H   0  0  0  0  0  0  0  0  0  0  0  0
   -3.1436   -2.6190    0.6606 C   0  0  0  0  0  0  0  0  0  0  0  0
   -3.8786   -1.8920    0.9996 H   0  0  0  0  0  0  0  0  0  0  0  0
   -3.2846   -2.8280   -0.3984 H   0  0  0  0  0  0  0  0  0  0  0  0
   -1.7586   -2.0580    0.8686 C   0  0  0  0  0  0  0  0  0  0  0  0
   -0.9666   -2.6340    1.6026 O   0  0  0  0  0  0  0  0  0  0  0  0
   -1.4866   -0.9220    0.2366 N   0  0  0  0  0  0  0  0  0  0  0  0
   -2.2166   -0.4790   -0.2994 H   0  0  0  0  0  0  0  0  0  0  0  0
   -0.1956   -0.2250    0.2596 C   0  0  1  0  0  0  0  0  0  0  0  0
    0.3927   -0.6026    1.0964 H   0  0  0  0  0  0  0  0  0  0  0  0
    0.5767   -0.5489   -1.0351 C   0  0  0  0  0  0  0  0  0  0  0  0
   -0.1279   -0.9802   -1.7479 H   0  0  0  0  0  0  0  0  0  0  0  0
    0.9732    0.3751   -1.4587 H   0  0  0  0  0  0  0  0  0  0  0  0
    1.7306   -1.5442   -0.8270 C   0  0  0  0  0  0  0  0  0  0  0  0
    2.0675   -1.9092   -1.8003 H   0  0  0  0  0  0  0  0  0  0  0  0
    2.5632   -1.0114   -0.3602 H   0  0  0  0  0  0  0  0  0  0  0  0
    1.3474   -2.7489    0.0453 C   0  0  0  0  0  0  0  0  0  0  0  0
    0.2255   -2.7477    0.6001 O   0  5  0  0  0  0  0  0  0  0  0  0
    2.1858   -3.6743    0.1234 O   0  0  0  0  0  0  0  0  0  0  0  0
   -0.3954    1.2887    0.4814 C   0  0  0  0  0  0  0  0  0  0  0  0
   -1.2761    1.9015   -0.1256 O   0  0  0  0  0  0  0  0  0  0  0  0
    0.4051    1.8919    1.3699 N   0  0  0  0  0  0  0  0  0  0  0  0
    1.1380    1.3380    1.7875 H   0  0  0  0  0  0  0  0  0  0  0  0
    0.3573    3.3183    1.6807 C   0  0  0  0  0  0  0  0  0  0  0  0
   -0.6670    3.6090    1.9198 H   0  0  0  0  0  0  0  0  0  0  0  0
    1.0066    3.5397    2.5289 H   0  0  0  0  0  0  0  0  0  0  0  0
    0.6896    3.8897    0.8118 H   0  0  0  0  0  0  0  0  0  0  0  0
  5  6  2  0  0  0  0
  5  7  1  0  0  0  0
  2  3  1  0  0  0  0
  2  4  1  0  0  0  0
  2  5  1  0  0  0  0
  1  2  1  0  0  0  0
 20 21  2  0  0  0  0
 20 22  1  0  0  0  0
 17 18  1  0  0  0  0
 17 19  2  0  0  0  0
 14 15  1  0  0  0  0
 14 16  1  0  0  0  0
 14 17  1  0  0  0  0
 11 12  1  0  0  0  0
 11 13  1  0  0  0  0
 11 14  1  0  0  0  0
  9 10  1  0  0  0  0
  9 11  1  0  0  0  0
  9 20  1  0  0  0  0
  7  8  1  0  0  0  0
  7  9  1  0  0  0  0
 24 25  1  0  0  0  0
 24 26  1  0  0  0  0
 24 27  1  0  0  0  0
 22 23  1  0  0  0  0
 22 24  1  0  0  0  0
M  CHG  1  18  -1
M  END
$$$$
default_name
  -OEChem-02102213163D

 27 26  0     1  0  0  0  0  0999 V2000
   -3.2406   -3.5400    1.2326 H   0  0  0  0  0  0  0  0  0  0  0  0
   -3.1436   -2.6190    0.6606 C   0  0  0  0  0  0  0  0  0  0  0  0
   -3.8786   -1.8920    0.9996 H   0  0  0  0  0  0  0  0  0  0  0  0
   -3.2846   -2.8280   -0.3984 H   0  0  0  0  0  0  0  0  0  0  0  0
   -1.7586   -2.0580    0.8686 C   0  0  0  0  0  0  0  0  0  0  0  0
   -0.9666   -2.6340    1.6026 O   0  0  0  0  0  0  0  0  0  0  0  0
   -1.4866   -0.9220    0.2366 N   0  0  0  0  0  0  0  0  0  0  0  0
   -2.2166   -0.4790   -0.2994 H   0  0  0  0  0  0  0  0  0  0  0  0
   -0.1956   -0.2250    0.2596 C   0  0  1  0  0  0  0  0  0  0  0  0
    0.3927   -0.6026    1.0964 H   0  0  0  0  0  0  0  0  0  0  0  0
    0.5767   -0.5489   -1.0351 C   0  0  0  0  0  0  0  0  0  0  0  0
   -0.1279   -0.9802   -1.7479 H   0  0  0  0  0  0  0  0  0  0  0  0
    0.9732    0.3751   -1.4587 H   0  0  0  0  0  0  0  0  0  0  0  0
    1.7306   -1.5442   -0.8270 C   0  0  0  0  0  0  0  0  0  0  0  0
    2.2409   -1.7039   -1.7799 H   0  0  0  0  0  0  0  0  0  0  0  0
    2.4467   -1.0986   -0.1316 H   0  0  0  0  0  0  0  0  0  0  0  0
    1.2721   -2.9041   -0.2797 C   0  0  0  0  0  0  0  0  0  0  0  0
    0.0759   -3.0330    0.0649 O   0  5  0  0  0  0  0  0  0  0  0  0
    2.1330   -3.8110   -0.2378 O   0  0  0  0  0  0  0  0  0  0  0  0
   -0.3954    1.2887    0.4814 C   0  0  0  0  0  0  0  0  0  0  0  0
   -1.2761    1.9015   -0.1256 O   0  0  0  0  0  0  0  0  0  0  0  0
    0.4051    1.8919    1.3699 N   0  0  0  0  0  0  0  0  0  0  0  0
    1.1380    1.3380    1.7875 H   0  0  0  0  0  0  0  0  0  0  0  0
    0.3573    3.3183    1.6807 C   0  0  0  0  0  0  0  0  0  0  0  0
   -0.6670    3.6090    1.9198 H   0  0  0  0  0  0  0  0  0  0  0  0
    1.0066    3.5397    2.5289 H   0  0  0  0  0  0  0  0  0  0  0  0
    0.6896    3.8897    0.8118 H   0  0  0  0  0  0  0  0  0  0  0  0
  5  6  2  0  0  0  0
  5  7  1  0  0  0  0
  2  3  1  0  0  0  0
  2  4  1  0  0  0  0
  2  5  1  0  0  0  0
  1  2  1  0  0  0  0
 20 21  2  0  0  0  0
 20 22  1  0  0  0  0
 17 18  1  0  0  0  0
 17 19  2  0  0  0  0
 14 15  1  0  0  0  0
 14 16  1  0  0  0  0
 14 17  1  0  0  0  0
 11 12  1  0  0  0  0
 11 13  1  0  0  0  0
 11 14  1  0  0  0  0
  9 10  1  0  0  0  0
  9 11  1  0  0  0  0
  9 20  1  0  0  0  0
  7  8  1  0  0  0  0
  7  9  1  0  0  0  0
 24 25  1  0  0  0  0
 24 26  1  0  0  0  0
 24 27  1  0  0  0  0
 22 23  1  0  0  0  0
 22 24  1  0  0  0  0
M  CHG  1  18  -1
M  END
$$$$
default_name
  -OEChem-02102213163D

 27 26  0     1  0  0  0  0  0999 V2000
   -3.2406   -3.5400    1.2326 H   0  0  0  0  0  0  0  0  0  0  0  0
   -3.1436   -2.6190    0.6606 C   0  0  0  0  0  0  0  0  0  0  0  0
   -3.8786   -1.8920    0.9996 H   0  0  0  0  0  0  0  0  0  0  0  0
   -3.2846   -2.8280   -0.3984 H   0  0  0  0  0  0  0  0  0  0  0  0
   -1.7586   -2.0580    0.8686 C   0  0  0  0  0  0  0  0  0  0  0  0
   -0.9666   -2.6340    1.6026 O   0  0  0  0  0  0  0  0  0  0  0  0
   -1.4866   -0.9220    0.2366 N   0  0  0  0  0  0  0  0  0  0  0  0
   -2.2166   -0.4790   -0.2994 H   0  0  0  0  0  0  0  0  0  0  0  0
   -0.1956   -0.2250    0.2596 C   0  0  1  0  0  0  0  0  0  0  0  0
    0.3927   -0.6026    1.0964 H   0  0  0  0  0  0  0  0  0  0  0  0
    0.5767   -0.5489   -1.0351 C   0  0  0  0  0  0  0  0  0  0  0  0
   -0.1279   -0.9802   -1.7479 H   0  0  0  0  0  0  0  0  0  0  0  0
    0.9732    0.3751   -1.4587 H   0  0  0  0  0  0  0  0  0  0  0  0
    1.7306   -1.5442   -0.8270 C   0  0  0  0  0  0  0  0  0  0  0  0
    2.3979   -1.5035   -1.6913 H   0  0  0  0  0  0  0  0  0  0  0  0
    2.2990   -1.2313    0.0528 H   0  0  0  0  0  0  0  0  0  0  0  0
    1.2593   -2.9936   -0.6363 C   0  0  0  0  0  0  0  0  0  0  0  0
    0.0310   -3.2100   -0.5324 O   0  5  0  0  0  0  0  0  0  0  0  0
    2.1472   -3.8749   -0.6221 O   0  0  0  0  0  0  0  0  0  0  0  0
   -0.3954    1.2887    0.4814 C   0  0  0  0  0  0  0  0  0  0  0  0
   -1.2761    1.9015   -0.1256 O   0  0  0  0  0  0  0  0  0  0  0  0
    0.4051    1.8919    1.3699 N   0  0  0  0  0  0  0  0  0  0  0  0
    1.1380    1.3380    1.7875 H   0  0  0  0  0  0  0  0  0  0  0  0
    0.3573    3.3183    1.6807 C   0  0  0  0  0  0  0  0  0  0  0  0
   -0.6670    3.6090    1.9198 H   0  0  0  0  0  0  0  0  0  0  0  0
    1.0066    3.5397    2.5289 H   0  0  0  0  0  0  0  0  0  0  0  0
    0.6896    3.8897    0.8118 H   0  0  0  0  0  0  0  0  0  0  0  0
  5  6  2  0  0  0  0
  5  7  1  0  0  0  0
  2  3  1  0  0  0  0
  2  4  1  0  0  0  0
  2  5  1  0  0  0  0
  1  2  1  0  0  0  0
 20 21  2  0  0  0  0
 20 22  1  0  0  0  0
 17 18  1  0  0  0  0
 17 19  2  0  0  0  0
 14 15  1  0  0  0  0
 14 16  1  0  0  0  0
 14 17  1  0  0  0  0
 11 12  1  0  0  0  0
 11 13  1  0  0  0  0
 11 14  1  0  0  0  0
  9 10  1  0  0  0  0
  9 11  1  0  0  0  0
  9 20  1  0  0  0  0
  7  8  1  0  0  0  0
  7  9  1  0  0  0  0
 24 25  1  0  0  0  0
 24 26  1  0  0  0  0
 24 27  1  0  0  0  0
 22 23  1  0  0  0  0
 22 24  1  0  0  0  0
M  CHG  1  18  -1
M  END
$$$$
default_name
  -OEChem-02102213163D

 27 26  0     1  0  0  0  0  0999 V2000
   -3.2406   -3.5400    1.2326 H   0  0  0  0  0  0  0  0  0  0  0  0
   -3.1436   -2.6190    0.6606 C   0  0  0  0  0  0  0  0  0  0  0  0
   -3.8786   -1.8920    0.9996 H   0  0  0  0  0  0  0  0  0  0  0  0
   -3.2846   -2.8280   -0.3984 H   0  0  0  0  0  0  0  0  0  0  0  0
   -1.7586   -2.0580    0.8686 C   0  0  0  0  0  0  0  0  0  0  0  0
   -0.9666   -2.6340    1.6026 O   0  0  0  0  0  0  0  0  0  0  0  0
   -1.4866   -0.9220    0.2366 N   0  0  0  0  0  0  0  0  0  0  0  0
   -2.2166   -0.4790   -0.2994 H   0  0  0  0  0  0  0  0  0  0  0  0
   -0.1956   -0.2250    0.2596 C   0  0  1  0  0  0  0  0  0  0  0  0
    0.3927   -0.6026    1.0964 H   0  0  0  0  0  0  0  0  0  0  0  0
    0.5767   -0.5489   -1.0351 C   0  0  0  0  0  0  0  0  0  0  0  0
   -0.1279   -0.9802   -1.7479 H   0  0  0  0  0  0  0  0  0  0  0  0
    0.9732    0.3751   -1.4587 H   0  0  0  0  0  0  0  0  0  0  0  0
    1.7306   -1.5442   -0.8270 C   0  0  0  0  0  0  0  0  0  0  0  0
    2.5276   -1.3215   -1.5405 H   0  0  0  0  0  0  0  0  0  0  0  0
    2.1301   -1.4005    0.1804 H   0  0  0  0  0  0  0  0  0  0  0  0
    1.3098   -3.0112   -1.0004 C   0  0  0  0  0  0  0  0  0  0  0  0
    0.0938   -3.2665   -1.1513 O   0  5  0  0  0  0  0  0  0  0  0  0
    2.2276   -3.8614   -1.0033 O   0  0  0  0  0  0  0  0  0  0  0  0
   -0.3954    1.2887    0.4814 C   0  0  0  0  0  0  0  0  0  0  0  0
   -1.2761    1.9015   -0.1256 O   0  0  0  0  0  0  0  0  0  0  0  0
    0.4051    1.8919    1.3699 N   0  0  0  0  0  0  0  0  0  0  0  0
    1.1380    1.3380    1.7875 H   0  0  0  0  0  0  0  0  0  0  0  0
    0.3573    3.3183    1.6807 C   0  0  0  0  0  0  0  0  0  0  0  0
   -0.6670    3.6090    1.9198 H   0  0  0  0  0  0  0  0  0  0  0  0
    1.0066    3.5397    2.5289 H   0  0  0  0  0  0  0  0  0  0  0  0
    0.6896    3.8897    0.8118 H   0  0  0  0  0  0  0  0  0  0  0  0
  5  6  2  0  0  0  0
  5  7  1  0  0  0  0
  2  3  1  0  0  0  0
  2  4  1  0  0  0  0
  2  5  1  0  0  0  0
  1  2  1  0  0  0  0
 20 21  2  0  0  0  0
 20 22  1  0  0  0  0
 17 18  1  0  0  0  0
 17 19  2  0  0  0  0
 14 15  1  0  0  0  0
 14 16  1  0  0  0  0
 14 17  1  0  0  0  0
 11 12  1  0  0  0  0
 11 13  1  0  0  0  0
 11 14  1  0  0  0  0
  9 10  1  0  0  0  0
  9 11  1  0  0  0  0
  9 20  1  0  0  0  0
  7  8  1  0  0  0  0
  7  9  1  0  0  0  0
 24 25  1  0  0  0  0
 24 26  1  0  0  0  0
 24 27  1  0  0  0  0
 22 23  1  0  0  0  0
 22 24  1  0  0  0  0
M  CHG  1  18  -1
M  END
$$$$
default_name
  -OEChem-02102213163D

 27 26  0     1  0  0  0  0  0999 V2000
   -3.2406   -3.5400    1.2326 H   0  0  0  0  0  0  0  0  0  0  0  0
   -3.1436   -2.6190    0.6606 C   0  0  0  0  0  0  0  0  0  0  0  0
   -3.8786   -1.8920    0.9996 H   0  0  0  0  0  0  0  0  0  0  0  0
   -3.2846   -2.8280   -0.3984 H   0  0  0  0  0  0  0  0  0  0  0  0
   -1.7586   -2.0580    0.8686 C   0  0  0  0  0  0  0  0  0  0  0  0
   -0.9666   -2.6340    1.6026 O   0  0  0  0  0  0  0  0  0  0  0  0
   -1.4866   -0.9220    0.2366 N   0  0  0  0  0  0  0  0  0  0  0  0
   -2.2166   -0.4790   -0.2994 H   0  0  0  0  0  0  0  0  0  0  0  0
   -0.1956   -0.2250    0.2596 C   0  0  1  0  0  0  0  0  0  0  0  0
    0.3927   -0.6026    1.0964 H   0  0  0  0  0  0  0  0  0  0  0  0
    0.5767   -0.5489   -1.0351 C   0  0  0  0  0  0  0  0  0  0  0  0
   -0.1279   -0.9802   -1.7479 H   0  0  0  0  0  0  0  0  0  0  0  0
    0.9732    0.3751   -1.4587 H   0  0  0  0  0  0  0  0  0  0  0  0
    1.7306   -1.5442   -0.8270 C   0  0  0  0  0  0  0  0  0  0  0  0
    2.6213   -1.1706   -1.3378 H   0  0  0  0  0  0  0  0  0  0  0  0
    1.9515   -1.5946    0.2425 H   0  0  0  0  0  0  0  0  0  0  0  0
    1.4201   -2.9557   -1.3470 C   0  0  0  0  0  0  0  0  0  0  0  0
    0.2602   -3.1987   -1.7496 O   0  5  0  0  0  0  0  0  0  0  0  0
    2.3686   -3.7716   -1.3555 O   0  0  0  0  0  0  0  0  0  0  0  0
   -0.3954    1.2887    0.4814 C   0  0  0  0  0  0  0  0  0  0  0  0
   -1.2761    1.9015   -0.1256 O   0  0  0  0  0  0  0  0  0  0  0  0
    0.4051    1.8919    1.3699 N   0  0  0  0  0  0  0  0  0  0  0  0
    1.1380    1.3380    1.7875 H   0  0  0  0  0  0  0  0  0  0  0  0
    0.3573    3.3183    1.6807 C   0  0  0  0  0  0  0  0  0  0  0  0
   -0.6670    3.6090    1.9198 H   0  0  0  0  0  0  0  0  0  0  0  0
    1.0066    3.5397    2.5289 H   0  0  0  0  0  0  0  0  0  0  0  0
    0.6896    3.8897    0.8118 H   0  0  0  0  0  0  0  0  0  0  0  0
  5  6  2  0  0  0  0
  5  7  1  0  0  0  0
  2  3  1  0  0  0  0
  2  4  1  0  0  0  0
  2  5  1  0  0  0  0
  1  2  1  0  0  0  0
 20 21  2  0  0  0  0
 20 22  1  0  0  0  0
 17 18  1  0  0  0  0
 17 19  2  0  0  0  0
 14 15  1  0  0  0  0
 14 16  1  0  0  0  0
 14 17  1  0  0  0  0
 11 12  1  0  0  0  0
 11 13  1  0  0  0  0
 11 14  1  0  0  0  0
  9 10  1  0  0  0  0
  9 11  1  0  0  0  0
  9 20  1  0  0  0  0
  7  8  1  0  0  0  0
  7  9  1  0  0  0  0
 24 25  1  0  0  0  0
 24 26  1  0  0  0  0
 24 27  1  0  0  0  0
 22 23  1  0  0  0  0
 22 24  1  0  0  0  0
M  CHG  1  18  -1
M  END
$$$$
default_name
  -OEChem-02102213163D

 27 26  0     1  0  0  0  0  0999 V2000
   -3.2406   -3.5400    1.2326 H   0  0  0  0  0  0  0  0  0  0  0  0
   -3.1436   -2.6190    0.6606 C   0  0  0  0  0  0  0  0  0  0  0  0
   -3.8786   -1.8920    0.9996 H   0  0  0  0  0  0  0  0  0  0  0  0
   -3.2846   -2.8280   -0.3984 H   0  0  0  0  0  0  0  0  0  0  0  0
   -1.7586   -2.0580    0.8686 C   0  0  0  0  0  0  0  0  0  0  0  0
   -0.9666   -2.6340    1.6026 O   0  0  0  0  0  0  0  0  0  0  0  0
   -1.4866   -0.9220    0.2366 N   0  0  0  0  0  0  0  0  0  0  0  0
   -2.2166   -0.4790   -0.2994 H   0  0  0  0  0  0  0  0  0  0  0  0
   -0.1956   -0.2250    0.2596 C   0  0  1  0  0  0  0  0  0  0  0  0
    0.3927   -0.6026    1.0964 H   0  0  0  0  0  0  0  0  0  0  0  0
    0.5767   -0.5489   -1.0351 C   0  0  0  0  0  0  0  0  0  0  0  0
   -0.1279   -0.9802   -1.7479 H   0  0  0  0  0  0  0  0  0  0  0  0
    0.9732    0.3751   -1.4587 H   0  0  0  0  0  0  0  0  0  0  0  0
    1.7306   -1.5442   -0.8270 C   0  0  0  0  0  0  0  0  0  0  0  0
    2.6725   -1.0608   -1.0970 H   0  0  0  0  0  0  0  0  0  0  0  0
    1.7753   -1.8004    0.2348 H   0  0  0  0  0  0  0  0  0  0  0  0
    1.5828   -2.8310   -1.6525 C   0  0  0  0  0  0  0  0  0  0  0  0
    0.5188   -3.0112   -2.2864 O   0  5  0  0  0  0  0  0  0  0  0  0
    2.5606   -3.6115   -1.6546 O   0  0  0  0  0  0  0  0  0  0  0  0
   -0.3954    1.2887    0.4814 C   0  0  0  0  0  0  0  0  0  0  0  0
   -1.2761    1.9015   -0.1256 O   0  0  0  0  0  0  0  0  0  0  0  0
    0.4051    1.8919    1.3699 N   0  0  0  0  0  0  0  0  0  0  0  0
    1.1380    1.3380    1.7875 H   0  0  0  0  0  0  0  0  0  0  0  0
    0.3573    3.3183    1.6807 C   0  0  0  0  0  0  0  0  0  0  0  0
   -0.6670    3.6090    1.9198 H   0  0  0  0  0  0  0  0  0  0  0  0
    1.0066    3.5397    2.5289 H   0  0  0  0  0  0  0  0  0  0  0  0
    0.6896    3.8897    0.8118 H   0  0  0  0  0  0  0  0  0  0  0  0
  5  6  2  0  0  0  0
  5  7  1  0  0  0  0
  2  3  1  0  0  0  0
  2  4  1  0  0  0  0
  2  5  1  0  0  0  0
  1  2  1  0  0  0  0
 20 21  2  0  0  0  0
 20 22  1  0  0  0  0
 17 18  1  0  0  0  0
 17 19  2  0  0  0  0
 14 15  1  0  0  0  0
 14 16  1  0  0  0  0
 14 17  1  0  0  0  0
 11 12  1  0  0  0  0
 11 13  1  0  0  0  0
 11 14  1  0  0  0  0
  9 10  1  0  0  0  0
  9 11  1  0  0  0  0
  9 20  1  0  0  0  0
  7  8  1  0  0  0  0
  7  9  1  0  0  0  0
 24 25  1  0  0  0  0
 24 26  1  0  0  0  0
 24 27  1  0  0  0  0
 22 23  1  0  0  0  0
 22 24  1  0  0  0  0
M  CHG  1  18  -1
M  END
$$$$
default_name
  -OEChem-02102213163D

 27 26  0     1  0  0  0  0  0999 V2000
   -3.2406   -3.5400    1.2326 H   0  0  0  0  0  0  0  0  0  0  0  0
   -3.1436   -2.6190    0.6606 C   0  0  0  0  0  0  0  0  0  0  0  0
   -3.8786   -1.8920    0.9996 H   0  0  0  0  0  0  0  0  0  0  0  0
   -3.2846   -2.8280   -0.3984 H   0  0  0  0  0  0  0  0  0  0  0  0
   -1.7586   -2.0580    0.8686 C   0  0  0  0  0  0  0  0  0  0  0  0
   -0.9666   -2.6340    1.6026 O   0  0  0  0  0  0  0  0  0  0  0  0
   -1.4866   -0.9220    0.2366 N   0  0  0  0  0  0  0  0  0  0  0  0
   -2.2166   -0.4790   -0.2994 H   0  0  0  0  0  0  0  0  0  0  0  0
   -0.1956   -0.2250    0.2596 C   0  0  1  0  0  0  0  0  0  0  0  0
    0.3927   -0.6026    1.0964 H   0  0  0  0  0  0  0  0  0  0  0  0
    0.5767   -0.5489   -1.0351 C   0  0  0  0  0  0  0  0  0  0  0  0
   -0.1279   -0.9802   -1.7479 H   0  0  0  0  0  0  0  0  0  0  0  0
    0.9732    0.3751   -1.4587 H   0  0  0  0  0  0  0  0  0  0  0  0
    1.7306   -1.5442   -0.8270 C   0  0  0  0  0  0  0  0  0  0  0  0
    2.6779   -0.9997   -0.8345 H   0  0  0  0  0  0  0  0  0  0  0  0
    1.6137   -2.0038    0.1580 H   0  0  0  0  0  0  0  0  0  0  0  0
    1.7868   -2.6455   -1.8962 C   0  0  0  0  0  0  0  0  0  0  0  0
    0.8519   -2.7168   -2.7252 O   0  5  0  0  0  0  0  0  0  0  0  0
    2.7906   -3.3921   -1.8802 O   0  0  0  0  0  0  0  0  0  0  0  0
   -0.3954    1.2887    0.4814 C   0  0  0  0  0  0  0  0  0  0  0  0
   -1.2761    1.9015   -0.1256 O   0  0  0  0  0  0  0  0  0  0  0  0
    0.4051    1.8919    1.3699 N   0  0  0  0  0  0  0  0  0  0  0  0
    1.1380    1.3380    1.7875 H   0  0  0  0  0  0  0  0  0  0  0  0
    0.3573    3.3183    1.6807 C   0  0  0  0  0  0  0  0  0  0  0  0
   -0.6670    3.6090    1.9198 H   0  0  0  0  0  0  0  0  0  0  0  0
    1.0066    3.5397    2.5289 H   0  0  0  0  0  0  0  0  0  0  0  0
    0.6896    3.8897    0.8118 H   0  0  0  0  0  0  0  0  0  0  0  0
  5  6  2  0  0  0  0
  5  7  1  0  0  0  0
  2  3  1  0  0  0  0
  2  4  1  0  0  0  0
  2  5  1  0  0  0  0
  1  2  1  0  0  0  0
 20 21  2  0  0  0  0
 20 22  1  0  0  0  0
 17 18  1  0  0  0  0
 17 19  2  0  0  0  0
 14 15  1  0  0  0  0
 14 16  1  0  0  0  0
 14 17  1  0  0  0  0
 11 12  1  0  0  0  0
 11 13  1  0  0  0  0
 11 14  1  0  0  0  0
  9 10  1  0  0  0  0
  9 11  1  0  0  0  0
  9 20  1  0  0  0  0
  7  8  1  0  0  0  0
  7  9  1  0  0  0  0
 24 25  1  0  0  0  0
 24 26  1  0  0  0  0
 24 27  1  0  0  0  0
 22 23  1  0  0  0  0
 22 24  1  0  0  0  0
M  CHG  1  18  -1
M  END
$$$$
default_name
  -OEChem-02102213163D

 27 26  0     1  0  0  0  0  0999 V2000
   -3.2406   -3.5400    1.2326 H   0  0  0  0  0  0  0  0  0  0  0  0
   -3.1436   -2.6190    0.6606 C   0  0  0  0  0  0  0  0  0  0  0  0
   -3.8786   -1.8920    0.9996 H   0  0  0  0  0  0  0  0  0  0  0  0
   -3.2846   -2.8280   -0.3984 H   0  0  0  0  0  0  0  0  0  0  0  0
   -1.7586   -2.0580    0.8686 C   0  0  0  0  0  0  0  0  0  0  0  0
   -0.9666   -2.6340    1.6026 O   0  0  0  0  0  0  0  0  0  0  0  0
   -1.4866   -0.9220    0.2366 N   0  0  0  0  0  0  0  0  0  0  0  0
   -2.2166   -0.4790   -0.2994 H   0  0  0  0  0  0  0  0  0  0  0  0
   -0.1956   -0.2250    0.2596 C   0  0  1  0  0  0  0  0  0  0  0  0
    0.3927   -0.6026    1.0964 H   0  0  0  0  0  0  0  0  0  0  0  0
    0.5767   -0.5489   -1.0351 C   0  0  0  0  0  0  0  0  0  0  0  0
   -0.1279   -0.9802   -1.7479 H   0  0  0  0  0  0  0  0  0  0  0  0
    0.9732    0.3751   -1.4587 H   0  0  0  0  0  0  0  0  0  0  0  0
    1.7306   -1.5442   -0.8270 C   0  0  0  0  0  0  0  0  0  0  0  0
    2.6369   -0.9915   -0.5682 H   0  0  0  0  0  0  0  0  0  0  0  0
    1.4775   -2.1911    0.0172 H   0  0  0  0  0  0  0  0  0  0  0  0
    2.0182   -2.4119   -2.0613 C   0  0  0  0  0  0  0  0  0  0  0  0
    1.2368   -2.3356   -3.0361 O   0  5  0  0  0  0  0  0  0  0  0  0
    3.0429   -3.1283   -2.0170 O   0  0  0  0  0  0  0  0  0  0  0  0
   -0.3954    1.2887    0.4814 C   0  0  0  0  0  0  0  0  0  0  0  0
   -1.2761    1.9015   -0.1256 O   0  0  0  0  0  0  0  0  0  0  0  0
    0.4051    1.8919    1.3699 N   0  0  0  0  0  0  0  0  0  0  0  0
    1.1380    1.3380    1.7875 H   0  0  0  0  0  0  0  0  0  0  0  0
    0.3573    3.3183    1.6807 C   0  0  0  0  0  0  0  0  0  0  0  0
   -0.6670    3.6090    1.9198 H   0  0  0  0  0  0  0  0  0  0  0  0
    1.0066    3.5397    2.5289 H   0  0  0  0  0  0  0  0  0  0  0  0
    0.6896    3.8897    0.8118 H   0  0  0  0  0  0  0  0  0  0  0  0
  5  6  2  0  0  0  0
  5  7  1  0  0  0  0
  2  3  1  0  0  0  0
  2  4  1  0  0  0  0
  2  5  1  0  0  0  0
  1  2  1  0  0  0  0
 20 21  2  0  0  0  0
 20 22  1  0  0  0  0
 17 18  1  0  0  0  0
 17 19  2  0  0  0  0
 14 15  1  0  0  0  0
 14 16  1  0  0  0  0
 14 17  1  0  0  0  0
 11 12  1  0  0  0  0
 11 13  1  0  0  0  0
 11 14  1  0  0  0  0
  9 10  1  0  0  0  0
  9 11  1  0  0  0  0
  9 20  1  0  0  0  0
  7  8  1  0  0  0  0
  7  9  1  0  0  0  0
 24 25  1  0  0  0  0
 24 26  1  0  0  0  0
 24 27  1  0  0  0  0
 22 23  1  0  0  0  0
 22 24  1  0  0  0  0
M  CHG  1  18  -1
M  END
$$$$
default_name
  -OEChem-02102213163D

 27 26  0     1  0  0  0  0  0999 V2000
   -3.2406   -3.5400    1.2326 H   0  0  0  0  0  0  0  0  0  0  0  0
   -3.1436   -2.6190    0.6606 C   0  0  0  0  0  0  0  0  0  0  0  0
   -3.8786   -1.8920    0.9996 H   0  0  0  0  0  0  0  0  0  0  0  0
   -3.2846   -2.8280   -0.3984 H   0  0  0  0  0  0  0  0  0  0  0  0
   -1.7586   -2.0580    0.8686 C   0  0  0  0  0  0  0  0  0  0  0  0
   -0.9666   -2.6340    1.6026 O   0  0  0  0  0  0  0  0  0  0  0  0
   -1.4866   -0.9220    0.2366 N   0  0  0  0  0  0  0  0  0  0  0  0
   -2.2166   -0.4790   -0.2994 H   0  0  0  0  0  0  0  0  0  0  0  0
   -0.1956   -0.2250    0.2596 C   0  0  1  0  0  0  0  0  0  0  0  0
    0.3927   -0.6026    1.0964 H   0  0  0  0  0  0  0  0  0  0  0  0
    0.5767   -0.5489   -1.0351 C   0  0  0  0  0  0  0  0  0  0  0  0
   -0.1279   -0.9802   -1.7479 H   0  0  0  0  0  0  0  0  0  0  0  0
    0.9732    0.3751   -1.4587 H   0  0  0  0  0  0  0  0  0  0  0  0
    1.7306   -1.5442   -0.8270 C   0  0  0  0  0  0  0  0  0  0  0  0
    2.5524   -1.0368   -0.3162 H   0  0  0  0  0  0  0  0  0  0  0  0
    1.3761   -2.3494   -0.1780 H   0  0  0  0  0  0  0  0  0  0  0  0
    2.2611   -2.1460   -2.1367 C   0  0  0  0  0  0  0  0  0  0  0  0
    1.6474   -1.8935   -3.1979 O   0  5  0  0  0  0  0  0  0  0  0  0
    3.3002   -2.8380   -2.0557 O   0  0  0  0  0  0  0  0  0  0  0  0
   -0.3954    1.2887    0.4814 C   0  0  0  0  0  0  0  0  0  0  0  0
   -1.2761    1.9015   -0.1256 O   0  0  0  0  0  0  0  0  0  0  0  0
    0.4051    1.8919    1.3699 N   0  0  0  0  0  0  0  0  0  0  0  0
    1.1380    1.3380    1.7875 H   0  0  0  0  0  0  0  0  0  0  0  0
    0.3573    3.3183    1.6807 C   0  0  0  0  0  0  0  0  0  0  0  0
   -0.6670    3.6090    1.9198 H   0  0  0  0  0  0  0  0  0  0  0  0
    1.0066    3.5397    2.5289 H   0  0  0  0  0  0  0  0  0  0  0  0
    0.6896    3.8897    0.8118 H   0  0  0  0  0  0  0  0  0  0  0  0
  5  6  2  0  0  0  0
  5  7  1  0  0  0  0
  2  3  1  0  0  0  0
  2  4  1  0  0  0  0
  2  5  1  0  0  0  0
  1  2  1  0  0  0  0
 20 21  2  0  0  0  0
 20 22  1  0  0  0  0
 17 18  1  0  0  0  0
 17 19  2  0  0  0  0
 14 15  1  0  0  0  0
 14 16  1  0  0  0  0
 14 17  1  0  0  0  0
 11 12  1  0  0  0  0
 11 13  1  0  0  0  0
 11 14  1  0  0  0  0
  9 10  1  0  0  0  0
  9 11  1  0  0  0  0
  9 20  1  0  0  0  0
  7  8  1  0  0  0  0
  7  9  1  0  0  0  0
 24 25  1  0  0  0  0
 24 26  1  0  0  0  0
 24 27  1  0  0  0  0
 22 23  1  0  0  0  0
 22 24  1  0  0  0  0
M  CHG  1  18  -1
M  END
$$$$
default_name
  -OEChem-02102213163D

 27 26  0     1  0  0  0  0  0999 V2000
   -3.2406   -3.5400    1.2326 H   0  0  0  0  0  0  0  0  0  0  0  0
   -3.1436   -2.6190    0.6606 C   0  0  0  0  0  0  0  0  0  0  0  0
   -3.8786   -1.8920    0.9996 H   0  0  0  0  0  0  0  0  0  0  0  0
   -3.2846   -2.8280   -0.3984 H   0  0  0  0  0  0  0  0  0  0  0  0
   -1.7586   -2.0580    0.8686 C   0  0  0  0  0  0  0  0  0  0  0  0
   -0.9666   -2.6340    1.6026 O   0  0  0  0  0  0  0  0  0  0  0  0
   -1.4866   -0.9220    0.2366 N   0  0  0  0  0  0  0  0  0  0  0  0
   -2.2166   -0.4790   -0.2994 H   0  0  0  0  0  0  0  0  0  0  0  0
   -0.1956   -0.2250    0.2596 C   0  0  1  0  0  0  0  0  0  0  0  0
    0.3927   -0.6026    1.0964 H   0  0  0  0  0  0  0  0  0  0  0  0
    0.5767   -0.5489   -1.0351 C   0  0  0  0  0  0  0  0  0  0  0  0
   -0.1531   -0.7224   -1.8275 H   0  0  0  0  0  0  0  0  0  0  0  0
    1.1896    0.3098   -1.3132 H   0  0  0  0  0  0  0  0  0  0  0  0
    1.4741   -1.7924   -0.9179 C   0  0  0  0  0  0  0  0  0  0  0  0
    2.1937   -1.6389   -0.1102 H   0  0  0  0  0  0  0  0  0  0  0  0
    0.8447   -2.6456   -0.6511 H   0  0  0  0  0  0  0  0  0  0  0  0
    2.2428   -2.1141   -2.2081 C   0  0  0  0  0  0  0  0  0  0  0  0
    1.9802   -1.4515   -3.2369 O   0  5  0  0  0  0  0  0  0  0  0  0
    3.1093   -3.0135   -2.1354 O   0  0  0  0  0  0  0  0  0  0  0  0
   -0.3954    1.2887    0.4814 C   0  0  0  0  0  0  0  0  0  0  0  0
   -1.2761    1.9015   -0.1256 O   0  0  0  0  0  0  0  0  0  0  0  0
    0.4051    1.8919    1.3699 N   0  0  0  0  0  0  0  0  0  0  0  0
    1.1380    1.3380    1.7875 H   0  0  0  0  0  0  0  0  0  0  0  0
    0.3573    3.3183    1.6807 C   0  0  0  0  0  0  0  0  0  0  0  0
   -0.6670    3.6090    1.9198 H   0  0  0  0  0  0  0  0  0  0  0  0
    1.0066    3.5397    2.5289 H   0  0  0  0  0  0  0  0  0  0  0  0
    0.6896    3.8897    0.8118 H   0  0  0  0  0  0  0  0  0  0  0  0
  5  6  2  0  0  0  0
  5  7  1  0  0  0  0
  2  3  1  0  0  0  0
  2  4  1  0  0  0  0
  2  5  1  0  0  0  0
  1  2  1  0  0  0  0
 20 21  2  0  0  0  0
 20 22  1  0  0  0  0
 17 18  1  0  0  0  0
 17 19  2  0  0  0  0
 14 15  1  0  0  0  0
 14 16  1  0  0  0  0
 14 17  1  0  0  0  0
 11 12  1  0  0  0  0
 11 13  1  0  0  0  0
 11 14  1  0  0  0  0
  9 10  1  0  0  0  0
  9 11  1  0  0  0  0
  9 20  1  0  0  0  0
  7  8  1  0  0  0  0
  7  9  1  0  0  0  0
 24 25  1  0  0  0  0
 24 26  1  0  0  0  0
 24 27  1  0  0  0  0
 22 23  1  0  0  0  0
 22 24  1  0  0  0  0
M  CHG  1  18  -1
M  END
$$$$
default_name
  -OEChem-02102213163D

 27 26  0     1  0  0  0  0  0999 V2000
   -3.2406   -3.5400    1.2326 H   0  0  0  0  0  0  0  0  0  0  0  0
   -3.1436   -2.6190    0.6606 C   0  0  0  0  0  0  0  0  0  0  0  0
   -3.8786   -1.8920    0.9996 H   0  0  0  0  0  0  0  0  0  0  0  0
   -3.2846   -2.8280   -0.3984 H   0  0  0  0  0  0  0  0  0  0  0  0
   -1.7586   -2.0580    0.8686 C   0  0  0  0  0  0  0  0  0  0  0  0
   -0.9666   -2.6340    1.6026 O   0  0  0  0  0  0  0  0  0  0  0  0
   -1.4866   -0.9220    0.2366 N   0  0  0  0  0  0  0  0  0  0  0  0
   -2.2166   -0.4790   -0.2994 H   0  0  0  0  0  0  0  0  0  0  0  0
   -0.1956   -0.2250    0.2596 C   0  0  1  0  0  0  0  0  0  0  0  0
    0.3927   -0.6026    1.0964 H   0  0  0  0  0  0  0  0  0  0  0  0
    0.5767   -0.5489   -1.0351 C   0  0  0  0  0  0  0  0  0  0  0  0
   -0.1531   -0.7224   -1.8275 H   0  0  0  0  0  0  0  0  0  0  0  0
    1.1896    0.3098   -1.3132 H   0  0  0  0  0  0  0  0  0  0  0  0
    1.4741   -1.7924   -0.9179 C   0  0  0  0  0  0  0  0  0  0  0  0
    2.0042   -1.7618    0.0370 H   0  0  0  0  0  0  0  0  0  0  0  0
    0.8340   -2.6787   -0.9199 H   0  0  0  0  0  0  0  0  0  0  0  0
    2.5051   -1.9099   -2.0503 C   0  0  0  0  0  0  0  0  0  0  0  0
    2.4384   -1.0986   -3.0009 O   0  5  0  0  0  0  0  0  0  0  0  0
    3.3692   -2.8068   -1.9313 O   0  0  0  0  0  0  0  0  0  0  0  0
   -0.3954    1.2887    0.4814 C   0  0  0  0  0  0  0  0  0  0  0  0
   -1.2761    1.9015   -0.1256 O   0  0  0  0  0  0  0  0  0  0  0  0
    0.4051    1.8919    1.3699 N   0  0  0  0  0  0  0  0  0  0  0  0
    1.1380    1.3380    1.7875 H   0  0  0  0  0  0  0  0  0  0  0  0
    0.3573    3.3183    1.6807 C   0  0  0  0  0  0  0  0  0  0  0  0
   -0.6670    3.6090    1.9198 H   0  0  0  0  0  0  0  0  0  0  0  0
    1.0066    3.5397    2.5289 H   0  0  0  0  0  0  0  0  0  0  0  0
    0.6896    3.8897    0.8118 H   0  0  0  0  0  0  0  0  0  0  0  0
  5  6  2  0  0  0  0
  5  7  1  0  0  0  0
  2  3  1  0  0  0  0
  2  4  1  0  0  0  0
  2  5  1  0  0  0  0
  1  2  1  0  0  0  0
 20 21  2  0  0  0  0
 20 22  1  0  0  0  0
 17 18  1  0  0  0  0
 17 19  2  0  0  0  0
 14 15  1  0  0  0  0
 14 16  1  0  0  0  0
 14 17  1  0  0  0  0
 11 12  1  0  0  0  0
 11 13  1  0  0  0  0
 11 14  1  0  0  0  0
  9 10  1  0  0  0  0
  9 11  1  0  0  0  0
  9 20  1  0  0  0  0
  7  8  1  0  0  0  0
  7  9  1  0  0  0  0
 24 25  1  0  0  0  0
 24 26  1  0  0  0  0
 24 27  1  0  0  0  0
 22 23  1  0  0  0  0
 22 24  1  0  0  0  0
M  CHG  1  18  -1
M  END
$$$$
default_name
  -OEChem-02102213163D

 27 26  0     1  0  0  0  0  0999 V2000
   -3.2406   -3.5400    1.2326 H   0  0  0  0  0  0  0  0  0  0  0  0
   -3.1436   -2.6190    0.6606 C   0  0  0  0  0  0  0  0  0  0  0  0
   -3.8786   -1.8920    0.9996 H   0  0  0  0  0  0  0  0  0  0  0  0
   -3.2846   -2.8280   -0.3984 H   0  0  0  0  0  0  0  0  0  0  0  0
   -1.7586   -2.0580    0.8686 C   0  0  0  0  0  0  0  0  0  0  0  0
   -0.9666   -2.6340    1.6026 O   0  0  0  0  0  0  0  0  0  0  0  0
   -1.4866   -0.9220    0.2366 N   0  0  0  0  0  0  0  0  0  0  0  0
   -2.2166   -0.4790   -0.2994 H   0  0  0  0  0  0  0  0  0  0  0  0
   -0.1956   -0.2250    0.2596 C   0  0  1  0  0  0  0  0  0  0  0  0
    0.3927   -0.6026    1.0964 H   0  0  0  0  0  0  0  0  0  0  0  0
    0.5767   -0.5489   -1.0351 C   0  0  0  0  0  0  0  0  0  0  0  0
   -0.1531   -0.7224   -1.8275 H   0  0  0  0  0  0  0  0  0  0  0  0
    1.1896    0.3098   -1.3132 H   0  0  0  0  0  0  0  0  0  0  0  0
    1.4741   -1.7924   -0.9179 C   0  0  0  0  0  0  0  0  0  0  0  0
    1.7927   -1.9064    0.1210 H   0  0  0  0  0  0  0  0  0  0  0  0
    0.8805   -2.6703   -1.1867 H   0  0  0  0  0  0  0  0  0  0  0  0
    2.7213   -1.7314   -1.8121 C   0  0  0  0  0  0  0  0  0  0  0  0
    2.8246   -0.7843   -2.6238 O   0  5  0  0  0  0  0  0  0  0  0  0
    3.5735   -2.6327   -1.6485 O   0  0  0  0  0  0  0  0  0  0  0  0
   -0.3954    1.2887    0.4814 C   0  0  0  0  0  0  0  0  0  0  0  0
   -1.2761    1.9015   -0.1256 O   0  0  0  0  0  0  0  0  0  0  0  0
    0.4051    1.8919    1.3699 N   0  0  0  0  0  0  0  0  0  0  0  0
    1.1380    1.3380    1.7875 H   0  0  0  0  0  0  0  0  0  0  0  0
    0.3573    3.3183    1.6807 C   0  0  0  0  0  0  0  0  0  0  0  0
   -0.6670    3.6090    1.9198 H   0  0  0  0  0  0  0  0  0  0  0  0
    1.0066    3.5397    2.5289 H   0  0  0  0  0  0  0  0  0  0  0  0
    0.6896    3.8897    0.8118 H   0  0  0  0  0  0  0  0  0  0  0  0
  5  6  2  0  0  0  0
  5  7  1  0  0  0  0
  2  3  1  0  0  0  0
  2  4  1  0  0  0  0
  2  5  1  0  0  0  0
  1  2  1  0  0  0  0
 20 21  2  0  0  0  0
 20 22  1  0  0  0  0
 17 18  1  0  0  0  0
 17 19  2  0  0  0  0
 14 15  1  0  0  0  0
 14 16  1  0  0  0  0
 14 17  1  0  0  0  0
 11 12  1  0  0  0  0
 11 13  1  0  0  0  0
 11 14  1  0  0  0  0
  9 10  1  0  0  0  0
  9 11  1  0  0  0  0
  9 20  1  0  0  0  0
  7  8  1  0  0  0  0
  7  9  1  0  0  0  0
 24 25  1  0  0  0  0
 24 26  1  0  0  0  0
 24 27  1  0  0  0  0
 22 23  1  0  0  0  0
 22 24  1  0  0  0  0
M  CHG  1  18  -1
M  END
$$$$
default_name
  -OEChem-02102213163D

 27 26  0     1  0  0  0  0  0999 V2000
   -3.2406   -3.5400    1.2326 H   0  0  0  0  0  0  0  0  0  0  0  0
   -3.1436   -2.6190    0.6606 C   0  0  0  0  0  0  0  0  0  0  0  0
   -3.8786   -1.8920    0.9996 H   0  0  0  0  0  0  0  0  0  0  0  0
   -3.2846   -2.8280   -0.3984 H   0  0  0  0  0  0  0  0  0  0  0  0
   -1.7586   -2.0580    0.8686 C   0  0  0  0  0  0  0  0  0  0  0  0
   -0.9666   -2.6340    1.6026 O   0  0  0  0  0  0  0  0  0  0  0  0
   -1.4866   -0.9220    0.2366 N   0  0  0  0  0  0  0  0  0  0  0  0
   -2.2166   -0.4790   -0.2994 H   0  0  0  0  0  0  0  0  0  0  0  0
   -0.1956   -0.2250    0.2596 C   0  0  1  0  0  0  0  0  0  0  0  0
    0.3927   -0.6026    1.0964 H   0  0  0  0  0  0  0  0  0  0  0  0
    0.5767   -0.5489   -1.0351 C   0  0  0  0  0  0  0  0  0  0  0  0
   -0.1531   -0.7224   -1.8275 H   0  0  0  0  0  0  0  0  0  0  0  0
    1.1896    0.3098   -1.3132 H   0  0  0  0  0  0  0  0  0  0  0  0
    1.4741   -1.7924   -0.9179 C   0  0  0  0  0  0  0  0  0  0  0  0
    1.5738   -2.0630    0.1360 H   0  0  0  0  0  0  0  0  0  0  0  0
    0.9811   -2.6210   -1.4334 H   0  0  0  0  0  0  0  0  0  0  0  0
    2.8769   -1.5907   -1.5098 C   0  0  0  0  0  0  0  0  0  0  0  0
    3.1126   -0.5301   -2.1312 O   0  5  0  0  0  0  0  0  0  0  0  0
    3.7082   -2.5033   -1.3063 O   0  0  0  0  0  0  0  0  0  0  0  0
   -0.3954    1.2887    0.4814 C   0  0  0  0  0  0  0  0  0  0  0  0
   -1.2761    1.9015   -0.1256 O   0  0  0  0  0  0  0  0  0  0  0  0
    0.4051    1.8919    1.3699 N   0  0  0  0  0  0  0  0  0  0  0  0
    1.1380    1.3380    1.7875 H   0  0  0  0  0  0  0  0  0  0  0  0
    0.3573    3.3183    1.6807 C   0  0  0  0  0  0  0  0  0  0  0  0
   -0.6670    3.6090    1.9198 H   0  0  0  0  0  0  0  0  0  0  0  0
    1.0066    3.5397    2.5289 H   0  0  0  0  0  0  0  0  0  0  0  0
    0.6896    3.8897    0.8118 H   0  0  0  0  0  0  0  0  0  0  0  0
  5  6  2  0  0  0  0
  5  7  1  0  0  0  0
  2  3  1  0  0  0  0
  2  4  1  0  0  0  0
  2  5  1  0  0  0  0
  1  2  1  0  0  0  0
 20 21  2  0  0  0  0
 20 22  1  0  0  0  0
 17 18  1  0  0  0  0
 17 19  2  0  0  0  0
 14 15  1  0  0  0  0
 14 16  1  0  0  0  0
 14 17  1  0  0  0  0
 11 12  1  0  0  0  0
 11 13  1  0  0  0  0
 11 14  1  0  0  0  0
  9 10  1  0  0  0  0
  9 11  1  0  0  0  0
  9 20  1  0  0  0  0
  7  8  1  0  0  0  0
  7  9  1  0  0  0  0
 24 25  1  0  0  0  0
 24 26  1  0  0  0  0
 24 27  1  0  0  0  0
 22 23  1  0  0  0  0
 22 24  1  0  0  0  0
M  CHG  1  18  -1
M  END
$$$$
default_name
  -OEChem-02102213163D

 27 26  0     1  0  0  0  0  0999 V2000
   -3.2406   -3.5400    1.2326 H   0  0  0  0  0  0  0  0  0  0  0  0
   -3.1436   -2.6190    0.6606 C   0  0  0  0  0  0  0  0  0  0  0  0
   -3.8786   -1.8920    0.9996 H   0  0  0  0  0  0  0  0  0  0  0  0
   -3.2846   -2.8280   -0.3984 H   0  0  0  0  0  0  0  0  0  0  0  0
   -1.7586   -2.0580    0.8686 C   0  0  0  0  0  0  0  0  0  0  0  0
   -0.9666   -2.6340    1.6026 O   0  0  0  0  0  0  0  0  0  0  0  0
   -1.4866   -0.9220    0.2366 N   0  0  0  0  0  0  0  0  0  0  0  0
   -2.2166   -0.4790   -0.2994 H   0  0  0  0  0  0  0  0  0  0  0  0
   -0.1956   -0.2250    0.2596 C   0  0  1  0  0  0  0  0  0  0  0  0
    0.3927   -0.6026    1.0964 H   0  0  0  0  0  0  0  0  0  0  0  0
    0.5767   -0.5489   -1.0351 C   0  0  0  0  0  0  0  0  0  0  0  0
   -0.1531   -0.7224   -1.8275 H   0  0  0  0  0  0  0  0  0  0  0  0
    1.1896    0.3098   -1.3132 H   0  0  0  0  0  0  0  0  0  0  0  0
    1.4741   -1.7924   -0.9179 C   0  0  0  0  0  0  0  0  0  0  0  0
    1.3623   -2.2208    0.0810 H   0  0  0  0  0  0  0  0  0  0  0  0
    1.1289   -2.5341   -1.6432 H   0  0  0  0  0  0  0  0  0  0  0  0
    2.9611   -1.4973   -1.1640 C   0  0  0  0  0  0  0  0  0  0  0  0
    3.2826   -0.3533   -1.5567 O   0  5  0  0  0  0  0  0  0  0  0  0
    3.7641   -2.4273   -0.9281 O   0  0  0  0  0  0  0  0  0  0  0  0
   -0.3954    1.2887    0.4814 C   0  0  0  0  0  0  0  0  0  0  0  0
   -1.2761    1.9015   -0.1256 O   0  0  0  0  0  0  0  0  0  0  0  0
    0.4051    1.8919    1.3699 N   0  0  0  0  0  0  0  0  0  0  0  0
    1.1380    1.3380    1.7875 H   0  0  0  0  0  0  0  0  0  0  0  0
    0.3573    3.3183    1.6807 C   0  0  0  0  0  0  0  0  0  0  0  0
   -0.6670    3.6090    1.9198 H   0  0  0  0  0  0  0  0  0  0  0  0
    1.0066    3.5397    2.5289 H   0  0  0  0  0  0  0  0  0  0  0  0
    0.6896    3.8897    0.8118 H   0  0  0  0  0  0  0  0  0  0  0  0
  5  6  2  0  0  0  0
  5  7  1  0  0  0  0
  2  3  1  0  0  0  0
  2  4  1  0  0  0  0
  2  5  1  0  0  0  0
  1  2  1  0  0  0  0
 20 21  2  0  0  0  0
 20 22  1  0  0  0  0
 17 18  1  0  0  0  0
 17 19  2  0  0  0  0
 14 15  1  0  0  0  0
 14 16  1  0  0  0  0
 14 17  1  0  0  0  0
 11 12  1  0  0  0  0
 11 13  1  0  0  0  0
 11 14  1  0  0  0  0
  9 10  1  0  0  0  0
  9 11  1  0  0  0  0
  9 20  1  0  0  0  0
  7  8  1  0  0  0  0
  7  9  1  0  0  0  0
 24 25  1  0  0  0  0
 24 26  1  0  0  0  0
 24 27  1  0  0  0  0
 22 23  1  0  0  0  0
 22 24  1  0  0  0  0
M  CHG  1  18  -1
M  END
$$$$
default_name
  -OEChem-02102213163D

 27 26  0     1  0  0  0  0  0999 V2000
   -3.2406   -3.5400    1.2326 H   0  0  0  0  0  0  0  0  0  0  0  0
   -3.1436   -2.6190    0.6606 C   0  0  0  0  0  0  0  0  0  0  0  0
   -3.8786   -1.8920    0.9996 H   0  0  0  0  0  0  0  0  0  0  0  0
   -3.2846   -2.8280   -0.3984 H   0  0  0  0  0  0  0  0  0  0  0  0
   -1.7586   -2.0580    0.8686 C   0  0  0  0  0  0  0  0  0  0  0  0
   -0.9666   -2.6340    1.6026 O   0  0  0  0  0  0  0  0  0  0  0  0
   -1.4866   -0.9220    0.2366 N   0  0  0  0  0  0  0  0  0  0  0  0
   -2.2166   -0.4790   -0.2994 H   0  0  0  0  0  0  0  0  0  0  0  0
   -0.1956   -0.2250    0.2596 C   0  0  1  0  0  0  0  0  0  0  0  0
    0.3927   -0.6026    1.0964 H   0  0  0  0  0  0  0  0  0  0  0  0
    0.5767   -0.5489   -1.0351 C   0  0  0  0  0  0  0  0  0  0  0  0
   -0.1531   -0.7224   -1.8275 H   0  0  0  0  0  0  0  0  0  0  0  0
    1.1896    0.3098   -1.3132 H   0  0  0  0  0  0  0  0  0  0  0  0
    1.4741   -1.7924   -0.9179 C   0  0  0  0  0  0  0  0  0  0  0  0
    1.1726   -2.3691   -0.0402 H   0  0  0  0  0  0  0  0  0  0  0  0
    1.3139   -2.4155   -1.8018 H   0  0  0  0  0  0  0  0  0  0  0  0
    2.9682   -1.4577   -0.7983 C   0  0  0  0  0  0  0  0  0  0  0  0
    3.3232   -0.2659   -0.9396 O   0  5  0  0  0  0  0  0  0  0  0  0
    3.7375   -2.4099   -0.5396 O   0  0  0  0  0  0  0  0  0  0  0  0
   -0.3954    1.2887    0.4814 C   0  0  0  0  0  0  0  0  0  0  0  0
   -1.2761    1.9015   -0.1256 O   0  0  0  0  0  0  0  0  0  0  0  0
    0.4051    1.8919    1.3699 N   0  0  0  0  0  0  0  0  0  0  0  0
    1.1380    1.3380    1.7875 H   0  0  0  0  0  0  0  0  0  0  0  0
    0.3573    3.3183    1.6807 C   0  0  0  0  0  0  0  0  0  0  0  0
   -0.6670    3.6090    1.9198 H   0  0  0  0  0  0  0  0  0  0  0  0
    1.0066    3.5397    2.5289 H   0  0  0  0  0  0  0  0  0  0  0  0
    0.6896    3.8897    0.8118 H   0  0  0  0  0  0  0  0  0  0  0  0
  5  6  2  0  0  0  0
  5  7  1  0  0  0  0
  2  3  1  0  0  0  0
  2  4  1  0  0  0  0
  2  5  1  0  0  0  0
  1  2  1  0  0  0  0
 20 21  2  0  0  0  0
 20 22  1  0  0  0  0
 17 18  1  0  0  0  0
 17 19  2  0  0  0  0
 14 15  1  0  0  0  0
 14 16  1  0  0  0  0
 14 17  1  0  0  0  0
 11 12  1  0  0  0  0
 11 13  1  0  0  0  0
 11 14  1  0  0  0  0
  9 10  1  0  0  0  0
  9 11  1  0  0  0  0
  9 20  1  0  0  0  0
  7  8  1  0  0  0  0
  7  9  1  0  0  0  0
 24 25  1  0  0  0  0
 24 26  1  0  0  0  0
 24 27  1  0  0  0  0
 22 23  1  0  0  0  0
 22 24  1  0  0  0  0
M  CHG  1  18  -1
M  END
$$$$
default_name
  -OEChem-02102213163D

 27 26  0     1  0  0  0  0  0999 V2000
   -3.2406   -3.5400    1.2326 H   0  0  0  0  0  0  0  0  0  0  0  0
   -3.1436   -2.6190    0.6606 C   0  0  0  0  0  0  0  0  0  0  0  0
   -3.8786   -1.8920    0.9996 H   0  0  0  0  0  0  0  0  0  0  0  0
   -3.2846   -2.8280   -0.3984 H   0  0  0  0  0  0  0  0  0  0  0  0
   -1.7586   -2.0580    0.8686 C   0  0  0  0  0  0  0  0  0  0  0  0
   -0.9666   -2.6340    1.6026 O   0  0  0  0  0  0  0  0  0  0  0  0
   -1.4866   -0.9220    0.2366 N   0  0  0  0  0  0  0  0  0  0  0  0
   -2.2166   -0.4790   -0.2994 H   0  0  0  0  0  0  0  0  0  0  0  0
   -0.1956   -0.2250    0.2596 C   0  0  1  0  0  0  0  0  0  0  0  0
    0.3927   -0.6026    1.0964 H   0  0  0  0  0  0  0  0  0  0  0  0
    0.5767   -0.5489   -1.0351 C   0  0  0  0  0  0  0  0  0  0  0  0
   -0.1531   -0.7224   -1.8275 H   0  0  0  0  0  0  0  0  0  0  0  0
    1.1896    0.3098   -1.3132 H   0  0  0  0  0  0  0  0  0  0  0  0
    1.4741   -1.7924   -0.9179 C   0  0  0  0  0  0  0  0  0  0  0  0
    1.0177   -2.4978   -0.2193 H   0  0  0  0  0  0  0  0  0  0  0  0
    1.5235   -2.2734   -1.8984 H   0  0  0  0  0  0  0  0  0  0  0  0
    2.8978   -1.4745   -0.4375 C   0  0  0  0  0  0  0  0  0  0  0  0
    3.2315   -0.2738   -0.3217 O   0  5  0  0  0  0  0  0  0  0  0  0
    3.6301   -2.4523   -0.1673 O   0  0  0  0  0  0  0  0  0  0  0  0
   -0.3954    1.2887    0.4814 C   0  0  0  0  0  0  0  0  0  0  0  0
   -1.2761    1.9015   -0.1256 O   0  0  0  0  0  0  0  0  0  0  0  0
    0.4051    1.8919    1.3699 N   0  0  0  0  0  0  0  0  0  0  0  0
    1.1380    1.3380    1.7875 H   0  0  0  0  0  0  0  0  0  0  0  0
    0.3573    3.3183    1.6807 C   0  0  0  0  0  0  0  0  0  0  0  0
   -0.6670    3.6090    1.9198 H   0  0  0  0  0  0  0  0  0  0  0  0
    1.0066    3.5397    2.5289 H   0  0  0  0  0  0  0  0  0  0  0  0
    0.6896    3.8897    0.8118 H   0  0  0  0  0  0  0  0  0  0  0  0
  5  6  2  0  0  0  0
  5  7  1  0  0  0  0
  2  3  1  0  0  0  0
  2  4  1  0  0  0  0
  2  5  1  0  0  0  0
  1  2  1  0  0  0  0
 20 21  2  0  0  0  0
 20 22  1  0  0  0  0
 17 18  1  0  0  0  0
 17 19  2  0  0  0  0
 14 15  1  0  0  0  0
 14 16  1  0  0  0  0
 14 17  1  0  0  0  0
 11 12  1  0  0  0  0
 11 13  1  0  0  0  0
 11 14  1  0  0  0  0
  9 10  1  0  0  0  0
  9 11  1  0  0  0  0
  9 20  1  0  0  0  0
  7  8  1  0  0  0  0
  7  9  1  0  0  0  0
 24 25  1  0  0  0  0
 24 26  1  0  0  0  0
 24 27  1  0  0  0  0
 22 23  1  0  0  0  0
 22 24  1  0  0  0  0
M  CHG  1  18  -1
M  END
$$$$
default_name
  -OEChem-02102213163D

 27 26  0     1  0  0  0  0  0999 V2000
   -3.2406   -3.5400    1.2326 H   0  0  0  0  0  0  0  0  0  0  0  0
   -3.1436   -2.6190    0.6606 C   0  0  0  0  0  0  0  0  0  0  0  0
   -3.8786   -1.8920    0.9996 H   0  0  0  0  0  0  0  0  0  0  0  0
   -3.2846   -2.8280   -0.3984 H   0  0  0  0  0  0  0  0  0  0  0  0
   -1.7586   -2.0580    0.8686 C   0  0  0  0  0  0  0  0  0  0  0  0
   -0.9666   -2.6340    1.6026 O   0  0  0  0  0  0  0  0  0  0  0  0
   -1.4866   -0.9220    0.2366 N   0  0  0  0  0  0  0  0  0  0  0  0
   -2.2166   -0.4790   -0.2994 H   0  0  0  0  0  0  0  0  0  0  0  0
   -0.1956   -0.2250    0.2596 C   0  0  1  0  0  0  0  0  0  0  0  0
    0.3927   -0.6026    1.0964 H   0  0  0  0  0  0  0  0  0  0  0  0
    0.5767   -0.5489   -1.0351 C   0  0  0  0  0  0  0  0  0  0  0  0
   -0.1531   -0.7224   -1.8275 H   0  0  0  0  0  0  0  0  0  0  0  0
    1.1896    0.3098   -1.3132 H   0  0  0  0  0  0  0  0  0  0  0  0
    1.4741   -1.7924   -0.9179 C   0  0  0  0  0  0  0  0  0  0  0  0
    0.9080   -2.5981   -0.4442 H   0  0  0  0  0  0  0  0  0  0  0  0
    1.7433   -2.1175   -1.9264 H   0  0  0  0  0  0  0  0  0  0  0  0
    2.7546   -1.5467   -0.1063 C   0  0  0  0  0  0  0  0  0  0  0  0
    3.0137   -0.3766    0.2546 O   0  5  0  0  0  0  0  0  0  0  0  0
    3.4493   -2.5516    0.1635 O   0  0  0  0  0  0  0  0  0  0  0  0
   -0.3954    1.2887    0.4814 C   0  0  0  0  0  0  0  0  0  0  0  0
   -1.2761    1.9015   -0.1256 O   0  0  0  0  0  0  0  0  0  0  0  0
    0.4051    1.8919    1.3699 N   0  0  0  0  0  0  0  0  0  0  0  0
    1.1380    1.3380    1.7875 H   0  0  0  0  0  0  0  0  0  0  0  0
    0.3573    3.3183    1.6807 C   0  0  0  0  0  0  0  0  0  0  0  0
   -0.6670    3.6090    1.9198 H   0  0  0  0  0  0  0  0  0  0  0  0
    1.0066    3.5397    2.5289 H   0  0  0  0  0  0  0  0  0  0  0  0
    0.6896    3.8897    0.8118 H   0  0  0  0  0  0  0  0  0  0  0  0
  5  6  2  0  0  0  0
  5  7  1  0  0  0  0
  2  3  1  0  0  0  0
  2  4  1  0  0  0  0
  2  5  1  0  0  0  0
  1  2  1  0  0  0  0
 20 21  2  0  0  0  0
 20 22  1  0  0  0  0
 17 18  1  0  0  0  0
 17 19  2  0  0  0  0
 14 15  1  0  0  0  0
 14 16  1  0  0  0  0
 14 17  1  0  0  0  0
 11 12  1  0  0  0  0
 11 13  1  0  0  0  0
 11 14  1  0  0  0  0
  9 10  1  0  0  0  0
  9 11  1  0  0  0  0
  9 20  1  0  0  0  0
  7  8  1  0  0  0  0
  7  9  1  0  0  0  0
 24 25  1  0  0  0  0
 24 26  1  0  0  0  0
 24 27  1  0  0  0  0
 22 23  1  0  0  0  0
 22 24  1  0  0  0  0
M  CHG  1  18  -1
M  END
$$$$
default_name
  -OEChem-02102213163D

 27 26  0     1  0  0  0  0  0999 V2000
   -3.2406   -3.5400    1.2326 H   0  0  0  0  0  0  0  0  0  0  0  0
   -3.1436   -2.6190    0.6606 C   0  0  0  0  0  0  0  0  0  0  0  0
   -3.8786   -1.8920    0.9996 H   0  0  0  0  0  0  0  0  0  0  0  0
   -3.2846   -2.8280   -0.3984 H   0  0  0  0  0  0  0  0  0  0  0  0
   -1.7586   -2.0580    0.8686 C   0  0  0  0  0  0  0  0  0  0  0  0
   -0.9666   -2.6340    1.6026 O   0  0  0  0  0  0  0  0  0  0  0  0
   -1.4866   -0.9220    0.2366 N   0  0  0  0  0  0  0  0  0  0  0  0
   -2.2166   -0.4790   -0.2994 H   0  0  0  0  0  0  0  0  0  0  0  0
   -0.1956   -0.2250    0.2596 C   0  0  1  0  0  0  0  0  0  0  0  0
    0.3927   -0.6026    1.0964 H   0  0  0  0  0  0  0  0  0  0  0  0
    0.5767   -0.5489   -1.0351 C   0  0  0  0  0  0  0  0  0  0  0  0
   -0.1531   -0.7224   -1.8275 H   0  0  0  0  0  0  0  0  0  0  0  0
    1.1896    0.3098   -1.3132 H   0  0  0  0  0  0  0  0  0  0  0  0
    1.4741   -1.7924   -0.9179 C   0  0  0  0  0  0  0  0  0  0  0  0
    0.8511   -2.6632   -0.6995 H   0  0  0  0  0  0  0  0  0  0  0  0
    1.9584   -1.9582   -1.8839 H   0  0  0  0  0  0  0  0  0  0  0  0
    2.5484   -1.6691    0.1727 C   0  0  0  0  0  0  0  0  0  0  0  0
    2.6848   -0.5672    0.7503 O   0  5  0  0  0  0  0  0  0  0  0  0
    3.2074   -2.7010    0.4302 O   0  0  0  0  0  0  0  0  0  0  0  0
   -0.3954    1.2887    0.4814 C   0  0  0  0  0  0  0  0  0  0  0  0
   -1.2761    1.9015   -0.1256 O   0  0  0  0  0  0  0  0  0  0  0  0
    0.4051    1.8919    1.3699 N   0  0  0  0  0  0  0  0  0  0  0  0
    1.1380    1.3380    1.7875 H   0  0  0  0  0  0  0  0  0  0  0  0
    0.3573    3.3183    1.6807 C   0  0  0  0  0  0  0  0  0  0  0  0
   -0.6670    3.6090    1.9198 H   0  0  0  0  0  0  0  0  0  0  0  0
    1.0066    3.5397    2.5289 H   0  0  0  0  0  0  0  0  0  0  0  0
    0.6896    3.8897    0.8118 H   0  0  0  0  0  0  0  0  0  0  0  0
  5  6  2  0  0  0  0
  5  7  1  0  0  0  0
  2  3  1  0  0  0  0
  2  4  1  0  0  0  0
  2  5  1  0  0  0  0
  1  2  1  0  0  0  0
 20 21  2  0  0  0  0
 20 22  1  0  0  0  0
 17 18  1  0  0  0  0
 17 19  2  0  0  0  0
 14 15  1  0  0  0  0
 14 16  1  0  0  0  0
 14 17  1  0  0  0  0
 11 12  1  0  0  0  0
 11 13  1  0  0  0  0
 11 14  1  0  0  0  0
  9 10  1  0  0  0  0
  9 11  1  0  0  0  0
  9 20  1  0  0  0  0
  7  8  1  0  0  0  0
  7  9  1  0  0  0  0
 24 25  1  0  0  0  0
 24 26  1  0  0  0  0
 24 27  1  0  0  0  0
 22 23  1  0  0  0  0
 22 24  1  0  0  0  0
M  CHG  1  18  -1
M  END
$$$$
default_name
  -OEChem-02102213163D

 27 26  0     1  0  0  0  0  0999 V2000
   -3.2406   -3.5400    1.2326 H   0  0  0  0  0  0  0  0  0  0  0  0
   -3.1436   -2.6190    0.6606 C   0  0  0  0  0  0  0  0  0  0  0  0
   -3.8786   -1.8920    0.9996 H   0  0  0  0  0  0  0  0  0  0  0  0
   -3.2846   -2.8280   -0.3984 H   0  0  0  0  0  0  0  0  0  0  0  0
   -1.7586   -2.0580    0.8686 C   0  0  0  0  0  0  0  0  0  0  0  0
   -0.9666   -2.6340    1.6026 O   0  0  0  0  0  0  0  0  0  0  0  0
   -1.4866   -0.9220    0.2366 N   0  0  0  0  0  0  0  0  0  0  0  0
   -2.2166   -0.4790   -0.2994 H   0  0  0  0  0  0  0  0  0  0  0  0
   -0.1956   -0.2250    0.2596 C   0  0  1  0  0  0  0  0  0  0  0  0
    0.3927   -0.6026    1.0964 H   0  0  0  0  0  0  0  0  0  0  0  0
    0.5767   -0.5489   -1.0351 C   0  0  0  0  0  0  0  0  0  0  0  0
   -0.1531   -0.7224   -1.8275 H   0  0  0  0  0  0  0  0  0  0  0  0
    1.1896    0.3098   -1.3132 H   0  0  0  0  0  0  0  0  0  0  0  0
    1.4741   -1.7924   -0.9179 C   0  0  0  0  0  0  0  0  0  0  0  0
    0.8509   -2.6886   -0.9679 H   0  0  0  0  0  0  0  0  0  0  0  0
    2.1541   -1.8066   -1.7738 H   0  0  0  0  0  0  0  0  0  0  0  0
    2.2933   -1.8337    0.3806 C   0  0  0  0  0  0  0  0  0  0  0  0
    2.2672   -0.8327    1.1314 O   0  5  0  0  0  0  0  0  0  0  0  0
    2.9209   -2.8904    0.6146 O   0  0  0  0  0  0  0  0  0  0  0  0
   -0.3954    1.2887    0.4814 C   0  0  0  0  0  0  0  0  0  0  0  0
   -1.2761    1.9015   -0.1256 O   0  0  0  0  0  0  0  0  0  0  0  0
    0.4051    1.8919    1.3699 N   0  0  0  0  0  0  0  0  0  0  0  0
    1.1380    1.3380    1.7875 H   0  0  0  0  0  0  0  0  0  0  0  0
    0.3573    3.3183    1.6807 C   0  0  0  0  0  0  0  0  0  0  0  0
   -0.6670    3.6090    1.9198 H   0  0  0  0  0  0  0  0  0  0  0  0
    1.0066    3.5397    2.5289 H   0  0  0  0  0  0  0  0  0  0  0  0
    0.6896    3.8897    0.8118 H   0  0  0  0  0  0  0  0  0  0  0  0
  5  6  2  0  0  0  0
  5  7  1  0  0  0  0
  2  3  1  0  0  0  0
  2  4  1  0  0  0  0
  2  5  1  0  0  0  0
  1  2  1  0  0  0  0
 20 21  2  0  0  0  0
 20 22  1  0  0  0  0
 17 18  1  0  0  0  0
 17 19  2  0  0  0  0
 14 15  1  0  0  0  0
 14 16  1  0  0  0  0
 14 17  1  0  0  0  0
 11 12  1  0  0  0  0
 11 13  1  0  0  0  0
 11 14  1  0  0  0  0
  9 10  1  0  0  0  0
  9 11  1  0  0  0  0
  9 20  1  0  0  0  0
  7  8  1  0  0  0  0
  7  9  1  0  0  0  0
 24 25  1  0  0  0  0
 24 26  1  0  0  0  0
 24 27  1  0  0  0  0
 22 23  1  0  0  0  0
 22 24  1  0  0  0  0
M  CHG  1  18  -1
M  END
$$$$
default_name
  -OEChem-02102213163D

 27 26  0     1  0  0  0  0  0999 V2000
   -3.2406   -3.5400    1.2326 H   0  0  0  0  0  0  0  0  0  0  0  0
   -3.1436   -2.6190    0.6606 C   0  0  0  0  0  0  0  0  0  0  0  0
   -3.8786   -1.8920    0.9996 H   0  0  0  0  0  0  0  0  0  0  0  0
   -3.2846   -2.8280   -0.3984 H   0  0  0  0  0  0  0  0  0  0  0  0
   -1.7586   -2.0580    0.8686 C   0  0  0  0  0  0  0  0  0  0  0  0
   -0.9666   -2.6340    1.6026 O   0  0  0  0  0  0  0  0  0  0  0  0
   -1.4866   -0.9220    0.2366 N   0  0  0  0  0  0  0  0  0  0  0  0
   -2.2166   -0.4790   -0.2994 H   0  0  0  0  0  0  0  0  0  0  0  0
   -0.1956   -0.2250    0.2596 C   0  0  1  0  0  0  0  0  0  0  0  0
    0.3927   -0.6026    1.0964 H   0  0  0  0  0  0  0  0  0  0  0  0
    0.5767   -0.5489   -1.0351 C   0  0  0  0  0  0  0  0  0  0  0  0
   -0.1531   -0.7224   -1.8275 H   0  0  0  0  0  0  0  0  0  0  0  0
    1.1896    0.3098   -1.3132 H   0  0  0  0  0  0  0  0  0  0  0  0
    1.4741   -1.7924   -0.9179 C   0  0  0  0  0  0  0  0  0  0  0  0
    0.9074   -2.6727   -1.2310 H   0  0  0  0  0  0  0  0  0  0  0  0
    2.3171   -1.6729   -1.6035 H   0  0  0  0  0  0  0  0  0  0  0  0
    2.0066   -2.0290    0.5031 C   0  0  0  0  0  0  0  0  0  0  0  0
    1.7892   -1.1549    1.3721 O   0  5  0  0  0  0  0  0  0  0  0  0
    2.6093   -3.1068    0.7042 O   0  0  0  0  0  0  0  0  0  0  0  0
   -0.3954    1.2887    0.4814 C   0  0  0  0  0  0  0  0  0  0  0  0
   -1.2761    1.9015   -0.1256 O   0  0  0  0  0  0  0  0  0  0  0  0
    0.4051    1.8919    1.3699 N   0  0  0  0  0  0  0  0  0  0  0  0
    1.1380    1.3380    1.7875 H   0  0  0  0  0  0  0  0  0  0  0  0
    0.3573    3.3183    1.6807 C   0  0  0  0  0  0  0  0  0  0  0  0
   -0.6670    3.6090    1.9198 H   0  0  0  0  0  0  0  0  0  0  0  0
    1.0066    3.5397    2.5289 H   0  0  0  0  0  0  0  0  0  0  0  0
    0.6896    3.8897    0.8118 H   0  0  0  0  0  0  0  0  0  0  0  0
  5  6  2  0  0  0  0
  5  7  1  0  0  0  0
  2  3  1  0  0  0  0
  2  4  1  0  0  0  0
  2  5  1  0  0  0  0
  1  2  1  0  0  0  0
 20 21  2  0  0  0  0
 20 22  1  0  0  0  0
 17 18  1  0  0  0  0
 17 19  2  0  0  0  0
 14 15  1  0  0  0  0
 14 16  1  0  0  0  0
 14 17  1  0  0  0  0
 11 12  1  0  0  0  0
 11 13  1  0  0  0  0
 11 14  1  0  0  0  0
  9 10  1  0  0  0  0
  9 11  1  0  0  0  0
  9 20  1  0  0  0  0
  7  8  1  0  0  0  0
  7  9  1  0  0  0  0
 24 25  1  0  0  0  0
 24 26  1  0  0  0  0
 24 27  1  0  0  0  0
 22 23  1  0  0  0  0
 22 24  1  0  0  0  0
M  CHG  1  18  -1
M  END
$$$$
default_name
  -OEChem-02102213163D

 27 26  0     1  0  0  0  0  0999 V2000
   -3.2406   -3.5400    1.2326 H   0  0  0  0  0  0  0  0  0  0  0  0
   -3.1436   -2.6190    0.6606 C   0  0  0  0  0  0  0  0  0  0  0  0
   -3.8786   -1.8920    0.9996 H   0  0  0  0  0  0  0  0  0  0  0  0
   -3.2846   -2.8280   -0.3984 H   0  0  0  0  0  0  0  0  0  0  0  0
   -1.7586   -2.0580    0.8686 C   0  0  0  0  0  0  0  0  0  0  0  0
   -0.9666   -2.6340    1.6026 O   0  0  0  0  0  0  0  0  0  0  0  0
   -1.4866   -0.9220    0.2366 N   0  0  0  0  0  0  0  0  0  0  0  0
   -2.2166   -0.4790   -0.2994 H   0  0  0  0  0  0  0  0  0  0  0  0
   -0.1956   -0.2250    0.2596 C   0  0  1  0  0  0  0  0  0  0  0  0
    0.3927   -0.6026    1.0964 H   0  0  0  0  0  0  0  0  0  0  0  0
    0.5767   -0.5489   -1.0351 C   0  0  0  0  0  0  0  0  0  0  0  0
   -0.1531   -0.7224   -1.8275 H   0  0  0  0  0  0  0  0  0  0  0  0
    1.1896    0.3098   -1.3132 H   0  0  0  0  0  0  0  0  0  0  0  0
    1.4741   -1.7924   -0.9179 C   0  0  0  0  0  0  0  0  0  0  0  0
    1.0167   -2.6164   -1.4709 H   0  0  0  0  0  0  0  0  0  0  0  0
    2.4364   -1.5663   -1.3848 H   0  0  0  0  0  0  0  0  0  0  0  0
    1.7078   -2.2418    0.5320 C   0  0  0  0  0  0  0  0  0  0  0  0
    1.2835   -1.5119    1.4559 O   0  5  0  0  0  0  0  0  0  0  0  0
    2.2938   -3.3355    0.6928 O   0  0  0  0  0  0  0  0  0  0  0  0
   -0.3954    1.2887    0.4814 C   0  0  0  0  0  0  0  0  0  0  0  0
   -1.2761    1.9015   -0.1256 O   0  0  0  0  0  0  0  0  0  0  0  0
    0.4051    1.8919    1.3699 N   0  0  0  0  0  0  0  0  0  0  0  0
    1.1380    1.3380    1.7875 H   0  0  0  0  0  0  0  0  0  0  0  0
    0.3573    3.3183    1.6807 C   0  0  0  0  0  0  0  0  0  0  0  0
   -0.6670    3.6090    1.9198 H   0  0  0  0  0  0  0  0  0  0  0  0
    1.0066    3.5397    2.5289 H   0  0  0  0  0  0  0  0  0  0  0  0
    0.6896    3.8897    0.8118 H   0  0  0  0  0  0  0  0  0  0  0  0
  5  6  2  0  0  0  0
  5  7  1  0  0  0  0
  2  3  1  0  0  0  0
  2  4  1  0  0  0  0
  2  5  1  0  0  0  0
  1  2  1  0  0  0  0
 20 21  2  0  0  0  0
 20 22  1  0  0  0  0
 17 18  1  0  0  0  0
 17 19  2  0  0  0  0
 14 15  1  0  0  0  0
 14 16  1  0  0  0  0
 14 17  1  0  0  0  0
 11 12  1  0  0  0  0
 11 13  1  0  0  0  0
 11 14  1  0  0  0  0
  9 10  1  0  0  0  0
  9 11  1  0  0  0  0
  9 20  1  0  0  0  0
  7  8  1  0  0  0  0
  7  9  1  0  0  0  0
 24 25  1  0  0  0  0
 24 26  1  0  0  0  0
 24 27  1  0  0  0  0
 22 23  1  0  0  0  0
 22 24  1  0  0  0  0
M  CHG  1  18  -1
M  END
$$$$
default_name
  -OEChem-02102213163D

 27 26  0     1  0  0  0  0  0999 V2000
   -3.2406   -3.5400    1.2326 H   0  0  0  0  0  0  0  0  0  0  0  0
   -3.1436   -2.6190    0.6606 C   0  0  0  0  0  0  0  0  0  0  0  0
   -3.8786   -1.8920    0.9996 H   0  0  0  0  0  0  0  0  0  0  0  0
   -3.2846   -2.8280   -0.3984 H   0  0  0  0  0  0  0  0  0  0  0  0
   -1.7586   -2.0580    0.8686 C   0  0  0  0  0  0  0  0  0  0  0  0
   -0.9666   -2.6340    1.6026 O   0  0  0  0  0  0  0  0  0  0  0  0
   -1.4866   -0.9220    0.2366 N   0  0  0  0  0  0  0  0  0  0  0  0
   -2.2166   -0.4790   -0.2994 H   0  0  0  0  0  0  0  0  0  0  0  0
   -0.1956   -0.2250    0.2596 C   0  0  1  0  0  0  0  0  0  0  0  0
    0.3927   -0.6026    1.0964 H   0  0  0  0  0  0  0  0  0  0  0  0
    0.5767   -0.5489   -1.0351 C   0  0  0  0  0  0  0  0  0  0  0  0
   -0.1531   -0.7224   -1.8275 H   0  0  0  0  0  0  0  0  0  0  0  0
    1.1896    0.3098   -1.3132 H   0  0  0  0  0  0  0  0  0  0  0  0
    1.4741   -1.7924   -0.9179 C   0  0  0  0  0  0  0  0  0  0  0  0
    1.1713   -2.5237   -1.6713 H   0  0  0  0  0  0  0  0  0  0  0  0
    2.5036   -1.4940   -1.1325 H   0  0  0  0  0  0  0  0  0  0  0  0
    1.4174   -2.4577    0.4652 C   0  0  0  0  0  0  0  0  0  0  0  0
    0.7846   -1.8793    1.3771 O   0  5  0  0  0  0  0  0  0  0  0  0
    1.9959   -3.5609    0.5813 O   0  0  0  0  0  0  0  0  0  0  0  0
   -0.3954    1.2887    0.4814 C   0  0  0  0  0  0  0  0  0  0  0  0
   -1.2761    1.9015   -0.1256 O   0  0  0  0  0  0  0  0  0  0  0  0
    0.4051    1.8919    1.3699 N   0  0  0  0  0  0  0  0  0  0  0  0
    1.1380    1.3380    1.7875 H   0  0  0  0  0  0  0  0  0  0  0  0
    0.3573    3.3183    1.6807 C   0  0  0  0  0  0  0  0  0  0  0  0
   -0.6670    3.6090    1.9198 H   0  0  0  0  0  0  0  0  0  0  0  0
    1.0066    3.5397    2.5289 H   0  0  0  0  0  0  0  0  0  0  0  0
    0.6896    3.8897    0.8118 H   0  0  0  0  0  0  0  0  0  0  0  0
  5  6  2  0  0  0  0
  5  7  1  0  0  0  0
  2  3  1  0  0  0  0
  2  4  1  0  0  0  0
  2  5  1  0  0  0  0
  1  2  1  0  0  0  0
 20 21  2  0  0  0  0
 20 22  1  0  0  0  0
 17 18  1  0  0  0  0
 17 19  2  0  0  0  0
 14 15  1  0  0  0  0
 14 16  1  0  0  0  0
 14 17  1  0  0  0  0
 11 12  1  0  0  0  0
 11 13  1  0  0  0  0
 11 14  1  0  0  0  0
  9 10  1  0  0  0  0
  9 11  1  0  0  0  0
  9 20  1  0  0  0  0
  7  8  1  0  0  0  0
  7  9  1  0  0  0  0
 24 25  1  0  0  0  0
 24 26  1  0  0  0  0
 24 27  1  0  0  0  0
 22 23  1  0  0  0  0
 22 24  1  0  0  0  0
M  CHG  1  18  -1
M  END
$$$$
default_name
  -OEChem-02102213163D

 27 26  0     1  0  0  0  0  0999 V2000
   -3.2406   -3.5400    1.2326 H   0  0  0  0  0  0  0  0  0  0  0  0
   -3.1436   -2.6190    0.6606 C   0  0  0  0  0  0  0  0  0  0  0  0
   -3.8786   -1.8920    0.9996 H   0  0  0  0  0  0  0  0  0  0  0  0
   -3.2846   -2.8280   -0.3984 H   0  0  0  0  0  0  0  0  0  0  0  0
   -1.7586   -2.0580    0.8686 C   0  0  0  0  0  0  0  0  0  0  0  0
   -0.9666   -2.6340    1.6026 O   0  0  0  0  0  0  0  0  0  0  0  0
   -1.4866   -0.9220    0.2366 N   0  0  0  0  0  0  0  0  0  0  0  0
   -2.2166   -0.4790   -0.2994 H   0  0  0  0  0  0  0  0  0  0  0  0
   -0.1956   -0.2250    0.2596 C   0  0  1  0  0  0  0  0  0  0  0  0
    0.3927   -0.6026    1.0964 H   0  0  0  0  0  0  0  0  0  0  0  0
    0.5767   -0.5489   -1.0351 C   0  0  0  0  0  0  0  0  0  0  0  0
   -0.1531   -0.7224   -1.8275 H   0  0  0  0  0  0  0  0  0  0  0  0
    1.1896    0.3098   -1.3132 H   0  0  0  0  0  0  0  0  0  0  0  0
    1.4741   -1.7924   -0.9179 C   0  0  0  0  0  0  0  0  0  0  0  0
    1.3608   -2.4009   -1.8185 H   0  0  0  0  0  0  0  0  0  0  0  0
    2.5144   -1.4609   -0.8638 H   0  0  0  0  0  0  0  0  0  0  0  0
    1.1551   -2.6618    0.3074 C   0  0  0  0  0  0  0  0  0  0  0  0
    0.3264   -2.2322    1.1411 O   0  5  0  0  0  0  0  0  0  0  0  0
    1.7361   -3.7677    0.3771 O   0  0  0  0  0  0  0  0  0  0  0  0
   -0.3954    1.2887    0.4814 C   0  0  0  0  0  0  0  0  0  0  0  0
   -1.2761    1.9015   -0.1256 O   0  0  0  0  0  0  0  0  0  0  0  0
    0.4051    1.8919    1.3699 N   0  0  0  0  0  0  0  0  0  0  0  0
    1.1380    1.3380    1.7875 H   0  0  0  0  0  0  0  0  0  0  0  0
    0.3573    3.3183    1.6807 C   0  0  0  0  0  0  0  0  0  0  0  0
   -0.6670    3.6090    1.9198 H   0  0  0  0  0  0  0  0  0  0  0  0
    1.0066    3.5397    2.5289 H   0  0  0  0  0  0  0  0  0  0  0  0
    0.6896    3.8897    0.8118 H   0  0  0  0  0  0  0  0  0  0  0  0
  5  6  2  0  0  0  0
  5  7  1  0  0  0  0
  2  3  1  0  0  0  0
  2  4  1  0  0  0  0
  2  5  1  0  0  0  0
  1  2  1  0  0  0  0
 20 21  2  0  0  0  0
 20 22  1  0  0  0  0
 17 18  1  0  0  0  0
 17 19  2  0  0  0  0
 14 15  1  0  0  0  0
 14 16  1  0  0  0  0
 14 17  1  0  0  0  0
 11 12  1  0  0  0  0
 11 13  1  0  0  0  0
 11 14  1  0  0  0  0
  9 10  1  0  0  0  0
  9 11  1  0  0  0  0
  9 20  1  0  0  0  0
  7  8  1  0  0  0  0
  7  9  1  0  0  0  0
 24 25  1  0  0  0  0
 24 26  1  0  0  0  0
 24 27  1  0  0  0  0
 22 23  1  0  0  0  0
 22 24  1  0  0  0  0
M  CHG  1  18  -1
M  END
$$$$
default_name
  -OEChem-02102213163D

 27 26  0     1  0  0  0  0  0999 V2000
   -3.2406   -3.5400    1.2326 H   0  0  0  0  0  0  0  0  0  0  0  0
   -3.1436   -2.6190    0.6606 C   0  0  0  0  0  0  0  0  0  0  0  0
   -3.8786   -1.8920    0.9996 H   0  0  0  0  0  0  0  0  0  0  0  0
   -3.2846   -2.8280   -0.3984 H   0  0  0  0  0  0  0  0  0  0  0  0
   -1.7586   -2.0580    0.8686 C   0  0  0  0  0  0  0  0  0  0  0  0
   -0.9666   -2.6340    1.6026 O   0  0  0  0  0  0  0  0  0  0  0  0
   -1.4866   -0.9220    0.2366 N   0  0  0  0  0  0  0  0  0  0  0  0
   -2.2166   -0.4790   -0.2994 H   0  0  0  0  0  0  0  0  0  0  0  0
   -0.1956   -0.2250    0.2596 C   0  0  1  0  0  0  0  0  0  0  0  0
    0.3927   -0.6026    1.0964 H   0  0  0  0  0  0  0  0  0  0  0  0
    0.5767   -0.5489   -1.0351 C   0  0  0  0  0  0  0  0  0  0  0  0
   -0.1531   -0.7224   -1.8275 H   0  0  0  0  0  0  0  0  0  0  0  0
    1.1896    0.3098   -1.3132 H   0  0  0  0  0  0  0  0  0  0  0  0
    1.4741   -1.7924   -0.9179 C   0  0  0  0  0  0  0  0  0  0  0  0
    1.5723   -2.2562   -1.9024 H   0  0  0  0  0  0  0  0  0  0  0  0
    2.4679   -1.4693   -0.5969 H   0  0  0  0  0  0  0  0  0  0  0  0
    0.9389   -2.8403    0.0692 C   0  0  0  0  0  0  0  0  0  0  0  0
   -0.0599   -2.5464    0.7639 O   0  5  0  0  0  0  0  0  0  0  0  0
    1.5318   -3.9417    0.0944 O   0  0  0  0  0  0  0  0  0  0  0  0
   -0.3954    1.2887    0.4814 C   0  0  0  0  0  0  0  0  0  0  0  0
   -1.2761    1.9015   -0.1256 O   0  0  0  0  0  0  0  0  0  0  0  0
    0.4051    1.8919    1.3699 N   0  0  0  0  0  0  0  0  0  0  0  0
    1.1380    1.3380    1.7875 H   0  0  0  0  0  0  0  0  0  0  0  0
    0.3573    3.3183    1.6807 C   0  0  0  0  0  0  0  0  0  0  0  0
   -0.6670    3.6090    1.9198 H   0  0  0  0  0  0  0  0  0  0  0  0
    1.0066    3.5397    2.5289 H   0  0  0  0  0  0  0  0  0  0  0  0
    0.6896    3.8897    0.8118 H   0  0  0  0  0  0  0  0  0  0  0  0
  5  6  2  0  0  0  0
  5  7  1  0  0  0  0
  2  3  1  0  0  0  0
  2  4  1  0  0  0  0
  2  5  1  0  0  0  0
  1  2  1  0  0  0  0
 20 21  2  0  0  0  0
 20 22  1  0  0  0  0
 17 18  1  0  0  0  0
 17 19  2  0  0  0  0
 14 15  1  0  0  0  0
 14 16  1  0  0  0  0
 14 17  1  0  0  0  0
 11 12  1  0  0  0  0
 11 13  1  0  0  0  0
 11 14  1  0  0  0  0
  9 10  1  0  0  0  0
  9 11  1  0  0  0  0
  9 20  1  0  0  0  0
  7  8  1  0  0  0  0
  7  9  1  0  0  0  0
 24 25  1  0  0  0  0
 24 26  1  0  0  0  0
 24 27  1  0  0  0  0
 22 23  1  0  0  0  0
 22 24  1  0  0  0  0
M  CHG  1  18  -1
M  END
$$$$
default_name
  -OEChem-02102213163D

 27 26  0     1  0  0  0  0  0999 V2000
   -3.2406   -3.5400    1.2326 H   0  0  0  0  0  0  0  0  0  0  0  0
   -3.1436   -2.6190    0.6606 C   0  0  0  0  0  0  0  0  0  0  0  0
   -3.8786   -1.8920    0.9996 H   0  0  0  0  0  0  0  0  0  0  0  0
   -3.2846   -2.8280   -0.3984 H   0  0  0  0  0  0  0  0  0  0  0  0
   -1.7586   -2.0580    0.8686 C   0  0  0  0  0  0  0  0  0  0  0  0
   -0.9666   -2.6340    1.6026 O   0  0  0  0  0  0  0  0  0  0  0  0
   -1.4866   -0.9220    0.2366 N   0  0  0  0  0  0  0  0  0  0  0  0
   -2.2166   -0.4790   -0.2994 H   0  0  0  0  0  0  0  0  0  0  0  0
   -0.1956   -0.2250    0.2596 C   0  0  1  0  0  0  0  0  0  0  0  0
    0.3927   -0.6026    1.0964 H   0  0  0  0  0  0  0  0  0  0  0  0
    0.5767   -0.5489   -1.0351 C   0  0  0  0  0  0  0  0  0  0  0  0
   -0.1531   -0.7224   -1.8275 H   0  0  0  0  0  0  0  0  0  0  0  0
    1.1896    0.3098   -1.3132 H   0  0  0  0  0  0  0  0  0  0  0  0
    1.4741   -1.7924   -0.9179 C   0  0  0  0  0  0  0  0  0  0  0  0
    1.7912   -2.0997   -1.9174 H   0  0  0  0  0  0  0  0  0  0  0  0
    2.3673   -1.5186   -0.3502 H   0  0  0  0  0  0  0  0  0  0  0  0
    0.7833   -2.9811   -0.2331 C   0  0  0  0  0  0  0  0  0  0  0  0
   -0.3478   -2.8006    0.2713 O   0  5  0  0  0  0  0  0  0  0  0  0
    1.3971   -4.0711   -0.2478 O   0  0  0  0  0  0  0  0  0  0  0  0
   -0.3954    1.2887    0.4814 C   0  0  0  0  0  0  0  0  0  0  0  0
   -1.2761    1.9015   -0.1256 O   0  0  0  0  0  0  0  0  0  0  0  0
    0.4051    1.8919    1.3699 N   0  0  0  0  0  0  0  0  0  0  0  0
    1.1380    1.3380    1.7875 H   0  0  0  0  0  0  0  0  0  0  0  0
    0.3573    3.3183    1.6807 C   0  0  0  0  0  0  0  0  0  0  0  0
   -0.6670    3.6090    1.9198 H   0  0  0  0  0  0  0  0  0  0  0  0
    1.0066    3.5397    2.5289 H   0  0  0  0  0  0  0  0  0  0  0  0
    0.6896    3.8897    0.8118 H   0  0  0  0  0  0  0  0  0  0  0  0
  5  6  2  0  0  0  0
  5  7  1  0  0  0  0
  2  3  1  0  0  0  0
  2  4  1  0  0  0  0
  2  5  1  0  0  0  0
  1  2  1  0  0  0  0
 20 21  2  0  0  0  0
 20 22  1  0  0  0  0
 17 18  1  0  0  0  0
 17 19  2  0  0  0  0
 14 15  1  0  0  0  0
 14 16  1  0  0  0  0
 14 17  1  0  0  0  0
 11 12  1  0  0  0  0
 11 13  1  0  0  0  0
 11 14  1  0  0  0  0
  9 10  1  0  0  0  0
  9 11  1  0  0  0  0
  9 20  1  0  0  0  0
  7  8  1  0  0  0  0
  7  9  1  0  0  0  0
 24 25  1  0  0  0  0
 24 26  1  0  0  0  0
 24 27  1  0  0  0  0
 22 23  1  0  0  0  0
 22 24  1  0  0  0  0
M  CHG  1  18  -1
M  END
$$$$
default_name
  -OEChem-02102213163D

 27 26  0     1  0  0  0  0  0999 V2000
   -3.2406   -3.5400    1.2326 H   0  0  0  0  0  0  0  0  0  0  0  0
   -3.1436   -2.6190    0.6606 C   0  0  0  0  0  0  0  0  0  0  0  0
   -3.8786   -1.8920    0.9996 H   0  0  0  0  0  0  0  0  0  0  0  0
   -3.2846   -2.8280   -0.3984 H   0  0  0  0  0  0  0  0  0  0  0  0
   -1.7586   -2.0580    0.8686 C   0  0  0  0  0  0  0  0  0  0  0  0
   -0.9666   -2.6340    1.6026 O   0  0  0  0  0  0  0  0  0  0  0  0
   -1.4866   -0.9220    0.2366 N   0  0  0  0  0  0  0  0  0  0  0  0
   -2.2166   -0.4790   -0.2994 H   0  0  0  0  0  0  0  0  0  0  0  0
   -0.1956   -0.2250    0.2596 C   0  0  1  0  0  0  0  0  0  0  0  0
    0.3927   -0.6026    1.0964 H   0  0  0  0  0  0  0  0  0  0  0  0
    0.5767   -0.5489   -1.0351 C   0  0  0  0  0  0  0  0  0  0  0  0
   -0.1531   -0.7224   -1.8275 H   0  0  0  0  0  0  0  0  0  0  0  0
    1.1896    0.3098   -1.3132 H   0  0  0  0  0  0  0  0  0  0  0  0
    1.4741   -1.7924   -0.9179 C   0  0  0  0  0  0  0  0  0  0  0  0
    2.0027   -1.9419   -1.8625 H   0  0  0  0  0  0  0  0  0  0  0  0
    2.2194   -1.6055   -0.1404 H   0  0  0  0  0  0  0  0  0  0  0  0
    0.6991   -3.0744   -0.5789 C   0  0  0  0  0  0  0  0  0  0  0  0
   -0.5179   -2.9775   -0.3031 O   0  5  0  0  0  0  0  0  0  0  0  0
    1.3412   -4.1471   -0.6260 O   0  0  0  0  0  0  0  0  0  0  0  0
   -0.3954    1.2887    0.4814 C   0  0  0  0  0  0  0  0  0  0  0  0
   -1.2761    1.9015   -0.1256 O   0  0  0  0  0  0  0  0  0  0  0  0
    0.4051    1.8919    1.3699 N   0  0  0  0  0  0  0  0  0  0  0  0
    1.1380    1.3380    1.7875 H   0  0  0  0  0  0  0  0  0  0  0  0
    0.3573    3.3183    1.6807 C   0  0  0  0  0  0  0  0  0  0  0  0
   -0.6670    3.6090    1.9198 H   0  0  0  0  0  0  0  0  0  0  0  0
    1.0066    3.5397    2.5289 H   0  0  0  0  0  0  0  0  0  0  0  0
    0.6896    3.8897    0.8118 H   0  0  0  0  0  0  0  0  0  0  0  0
  5  6  2  0  0  0  0
  5  7  1  0  0  0  0
  2  3  1  0  0  0  0
  2  4  1  0  0  0  0
  2  5  1  0  0  0  0
  1  2  1  0  0  0  0
 20 21  2  0  0  0  0
 20 22  1  0  0  0  0
 17 18  1  0  0  0  0
 17 19  2  0  0  0  0
 14 15  1  0  0  0  0
 14 16  1  0  0  0  0
 14 17  1  0  0  0  0
 11 12  1  0  0  0  0
 11 13  1  0  0  0  0
 11 14  1  0  0  0  0
  9 10  1  0  0  0  0
  9 11  1  0  0  0  0
  9 20  1  0  0  0  0
  7  8  1  0  0  0  0
  7  9  1  0  0  0  0
 24 25  1  0  0  0  0
 24 26  1  0  0  0  0
 24 27  1  0  0  0  0
 22 23  1  0  0  0  0
 22 24  1  0  0  0  0
M  CHG  1  18  -1
M  END
$$$$
default_name
  -OEChem-02102213163D

 27 26  0     1  0  0  0  0  0999 V2000
   -3.2406   -3.5400    1.2326 H   0  0  0  0  0  0  0  0  0  0  0  0
   -3.1436   -2.6190    0.6606 C   0  0  0  0  0  0  0  0  0  0  0  0
   -3.8786   -1.8920    0.9996 H   0  0  0  0  0  0  0  0  0  0  0  0
   -3.2846   -2.8280   -0.3984 H   0  0  0  0  0  0  0  0  0  0  0  0
   -1.7586   -2.0580    0.8686 C   0  0  0  0  0  0  0  0  0  0  0  0
   -0.9666   -2.6340    1.6026 O   0  0  0  0  0  0  0  0  0  0  0  0
   -1.4866   -0.9220    0.2366 N   0  0  0  0  0  0  0  0  0  0  0  0
   -2.2166   -0.4790   -0.2994 H   0  0  0  0  0  0  0  0  0  0  0  0
   -0.1956   -0.2250    0.2596 C   0  0  1  0  0  0  0  0  0  0  0  0
    0.3927   -0.6026    1.0964 H   0  0  0  0  0  0  0  0  0  0  0  0
    0.5767   -0.5489   -1.0351 C   0  0  0  0  0  0  0  0  0  0  0  0
   -0.1531   -0.7224   -1.8275 H   0  0  0  0  0  0  0  0  0  0  0  0
    1.1896    0.3098   -1.3132 H   0  0  0  0  0  0  0  0  0  0  0  0
    1.4741   -1.7924   -0.9179 C   0  0  0  0  0  0  0  0  0  0  0  0
    2.1924   -1.7936   -1.7413 H   0  0  0  0  0  0  0  0  0  0  0  0
    2.0345   -1.7241    0.0182 H   0  0  0  0  0  0  0  0  0  0  0  0
    0.6920   -3.1140   -0.9446 C   0  0  0  0  0  0  0  0  0  0  0  0
   -0.5584   -3.0649   -0.9203 O   0  5  0  0  0  0  0  0  0  0  0  0
    1.3678   -4.1645   -1.0145 O   0  0  0  0  0  0  0  0  0  0  0  0
   -0.3954    1.2887    0.4814 C   0  0  0  0  0  0  0  0  0  0  0  0
   -1.2761    1.9015   -0.1256 O   0  0  0  0  0  0  0  0  0  0  0  0
    0.4051    1.8919    1.3699 N   0  0  0  0  0  0  0  0  0  0  0  0
    1.1380    1.3380    1.7875 H   0  0  0  0  0  0  0  0  0  0  0  0
    0.3573    3.3183    1.6807 C   0  0  0  0  0  0  0  0  0  0  0  0
   -0.6670    3.6090    1.9198 H   0  0  0  0  0  0  0  0  0  0  0  0
    1.0066    3.5397    2.5289 H   0  0  0  0  0  0  0  0  0  0  0  0
    0.6896    3.8897    0.8118 H   0  0  0  0  0  0  0  0  0  0  0  0
  5  6  2  0  0  0  0
  5  7  1  0  0  0  0
  2  3  1  0  0  0  0
  2  4  1  0  0  0  0
  2  5  1  0  0  0  0
  1  2  1  0  0  0  0
 20 21  2  0  0  0  0
 20 22  1  0  0  0  0
 17 18  1  0  0  0  0
 17 19  2  0  0  0  0
 14 15  1  0  0  0  0
 14 16  1  0  0  0  0
 14 17  1  0  0  0  0
 11 12  1  0  0  0  0
 11 13  1  0  0  0  0
 11 14  1  0  0  0  0
  9 10  1  0  0  0  0
  9 11  1  0  0  0  0
  9 20  1  0  0  0  0
  7  8  1  0  0  0  0
  7  9  1  0  0  0  0
 24 25  1  0  0  0  0
 24 26  1  0  0  0  0
 24 27  1  0  0  0  0
 22 23  1  0  0  0  0
 22 24  1  0  0  0  0
M  CHG  1  18  -1
M  END
$$$$
default_name
  -OEChem-02102213163D

 27 26  0     1  0  0  0  0  0999 V2000
   -3.2406   -3.5400    1.2326 H   0  0  0  0  0  0  0  0  0  0  0  0
   -3.1436   -2.6190    0.6606 C   0  0  0  0  0  0  0  0  0  0  0  0
   -3.8786   -1.8920    0.9996 H   0  0  0  0  0  0  0  0  0  0  0  0
   -3.2846   -2.8280   -0.3984 H   0  0  0  0  0  0  0  0  0  0  0  0
   -1.7586   -2.0580    0.8686 C   0  0  0  0  0  0  0  0  0  0  0  0
   -0.9666   -2.6340    1.6026 O   0  0  0  0  0  0  0  0  0  0  0  0
   -1.4866   -0.9220    0.2366 N   0  0  0  0  0  0  0  0  0  0  0  0
   -2.2166   -0.4790   -0.2994 H   0  0  0  0  0  0  0  0  0  0  0  0
   -0.1956   -0.2250    0.2596 C   0  0  1  0  0  0  0  0  0  0  0  0
    0.3927   -0.6026    1.0964 H   0  0  0  0  0  0  0  0  0  0  0  0
    0.5767   -0.5489   -1.0351 C   0  0  0  0  0  0  0  0  0  0  0  0
   -0.1531   -0.7224   -1.8275 H   0  0  0  0  0  0  0  0  0  0  0  0
    1.1896    0.3098   -1.3132 H   0  0  0  0  0  0  0  0  0  0  0  0
    1.4741   -1.7924   -0.9179 C   0  0  0  0  0  0  0  0  0  0  0  0
    2.3474   -1.6649   -1.5621 H   0  0  0  0  0  0  0  0  0  0  0  0
    1.8249   -1.8662    0.1148 H   0  0  0  0  0  0  0  0  0  0  0  0
    0.7624   -3.0972   -1.3054 C   0  0  0  0  0  0  0  0  0  0  0  0
   -0.4667   -3.0570   -1.5381 O   0  5  0  0  0  0  0  0  0  0  0  0
    1.4752   -4.1222   -1.3869 O   0  0  0  0  0  0  0  0  0  0  0  0
   -0.3954    1.2887    0.4814 C   0  0  0  0  0  0  0  0  0  0  0  0
   -1.2761    1.9015   -0.1256 O   0  0  0  0  0  0  0  0  0  0  0  0
    0.4051    1.8919    1.3699 N   0  0  0  0  0  0  0  0  0  0  0  0
    1.1380    1.3380    1.7875 H   0  0  0  0  0  0  0  0  0  0  0  0
    0.3573    3.3183    1.6807 C   0  0  0  0  0  0  0  0  0  0  0  0
   -0.6670    3.6090    1.9198 H   0  0  0  0  0  0  0  0  0  0  0  0
    1.0066    3.5397    2.5289 H   0  0  0  0  0  0  0  0  0  0  0  0
    0.6896    3.8897    0.8118 H   0  0  0  0  0  0  0  0  0  0  0  0
  5  6  2  0  0  0  0
  5  7  1  0  0  0  0
  2  3  1  0  0  0  0
  2  4  1  0  0  0  0
  2  5  1  0  0  0  0
  1  2  1  0  0  0  0
 20 21  2  0  0  0  0
 20 22  1  0  0  0  0
 17 18  1  0  0  0  0
 17 19  2  0  0  0  0
 14 15  1  0  0  0  0
 14 16  1  0  0  0  0
 14 17  1  0  0  0  0
 11 12  1  0  0  0  0
 11 13  1  0  0  0  0
 11 14  1  0  0  0  0
  9 10  1  0  0  0  0
  9 11  1  0  0  0  0
  9 20  1  0  0  0  0
  7  8  1  0  0  0  0
  7  9  1  0  0  0  0
 24 25  1  0  0  0  0
 24 26  1  0  0  0  0
 24 27  1  0  0  0  0
 22 23  1  0  0  0  0
 22 24  1  0  0  0  0
M  CHG  1  18  -1
M  END
$$$$
default_name
  -OEChem-02102213163D

 27 26  0     1  0  0  0  0  0999 V2000
   -3.2406   -3.5400    1.2326 H   0  0  0  0  0  0  0  0  0  0  0  0
   -3.1436   -2.6190    0.6606 C   0  0  0  0  0  0  0  0  0  0  0  0
   -3.8786   -1.8920    0.9996 H   0  0  0  0  0  0  0  0  0  0  0  0
   -3.2846   -2.8280   -0.3984 H   0  0  0  0  0  0  0  0  0  0  0  0
   -1.7586   -2.0580    0.8686 C   0  0  0  0  0  0  0  0  0  0  0  0
   -0.9666   -2.6340    1.6026 O   0  0  0  0  0  0  0  0  0  0  0  0
   -1.4866   -0.9220    0.2366 N   0  0  0  0  0  0  0  0  0  0  0  0
   -2.2166   -0.4790   -0.2994 H   0  0  0  0  0  0  0  0  0  0  0  0
   -0.1956   -0.2250    0.2596 C   0  0  1  0  0  0  0  0  0  0  0  0
    0.3927   -0.6026    1.0964 H   0  0  0  0  0  0  0  0  0  0  0  0
    0.5767   -0.5489   -1.0351 C   0  0  0  0  0  0  0  0  0  0  0  0
   -0.1531   -0.7224   -1.8275 H   0  0  0  0  0  0  0  0  0  0  0  0
    1.1896    0.3098   -1.3132 H   0  0  0  0  0  0  0  0  0  0  0  0
    1.4741   -1.7924   -0.9179 C   0  0  0  0  0  0  0  0  0  0  0  0
    2.4570   -1.5646   -1.3372 H   0  0  0  0  0  0  0  0  0  0  0  0
    1.6051   -2.0221    0.1428 H   0  0  0  0  0  0  0  0  0  0  0  0
    0.9056   -3.0251   -1.6365 C   0  0  0  0  0  0  0  0  0  0  0  0
   -0.2490   -2.9542   -2.1145 O   0  5  0  0  0  0  0  0  0  0  0  0
    1.6560   -4.0229   -1.7177 O   0  0  0  0  0  0  0  0  0  0  0  0
   -0.3954    1.2887    0.4814 C   0  0  0  0  0  0  0  0  0  0  0  0
   -1.2761    1.9015   -0.1256 O   0  0  0  0  0  0  0  0  0  0  0  0
    0.4051    1.8919    1.3699 N   0  0  0  0  0  0  0  0  0  0  0  0
    1.1380    1.3380    1.7875 H   0  0  0  0  0  0  0  0  0  0  0  0
    0.3573    3.3183    1.6807 C   0  0  0  0  0  0  0  0  0  0  0  0
   -0.6670    3.6090    1.9198 H   0  0  0  0  0  0  0  0  0  0  0  0
    1.0066    3.5397    2.5289 H   0  0  0  0  0  0  0  0  0  0  0  0
    0.6896    3.8897    0.8118 H   0  0  0  0  0  0  0  0  0  0  0  0
  5  6  2  0  0  0  0
  5  7  1  0  0  0  0
  2  3  1  0  0  0  0
  2  4  1  0  0  0  0
  2  5  1  0  0  0  0
  1  2  1  0  0  0  0
 20 21  2  0  0  0  0
 20 22  1  0  0  0  0
 17 18  1  0  0  0  0
 17 19  2  0  0  0  0
 14 15  1  0  0  0  0
 14 16  1  0  0  0  0
 14 17  1  0  0  0  0
 11 12  1  0  0  0  0
 11 13  1  0  0  0  0
 11 14  1  0  0  0  0
  9 10  1  0  0  0  0
  9 11  1  0  0  0  0
  9 20  1  0  0  0  0
  7  8  1  0  0  0  0
  7  9  1  0  0  0  0
 24 25  1  0  0  0  0
 24 26  1  0  0  0  0
 24 27  1  0  0  0  0
 22 23  1  0  0  0  0
 22 24  1  0  0  0  0
M  CHG  1  18  -1
M  END
$$$$
default_name
  -OEChem-02102213163D

 27 26  0     1  0  0  0  0  0999 V2000
   -3.2406   -3.5400    1.2326 H   0  0  0  0  0  0  0  0  0  0  0  0
   -3.1436   -2.6190    0.6606 C   0  0  0  0  0  0  0  0  0  0  0  0
   -3.8786   -1.8920    0.9996 H   0  0  0  0  0  0  0  0  0  0  0  0
   -3.2846   -2.8280   -0.3984 H   0  0  0  0  0  0  0  0  0  0  0  0
   -1.7586   -2.0580    0.8686 C   0  0  0  0  0  0  0  0  0  0  0  0
   -0.9666   -2.6340    1.6026 O   0  0  0  0  0  0  0  0  0  0  0  0
   -1.4866   -0.9220    0.2366 N   0  0  0  0  0  0  0  0  0  0  0  0
   -2.2166   -0.4790   -0.2994 H   0  0  0  0  0  0  0  0  0  0  0  0
   -0.1956   -0.2250    0.2596 C   0  0  1  0  0  0  0  0  0  0  0  0
    0.3927   -0.6026    1.0964 H   0  0  0  0  0  0  0  0  0  0  0  0
    0.5767   -0.5489   -1.0351 C   0  0  0  0  0  0  0  0  0  0  0  0
   -0.1531   -0.7224   -1.8275 H   0  0  0  0  0  0  0  0  0  0  0  0
    1.1896    0.3098   -1.3132 H   0  0  0  0  0  0  0  0  0  0  0  0
    1.4741   -1.7924   -0.9179 C   0  0  0  0  0  0  0  0  0  0  0  0
    2.5139   -1.4995   -1.0819 H   0  0  0  0  0  0  0  0  0  0  0  0
    1.3900   -2.1814    0.1003 H   0  0  0  0  0  0  0  0  0  0  0  0
    1.1118   -2.9026   -1.9156 C   0  0  0  0  0  0  0  0  0  0  0  0
    0.0799   -2.7636   -2.6101 O   0  5  0  0  0  0  0  0  0  0  0  0
    1.8979   -3.8735   -1.9843 O   0  0  0  0  0  0  0  0  0  0  0  0
   -0.3954    1.2887    0.4814 C   0  0  0  0  0  0  0  0  0  0  0  0
   -1.2761    1.9015   -0.1256 O   0  0  0  0  0  0  0  0  0  0  0  0
    0.4051    1.8919    1.3699 N   0  0  0  0  0  0  0  0  0  0  0  0
    1.1380    1.3380    1.7875 H   0  0  0  0  0  0  0  0  0  0  0  0
    0.3573    3.3183    1.6807 C   0  0  0  0  0  0  0  0  0  0  0  0
   -0.6670    3.6090    1.9198 H   0  0  0  0  0  0  0  0  0  0  0  0
    1.0066    3.5397    2.5289 H   0  0  0  0  0  0  0  0  0  0  0  0
    0.6896    3.8897    0.8118 H   0  0  0  0  0  0  0  0  0  0  0  0
  5  6  2  0  0  0  0
  5  7  1  0  0  0  0
  2  3  1  0  0  0  0
  2  4  1  0  0  0  0
  2  5  1  0  0  0  0
  1  2  1  0  0  0  0
 20 21  2  0  0  0  0
 20 22  1  0  0  0  0
 17 18  1  0  0  0  0
 17 19  2  0  0  0  0
 14 15  1  0  0  0  0
 14 16  1  0  0  0  0
 14 17  1  0  0  0  0
 11 12  1  0  0  0  0
 11 13  1  0  0  0  0
 11 14  1  0  0  0  0
  9 10  1  0  0  0  0
  9 11  1  0  0  0  0
  9 20  1  0  0  0  0
  7  8  1  0  0  0  0
  7  9  1  0  0  0  0
 24 25  1  0  0  0  0
 24 26  1  0  0  0  0
 24 27  1  0  0  0  0
 22 23  1  0  0  0  0
 22 24  1  0  0  0  0
M  CHG  1  18  -1
M  END
$$$$
default_name
  -OEChem-02102213163D

 27 26  0     1  0  0  0  0  0999 V2000
   -3.2406   -3.5400    1.2326 H   0  0  0  0  0  0  0  0  0  0  0  0
   -3.1436   -2.6190    0.6606 C   0  0  0  0  0  0  0  0  0  0  0  0
   -3.8786   -1.8920    0.9996 H   0  0  0  0  0  0  0  0  0  0  0  0
   -3.2846   -2.8280   -0.3984 H   0  0  0  0  0  0  0  0  0  0  0  0
   -1.7586   -2.0580    0.8686 C   0  0  0  0  0  0  0  0  0  0  0  0
   -0.9666   -2.6340    1.6026 O   0  0  0  0  0  0  0  0  0  0  0  0
   -1.4866   -0.9220    0.2366 N   0  0  0  0  0  0  0  0  0  0  0  0
   -2.2166   -0.4790   -0.2994 H   0  0  0  0  0  0  0  0  0  0  0  0
   -0.1956   -0.2250    0.2596 C   0  0  1  0  0  0  0  0  0  0  0  0
    0.3927   -0.6026    1.0964 H   0  0  0  0  0  0  0  0  0  0  0  0
    0.5767   -0.5489   -1.0351 C   0  0  0  0  0  0  0  0  0  0  0  0
   -0.1531   -0.7224   -1.8275 H   0  0  0  0  0  0  0  0  0  0  0  0
    1.1896    0.3098   -1.3132 H   0  0  0  0  0  0  0  0  0  0  0  0
    1.4741   -1.7924   -0.9179 C   0  0  0  0  0  0  0  0  0  0  0  0
    2.5141   -1.4740   -0.8135 H   0  0  0  0  0  0  0  0  0  0  0  0
    1.1943   -2.3330   -0.0098 H   0  0  0  0  0  0  0  0  0  0  0  0
    1.3669   -2.7381   -2.1234 C   0  0  0  0  0  0  0  0  0  0  0  0
    0.4976   -2.4981   -2.9913 O   0  5  0  0  0  0  0  0  0  0  0  0
    2.1844   -3.6841   -2.1687 O   0  0  0  0  0  0  0  0  0  0  0  0
   -0.3954    1.2887    0.4814 C   0  0  0  0  0  0  0  0  0  0  0  0
   -1.2761    1.9015   -0.1256 O   0  0  0  0  0  0  0  0  0  0  0  0
    0.4051    1.8919    1.3699 N   0  0  0  0  0  0  0  0  0  0  0  0
    1.1380    1.3380    1.7875 H   0  0  0  0  0  0  0  0  0  0  0  0
    0.3573    3.3183    1.6807 C   0  0  0  0  0  0  0  0  0  0  0  0
   -0.6670    3.6090    1.9198 H   0  0  0  0  0  0  0  0  0  0  0  0
    1.0066    3.5397    2.5289 H   0  0  0  0  0  0  0  0  0  0  0  0
    0.6896    3.8897    0.8118 H   0  0  0  0  0  0  0  0  0  0  0  0
  5  6  2  0  0  0  0
  5  7  1  0  0  0  0
  2  3  1  0  0  0  0
  2  4  1  0  0  0  0
  2  5  1  0  0  0  0
  1  2  1  0  0  0  0
 20 21  2  0  0  0  0
 20 22  1  0  0  0  0
 17 18  1  0  0  0  0
 17 19  2  0  0  0  0
 14 15  1  0  0  0  0
 14 16  1  0  0  0  0
 14 17  1  0  0  0  0
 11 12  1  0  0  0  0
 11 13  1  0  0  0  0
 11 14  1  0  0  0  0
  9 10  1  0  0  0  0
  9 11  1  0  0  0  0
  9 20  1  0  0  0  0
  7  8  1  0  0  0  0
  7  9  1  0  0  0  0
 24 25  1  0  0  0  0
 24 26  1  0  0  0  0
 24 27  1  0  0  0  0
 22 23  1  0  0  0  0
 22 24  1  0  0  0  0
M  CHG  1  18  -1
M  END
$$$$
default_name
  -OEChem-02102213163D

 27 26  0     1  0  0  0  0  0999 V2000
   -3.2406   -3.5400    1.2326 H   0  0  0  0  0  0  0  0  0  0  0  0
   -3.1436   -2.6190    0.6606 C   0  0  0  0  0  0  0  0  0  0  0  0
   -3.8786   -1.8920    0.9996 H   0  0  0  0  0  0  0  0  0  0  0  0
   -3.2846   -2.8280   -0.3984 H   0  0  0  0  0  0  0  0  0  0  0  0
   -1.7586   -2.0580    0.8686 C   0  0  0  0  0  0  0  0  0  0  0  0
   -0.9666   -2.6340    1.6026 O   0  0  0  0  0  0  0  0  0  0  0  0
   -1.4866   -0.9220    0.2366 N   0  0  0  0  0  0  0  0  0  0  0  0
   -2.2166   -0.4790   -0.2994 H   0  0  0  0  0  0  0  0  0  0  0  0
   -0.1956   -0.2250    0.2596 C   0  0  1  0  0  0  0  0  0  0  0  0
    0.3927   -0.6026    1.0964 H   0  0  0  0  0  0  0  0  0  0  0  0
    0.5767   -0.5489   -1.0351 C   0  0  0  0  0  0  0  0  0  0  0  0
   -0.1531   -0.7224   -1.8275 H   0  0  0  0  0  0  0  0  0  0  0  0
    1.1896    0.3098   -1.3132 H   0  0  0  0  0  0  0  0  0  0  0  0
    1.4741   -1.7924   -0.9179 C   0  0  0  0  0  0  0  0  0  0  0  0
    2.4576   -1.4900   -0.5504 H   0  0  0  0  0  0  0  0  0  0  0  0
    1.0312   -2.4667   -0.1801 H   0  0  0  0  0  0  0  0  0  0  0  0
    1.6536   -2.5427   -2.2460 C   0  0  0  0  0  0  0  0  0  0  0  0
    0.9755   -2.1759   -3.2319 O   0  5  0  0  0  0  0  0  0  0  0  0
    2.4960   -3.4677   -2.2583 O   0  0  0  0  0  0  0  0  0  0  0  0
   -0.3954    1.2887    0.4814 C   0  0  0  0  0  0  0  0  0  0  0  0
   -1.2761    1.9015   -0.1256 O   0  0  0  0  0  0  0  0  0  0  0  0
    0.4051    1.8919    1.3699 N   0  0  0  0  0  0  0  0  0  0  0  0
    1.1380    1.3380    1.7875 H   0  0  0  0  0  0  0  0  0  0  0  0
    0.3573    3.3183    1.6807 C   0  0  0  0  0  0  0  0  0  0  0  0
   -0.6670    3.6090    1.9198 H   0  0  0  0  0  0  0  0  0  0  0  0
    1.0066    3.5397    2.5289 H   0  0  0  0  0  0  0  0  0  0  0  0
    0.6896    3.8897    0.8118 H   0  0  0  0  0  0  0  0  0  0  0  0
  5  6  2  0  0  0  0
  5  7  1  0  0  0  0
  2  3  1  0  0  0  0
  2  4  1  0  0  0  0
  2  5  1  0  0  0  0
  1  2  1  0  0  0  0
 20 21  2  0  0  0  0
 20 22  1  0  0  0  0
 17 18  1  0  0  0  0
 17 19  2  0  0  0  0
 14 15  1  0  0  0  0
 14 16  1  0  0  0  0
 14 17  1  0  0  0  0
 11 12  1  0  0  0  0
 11 13  1  0  0  0  0
 11 14  1  0  0  0  0
  9 10  1  0  0  0  0
  9 11  1  0  0  0  0
  9 20  1  0  0  0  0
  7  8  1  0  0  0  0
  7  9  1  0  0  0  0
 24 25  1  0  0  0  0
 24 26  1  0  0  0  0
 24 27  1  0  0  0  0
 22 23  1  0  0  0  0
 22 24  1  0  0  0  0
M  CHG  1  18  -1
M  END
$$$$
default_name
  -OEChem-02102213163D

 27 26  0     1  0  0  0  0  0999 V2000
   -3.2406   -3.5400    1.2326 H   0  0  0  0  0  0  0  0  0  0  0  0
   -3.1436   -2.6190    0.6606 C   0  0  0  0  0  0  0  0  0  0  0  0
   -3.8786   -1.8920    0.9996 H   0  0  0  0  0  0  0  0  0  0  0  0
   -3.2846   -2.8280   -0.3984 H   0  0  0  0  0  0  0  0  0  0  0  0
   -1.7586   -2.0580    0.8686 C   0  0  0  0  0  0  0  0  0  0  0  0
   -0.9666   -2.6340    1.6026 O   0  0  0  0  0  0  0  0  0  0  0  0
   -1.4866   -0.9220    0.2366 N   0  0  0  0  0  0  0  0  0  0  0  0
   -2.2166   -0.4790   -0.2994 H   0  0  0  0  0  0  0  0  0  0  0  0
   -0.1956   -0.2250    0.2596 C   0  0  1  0  0  0  0  0  0  0  0  0
    0.3927   -0.6026    1.0964 H   0  0  0  0  0  0  0  0  0  0  0  0
    0.5767   -0.5489   -1.0351 C   0  0  0  0  0  0  0  0  0  0  0  0
   -0.1531   -0.7224   -1.8275 H   0  0  0  0  0  0  0  0  0  0  0  0
    1.1896    0.3098   -1.3132 H   0  0  0  0  0  0  0  0  0  0  0  0
    1.4741   -1.7924   -0.9179 C   0  0  0  0  0  0  0  0  0  0  0  0
    2.3483   -1.5462   -0.3105 H   0  0  0  0  0  0  0  0  0  0  0  0
    0.9120   -2.5733   -0.3988 H   0  0  0  0  0  0  0  0  0  0  0  0
    1.9524   -2.3299   -2.2749 C   0  0  0  0  0  0  0  0  0  0  0  0
    1.4812   -1.8189   -3.3157 O   0  5  0  0  0  0  0  0  0  0  0  0
    2.8115   -3.2390   -2.2469 O   0  0  0  0  0  0  0  0  0  0  0  0
   -0.3954    1.2887    0.4814 C   0  0  0  0  0  0  0  0  0  0  0  0
   -1.2761    1.9015   -0.1256 O   0  0  0  0  0  0  0  0  0  0  0  0
    0.4051    1.8919    1.3699 N   0  0  0  0  0  0  0  0  0  0  0  0
    1.1380    1.3380    1.7875 H   0  0  0  0  0  0  0  0  0  0  0  0
    0.3573    3.3183    1.6807 C   0  0  0  0  0  0  0  0  0  0  0  0
   -0.6670    3.6090    1.9198 H   0  0  0  0  0  0  0  0  0  0  0  0
    1.0066    3.5397    2.5289 H   0  0  0  0  0  0  0  0  0  0  0  0
    0.6896    3.8897    0.8118 H   0  0  0  0  0  0  0  0  0  0  0  0
  5  6  2  0  0  0  0
  5  7  1  0  0  0  0
  2  3  1  0  0  0  0
  2  4  1  0  0  0  0
  2  5  1  0  0  0  0
  1  2  1  0  0  0  0
 20 21  2  0  0  0  0
 20 22  1  0  0  0  0
 17 18  1  0  0  0  0
 17 19  2  0  0  0  0
 14 15  1  0  0  0  0
 14 16  1  0  0  0  0
 14 17  1  0  0  0  0
 11 12  1  0  0  0  0
 11 13  1  0  0  0  0
 11 14  1  0  0  0  0
  9 10  1  0  0  0  0
  9 11  1  0  0  0  0
  9 20  1  0  0  0  0
  7  8  1  0  0  0  0
  7  9  1  0  0  0  0
 24 25  1  0  0  0  0
 24 26  1  0  0  0  0
 24 27  1  0  0  0  0
 22 23  1  0  0  0  0
 22 24  1  0  0  0  0
M  CHG  1  18  -1
M  END
$$$$
default_name
  -OEChem-02102213163D

 27 26  0     1  0  0  0  0  0999 V2000
   -3.2406   -3.5400    1.2326 H   0  0  0  0  0  0  0  0  0  0  0  0
   -3.1436   -2.6190    0.6606 C   0  0  0  0  0  0  0  0  0  0  0  0
   -3.8786   -1.8920    0.9996 H   0  0  0  0  0  0  0  0  0  0  0  0
   -3.2846   -2.8280   -0.3984 H   0  0  0  0  0  0  0  0  0  0  0  0
   -1.7586   -2.0580    0.8686 C   0  0  0  0  0  0  0  0  0  0  0  0
   -0.9666   -2.6340    1.6026 O   0  0  0  0  0  0  0  0  0  0  0  0
   -1.4866   -0.9220    0.2366 N   0  0  0  0  0  0  0  0  0  0  0  0
   -2.2166   -0.4790   -0.2994 H   0  0  0  0  0  0  0  0  0  0  0  0
   -0.1956   -0.2250    0.2596 C   0  0  1  0  0  0  0  0  0  0  0  0
    0.3927   -0.6026    1.0964 H   0  0  0  0  0  0  0  0  0  0  0  0
    0.5767   -0.5489   -1.0351 C   0  0  0  0  0  0  0  0  0  0  0  0
   -0.1172   -0.4576   -1.8722 H   0  0  0  0  0  0  0  0  0  0  0  0
    1.3766    0.1808   -1.1694 H   0  0  0  0  0  0  0  0  0  0  0  0
    1.1773   -1.9647   -1.0519 C   0  0  0  0  0  0  0  0  0  0  0  0
    1.8559   -2.0750   -0.2026 H   0  0  0  0  0  0  0  0  0  0  0  0
    0.3634   -2.6840   -0.9286 H   0  0  0  0  0  0  0  0  0  0  0  0
    1.9463   -2.2861   -2.3419 C   0  0  0  0  0  0  0  0  0  0  0  0
    1.9026   -1.4599   -3.2811 O   0  5  0  0  0  0  0  0  0  0  0  0
    2.5935   -3.3567   -2.3573 O   0  0  0  0  0  0  0  0  0  0  0  0
   -0.3954    1.2887    0.4814 C   0  0  0  0  0  0  0  0  0  0  0  0
   -1.2761    1.9015   -0.1256 O   0  0  0  0  0  0  0  0  0  0  0  0
    0.4051    1.8919    1.3699 N   0  0  0  0  0  0  0  0  0  0  0  0
    1.1380    1.3380    1.7875 H   0  0  0  0  0  0  0  0  0  0  0  0
    0.3573    3.3183    1.6807 C   0  0  0  0  0  0  0  0  0  0  0  0
   -0.6670    3.6090    1.9198 H   0  0  0  0  0  0  0  0  0  0  0  0
    1.0066    3.5397    2.5289 H   0  0  0  0  0  0  0  0  0  0  0  0
    0.6896    3.8897    0.8118 H   0  0  0  0  0  0  0  0  0  0  0  0
  5  6  2  0  0  0  0
  5  7  1  0  0  0  0
  2  3  1  0  0  0  0
  2  4  1  0  0  0  0
  2  5  1  0  0  0  0
  1  2  1  0  0  0  0
 20 21  2  0  0  0  0
 20 22  1  0  0  0  0
 17 18  1  0  0  0  0
 17 19  2  0  0  0  0
 14 15  1  0  0  0  0
 14 16  1  0  0  0  0
 14 17  1  0  0  0  0
 11 12  1  0  0  0  0
 11 13  1  0  0  0  0
 11 14  1  0  0  0  0
  9 10  1  0  0  0  0
  9 11  1  0  0  0  0
  9 20  1  0  0  0  0
  7  8  1  0  0  0  0
  7  9  1  0  0  0  0
 24 25  1  0  0  0  0
 24 26  1  0  0  0  0
 24 27  1  0  0  0  0
 22 23  1  0  0  0  0
 22 24  1  0  0  0  0
M  CHG  1  18  -1
M  END
$$$$
default_name
  -OEChem-02102213163D

 27 26  0     1  0  0  0  0  0999 V2000
   -3.2406   -3.5400    1.2326 H   0  0  0  0  0  0  0  0  0  0  0  0
   -3.1436   -2.6190    0.6606 C   0  0  0  0  0  0  0  0  0  0  0  0
   -3.8786   -1.8920    0.9996 H   0  0  0  0  0  0  0  0  0  0  0  0
   -3.2846   -2.8280   -0.3984 H   0  0  0  0  0  0  0  0  0  0  0  0
   -1.7586   -2.0580    0.8686 C   0  0  0  0  0  0  0  0  0  0  0  0
   -0.9666   -2.6340    1.6026 O   0  0  0  0  0  0  0  0  0  0  0  0
   -1.4866   -0.9220    0.2366 N   0  0  0  0  0  0  0  0  0  0  0  0
   -2.2166   -0.4790   -0.2994 H   0  0  0  0  0  0  0  0  0  0  0  0
   -0.1956   -0.2250    0.2596 C   0  0  1  0  0  0  0  0  0  0  0  0
    0.3927   -0.6026    1.0964 H   0  0  0  0  0  0  0  0  0  0  0  0
    0.5767   -0.5489   -1.0351 C   0  0  0  0  0  0  0  0  0  0  0  0
   -0.1172   -0.4576   -1.8722 H   0  0  0  0  0  0  0  0  0  0  0  0
    1.3766    0.1808   -1.1694 H   0  0  0  0  0  0  0  0  0  0  0  0
    1.1773   -1.9647   -1.0519 C   0  0  0  0  0  0  0  0  0  0  0  0
    1.6348   -2.1702   -0.0811 H   0  0  0  0  0  0  0  0  0  0  0  0
    0.3643   -2.6804   -1.1996 H   0  0  0  0  0  0  0  0  0  0  0  0
    2.2346   -2.1661   -2.1475 C   0  0  0  0  0  0  0  0  0  0  0  0
    2.4084   -1.2489   -2.9812 O   0  5  0  0  0  0  0  0  0  0  0  0
    2.8769   -3.2393   -2.1167 O   0  0  0  0  0  0  0  0  0  0  0  0
   -0.3954    1.2887    0.4814 C   0  0  0  0  0  0  0  0  0  0  0  0
   -1.2761    1.9015   -0.1256 O   0  0  0  0  0  0  0  0  0  0  0  0
    0.4051    1.8919    1.3699 N   0  0  0  0  0  0  0  0  0  0  0  0
    1.1380    1.3380    1.7875 H   0  0  0  0  0  0  0  0  0  0  0  0
    0.3573    3.3183    1.6807 C   0  0  0  0  0  0  0  0  0  0  0  0
   -0.6670    3.6090    1.9198 H   0  0  0  0  0  0  0  0  0  0  0  0
    1.0066    3.5397    2.5289 H   0  0  0  0  0  0  0  0  0  0  0  0
    0.6896    3.8897    0.8118 H   0  0  0  0  0  0  0  0  0  0  0  0
  5  6  2  0  0  0  0
  5  7  1  0  0  0  0
  2  3  1  0  0  0  0
  2  4  1  0  0  0  0
  2  5  1  0  0  0  0
  1  2  1  0  0  0  0
 20 21  2  0  0  0  0
 20 22  1  0  0  0  0
 17 18  1  0  0  0  0
 17 19  2  0  0  0  0
 14 15  1  0  0  0  0
 14 16  1  0  0  0  0
 14 17  1  0  0  0  0
 11 12  1  0  0  0  0
 11 13  1  0  0  0  0
 11 14  1  0  0  0  0
  9 10  1  0  0  0  0
  9 11  1  0  0  0  0
  9 20  1  0  0  0  0
  7  8  1  0  0  0  0
  7  9  1  0  0  0  0
 24 25  1  0  0  0  0
 24 26  1  0  0  0  0
 24 27  1  0  0  0  0
 22 23  1  0  0  0  0
 22 24  1  0  0  0  0
M  CHG  1  18  -1
M  END
$$$$
default_name
  -OEChem-02102213163D

 27 26  0     1  0  0  0  0  0999 V2000
   -3.2406   -3.5400    1.2326 H   0  0  0  0  0  0  0  0  0  0  0  0
   -3.1436   -2.6190    0.6606 C   0  0  0  0  0  0  0  0  0  0  0  0
   -3.8786   -1.8920    0.9996 H   0  0  0  0  0  0  0  0  0  0  0  0
   -3.2846   -2.8280   -0.3984 H   0  0  0  0  0  0  0  0  0  0  0  0
   -1.7586   -2.0580    0.8686 C   0  0  0  0  0  0  0  0  0  0  0  0
   -0.9666   -2.6340    1.6026 O   0  0  0  0  0  0  0  0  0  0  0  0
   -1.4866   -0.9220    0.2366 N   0  0  0  0  0  0  0  0  0  0  0  0
   -2.2166   -0.4790   -0.2994 H   0  0  0  0  0  0  0  0  0  0  0  0
   -0.1956   -0.2250    0.2596 C   0  0  1  0  0  0  0  0  0  0  0  0
    0.3927   -0.6026    1.0964 H   0  0  0  0  0  0  0  0  0  0  0  0
    0.5767   -0.5489   -1.0351 C   0  0  0  0  0  0  0  0  0  0  0  0
   -0.1172   -0.4576   -1.8722 H   0  0  0  0  0  0  0  0  0  0  0  0
    1.3766    0.1808   -1.1694 H   0  0  0  0  0  0  0  0  0  0  0  0
    1.1773   -1.9647   -1.0519 C   0  0  0  0  0  0  0  0  0  0  0  0
    1.3921   -2.2738   -0.0261 H   0  0  0  0  0  0  0  0  0  0  0  0
    0.4297   -2.6496   -1.4607 H   0  0  0  0  0  0  0  0  0  0  0  0
    2.4672   -2.0706   -1.8788 C   0  0  0  0  0  0  0  0  0  0  0  0
    2.8260   -1.0769   -2.5498 O   0  5  0  0  0  0  0  0  0  0  0  0
    3.0937   -3.1511   -1.8050 O   0  0  0  0  0  0  0  0  0  0  0  0
   -0.3954    1.2887    0.4814 C   0  0  0  0  0  0  0  0  0  0  0  0
   -1.2761    1.9015   -0.1256 O   0  0  0  0  0  0  0  0  0  0  0  0
    0.4051    1.8919    1.3699 N   0  0  0  0  0  0  0  0  0  0  0  0
    1.1380    1.3380    1.7875 H   0  0  0  0  0  0  0  0  0  0  0  0
    0.3573    3.3183    1.6807 C   0  0  0  0  0  0  0  0  0  0  0  0
   -0.6670    3.6090    1.9198 H   0  0  0  0  0  0  0  0  0  0  0  0
    1.0066    3.5397    2.5289 H   0  0  0  0  0  0  0  0  0  0  0  0
    0.6896    3.8897    0.8118 H   0  0  0  0  0  0  0  0  0  0  0  0
  5  6  2  0  0  0  0
  5  7  1  0  0  0  0
  2  3  1  0  0  0  0
  2  4  1  0  0  0  0
  2  5  1  0  0  0  0
  1  2  1  0  0  0  0
 20 21  2  0  0  0  0
 20 22  1  0  0  0  0
 17 18  1  0  0  0  0
 17 19  2  0  0  0  0
 14 15  1  0  0  0  0
 14 16  1  0  0  0  0
 14 17  1  0  0  0  0
 11 12  1  0  0  0  0
 11 13  1  0  0  0  0
 11 14  1  0  0  0  0
  9 10  1  0  0  0  0
  9 11  1  0  0  0  0
  9 20  1  0  0  0  0
  7  8  1  0  0  0  0
  7  9  1  0  0  0  0
 24 25  1  0  0  0  0
 24 26  1  0  0  0  0
 24 27  1  0  0  0  0
 22 23  1  0  0  0  0
 22 24  1  0  0  0  0
M  CHG  1  18  -1
M  END
$$$$
default_name
  -OEChem-02102213163D

 27 26  0     1  0  0  0  0  0999 V2000
   -3.2406   -3.5400    1.2326 H   0  0  0  0  0  0  0  0  0  0  0  0
   -3.1436   -2.6190    0.6606 C   0  0  0  0  0  0  0  0  0  0  0  0
   -3.8786   -1.8920    0.9996 H   0  0  0  0  0  0  0  0  0  0  0  0
   -3.2846   -2.8280   -0.3984 H   0  0  0  0  0  0  0  0  0  0  0  0
   -1.7586   -2.0580    0.8686 C   0  0  0  0  0  0  0  0  0  0  0  0
   -0.9666   -2.6340    1.6026 O   0  0  0  0  0  0  0  0  0  0  0  0
   -1.4866   -0.9220    0.2366 N   0  0  0  0  0  0  0  0  0  0  0  0
   -2.2166   -0.4790   -0.2994 H   0  0  0  0  0  0  0  0  0  0  0  0
   -0.1956   -0.2250    0.2596 C   0  0  1  0  0  0  0  0  0  0  0  0
    0.3927   -0.6026    1.0964 H   0  0  0  0  0  0  0  0  0  0  0  0
    0.5767   -0.5489   -1.0351 C   0  0  0  0  0  0  0  0  0  0  0  0
   -0.1172   -0.4576   -1.8722 H   0  0  0  0  0  0  0  0  0  0  0  0
    1.3766    0.1808   -1.1694 H   0  0  0  0  0  0  0  0  0  0  0  0
    1.1773   -1.9647   -1.0519 C   0  0  0  0  0  0  0  0  0  0  0  0
    1.1443   -2.3787   -0.0412 H   0  0  0  0  0  0  0  0  0  0  0  0
    0.5552   -2.5936   -1.6943 H   0  0  0  0  0  0  0  0  0  0  0  0
    2.6281   -2.0062   -1.5543 C   0  0  0  0  0  0  0  0  0  0  0  0
    3.1271   -0.9554   -2.0161 O   0  5  0  0  0  0  0  0  0  0  0  0
    3.2291   -3.0979   -1.4434 O   0  0  0  0  0  0  0  0  0  0  0  0
   -0.3954    1.2887    0.4814 C   0  0  0  0  0  0  0  0  0  0  0  0
   -1.2761    1.9015   -0.1256 O   0  0  0  0  0  0  0  0  0  0  0  0
    0.4051    1.8919    1.3699 N   0  0  0  0  0  0  0  0  0  0  0  0
    1.1380    1.3380    1.7875 H   0  0  0  0  0  0  0  0  0  0  0  0
    0.3573    3.3183    1.6807 C   0  0  0  0  0  0  0  0  0  0  0  0
   -0.6670    3.6090    1.9198 H   0  0  0  0  0  0  0  0  0  0  0  0
    1.0066    3.5397    2.5289 H   0  0  0  0  0  0  0  0  0  0  0  0
    0.6896    3.8897    0.8118 H   0  0  0  0  0  0  0  0  0  0  0  0
  5  6  2  0  0  0  0
  5  7  1  0  0  0  0
  2  3  1  0  0  0  0
  2  4  1  0  0  0  0
  2  5  1  0  0  0  0
  1  2  1  0  0  0  0
 20 21  2  0  0  0  0
 20 22  1  0  0  0  0
 17 18  1  0  0  0  0
 17 19  2  0  0  0  0
 14 15  1  0  0  0  0
 14 16  1  0  0  0  0
 14 17  1  0  0  0  0
 11 12  1  0  0  0  0
 11 13  1  0  0  0  0
 11 14  1  0  0  0  0
  9 10  1  0  0  0  0
  9 11  1  0  0  0  0
  9 20  1  0  0  0  0
  7  8  1  0  0  0  0
  7  9  1  0  0  0  0
 24 25  1  0  0  0  0
 24 26  1  0  0  0  0
 24 27  1  0  0  0  0
 22 23  1  0  0  0  0
 22 24  1  0  0  0  0
M  CHG  1  18  -1
M  END
$$$$
default_name
  -OEChem-02102213163D

 27 26  0     1  0  0  0  0  0999 V2000
   -3.2406   -3.5400    1.2326 H   0  0  0  0  0  0  0  0  0  0  0  0
   -3.1436   -2.6190    0.6606 C   0  0  0  0  0  0  0  0  0  0  0  0
   -3.8786   -1.8920    0.9996 H   0  0  0  0  0  0  0  0  0  0  0  0
   -3.2846   -2.8280   -0.3984 H   0  0  0  0  0  0  0  0  0  0  0  0
   -1.7586   -2.0580    0.8686 C   0  0  0  0  0  0  0  0  0  0  0  0
   -0.9666   -2.6340    1.6026 O   0  0  0  0  0  0  0  0  0  0  0  0
   -1.4866   -0.9220    0.2366 N   0  0  0  0  0  0  0  0  0  0  0  0
   -2.2166   -0.4790   -0.2994 H   0  0  0  0  0  0  0  0  0  0  0  0
   -0.1956   -0.2250    0.2596 C   0  0  1  0  0  0  0  0  0  0  0  0
    0.3927   -0.6026    1.0964 H   0  0  0  0  0  0  0  0  0  0  0  0
    0.5767   -0.5489   -1.0351 C   0  0  0  0  0  0  0  0  0  0  0  0
   -0.1172   -0.4576   -1.8722 H   0  0  0  0  0  0  0  0  0  0  0  0
    1.3766    0.1808   -1.1694 H   0  0  0  0  0  0  0  0  0  0  0  0
    1.1773   -1.9647   -1.0519 C   0  0  0  0  0  0  0  0  0  0  0  0
    0.9082   -2.4779   -0.1255 H   0  0  0  0  0  0  0  0  0  0  0  0
    0.7323   -2.5162   -1.8843 H   0  0  0  0  0  0  0  0  0  0  0  0
    2.7064   -1.9773   -1.1959 C   0  0  0  0  0  0  0  0  0  0  0  0
    3.2912   -0.8929   -1.4167 O   0  5  0  0  0  0  0  0  0  0  0  0
    3.2739   -3.0835   -1.0564 O   0  0  0  0  0  0  0  0  0  0  0  0
   -0.3954    1.2887    0.4814 C   0  0  0  0  0  0  0  0  0  0  0  0
   -1.2761    1.9015   -0.1256 O   0  0  0  0  0  0  0  0  0  0  0  0
    0.4051    1.8919    1.3699 N   0  0  0  0  0  0  0  0  0  0  0  0
    1.1380    1.3380    1.7875 H   0  0  0  0  0  0  0  0  0  0  0  0
    0.3573    3.3183    1.6807 C   0  0  0  0  0  0  0  0  0  0  0  0
   -0.6670    3.6090    1.9198 H   0  0  0  0  0  0  0  0  0  0  0  0
    1.0066    3.5397    2.5289 H   0  0  0  0  0  0  0  0  0  0  0  0
    0.6896    3.8897    0.8118 H   0  0  0  0  0  0  0  0  0  0  0  0
  5  6  2  0  0  0  0
  5  7  1  0  0  0  0
  2  3  1  0  0  0  0
  2  4  1  0  0  0  0
  2  5  1  0  0  0  0
  1  2  1  0  0  0  0
 20 21  2  0  0  0  0
 20 22  1  0  0  0  0
 17 18  1  0  0  0  0
 17 19  2  0  0  0  0
 14 15  1  0  0  0  0
 14 16  1  0  0  0  0
 14 17  1  0  0  0  0
 11 12  1  0  0  0  0
 11 13  1  0  0  0  0
 11 14  1  0  0  0  0
  9 10  1  0  0  0  0
  9 11  1  0  0  0  0
  9 20  1  0  0  0  0
  7  8  1  0  0  0  0
  7  9  1  0  0  0  0
 24 25  1  0  0  0  0
 24 26  1  0  0  0  0
 24 27  1  0  0  0  0
 22 23  1  0  0  0  0
 22 24  1  0  0  0  0
M  CHG  1  18  -1
M  END
$$$$
default_name
  -OEChem-02102213163D

 27 26  0     1  0  0  0  0  0999 V2000
   -3.2406   -3.5400    1.2326 H   0  0  0  0  0  0  0  0  0  0  0  0
   -3.1436   -2.6190    0.6606 C   0  0  0  0  0  0  0  0  0  0  0  0
   -3.8786   -1.8920    0.9996 H   0  0  0  0  0  0  0  0  0  0  0  0
   -3.2846   -2.8280   -0.3984 H   0  0  0  0  0  0  0  0  0  0  0  0
   -1.7586   -2.0580    0.8686 C   0  0  0  0  0  0  0  0  0  0  0  0
   -0.9666   -2.6340    1.6026 O   0  0  0  0  0  0  0  0  0  0  0  0
   -1.4866   -0.9220    0.2366 N   0  0  0  0  0  0  0  0  0  0  0  0
   -2.2166   -0.4790   -0.2994 H   0  0  0  0  0  0  0  0  0  0  0  0
   -0.1956   -0.2250    0.2596 C   0  0  1  0  0  0  0  0  0  0  0  0
    0.3927   -0.6026    1.0964 H   0  0  0  0  0  0  0  0  0  0  0  0
    0.5767   -0.5489   -1.0351 C   0  0  0  0  0  0  0  0  0  0  0  0
   -0.1172   -0.4576   -1.8722 H   0  0  0  0  0  0  0  0  0  0  0  0
    1.3766    0.1808   -1.1694 H   0  0  0  0  0  0  0  0  0  0  0  0
    1.1773   -1.9647   -1.0519 C   0  0  0  0  0  0  0  0  0  0  0  0
    0.7000   -2.5644   -0.2732 H   0  0  0  0  0  0  0  0  0  0  0  0
    0.9488   -2.4228   -2.0178 H   0  0  0  0  0  0  0  0  0  0  0  0
    2.6967   -1.9857   -0.8282 C   0  0  0  0  0  0  0  0  0  0  0  0
    3.3070   -0.8936   -0.7922 O   0  5  0  0  0  0  0  0  0  0  0  0
    3.2250   -3.1088   -0.6705 O   0  0  0  0  0  0  0  0  0  0  0  0
   -0.3954    1.2887    0.4814 C   0  0  0  0  0  0  0  0  0  0  0  0
   -1.2761    1.9015   -0.1256 O   0  0  0  0  0  0  0  0  0  0  0  0
    0.4051    1.8919    1.3699 N   0  0  0  0  0  0  0  0  0  0  0  0
    1.1380    1.3380    1.7875 H   0  0  0  0  0  0  0  0  0  0  0  0
    0.3573    3.3183    1.6807 C   0  0  0  0  0  0  0  0  0  0  0  0
   -0.6670    3.6090    1.9198 H   0  0  0  0  0  0  0  0  0  0  0  0
    1.0066    3.5397    2.5289 H   0  0  0  0  0  0  0  0  0  0  0  0
    0.6896    3.8897    0.8118 H   0  0  0  0  0  0  0  0  0  0  0  0
  5  6  2  0  0  0  0
  5  7  1  0  0  0  0
  2  3  1  0  0  0  0
  2  4  1  0  0  0  0
  2  5  1  0  0  0  0
  1  2  1  0  0  0  0
 20 21  2  0  0  0  0
 20 22  1  0  0  0  0
 17 18  1  0  0  0  0
 17 19  2  0  0  0  0
 14 15  1  0  0  0  0
 14 16  1  0  0  0  0
 14 17  1  0  0  0  0
 11 12  1  0  0  0  0
 11 13  1  0  0  0  0
 11 14  1  0  0  0  0
  9 10  1  0  0  0  0
  9 11  1  0  0  0  0
  9 20  1  0  0  0  0
  7  8  1  0  0  0  0
  7  9  1  0  0  0  0
 24 25  1  0  0  0  0
 24 26  1  0  0  0  0
 24 27  1  0  0  0  0
 22 23  1  0  0  0  0
 22 24  1  0  0  0  0
M  CHG  1  18  -1
M  END
$$$$
default_name
  -OEChem-02102213163D

 27 26  0     1  0  0  0  0  0999 V2000
   -3.2406   -3.5400    1.2326 H   0  0  0  0  0  0  0  0  0  0  0  0
   -3.1436   -2.6190    0.6606 C   0  0  0  0  0  0  0  0  0  0  0  0
   -3.8786   -1.8920    0.9996 H   0  0  0  0  0  0  0  0  0  0  0  0
   -3.2846   -2.8280   -0.3984 H   0  0  0  0  0  0  0  0  0  0  0  0
   -1.7586   -2.0580    0.8686 C   0  0  0  0  0  0  0  0  0  0  0  0
   -0.9666   -2.6340    1.6026 O   0  0  0  0  0  0  0  0  0  0  0  0
   -1.4866   -0.9220    0.2366 N   0  0  0  0  0  0  0  0  0  0  0  0
   -2.2166   -0.4790   -0.2994 H   0  0  0  0  0  0  0  0  0  0  0  0
   -0.1956   -0.2250    0.2596 C   0  0  1  0  0  0  0  0  0  0  0  0
    0.3927   -0.6026    1.0964 H   0  0  0  0  0  0  0  0  0  0  0  0
    0.5767   -0.5489   -1.0351 C   0  0  0  0  0  0  0  0  0  0  0  0
   -0.1172   -0.4576   -1.8722 H   0  0  0  0  0  0  0  0  0  0  0  0
    1.3766    0.1808   -1.1694 H   0  0  0  0  0  0  0  0  0  0  0  0
    1.1773   -1.9647   -1.0519 C   0  0  0  0  0  0  0  0  0  0  0  0
    0.5338   -2.6326   -0.4742 H   0  0  0  0  0  0  0  0  0  0  0  0
    1.1900   -2.3197   -2.0858 H   0  0  0  0  0  0  0  0  0  0  0  0
    2.5997   -2.0310   -0.4762 C   0  0  0  0  0  0  0  0  0  0  0  0
    3.1735   -0.9574   -0.1853 O   0  5  0  0  0  0  0  0  0  0  0  0
    3.0857   -3.1721   -0.3119 O   0  0  0  0  0  0  0  0  0  0  0  0
   -0.3954    1.2887    0.4814 C   0  0  0  0  0  0  0  0  0  0  0  0
   -1.2761    1.9015   -0.1256 O   0  0  0  0  0  0  0  0  0  0  0  0
    0.4051    1.8919    1.3699 N   0  0  0  0  0  0  0  0  0  0  0  0
    1.1380    1.3380    1.7875 H   0  0  0  0  0  0  0  0  0  0  0  0
    0.3573    3.3183    1.6807 C   0  0  0  0  0  0  0  0  0  0  0  0
   -0.6670    3.6090    1.9198 H   0  0  0  0  0  0  0  0  0  0  0  0
    1.0066    3.5397    2.5289 H   0  0  0  0  0  0  0  0  0  0  0  0
    0.6896    3.8897    0.8118 H   0  0  0  0  0  0  0  0  0  0  0  0
  5  6  2  0  0  0  0
  5  7  1  0  0  0  0
  2  3  1  0  0  0  0
  2  4  1  0  0  0  0
  2  5  1  0  0  0  0
  1  2  1  0  0  0  0
 20 21  2  0  0  0  0
 20 22  1  0  0  0  0
 17 18  1  0  0  0  0
 17 19  2  0  0  0  0
 14 15  1  0  0  0  0
 14 16  1  0  0  0  0
 14 17  1  0  0  0  0
 11 12  1  0  0  0  0
 11 13  1  0  0  0  0
 11 14  1  0  0  0  0
  9 10  1  0  0  0  0
  9 11  1  0  0  0  0
  9 20  1  0  0  0  0
  7  8  1  0  0  0  0
  7  9  1  0  0  0  0
 24 25  1  0  0  0  0
 24 26  1  0  0  0  0
 24 27  1  0  0  0  0
 22 23  1  0  0  0  0
 22 24  1  0  0  0  0
M  CHG  1  18  -1
M  END
$$$$
default_name
  -OEChem-02102213163D

 27 26  0     1  0  0  0  0  0999 V2000
   -3.2406   -3.5400    1.2326 H   0  0  0  0  0  0  0  0  0  0  0  0
   -3.1436   -2.6190    0.6606 C   0  0  0  0  0  0  0  0  0  0  0  0
   -3.8786   -1.8920    0.9996 H   0  0  0  0  0  0  0  0  0  0  0  0
   -3.2846   -2.8280   -0.3984 H   0  0  0  0  0  0  0  0  0  0  0  0
   -1.7586   -2.0580    0.8686 C   0  0  0  0  0  0  0  0  0  0  0  0
   -0.9666   -2.6340    1.6026 O   0  0  0  0  0  0  0  0  0  0  0  0
   -1.4866   -0.9220    0.2366 N   0  0  0  0  0  0  0  0  0  0  0  0
   -2.2166   -0.4790   -0.2994 H   0  0  0  0  0  0  0  0  0  0  0  0
   -0.1956   -0.2250    0.2596 C   0  0  1  0  0  0  0  0  0  0  0  0
    0.3927   -0.6026    1.0964 H   0  0  0  0  0  0  0  0  0  0  0  0
    0.5767   -0.5489   -1.0351 C   0  0  0  0  0  0  0  0  0  0  0  0
   -0.1172   -0.4576   -1.8722 H   0  0  0  0  0  0  0  0  0  0  0  0
    1.3766    0.1808   -1.1694 H   0  0  0  0  0  0  0  0  0  0  0  0
    1.1773   -1.9647   -1.0519 C   0  0  0  0  0  0  0  0  0  0  0  0
    0.4210   -2.6776   -0.7148 H   0  0  0  0  0  0  0  0  0  0  0  0
    1.4394   -2.2139   -2.0835 H   0  0  0  0  0  0  0  0  0  0  0  0
    2.4220   -2.1101   -0.1638 C   0  0  0  0  0  0  0  0  0  0  0  0
    2.8997   -1.0800    0.3626 O   0  5  0  0  0  0  0  0  0  0  0  0
    2.8656   -3.2691   -0.0052 O   0  0  0  0  0  0  0  0  0  0  0  0
   -0.3954    1.2887    0.4814 C   0  0  0  0  0  0  0  0  0  0  0  0
   -1.2761    1.9015   -0.1256 O   0  0  0  0  0  0  0  0  0  0  0  0
    0.4051    1.8919    1.3699 N   0  0  0  0  0  0  0  0  0  0  0  0
    1.1380    1.3380    1.7875 H   0  0  0  0  0  0  0  0  0  0  0  0
    0.3573    3.3183    1.6807 C   0  0  0  0  0  0  0  0  0  0  0  0
   -0.6670    3.6090    1.9198 H   0  0  0  0  0  0  0  0  0  0  0  0
    1.0066    3.5397    2.5289 H   0  0  0  0  0  0  0  0  0  0  0  0
    0.6896    3.8897    0.8118 H   0  0  0  0  0  0  0  0  0  0  0  0
  5  6  2  0  0  0  0
  5  7  1  0  0  0  0
  2  3  1  0  0  0  0
  2  4  1  0  0  0  0
  2  5  1  0  0  0  0
  1  2  1  0  0  0  0
 20 21  2  0  0  0  0
 20 22  1  0  0  0  0
 17 18  1  0  0  0  0
 17 19  2  0  0  0  0
 14 15  1  0  0  0  0
 14 16  1  0  0  0  0
 14 17  1  0  0  0  0
 11 12  1  0  0  0  0
 11 13  1  0  0  0  0
 11 14  1  0  0  0  0
  9 10  1  0  0  0  0
  9 11  1  0  0  0  0
  9 20  1  0  0  0  0
  7  8  1  0  0  0  0
  7  9  1  0  0  0  0
 24 25  1  0  0  0  0
 24 26  1  0  0  0  0
 24 27  1  0  0  0  0
 22 23  1  0  0  0  0
 22 24  1  0  0  0  0
M  CHG  1  18  -1
M  END
$$$$
default_name
  -OEChem-02102213163D

 27 26  0     1  0  0  0  0  0999 V2000
   -3.2406   -3.5400    1.2326 H   0  0  0  0  0  0  0  0  0  0  0  0
   -3.1436   -2.6190    0.6606 C   0  0  0  0  0  0  0  0  0  0  0  0
   -3.8786   -1.8920    0.9996 H   0  0  0  0  0  0  0  0  0  0  0  0
   -3.2846   -2.8280   -0.3984 H   0  0  0  0  0  0  0  0  0  0  0  0
   -1.7586   -2.0580    0.8686 C   0  0  0  0  0  0  0  0  0  0  0  0
   -0.9666   -2.6340    1.6026 O   0  0  0  0  0  0  0  0  0  0  0  0
   -1.4866   -0.9220    0.2366 N   0  0  0  0  0  0  0  0  0  0  0  0
   -2.2166   -0.4790   -0.2994 H   0  0  0  0  0  0  0  0  0  0  0  0
   -0.1956   -0.2250    0.2596 C   0  0  1  0  0  0  0  0  0  0  0  0
    0.3927   -0.6026    1.0964 H   0  0  0  0  0  0  0  0  0  0  0  0
    0.5767   -0.5489   -1.0351 C   0  0  0  0  0  0  0  0  0  0  0  0
   -0.1172   -0.4576   -1.8722 H   0  0  0  0  0  0  0  0  0  0  0  0
    1.3766    0.1808   -1.1694 H   0  0  0  0  0  0  0  0  0  0  0  0
    1.1773   -1.9647   -1.0519 C   0  0  0  0  0  0  0  0  0  0  0  0
    0.3692   -2.6964   -0.9787 H   0  0  0  0  0  0  0  0  0  0  0  0
    1.6802   -2.1126   -2.0112 H   0  0  0  0  0  0  0  0  0  0  0  0
    2.1757   -2.2175    0.0875 C   0  0  0  0  0  0  0  0  0  0  0  0
    2.5045   -1.2530    0.8142 O   0  5  0  0  0  0  0  0  0  0  0  0
    2.5796   -3.3932    0.2289 O   0  0  0  0  0  0  0  0  0  0  0  0
   -0.3954    1.2887    0.4814 C   0  0  0  0  0  0  0  0  0  0  0  0
   -1.2761    1.9015   -0.1256 O   0  0  0  0  0  0  0  0  0  0  0  0
    0.4051    1.8919    1.3699 N   0  0  0  0  0  0  0  0  0  0  0  0
    1.1380    1.3380    1.7875 H   0  0  0  0  0  0  0  0  0  0  0  0
    0.3573    3.3183    1.6807 C   0  0  0  0  0  0  0  0  0  0  0  0
   -0.6670    3.6090    1.9198 H   0  0  0  0  0  0  0  0  0  0  0  0
    1.0066    3.5397    2.5289 H   0  0  0  0  0  0  0  0  0  0  0  0
    0.6896    3.8897    0.8118 H   0  0  0  0  0  0  0  0  0  0  0  0
  5  6  2  0  0  0  0
  5  7  1  0  0  0  0
  2  3  1  0  0  0  0
  2  4  1  0  0  0  0
  2  5  1  0  0  0  0
  1  2  1  0  0  0  0
 20 21  2  0  0  0  0
 20 22  1  0  0  0  0
 17 18  1  0  0  0  0
 17 19  2  0  0  0  0
 14 15  1  0  0  0  0
 14 16  1  0  0  0  0
 14 17  1  0  0  0  0
 11 12  1  0  0  0  0
 11 13  1  0  0  0  0
 11 14  1  0  0  0  0
  9 10  1  0  0  0  0
  9 11  1  0  0  0  0
  9 20  1  0  0  0  0
  7  8  1  0  0  0  0
  7  9  1  0  0  0  0
 24 25  1  0  0  0  0
 24 26  1  0  0  0  0
 24 27  1  0  0  0  0
 22 23  1  0  0  0  0
 22 24  1  0  0  0  0
M  CHG  1  18  -1
M  END
$$$$
default_name
  -OEChem-02102213163D

 27 26  0     1  0  0  0  0  0999 V2000
   -3.2406   -3.5400    1.2326 H   0  0  0  0  0  0  0  0  0  0  0  0
   -3.1436   -2.6190    0.6606 C   0  0  0  0  0  0  0  0  0  0  0  0
   -3.8786   -1.8920    0.9996 H   0  0  0  0  0  0  0  0  0  0  0  0
   -3.2846   -2.8280   -0.3984 H   0  0  0  0  0  0  0  0  0  0  0  0
   -1.7586   -2.0580    0.8686 C   0  0  0  0  0  0  0  0  0  0  0  0
   -0.9666   -2.6340    1.6026 O   0  0  0  0  0  0  0  0  0  0  0  0
   -1.4866   -0.9220    0.2366 N   0  0  0  0  0  0  0  0  0  0  0  0
   -2.2166   -0.4790   -0.2994 H   0  0  0  0  0  0  0  0  0  0  0  0
   -0.1956   -0.2250    0.2596 C   0  0  1  0  0  0  0  0  0  0  0  0
    0.3927   -0.6026    1.0964 H   0  0  0  0  0  0  0  0  0  0  0  0
    0.5767   -0.5489   -1.0351 C   0  0  0  0  0  0  0  0  0  0  0  0
   -0.1172   -0.4576   -1.8722 H   0  0  0  0  0  0  0  0  0  0  0  0
    1.3766    0.1808   -1.1694 H   0  0  0  0  0  0  0  0  0  0  0  0
    1.1773   -1.9647   -1.0519 C   0  0  0  0  0  0  0  0  0  0  0  0
    0.3820   -2.6878   -1.2478 H   0  0  0  0  0  0  0  0  0  0  0  0
    1.8957   -2.0228   -1.8738 H   0  0  0  0  0  0  0  0  0  0  0  0
    1.8776   -2.3460    0.2608 C   0  0  0  0  0  0  0  0  0  0  0  0
    2.0145   -1.4647    1.1388 O   0  5  0  0  0  0  0  0  0  0  0  0
    2.2472   -3.5359    0.3743 O   0  0  0  0  0  0  0  0  0  0  0  0
   -0.3954    1.2887    0.4814 C   0  0  0  0  0  0  0  0  0  0  0  0
   -1.2761    1.9015   -0.1256 O   0  0  0  0  0  0  0  0  0  0  0  0
    0.4051    1.8919    1.3699 N   0  0  0  0  0  0  0  0  0  0  0  0
    1.1380    1.3380    1.7875 H   0  0  0  0  0  0  0  0  0  0  0  0
    0.3573    3.3183    1.6807 C   0  0  0  0  0  0  0  0  0  0  0  0
   -0.6670    3.6090    1.9198 H   0  0  0  0  0  0  0  0  0  0  0  0
    1.0066    3.5397    2.5289 H   0  0  0  0  0  0  0  0  0  0  0  0
    0.6896    3.8897    0.8118 H   0  0  0  0  0  0  0  0  0  0  0  0
  5  6  2  0  0  0  0
  5  7  1  0  0  0  0
  2  3  1  0  0  0  0
  2  4  1  0  0  0  0
  2  5  1  0  0  0  0
  1  2  1  0  0  0  0
 20 21  2  0  0  0  0
 20 22  1  0  0  0  0
 17 18  1  0  0  0  0
 17 19  2  0  0  0  0
 14 15  1  0  0  0  0
 14 16  1  0  0  0  0
 14 17  1  0  0  0  0
 11 12  1  0  0  0  0
 11 13  1  0  0  0  0
 11 14  1  0  0  0  0
  9 10  1  0  0  0  0
  9 11  1  0  0  0  0
  9 20  1  0  0  0  0
  7  8  1  0  0  0  0
  7  9  1  0  0  0  0
 24 25  1  0  0  0  0
 24 26  1  0  0  0  0
 24 27  1  0  0  0  0
 22 23  1  0  0  0  0
 22 24  1  0  0  0  0
M  CHG  1  18  -1
M  END
$$$$
default_name
  -OEChem-02102213163D

 27 26  0     1  0  0  0  0  0999 V2000
   -3.2406   -3.5400    1.2326 H   0  0  0  0  0  0  0  0  0  0  0  0
   -3.1436   -2.6190    0.6606 C   0  0  0  0  0  0  0  0  0  0  0  0
   -3.8786   -1.8920    0.9996 H   0  0  0  0  0  0  0  0  0  0  0  0
   -3.2846   -2.8280   -0.3984 H   0  0  0  0  0  0  0  0  0  0  0  0
   -1.7586   -2.0580    0.8686 C   0  0  0  0  0  0  0  0  0  0  0  0
   -0.9666   -2.6340    1.6026 O   0  0  0  0  0  0  0  0  0  0  0  0
   -1.4866   -0.9220    0.2366 N   0  0  0  0  0  0  0  0  0  0  0  0
   -2.2166   -0.4790   -0.2994 H   0  0  0  0  0  0  0  0  0  0  0  0
   -0.1956   -0.2250    0.2596 C   0  0  1  0  0  0  0  0  0  0  0  0
    0.3927   -0.6026    1.0964 H   0  0  0  0  0  0  0  0  0  0  0  0
    0.5767   -0.5489   -1.0351 C   0  0  0  0  0  0  0  0  0  0  0  0
   -0.1172   -0.4576   -1.8722 H   0  0  0  0  0  0  0  0  0  0  0  0
    1.3766    0.1808   -1.1694 H   0  0  0  0  0  0  0  0  0  0  0  0
    1.1773   -1.9647   -1.0519 C   0  0  0  0  0  0  0  0  0  0  0  0
    0.4585   -2.6524   -1.5039 H   0  0  0  0  0  0  0  0  0  0  0  0
    2.0715   -1.9505   -1.6806 H   0  0  0  0  0  0  0  0  0  0  0  0
    1.5480   -2.4868    0.3441 C   0  0  0  0  0  0  0  0  0  0  0  0
    1.4634   -1.7005    1.3143 O   0  5  0  0  0  0  0  0  0  0  0  0
    1.8912   -3.6875    0.4211 O   0  0  0  0  0  0  0  0  0  0  0  0
   -0.3954    1.2887    0.4814 C   0  0  0  0  0  0  0  0  0  0  0  0
   -1.2761    1.9015   -0.1256 O   0  0  0  0  0  0  0  0  0  0  0  0
    0.4051    1.8919    1.3699 N   0  0  0  0  0  0  0  0  0  0  0  0
    1.1380    1.3380    1.7875 H   0  0  0  0  0  0  0  0  0  0  0  0
    0.3573    3.3183    1.6807 C   0  0  0  0  0  0  0  0  0  0  0  0
   -0.6670    3.6090    1.9198 H   0  0  0  0  0  0  0  0  0  0  0  0
    1.0066    3.5397    2.5289 H   0  0  0  0  0  0  0  0  0  0  0  0
    0.6896    3.8897    0.8118 H   0  0  0  0  0  0  0  0  0  0  0  0
  5  6  2  0  0  0  0
  5  7  1  0  0  0  0
  2  3  1  0  0  0  0
  2  4  1  0  0  0  0
  2  5  1  0  0  0  0
  1  2  1  0  0  0  0
 20 21  2  0  0  0  0
 20 22  1  0  0  0  0
 17 18  1  0  0  0  0
 17 19  2  0  0  0  0
 14 15  1  0  0  0  0
 14 16  1  0  0  0  0
 14 17  1  0  0  0  0
 11 12  1  0  0  0  0
 11 13  1  0  0  0  0
 11 14  1  0  0  0  0
  9 10  1  0  0  0  0
  9 11  1  0  0  0  0
  9 20  1  0  0  0  0
  7  8  1  0  0  0  0
  7  9  1  0  0  0  0
 24 25  1  0  0  0  0
 24 26  1  0  0  0  0
 24 27  1  0  0  0  0
 22 23  1  0  0  0  0
 22 24  1  0  0  0  0
M  CHG  1  18  -1
M  END
$$$$
default_name
  -OEChem-02102213163D

 27 26  0     1  0  0  0  0  0999 V2000
   -3.2406   -3.5400    1.2326 H   0  0  0  0  0  0  0  0  0  0  0  0
   -3.1436   -2.6190    0.6606 C   0  0  0  0  0  0  0  0  0  0  0  0
   -3.8786   -1.8920    0.9996 H   0  0  0  0  0  0  0  0  0  0  0  0
   -3.2846   -2.8280   -0.3984 H   0  0  0  0  0  0  0  0  0  0  0  0
   -1.7586   -2.0580    0.8686 C   0  0  0  0  0  0  0  0  0  0  0  0
   -0.9666   -2.6340    1.6026 O   0  0  0  0  0  0  0  0  0  0  0  0
   -1.4866   -0.9220    0.2366 N   0  0  0  0  0  0  0  0  0  0  0  0
   -2.2166   -0.4790   -0.2994 H   0  0  0  0  0  0  0  0  0  0  0  0
   -0.1956   -0.2250    0.2596 C   0  0  1  0  0  0  0  0  0  0  0  0
    0.3927   -0.6026    1.0964 H   0  0  0  0  0  0  0  0  0  0  0  0
    0.5767   -0.5489   -1.0351 C   0  0  0  0  0  0  0  0  0  0  0  0
   -0.1172   -0.4576   -1.8722 H   0  0  0  0  0  0  0  0  0  0  0  0
    1.3766    0.1808   -1.1694 H   0  0  0  0  0  0  0  0  0  0  0  0
    1.1773   -1.9647   -1.0519 C   0  0  0  0  0  0  0  0  0  0  0  0
    0.5935   -2.5924   -1.7293 H   0  0  0  0  0  0  0  0  0  0  0  0
    2.1954   -1.9008   -1.4449 H   0  0  0  0  0  0  0  0  0  0  0  0
    1.2095   -2.6303    0.3319 C   0  0  0  0  0  0  0  0  0  0  0  0
    0.8885   -1.9446    1.3285 O   0  5  0  0  0  0  0  0  0  0  0  0
    1.5356   -3.8376    0.3662 O   0  0  0  0  0  0  0  0  0  0  0  0
   -0.3954    1.2887    0.4814 C   0  0  0  0  0  0  0  0  0  0  0  0
   -1.2761    1.9015   -0.1256 O   0  0  0  0  0  0  0  0  0  0  0  0
    0.4051    1.8919    1.3699 N   0  0  0  0  0  0  0  0  0  0  0  0
    1.1380    1.3380    1.7875 H   0  0  0  0  0  0  0  0  0  0  0  0
    0.3573    3.3183    1.6807 C   0  0  0  0  0  0  0  0  0  0  0  0
   -0.6670    3.6090    1.9198 H   0  0  0  0  0  0  0  0  0  0  0  0
    1.0066    3.5397    2.5289 H   0  0  0  0  0  0  0  0  0  0  0  0
    0.6896    3.8897    0.8118 H   0  0  0  0  0  0  0  0  0  0  0  0
  5  6  2  0  0  0  0
  5  7  1  0  0  0  0
  2  3  1  0  0  0  0
  2  4  1  0  0  0  0
  2  5  1  0  0  0  0
  1  2  1  0  0  0  0
 20 21  2  0  0  0  0
 20 22  1  0  0  0  0
 17 18  1  0  0  0  0
 17 19  2  0  0  0  0
 14 15  1  0  0  0  0
 14 16  1  0  0  0  0
 14 17  1  0  0  0  0
 11 12  1  0  0  0  0
 11 13  1  0  0  0  0
 11 14  1  0  0  0  0
  9 10  1  0  0  0  0
  9 11  1  0  0  0  0
  9 20  1  0  0  0  0
  7  8  1  0  0  0  0
  7  9  1  0  0  0  0
 24 25  1  0  0  0  0
 24 26  1  0  0  0  0
 24 27  1  0  0  0  0
 22 23  1  0  0  0  0
 22 24  1  0  0  0  0
M  CHG  1  18  -1
M  END
$$$$
default_name
  -OEChem-02102213163D

 27 26  0     1  0  0  0  0  0999 V2000
   -3.2406   -3.5400    1.2326 H   0  0  0  0  0  0  0  0  0  0  0  0
   -3.1436   -2.6190    0.6606 C   0  0  0  0  0  0  0  0  0  0  0  0
   -3.8786   -1.8920    0.9996 H   0  0  0  0  0  0  0  0  0  0  0  0
   -3.2846   -2.8280   -0.3984 H   0  0  0  0  0  0  0  0  0  0  0  0
   -1.7586   -2.0580    0.8686 C   0  0  0  0  0  0  0  0  0  0  0  0
   -0.9666   -2.6340    1.6026 O   0  0  0  0  0  0  0  0  0  0  0  0
   -1.4866   -0.9220    0.2366 N   0  0  0  0  0  0  0  0  0  0  0  0
   -2.2166   -0.4790   -0.2994 H   0  0  0  0  0  0  0  0  0  0  0  0
   -0.1956   -0.2250    0.2596 C   0  0  1  0  0  0  0  0  0  0  0  0
    0.3927   -0.6026    1.0964 H   0  0  0  0  0  0  0  0  0  0  0  0
    0.5767   -0.5489   -1.0351 C   0  0  0  0  0  0  0  0  0  0  0  0
   -0.1172   -0.4576   -1.8722 H   0  0  0  0  0  0  0  0  0  0  0  0
    1.3766    0.1808   -1.1694 H   0  0  0  0  0  0  0  0  0  0  0  0
    1.1773   -1.9647   -1.0519 C   0  0  0  0  0  0  0  0  0  0  0  0
    0.7778   -2.5121   -1.9089 H   0  0  0  0  0  0  0  0  0  0  0  0
    2.2591   -1.8768   -1.1826 H   0  0  0  0  0  0  0  0  0  0  0  0
    0.8849   -2.7667    0.2249 C   0  0  0  0  0  0  0  0  0  0  0  0
    0.3292   -2.1801    1.1807 O   0  5  0  0  0  0  0  0  0  0  0  0
    1.2049   -3.9761    0.2133 O   0  0  0  0  0  0  0  0  0  0  0  0
   -0.3954    1.2887    0.4814 C   0  0  0  0  0  0  0  0  0  0  0  0
   -1.2761    1.9015   -0.1256 O   0  0  0  0  0  0  0  0  0  0  0  0
    0.4051    1.8919    1.3699 N   0  0  0  0  0  0  0  0  0  0  0  0
    1.1380    1.3380    1.7875 H   0  0  0  0  0  0  0  0  0  0  0  0
    0.3573    3.3183    1.6807 C   0  0  0  0  0  0  0  0  0  0  0  0
   -0.6670    3.6090    1.9198 H   0  0  0  0  0  0  0  0  0  0  0  0
    1.0066    3.5397    2.5289 H   0  0  0  0  0  0  0  0  0  0  0  0
    0.6896    3.8897    0.8118 H   0  0  0  0  0  0  0  0  0  0  0  0
  5  6  2  0  0  0  0
  5  7  1  0  0  0  0
  2  3  1  0  0  0  0
  2  4  1  0  0  0  0
  2  5  1  0  0  0  0
  1  2  1  0  0  0  0
 20 21  2  0  0  0  0
 20 22  1  0  0  0  0
 17 18  1  0  0  0  0
 17 19  2  0  0  0  0
 14 15  1  0  0  0  0
 14 16  1  0  0  0  0
 14 17  1  0  0  0  0
 11 12  1  0  0  0  0
 11 13  1  0  0  0  0
 11 14  1  0  0  0  0
  9 10  1  0  0  0  0
  9 11  1  0  0  0  0
  9 20  1  0  0  0  0
  7  8  1  0  0  0  0
  7  9  1  0  0  0  0
 24 25  1  0  0  0  0
 24 26  1  0  0  0  0
 24 27  1  0  0  0  0
 22 23  1  0  0  0  0
 22 24  1  0  0  0  0
M  CHG  1  18  -1
M  END
$$$$
default_name
  -OEChem-02102213163D

 27 26  0     1  0  0  0  0  0999 V2000
   -3.2406   -3.5400    1.2326 H   0  0  0  0  0  0  0  0  0  0  0  0
   -3.1436   -2.6190    0.6606 C   0  0  0  0  0  0  0  0  0  0  0  0
   -3.8786   -1.8920    0.9996 H   0  0  0  0  0  0  0  0  0  0  0  0
   -3.2846   -2.8280   -0.3984 H   0  0  0  0  0  0  0  0  0  0  0  0
   -1.7586   -2.0580    0.8686 C   0  0  0  0  0  0  0  0  0  0  0  0
   -0.9666   -2.6340    1.6026 O   0  0  0  0  0  0  0  0  0  0  0  0
   -1.4866   -0.9220    0.2366 N   0  0  0  0  0  0  0  0  0  0  0  0
   -2.2166   -0.4790   -0.2994 H   0  0  0  0  0  0  0  0  0  0  0  0
   -0.1956   -0.2250    0.2596 C   0  0  1  0  0  0  0  0  0  0  0  0
    0.3927   -0.6026    1.0964 H   0  0  0  0  0  0  0  0  0  0  0  0
    0.5767   -0.5489   -1.0351 C   0  0  0  0  0  0  0  0  0  0  0  0
   -0.1172   -0.4576   -1.8722 H   0  0  0  0  0  0  0  0  0  0  0  0
    1.3766    0.1808   -1.1694 H   0  0  0  0  0  0  0  0  0  0  0  0
    1.1773   -1.9647   -1.0519 C   0  0  0  0  0  0  0  0  0  0  0  0
    0.9988   -2.4169   -2.0304 H   0  0  0  0  0  0  0  0  0  0  0  0
    2.2582   -1.8804   -0.9116 H   0  0  0  0  0  0  0  0  0  0  0  0
    0.5965   -2.8867    0.0305 C   0  0  0  0  0  0  0  0  0  0  0  0
   -0.1765   -2.3911    0.8809 O   0  5  0  0  0  0  0  0  0  0  0  0
    0.9215   -4.0935   -0.0272 O   0  0  0  0  0  0  0  0  0  0  0  0
   -0.3954    1.2887    0.4814 C   0  0  0  0  0  0  0  0  0  0  0  0
   -1.2761    1.9015   -0.1256 O   0  0  0  0  0  0  0  0  0  0  0  0
    0.4051    1.8919    1.3699 N   0  0  0  0  0  0  0  0  0  0  0  0
    1.1380    1.3380    1.7875 H   0  0  0  0  0  0  0  0  0  0  0  0
    0.3573    3.3183    1.6807 C   0  0  0  0  0  0  0  0  0  0  0  0
   -0.6670    3.6090    1.9198 H   0  0  0  0  0  0  0  0  0  0  0  0
    1.0066    3.5397    2.5289 H   0  0  0  0  0  0  0  0  0  0  0  0
    0.6896    3.8897    0.8118 H   0  0  0  0  0  0  0  0  0  0  0  0
  5  6  2  0  0  0  0
  5  7  1  0  0  0  0
  2  3  1  0  0  0  0
  2  4  1  0  0  0  0
  2  5  1  0  0  0  0
  1  2  1  0  0  0  0
 20 21  2  0  0  0  0
 20 22  1  0  0  0  0
 17 18  1  0  0  0  0
 17 19  2  0  0  0  0
 14 15  1  0  0  0  0
 14 16  1  0  0  0  0
 14 17  1  0  0  0  0
 11 12  1  0  0  0  0
 11 13  1  0  0  0  0
 11 14  1  0  0  0  0
  9 10  1  0  0  0  0
  9 11  1  0  0  0  0
  9 20  1  0  0  0  0
  7  8  1  0  0  0  0
  7  9  1  0  0  0  0
 24 25  1  0  0  0  0
 24 26  1  0  0  0  0
 24 27  1  0  0  0  0
 22 23  1  0  0  0  0
 22 24  1  0  0  0  0
M  CHG  1  18  -1
M  END
$$$$
default_name
  -OEChem-02102213163D

 27 26  0     1  0  0  0  0  0999 V2000
   -3.2406   -3.5400    1.2326 H   0  0  0  0  0  0  0  0  0  0  0  0
   -3.1436   -2.6190    0.6606 C   0  0  0  0  0  0  0  0  0  0  0  0
   -3.8786   -1.8920    0.9996 H   0  0  0  0  0  0  0  0  0  0  0  0
   -3.2846   -2.8280   -0.3984 H   0  0  0  0  0  0  0  0  0  0  0  0
   -1.7586   -2.0580    0.8686 C   0  0  0  0  0  0  0  0  0  0  0  0
   -0.9666   -2.6340    1.6026 O   0  0  0  0  0  0  0  0  0  0  0  0
   -1.4866   -0.9220    0.2366 N   0  0  0  0  0  0  0  0  0  0  0  0
   -2.2166   -0.4790   -0.2994 H   0  0  0  0  0  0  0  0  0  0  0  0
   -0.1956   -0.2250    0.2596 C   0  0  1  0  0  0  0  0  0  0  0  0
    0.3927   -0.6026    1.0964 H   0  0  0  0  0  0  0  0  0  0  0  0
    0.5767   -0.5489   -1.0351 C   0  0  0  0  0  0  0  0  0  0  0  0
   -0.1172   -0.4576   -1.8722 H   0  0  0  0  0  0  0  0  0  0  0  0
    1.3766    0.1808   -1.1694 H   0  0  0  0  0  0  0  0  0  0  0  0
    1.1773   -1.9647   -1.0519 C   0  0  0  0  0  0  0  0  0  0  0  0
    1.2415   -2.3133   -2.0854 H   0  0  0  0  0  0  0  0  0  0  0  0
    2.1928   -1.9113   -0.6505 H   0  0  0  0  0  0  0  0  0  0  0  0
    0.3640   -2.9822   -0.2382 C   0  0  0  0  0  0  0  0  0  0  0  0
   -0.5942   -2.5631    0.4494 O   0  5  0  0  0  0  0  0  0  0  0  0
    0.7047   -4.1818   -0.3389 O   0  0  0  0  0  0  0  0  0  0  0  0
   -0.3954    1.2887    0.4814 C   0  0  0  0  0  0  0  0  0  0  0  0
   -1.2761    1.9015   -0.1256 O   0  0  0  0  0  0  0  0  0  0  0  0
    0.4051    1.8919    1.3699 N   0  0  0  0  0  0  0  0  0  0  0  0
    1.1380    1.3380    1.7875 H   0  0  0  0  0  0  0  0  0  0  0  0
    0.3573    3.3183    1.6807 C   0  0  0  0  0  0  0  0  0  0  0  0
   -0.6670    3.6090    1.9198 H   0  0  0  0  0  0  0  0  0  0  0  0
    1.0066    3.5397    2.5289 H   0  0  0  0  0  0  0  0  0  0  0  0
    0.6896    3.8897    0.8118 H   0  0  0  0  0  0  0  0  0  0  0  0
  5  6  2  0  0  0  0
  5  7  1  0  0  0  0
  2  3  1  0  0  0  0
  2  4  1  0  0  0  0
  2  5  1  0  0  0  0
  1  2  1  0  0  0  0
 20 21  2  0  0  0  0
 20 22  1  0  0  0  0
 17 18  1  0  0  0  0
 17 19  2  0  0  0  0
 14 15  1  0  0  0  0
 14 16  1  0  0  0  0
 14 17  1  0  0  0  0
 11 12  1  0  0  0  0
 11 13  1  0  0  0  0
 11 14  1  0  0  0  0
  9 10  1  0  0  0  0
  9 11  1  0  0  0  0
  9 20  1  0  0  0  0
  7  8  1  0  0  0  0
  7  9  1  0  0  0  0
 24 25  1  0  0  0  0
 24 26  1  0  0  0  0
 24 27  1  0  0  0  0
 22 23  1  0  0  0  0
 22 24  1  0  0  0  0
M  CHG  1  18  -1
M  END
$$$$
default_name
  -OEChem-02102213163D

 27 26  0     1  0  0  0  0  0999 V2000
   -3.2406   -3.5400    1.2326 H   0  0  0  0  0  0  0  0  0  0  0  0
   -3.1436   -2.6190    0.6606 C   0  0  0  0  0  0  0  0  0  0  0  0
   -3.8786   -1.8920    0.9996 H   0  0  0  0  0  0  0  0  0  0  0  0
   -3.2846   -2.8280   -0.3984 H   0  0  0  0  0  0  0  0  0  0  0  0
   -1.7586   -2.0580    0.8686 C   0  0  0  0  0  0  0  0  0  0  0  0
   -0.9666   -2.6340    1.6026 O   0  0  0  0  0  0  0  0  0  0  0  0
   -1.4866   -0.9220    0.2366 N   0  0  0  0  0  0  0  0  0  0  0  0
   -2.2166   -0.4790   -0.2994 H   0  0  0  0  0  0  0  0  0  0  0  0
   -0.1956   -0.2250    0.2596 C   0  0  1  0  0  0  0  0  0  0  0  0
    0.3927   -0.6026    1.0964 H   0  0  0  0  0  0  0  0  0  0  0  0
    0.5767   -0.5489   -1.0351 C   0  0  0  0  0  0  0  0  0  0  0  0
   -0.1172   -0.4576   -1.8722 H   0  0  0  0  0  0  0  0  0  0  0  0
    1.3766    0.1808   -1.1694 H   0  0  0  0  0  0  0  0  0  0  0  0
    1.1773   -1.9647   -1.0519 C   0  0  0  0  0  0  0  0  0  0  0  0
    1.4893   -2.2084   -2.0703 H   0  0  0  0  0  0  0  0  0  0  0  0
    2.0672   -1.9673   -0.4170 H   0  0  0  0  0  0  0  0  0  0  0  0
    0.2031   -3.0466   -0.5628 C   0  0  0  0  0  0  0  0  0  0  0  0
   -0.8953   -2.6846   -0.0842 O   0  5  0  0  0  0  0  0  0  0  0  0
    0.5693   -4.2350   -0.7006 O   0  0  0  0  0  0  0  0  0  0  0  0
   -0.3954    1.2887    0.4814 C   0  0  0  0  0  0  0  0  0  0  0  0
   -1.2761    1.9015   -0.1256 O   0  0  0  0  0  0  0  0  0  0  0  0
    0.4051    1.8919    1.3699 N   0  0  0  0  0  0  0  0  0  0  0  0
    1.1380    1.3380    1.7875 H   0  0  0  0  0  0  0  0  0  0  0  0
    0.3573    3.3183    1.6807 C   0  0  0  0  0  0  0  0  0  0  0  0
   -0.6670    3.6090    1.9198 H   0  0  0  0  0  0  0  0  0  0  0  0
    1.0066    3.5397    2.5289 H   0  0  0  0  0  0  0  0  0  0  0  0
    0.6896    3.8897    0.8118 H   0  0  0  0  0  0  0  0  0  0  0  0
  5  6  2  0  0  0  0
  5  7  1  0  0  0  0
  2  3  1  0  0  0  0
  2  4  1  0  0  0  0
  2  5  1  0  0  0  0
  1  2  1  0  0  0  0
 20 21  2  0  0  0  0
 20 22  1  0  0  0  0
 17 18  1  0  0  0  0
 17 19  2  0  0  0  0
 14 15  1  0  0  0  0
 14 16  1  0  0  0  0
 14 17  1  0  0  0  0
 11 12  1  0  0  0  0
 11 13  1  0  0  0  0
 11 14  1  0  0  0  0
  9 10  1  0  0  0  0
  9 11  1  0  0  0  0
  9 20  1  0  0  0  0
  7  8  1  0  0  0  0
  7  9  1  0  0  0  0
 24 25  1  0  0  0  0
 24 26  1  0  0  0  0
 24 27  1  0  0  0  0
 22 23  1  0  0  0  0
 22 24  1  0  0  0  0
M  CHG  1  18  -1
M  END
$$$$
default_name
  -OEChem-02102213163D

 27 26  0     1  0  0  0  0  0999 V2000
   -3.2406   -3.5400    1.2326 H   0  0  0  0  0  0  0  0  0  0  0  0
   -3.1436   -2.6190    0.6606 C   0  0  0  0  0  0  0  0  0  0  0  0
   -3.8786   -1.8920    0.9996 H   0  0  0  0  0  0  0  0  0  0  0  0
   -3.2846   -2.8280   -0.3984 H   0  0  0  0  0  0  0  0  0  0  0  0
   -1.7586   -2.0580    0.8686 C   0  0  0  0  0  0  0  0  0  0  0  0
   -0.9666   -2.6340    1.6026 O   0  0  0  0  0  0  0  0  0  0  0  0
   -1.4866   -0.9220    0.2366 N   0  0  0  0  0  0  0  0  0  0  0  0
   -2.2166   -0.4790   -0.2994 H   0  0  0  0  0  0  0  0  0  0  0  0
   -0.1956   -0.2250    0.2596 C   0  0  1  0  0  0  0  0  0  0  0  0
    0.3927   -0.6026    1.0964 H   0  0  0  0  0  0  0  0  0  0  0  0
    0.5767   -0.5489   -1.0351 C   0  0  0  0  0  0  0  0  0  0  0  0
   -0.1172   -0.4576   -1.8722 H   0  0  0  0  0  0  0  0  0  0  0  0
    1.3766    0.1808   -1.1694 H   0  0  0  0  0  0  0  0  0  0  0  0
    1.1773   -1.9647   -1.0519 C   0  0  0  0  0  0  0  0  0  0  0  0
    1.7254   -2.1092   -1.9860 H   0  0  0  0  0  0  0  0  0  0  0  0
    1.8902   -2.0446   -0.2270 H   0  0  0  0  0  0  0  0  0  0  0  0
    0.1248   -3.0756   -0.9211 C   0  0  0  0  0  0  0  0  0  0  0  0
   -1.0593   -2.7471   -0.6837 O   0  5  0  0  0  0  0  0  0  0  0  0
    0.5245   -4.2494   -1.0876 O   0  0  0  0  0  0  0  0  0  0  0  0
   -0.3954    1.2887    0.4814 C   0  0  0  0  0  0  0  0  0  0  0  0
   -1.2761    1.9015   -0.1256 O   0  0  0  0  0  0  0  0  0  0  0  0
    0.4051    1.8919    1.3699 N   0  0  0  0  0  0  0  0  0  0  0  0
    1.1380    1.3380    1.7875 H   0  0  0  0  0  0  0  0  0  0  0  0
    0.3573    3.3183    1.6807 C   0  0  0  0  0  0  0  0  0  0  0  0
   -0.6670    3.6090    1.9198 H   0  0  0  0  0  0  0  0  0  0  0  0
    1.0066    3.5397    2.5289 H   0  0  0  0  0  0  0  0  0  0  0  0
    0.6896    3.8897    0.8118 H   0  0  0  0  0  0  0  0  0  0  0  0
  5  6  2  0  0  0  0
  5  7  1  0  0  0  0
  2  3  1  0  0  0  0
  2  4  1  0  0  0  0
  2  5  1  0  0  0  0
  1  2  1  0  0  0  0
 20 21  2  0  0  0  0
 20 22  1  0  0  0  0
 17 18  1  0  0  0  0
 17 19  2  0  0  0  0
 14 15  1  0  0  0  0
 14 16  1  0  0  0  0
 14 17  1  0  0  0  0
 11 12  1  0  0  0  0
 11 13  1  0  0  0  0
 11 14  1  0  0  0  0
  9 10  1  0  0  0  0
  9 11  1  0  0  0  0
  9 20  1  0  0  0  0
  7  8  1  0  0  0  0
  7  9  1  0  0  0  0
 24 25  1  0  0  0  0
 24 26  1  0  0  0  0
 24 27  1  0  0  0  0
 22 23  1  0  0  0  0
 22 24  1  0  0  0  0
M  CHG  1  18  -1
M  END
$$$$
default_name
  -OEChem-02102213163D

 27 26  0     1  0  0  0  0  0999 V2000
   -3.2406   -3.5400    1.2326 H   0  0  0  0  0  0  0  0  0  0  0  0
   -3.1436   -2.6190    0.6606 C   0  0  0  0  0  0  0  0  0  0  0  0
   -3.8786   -1.8920    0.9996 H   0  0  0  0  0  0  0  0  0  0  0  0
   -3.2846   -2.8280   -0.3984 H   0  0  0  0  0  0  0  0  0  0  0  0
   -1.7586   -2.0580    0.8686 C   0  0  0  0  0  0  0  0  0  0  0  0
   -0.9666   -2.6340    1.6026 O   0  0  0  0  0  0  0  0  0  0  0  0
   -1.4866   -0.9220    0.2366 N   0  0  0  0  0  0  0  0  0  0  0  0
   -2.2166   -0.4790   -0.2994 H   0  0  0  0  0  0  0  0  0  0  0  0
   -0.1956   -0.2250    0.2596 C   0  0  1  0  0  0  0  0  0  0  0  0
    0.3927   -0.6026    1.0964 H   0  0  0  0  0  0  0  0  0  0  0  0
    0.5767   -0.5489   -1.0351 C   0  0  0  0  0  0  0  0  0  0  0  0
   -0.1172   -0.4576   -1.8722 H   0  0  0  0  0  0  0  0  0  0  0  0
    1.3766    0.1808   -1.1694 H   0  0  0  0  0  0  0  0  0  0  0  0
    1.1773   -1.9647   -1.0519 C   0  0  0  0  0  0  0  0  0  0  0  0
    1.9336   -2.0226   -1.8383 H   0  0  0  0  0  0  0  0  0  0  0  0
    1.6737   -2.1380   -0.0934 H   0  0  0  0  0  0  0  0  0  0  0  0
    0.1345   -3.0671   -1.2888 C   0  0  0  0  0  0  0  0  0  0  0  0
   -1.0751   -2.7464   -1.3081 O   0  5  0  0  0  0  0  0  0  0  0  0
    0.5734   -4.2241   -1.4735 O   0  0  0  0  0  0  0  0  0  0  0  0
   -0.3954    1.2887    0.4814 C   0  0  0  0  0  0  0  0  0  0  0  0
   -1.2761    1.9015   -0.1256 O   0  0  0  0  0  0  0  0  0  0  0  0
    0.4051    1.8919    1.3699 N   0  0  0  0  0  0  0  0  0  0  0  0
    1.1380    1.3380    1.7875 H   0  0  0  0  0  0  0  0  0  0  0  0
    0.3573    3.3183    1.6807 C   0  0  0  0  0  0  0  0  0  0  0  0
   -0.6670    3.6090    1.9198 H   0  0  0  0  0  0  0  0  0  0  0  0
    1.0066    3.5397    2.5289 H   0  0  0  0  0  0  0  0  0  0  0  0
    0.6896    3.8897    0.8118 H   0  0  0  0  0  0  0  0  0  0  0  0
  5  6  2  0  0  0  0
  5  7  1  0  0  0  0
  2  3  1  0  0  0  0
  2  4  1  0  0  0  0
  2  5  1  0  0  0  0
  1  2  1  0  0  0  0
 20 21  2  0  0  0  0
 20 22  1  0  0  0  0
 17 18  1  0  0  0  0
 17 19  2  0  0  0  0
 14 15  1  0  0  0  0
 14 16  1  0  0  0  0
 14 17  1  0  0  0  0
 11 12  1  0  0  0  0
 11 13  1  0  0  0  0
 11 14  1  0  0  0  0
  9 10  1  0  0  0  0
  9 11  1  0  0  0  0
  9 20  1  0  0  0  0
  7  8  1  0  0  0  0
  7  9  1  0  0  0  0
 24 25  1  0  0  0  0
 24 26  1  0  0  0  0
 24 27  1  0  0  0  0
 22 23  1  0  0  0  0
 22 24  1  0  0  0  0
M  CHG  1  18  -1
M  END
$$$$
default_name
  -OEChem-02102213163D

 27 26  0     1  0  0  0  0  0999 V2000
   -3.2406   -3.5400    1.2326 H   0  0  0  0  0  0  0  0  0  0  0  0
   -3.1436   -2.6190    0.6606 C   0  0  0  0  0  0  0  0  0  0  0  0
   -3.8786   -1.8920    0.9996 H   0  0  0  0  0  0  0  0  0  0  0  0
   -3.2846   -2.8280   -0.3984 H   0  0  0  0  0  0  0  0  0  0  0  0
   -1.7586   -2.0580    0.8686 C   0  0  0  0  0  0  0  0  0  0  0  0
   -0.9666   -2.6340    1.6026 O   0  0  0  0  0  0  0  0  0  0  0  0
   -1.4866   -0.9220    0.2366 N   0  0  0  0  0  0  0  0  0  0  0  0
   -2.2166   -0.4790   -0.2994 H   0  0  0  0  0  0  0  0  0  0  0  0
   -0.1956   -0.2250    0.2596 C   0  0  1  0  0  0  0  0  0  0  0  0
    0.3927   -0.6026    1.0964 H   0  0  0  0  0  0  0  0  0  0  0  0
    0.5767   -0.5489   -1.0351 C   0  0  0  0  0  0  0  0  0  0  0  0
   -0.1172   -0.4576   -1.8722 H   0  0  0  0  0  0  0  0  0  0  0  0
    1.3766    0.1808   -1.1694 H   0  0  0  0  0  0  0  0  0  0  0  0
    1.1773   -1.9647   -1.0519 C   0  0  0  0  0  0  0  0  0  0  0  0
    2.0998   -1.9545   -1.6373 H   0  0  0  0  0  0  0  0  0  0  0  0
    1.4325   -2.2412   -0.0255 H   0  0  0  0  0  0  0  0  0  0  0  0
    0.2315   -3.0218   -1.6409 C   0  0  0  0  0  0  0  0  0  0  0  0
   -0.9416   -2.6826   -1.9150 O   0  5  0  0  0  0  0  0  0  0  0  0
    0.7127   -4.1608   -1.8320 O   0  0  0  0  0  0  0  0  0  0  0  0
   -0.3954    1.2887    0.4814 C   0  0  0  0  0  0  0  0  0  0  0  0
   -1.2761    1.9015   -0.1256 O   0  0  0  0  0  0  0  0  0  0  0  0
    0.4051    1.8919    1.3699 N   0  0  0  0  0  0  0  0  0  0  0  0
    1.1380    1.3380    1.7875 H   0  0  0  0  0  0  0  0  0  0  0  0
    0.3573    3.3183    1.6807 C   0  0  0  0  0  0  0  0  0  0  0  0
   -0.6670    3.6090    1.9198 H   0  0  0  0  0  0  0  0  0  0  0  0
    1.0066    3.5397    2.5289 H   0  0  0  0  0  0  0  0  0  0  0  0
    0.6896    3.8897    0.8118 H   0  0  0  0  0  0  0  0  0  0  0  0
  5  6  2  0  0  0  0
  5  7  1  0  0  0  0
  2  3  1  0  0  0  0
  2  4  1  0  0  0  0
  2  5  1  0  0  0  0
  1  2  1  0  0  0  0
 20 21  2  0  0  0  0
 20 22  1  0  0  0  0
 17 18  1  0  0  0  0
 17 19  2  0  0  0  0
 14 15  1  0  0  0  0
 14 16  1  0  0  0  0
 14 17  1  0  0  0  0
 11 12  1  0  0  0  0
 11 13  1  0  0  0  0
 11 14  1  0  0  0  0
  9 10  1  0  0  0  0
  9 11  1  0  0  0  0
  9 20  1  0  0  0  0
  7  8  1  0  0  0  0
  7  9  1  0  0  0  0
 24 25  1  0  0  0  0
 24 26  1  0  0  0  0
 24 27  1  0  0  0  0
 22 23  1  0  0  0  0
 22 24  1  0  0  0  0
M  CHG  1  18  -1
M  END
$$$$
default_name
  -OEChem-02102213163D

 27 26  0     1  0  0  0  0  0999 V2000
   -3.2406   -3.5400    1.2326 H   0  0  0  0  0  0  0  0  0  0  0  0
   -3.1436   -2.6190    0.6606 C   0  0  0  0  0  0  0  0  0  0  0  0
   -3.8786   -1.8920    0.9996 H   0  0  0  0  0  0  0  0  0  0  0  0
   -3.2846   -2.8280   -0.3984 H   0  0  0  0  0  0  0  0  0  0  0  0
   -1.7586   -2.0580    0.8686 C   0  0  0  0  0  0  0  0  0  0  0  0
   -0.9666   -2.6340    1.6026 O   0  0  0  0  0  0  0  0  0  0  0  0
   -1.4866   -0.9220    0.2366 N   0  0  0  0  0  0  0  0  0  0  0  0
   -2.2166   -0.4790   -0.2994 H   0  0  0  0  0  0  0  0  0  0  0  0
   -0.1956   -0.2250    0.2596 C   0  0  1  0  0  0  0  0  0  0  0  0
    0.3927   -0.6026    1.0964 H   0  0  0  0  0  0  0  0  0  0  0  0
    0.5767   -0.5489   -1.0351 C   0  0  0  0  0  0  0  0  0  0  0  0
   -0.1172   -0.4576   -1.8722 H   0  0  0  0  0  0  0  0  0  0  0  0
    1.3766    0.1808   -1.1694 H   0  0  0  0  0  0  0  0  0  0  0  0
    1.1773   -1.9647   -1.0519 C   0  0  0  0  0  0  0  0  0  0  0  0
    2.2127   -1.9095   -1.3967 H   0  0  0  0  0  0  0  0  0  0  0  0
    1.1830   -2.3469   -0.0277 H   0  0  0  0  0  0  0  0  0  0  0  0
    0.4092   -2.9427   -1.9532 C   0  0  0  0  0  0  0  0  0  0  0  0
   -0.6679   -2.5600   -2.4629 O   0  5  0  0  0  0  0  0  0  0  0  0
    0.9328   -4.0638   -2.1388 O   0  0  0  0  0  0  0  0  0  0  0  0
   -0.3954    1.2887    0.4814 C   0  0  0  0  0  0  0  0  0  0  0  0
   -1.2761    1.9015   -0.1256 O   0  0  0  0  0  0  0  0  0  0  0  0
    0.4051    1.8919    1.3699 N   0  0  0  0  0  0  0  0  0  0  0  0
    1.1380    1.3380    1.7875 H   0  0  0  0  0  0  0  0  0  0  0  0
    0.3573    3.3183    1.6807 C   0  0  0  0  0  0  0  0  0  0  0  0
   -0.6670    3.6090    1.9198 H   0  0  0  0  0  0  0  0  0  0  0  0
    1.0066    3.5397    2.5289 H   0  0  0  0  0  0  0  0  0  0  0  0
    0.6896    3.8897    0.8118 H   0  0  0  0  0  0  0  0  0  0  0  0
  5  6  2  0  0  0  0
  5  7  1  0  0  0  0
  2  3  1  0  0  0  0
  2  4  1  0  0  0  0
  2  5  1  0  0  0  0
  1  2  1  0  0  0  0
 20 21  2  0  0  0  0
 20 22  1  0  0  0  0
 17 18  1  0  0  0  0
 17 19  2  0  0  0  0
 14 15  1  0  0  0  0
 14 16  1  0  0  0  0
 14 17  1  0  0  0  0
 11 12  1  0  0  0  0
 11 13  1  0  0  0  0
 11 14  1  0  0  0  0
  9 10  1  0  0  0  0
  9 11  1  0  0  0  0
  9 20  1  0  0  0  0
  7  8  1  0  0  0  0
  7  9  1  0  0  0  0
 24 25  1  0  0  0  0
 24 26  1  0  0  0  0
 24 27  1  0  0  0  0
 22 23  1  0  0  0  0
 22 24  1  0  0  0  0
M  CHG  1  18  -1
M  END
$$$$
default_name
  -OEChem-02102213163D

 27 26  0     1  0  0  0  0  0999 V2000
   -3.2406   -3.5400    1.2326 H   0  0  0  0  0  0  0  0  0  0  0  0
   -3.1436   -2.6190    0.6606 C   0  0  0  0  0  0  0  0  0  0  0  0
   -3.8786   -1.8920    0.9996 H   0  0  0  0  0  0  0  0  0  0  0  0
   -3.2846   -2.8280   -0.3984 H   0  0  0  0  0  0  0  0  0  0  0  0
   -1.7586   -2.0580    0.8686 C   0  0  0  0  0  0  0  0  0  0  0  0
   -0.9666   -2.6340    1.6026 O   0  0  0  0  0  0  0  0  0  0  0  0
   -1.4866   -0.9220    0.2366 N   0  0  0  0  0  0  0  0  0  0  0  0
   -2.2166   -0.4790   -0.2994 H   0  0  0  0  0  0  0  0  0  0  0  0
   -0.1956   -0.2250    0.2596 C   0  0  1  0  0  0  0  0  0  0  0  0
    0.3927   -0.6026    1.0964 H   0  0  0  0  0  0  0  0  0  0  0  0
    0.5767   -0.5489   -1.0351 C   0  0  0  0  0  0  0  0  0  0  0  0
   -0.1172   -0.4576   -1.8722 H   0  0  0  0  0  0  0  0  0  0  0  0
    1.3766    0.1808   -1.1694 H   0  0  0  0  0  0  0  0  0  0  0  0
    1.1773   -1.9647   -1.0519 C   0  0  0  0  0  0  0  0  0  0  0  0
    2.2644   -1.8906   -1.1328 H   0  0  0  0  0  0  0  0  0  0  0  0
    0.9423   -2.4482   -0.1000 H   0  0  0  0  0  0  0  0  0  0  0  0
    0.6555   -2.8353   -2.2045 C   0  0  0  0  0  0  0  0  0  0  0  0
   -0.2726   -2.3870   -2.9146 O   0  5  0  0  0  0  0  0  0  0  0  0
    1.2188   -3.9397   -2.3728 O   0  0  0  0  0  0  0  0  0  0  0  0
   -0.3954    1.2887    0.4814 C   0  0  0  0  0  0  0  0  0  0  0  0
   -1.2761    1.9015   -0.1256 O   0  0  0  0  0  0  0  0  0  0  0  0
    0.4051    1.8919    1.3699 N   0  0  0  0  0  0  0  0  0  0  0  0
    1.1380    1.3380    1.7875 H   0  0  0  0  0  0  0  0  0  0  0  0
    0.3573    3.3183    1.6807 C   0  0  0  0  0  0  0  0  0  0  0  0
   -0.6670    3.6090    1.9198 H   0  0  0  0  0  0  0  0  0  0  0  0
    1.0066    3.5397    2.5289 H   0  0  0  0  0  0  0  0  0  0  0  0
    0.6896    3.8897    0.8118 H   0  0  0  0  0  0  0  0  0  0  0  0
  5  6  2  0  0  0  0
  5  7  1  0  0  0  0
  2  3  1  0  0  0  0
  2  4  1  0  0  0  0
  2  5  1  0  0  0  0
  1  2  1  0  0  0  0
 20 21  2  0  0  0  0
 20 22  1  0  0  0  0
 17 18  1  0  0  0  0
 17 19  2  0  0  0  0
 14 15  1  0  0  0  0
 14 16  1  0  0  0  0
 14 17  1  0  0  0  0
 11 12  1  0  0  0  0
 11 13  1  0  0  0  0
 11 14  1  0  0  0  0
  9 10  1  0  0  0  0
  9 11  1  0  0  0  0
  9 20  1  0  0  0  0
  7  8  1  0  0  0  0
  7  9  1  0  0  0  0
 24 25  1  0  0  0  0
 24 26  1  0  0  0  0
 24 27  1  0  0  0  0
 22 23  1  0  0  0  0
 22 24  1  0  0  0  0
M  CHG  1  18  -1
M  END
$$$$
default_name
  -OEChem-02102213163D

 27 26  0     1  0  0  0  0  0999 V2000
   -3.2406   -3.5400    1.2326 H   0  0  0  0  0  0  0  0  0  0  0  0
   -3.1436   -2.6190    0.6606 C   0  0  0  0  0  0  0  0  0  0  0  0
   -3.8786   -1.8920    0.9996 H   0  0  0  0  0  0  0  0  0  0  0  0
   -3.2846   -2.8280   -0.3984 H   0  0  0  0  0  0  0  0  0  0  0  0
   -1.7586   -2.0580    0.8686 C   0  0  0  0  0  0  0  0  0  0  0  0
   -0.9666   -2.6340    1.6026 O   0  0  0  0  0  0  0  0  0  0  0  0
   -1.4866   -0.9220    0.2366 N   0  0  0  0  0  0  0  0  0  0  0  0
   -2.2166   -0.4790   -0.2994 H   0  0  0  0  0  0  0  0  0  0  0  0
   -0.1956   -0.2250    0.2596 C   0  0  1  0  0  0  0  0  0  0  0  0
    0.3927   -0.6026    1.0964 H   0  0  0  0  0  0  0  0  0  0  0  0
    0.5767   -0.5489   -1.0351 C   0  0  0  0  0  0  0  0  0  0  0  0
   -0.1172   -0.4576   -1.8722 H   0  0  0  0  0  0  0  0  0  0  0  0
    1.3766    0.1808   -1.1694 H   0  0  0  0  0  0  0  0  0  0  0  0
    1.1773   -1.9647   -1.0519 C   0  0  0  0  0  0  0  0  0  0  0  0
    2.2516   -1.8993   -0.8637 H   0  0  0  0  0  0  0  0  0  0  0  0
    0.7267   -2.5380   -0.2374 H   0  0  0  0  0  0  0  0  0  0  0  0
    0.9536   -2.7068   -2.3778 C   0  0  0  0  0  0  0  0  0  0  0  0
    0.2173   -2.1753   -3.2392 O   0  5  0  0  0  0  0  0  0  0  0  0
    1.5511   -3.7970   -2.5182 O   0  0  0  0  0  0  0  0  0  0  0  0
   -0.3954    1.2887    0.4814 C   0  0  0  0  0  0  0  0  0  0  0  0
   -1.2761    1.9015   -0.1256 O   0  0  0  0  0  0  0  0  0  0  0  0
    0.4051    1.8919    1.3699 N   0  0  0  0  0  0  0  0  0  0  0  0
    1.1380    1.3380    1.7875 H   0  0  0  0  0  0  0  0  0  0  0  0
    0.3573    3.3183    1.6807 C   0  0  0  0  0  0  0  0  0  0  0  0
   -0.6670    3.6090    1.9198 H   0  0  0  0  0  0  0  0  0  0  0  0
    1.0066    3.5397    2.5289 H   0  0  0  0  0  0  0  0  0  0  0  0
    0.6896    3.8897    0.8118 H   0  0  0  0  0  0  0  0  0  0  0  0
  5  6  2  0  0  0  0
  5  7  1  0  0  0  0
  2  3  1  0  0  0  0
  2  4  1  0  0  0  0
  2  5  1  0  0  0  0
  1  2  1  0  0  0  0
 20 21  2  0  0  0  0
 20 22  1  0  0  0  0
 17 18  1  0  0  0  0
 17 19  2  0  0  0  0
 14 15  1  0  0  0  0
 14 16  1  0  0  0  0
 14 17  1  0  0  0  0
 11 12  1  0  0  0  0
 11 13  1  0  0  0  0
 11 14  1  0  0  0  0
  9 10  1  0  0  0  0
  9 11  1  0  0  0  0
  9 20  1  0  0  0  0
  7  8  1  0  0  0  0
  7  9  1  0  0  0  0
 24 25  1  0  0  0  0
 24 26  1  0  0  0  0
 24 27  1  0  0  0  0
 22 23  1  0  0  0  0
 22 24  1  0  0  0  0
M  CHG  1  18  -1
M  END
$$$$
default_name
  -OEChem-02102213163D

 27 26  0     1  0  0  0  0  0999 V2000
   -3.2406   -3.5400    1.2326 H   0  0  0  0  0  0  0  0  0  0  0  0
   -3.1436   -2.6190    0.6606 C   0  0  0  0  0  0  0  0  0  0  0  0
   -3.8786   -1.8920    0.9996 H   0  0  0  0  0  0  0  0  0  0  0  0
   -3.2846   -2.8280   -0.3984 H   0  0  0  0  0  0  0  0  0  0  0  0
   -1.7586   -2.0580    0.8686 C   0  0  0  0  0  0  0  0  0  0  0  0
   -0.9666   -2.6340    1.6026 O   0  0  0  0  0  0  0  0  0  0  0  0
   -1.4866   -0.9220    0.2366 N   0  0  0  0  0  0  0  0  0  0  0  0
   -2.2166   -0.4790   -0.2994 H   0  0  0  0  0  0  0  0  0  0  0  0
   -0.1956   -0.2250    0.2596 C   0  0  1  0  0  0  0  0  0  0  0  0
    0.3927   -0.6026    1.0964 H   0  0  0  0  0  0  0  0  0  0  0  0
    0.5767   -0.5489   -1.0351 C   0  0  0  0  0  0  0  0  0  0  0  0
   -0.1172   -0.4576   -1.8722 H   0  0  0  0  0  0  0  0  0  0  0  0
    1.3766    0.1808   -1.1694 H   0  0  0  0  0  0  0  0  0  0  0  0
    1.1773   -1.9647   -1.0519 C   0  0  0  0  0  0  0  0  0  0  0  0
    2.1751   -1.9347   -0.6077 H   0  0  0  0  0  0  0  0  0  0  0  0
    0.5510   -2.6103   -0.4306 H   0  0  0  0  0  0  0  0  0  0  0  0
    1.2831   -2.5660   -2.4612 C   0  0  0  0  0  0  0  0  0  0  0  0
    0.7685   -1.9394   -3.4146 O   0  5  0  0  0  0  0  0  0  0  0  0
    1.9072   -3.6454   -2.5651 O   0  0  0  0  0  0  0  0  0  0  0  0
   -0.3954    1.2887    0.4814 C   0  0  0  0  0  0  0  0  0  0  0  0
   -1.2761    1.9015   -0.1256 O   0  0  0  0  0  0  0  0  0  0  0  0
    0.4051    1.8919    1.3699 N   0  0  0  0  0  0  0  0  0  0  0  0
    1.1380    1.3380    1.7875 H   0  0  0  0  0  0  0  0  0  0  0  0
    0.3573    3.3183    1.6807 C   0  0  0  0  0  0  0  0  0  0  0  0
   -0.6670    3.6090    1.9198 H   0  0  0  0  0  0  0  0  0  0  0  0
    1.0066    3.5397    2.5289 H   0  0  0  0  0  0  0  0  0  0  0  0
    0.6896    3.8897    0.8118 H   0  0  0  0  0  0  0  0  0  0  0  0
  5  6  2  0  0  0  0
  5  7  1  0  0  0  0
  2  3  1  0  0  0  0
  2  4  1  0  0  0  0
  2  5  1  0  0  0  0
  1  2  1  0  0  0  0
 20 21  2  0  0  0  0
 20 22  1  0  0  0  0
 17 18  1  0  0  0  0
 17 19  2  0  0  0  0
 14 15  1  0  0  0  0
 14 16  1  0  0  0  0
 14 17  1  0  0  0  0
 11 12  1  0  0  0  0
 11 13  1  0  0  0  0
 11 14  1  0  0  0  0
  9 10  1  0  0  0  0
  9 11  1  0  0  0  0
  9 20  1  0  0  0  0
  7  8  1  0  0  0  0
  7  9  1  0  0  0  0
 24 25  1  0  0  0  0
 24 26  1  0  0  0  0
 24 27  1  0  0  0  0
 22 23  1  0  0  0  0
 22 24  1  0  0  0  0
M  CHG  1  18  -1
M  END
$$$$
default_name
  -OEChem-02102213163D

 27 26  0     1  0  0  0  0  0999 V2000
   -3.2406   -3.5400    1.2326 H   0  0  0  0  0  0  0  0  0  0  0  0
   -3.1436   -2.6190    0.6606 C   0  0  0  0  0  0  0  0  0  0  0  0
   -3.8786   -1.8920    0.9996 H   0  0  0  0  0  0  0  0  0  0  0  0
   -3.2846   -2.8280   -0.3984 H   0  0  0  0  0  0  0  0  0  0  0  0
   -1.7586   -2.0580    0.8686 C   0  0  0  0  0  0  0  0  0  0  0  0
   -0.9666   -2.6340    1.6026 O   0  0  0  0  0  0  0  0  0  0  0  0
   -1.4866   -0.9220    0.2366 N   0  0  0  0  0  0  0  0  0  0  0  0
   -2.2166   -0.4790   -0.2994 H   0  0  0  0  0  0  0  0  0  0  0  0
   -0.1956   -0.2250    0.2596 C   0  0  1  0  0  0  0  0  0  0  0  0
    0.3927   -0.6026    1.0964 H   0  0  0  0  0  0  0  0  0  0  0  0
    0.5767   -0.5489   -1.0351 C   0  0  0  0  0  0  0  0  0  0  0  0
   -0.1172   -0.4576   -1.8722 H   0  0  0  0  0  0  0  0  0  0  0  0
    1.3766    0.1808   -1.1694 H   0  0  0  0  0  0  0  0  0  0  0  0
    1.1773   -1.9647   -1.0519 C   0  0  0  0  0  0  0  0  0  0  0  0
    2.0401   -1.9947   -0.3822 H   0  0  0  0  0  0  0  0  0  0  0  0
    0.4271   -2.6601   -0.6663 H   0  0  0  0  0  0  0  0  0  0  0  0
    1.6217   -2.4225   -2.4489 C   0  0  0  0  0  0  0  0  0  0  0  0
    1.3433   -1.6954   -3.4289 O   0  5  0  0  0  0  0  0  0  0  0  0
    2.2627   -3.4952   -2.5102 O   0  0  0  0  0  0  0  0  0  0  0  0
   -0.3954    1.2887    0.4814 C   0  0  0  0  0  0  0  0  0  0  0  0
   -1.2761    1.9015   -0.1256 O   0  0  0  0  0  0  0  0  0  0  0  0
    0.4051    1.8919    1.3699 N   0  0  0  0  0  0  0  0  0  0  0  0
    1.1380    1.3380    1.7875 H   0  0  0  0  0  0  0  0  0  0  0  0
    0.3573    3.3183    1.6807 C   0  0  0  0  0  0  0  0  0  0  0  0
   -0.6670    3.6090    1.9198 H   0  0  0  0  0  0  0  0  0  0  0  0
    1.0066    3.5397    2.5289 H   0  0  0  0  0  0  0  0  0  0  0  0
    0.6896    3.8897    0.8118 H   0  0  0  0  0  0  0  0  0  0  0  0
  5  6  2  0  0  0  0
  5  7  1  0  0  0  0
  2  3  1  0  0  0  0
  2  4  1  0  0  0  0
  2  5  1  0  0  0  0
  1  2  1  0  0  0  0
 20 21  2  0  0  0  0
 20 22  1  0  0  0  0
 17 18  1  0  0  0  0
 17 19  2  0  0  0  0
 14 15  1  0  0  0  0
 14 16  1  0  0  0  0
 14 17  1  0  0  0  0
 11 12  1  0  0  0  0
 11 13  1  0  0  0  0
 11 14  1  0  0  0  0
  9 10  1  0  0  0  0
  9 11  1  0  0  0  0
  9 20  1  0  0  0  0
  7  8  1  0  0  0  0
  7  9  1  0  0  0  0
 24 25  1  0  0  0  0
 24 26  1  0  0  0  0
 24 27  1  0  0  0  0
 22 23  1  0  0  0  0
 22 24  1  0  0  0  0
M  CHG  1  18  -1
M  END
$$$$
default_name
  -OEChem-02102213163D

 27 26  0     1  0  0  0  0  0999 V2000
   -3.2406   -3.5400    1.2326 H   0  0  0  0  0  0  0  0  0  0  0  0
   -3.1436   -2.6190    0.6606 C   0  0  0  0  0  0  0  0  0  0  0  0
   -3.8786   -1.8920    0.9996 H   0  0  0  0  0  0  0  0  0  0  0  0
   -3.2846   -2.8280   -0.3984 H   0  0  0  0  0  0  0  0  0  0  0  0
   -1.7586   -2.0580    0.8686 C   0  0  0  0  0  0  0  0  0  0  0  0
   -0.9666   -2.6340    1.6026 O   0  0  0  0  0  0  0  0  0  0  0  0
   -1.4866   -0.9220    0.2366 N   0  0  0  0  0  0  0  0  0  0  0  0
   -2.2166   -0.4790   -0.2994 H   0  0  0  0  0  0  0  0  0  0  0  0
   -0.1956   -0.2250    0.2596 C   0  0  1  0  0  0  0  0  0  0  0  0
    0.3927   -0.6026    1.0964 H   0  0  0  0  0  0  0  0  0  0  0  0
    0.5767   -0.5489   -1.0351 C   0  0  0  0  0  0  0  0  0  0  0  0
   -0.0225   -0.2038   -1.8792 H   0  0  0  0  0  0  0  0  0  0  0  0
    1.5214   -0.0031   -1.0371 H   0  0  0  0  0  0  0  0  0  0  0  0
    0.8605   -2.0491   -1.2197 C   0  0  0  0  0  0  0  0  0  0  0  0
    1.4398   -2.4107   -0.3667 H   0  0  0  0  0  0  0  0  0  0  0  0
   -0.0949   -2.5805   -1.2278 H   0  0  0  0  0  0  0  0  0  0  0  0
    1.6297   -2.3706   -2.5096 C   0  0  0  0  0  0  0  0  0  0  0  0
    1.8283   -1.4455   -3.3290 O   0  5  0  0  0  0  0  0  0  0  0  0
    2.0326   -3.5474   -2.6441 O   0  0  0  0  0  0  0  0  0  0  0  0
   -0.3954    1.2887    0.4814 C   0  0  0  0  0  0  0  0  0  0  0  0
   -1.2761    1.9015   -0.1256 O   0  0  0  0  0  0  0  0  0  0  0  0
    0.4051    1.8919    1.3699 N   0  0  0  0  0  0  0  0  0  0  0  0
    1.1380    1.3380    1.7875 H   0  0  0  0  0  0  0  0  0  0  0  0
    0.3573    3.3183    1.6807 C   0  0  0  0  0  0  0  0  0  0  0  0
   -0.6670    3.6090    1.9198 H   0  0  0  0  0  0  0  0  0  0  0  0
    1.0066    3.5397    2.5289 H   0  0  0  0  0  0  0  0  0  0  0  0
    0.6896    3.8897    0.8118 H   0  0  0  0  0  0  0  0  0  0  0  0
  5  6  2  0  0  0  0
  5  7  1  0  0  0  0
  2  3  1  0  0  0  0
  2  4  1  0  0  0  0
  2  5  1  0  0  0  0
  1  2  1  0  0  0  0
 20 21  2  0  0  0  0
 20 22  1  0  0  0  0
 17 18  1  0  0  0  0
 17 19  2  0  0  0  0
 14 15  1  0  0  0  0
 14 16  1  0  0  0  0
 14 17  1  0  0  0  0
 11 12  1  0  0  0  0
 11 13  1  0  0  0  0
 11 14  1  0  0  0  0
  9 10  1  0  0  0  0
  9 11  1  0  0  0  0
  9 20  1  0  0  0  0
  7  8  1  0  0  0  0
  7  9  1  0  0  0  0
 24 25  1  0  0  0  0
 24 26  1  0  0  0  0
 24 27  1  0  0  0  0
 22 23  1  0  0  0  0
 22 24  1  0  0  0  0
M  CHG  1  18  -1
M  END
$$$$
default_name
  -OEChem-02102213163D

 27 26  0     1  0  0  0  0  0999 V2000
   -3.2406   -3.5400    1.2326 H   0  0  0  0  0  0  0  0  0  0  0  0
   -3.1436   -2.6190    0.6606 C   0  0  0  0  0  0  0  0  0  0  0  0
   -3.8786   -1.8920    0.9996 H   0  0  0  0  0  0  0  0  0  0  0  0
   -3.2846   -2.8280   -0.3984 H   0  0  0  0  0  0  0  0  0  0  0  0
   -1.7586   -2.0580    0.8686 C   0  0  0  0  0  0  0  0  0  0  0  0
   -0.9666   -2.6340    1.6026 O   0  0  0  0  0  0  0  0  0  0  0  0
   -1.4866   -0.9220    0.2366 N   0  0  0  0  0  0  0  0  0  0  0  0
   -2.2166   -0.4790   -0.2994 H   0  0  0  0  0  0  0  0  0  0  0  0
   -0.1956   -0.2250    0.2596 C   0  0  1  0  0  0  0  0  0  0  0  0
    0.3927   -0.6026    1.0964 H   0  0  0  0  0  0  0  0  0  0  0  0
    0.5767   -0.5489   -1.0351 C   0  0  0  0  0  0  0  0  0  0  0  0
   -0.0225   -0.2038   -1.8792 H   0  0  0  0  0  0  0  0  0  0  0  0
    1.5214   -0.0031   -1.0371 H   0  0  0  0  0  0  0  0  0  0  0  0
    0.8605   -2.0491   -1.2197 C   0  0  0  0  0  0  0  0  0  0  0  0
    1.1958   -2.4690   -0.2683 H   0  0  0  0  0  0  0  0  0  0  0  0
   -0.0746   -2.5437   -1.4956 H   0  0  0  0  0  0  0  0  0  0  0  0
    1.9230   -2.3422   -2.2893 C   0  0  0  0  0  0  0  0  0  0  0  0
    2.3456   -1.3902   -2.9833 O   0  5  0  0  0  0  0  0  0  0  0  0
    2.3174   -3.5261   -2.3787 O   0  0  0  0  0  0  0  0  0  0  0  0
   -0.3954    1.2887    0.4814 C   0  0  0  0  0  0  0  0  0  0  0  0
   -1.2761    1.9015   -0.1256 O   0  0  0  0  0  0  0  0  0  0  0  0
    0.4051    1.8919    1.3699 N   0  0  0  0  0  0  0  0  0  0  0  0
    1.1380    1.3380    1.7875 H   0  0  0  0  0  0  0  0  0  0  0  0
    0.3573    3.3183    1.6807 C   0  0  0  0  0  0  0  0  0  0  0  0
   -0.6670    3.6090    1.9198 H   0  0  0  0  0  0  0  0  0  0  0  0
    1.0066    3.5397    2.5289 H   0  0  0  0  0  0  0  0  0  0  0  0
    0.6896    3.8897    0.8118 H   0  0  0  0  0  0  0  0  0  0  0  0
  5  6  2  0  0  0  0
  5  7  1  0  0  0  0
  2  3  1  0  0  0  0
  2  4  1  0  0  0  0
  2  5  1  0  0  0  0
  1  2  1  0  0  0  0
 20 21  2  0  0  0  0
 20 22  1  0  0  0  0
 17 18  1  0  0  0  0
 17 19  2  0  0  0  0
 14 15  1  0  0  0  0
 14 16  1  0  0  0  0
 14 17  1  0  0  0  0
 11 12  1  0  0  0  0
 11 13  1  0  0  0  0
 11 14  1  0  0  0  0
  9 10  1  0  0  0  0
  9 11  1  0  0  0  0
  9 20  1  0  0  0  0
  7  8  1  0  0  0  0
  7  9  1  0  0  0  0
 24 25  1  0  0  0  0
 24 26  1  0  0  0  0
 24 27  1  0  0  0  0
 22 23  1  0  0  0  0
 22 24  1  0  0  0  0
M  CHG  1  18  -1
M  END
$$$$
default_name
  -OEChem-02102213163D

 27 26  0     1  0  0  0  0  0999 V2000
   -3.2406   -3.5400    1.2326 H   0  0  0  0  0  0  0  0  0  0  0  0
   -3.1436   -2.6190    0.6606 C   0  0  0  0  0  0  0  0  0  0  0  0
   -3.8786   -1.8920    0.9996 H   0  0  0  0  0  0  0  0  0  0  0  0
   -3.2846   -2.8280   -0.3984 H   0  0  0  0  0  0  0  0  0  0  0  0
   -1.7586   -2.0580    0.8686 C   0  0  0  0  0  0  0  0  0  0  0  0
   -0.9666   -2.6340    1.6026 O   0  0  0  0  0  0  0  0  0  0  0  0
   -1.4866   -0.9220    0.2366 N   0  0  0  0  0  0  0  0  0  0  0  0
   -2.2166   -0.4790   -0.2994 H   0  0  0  0  0  0  0  0  0  0  0  0
   -0.1956   -0.2250    0.2596 C   0  0  1  0  0  0  0  0  0  0  0  0
    0.3927   -0.6026    1.0964 H   0  0  0  0  0  0  0  0  0  0  0  0
    0.5767   -0.5489   -1.0351 C   0  0  0  0  0  0  0  0  0  0  0  0
   -0.0225   -0.2038   -1.8792 H   0  0  0  0  0  0  0  0  0  0  0  0
    1.5214   -0.0031   -1.0371 H   0  0  0  0  0  0  0  0  0  0  0  0
    0.8605   -2.0491   -1.2197 C   0  0  0  0  0  0  0  0  0  0  0  0
    0.9333   -2.5224   -0.2376 H   0  0  0  0  0  0  0  0  0  0  0  0
    0.0137   -2.4961   -1.7473 H   0  0  0  0  0  0  0  0  0  0  0  0
    2.1516   -2.3344   -2.0011 C   0  0  0  0  0  0  0  0  0  0  0  0
    2.7598   -1.3693   -2.5161 O   0  5  0  0  0  0  0  0  0  0  0  0
    2.5261   -3.5272   -2.0495 O   0  0  0  0  0  0  0  0  0  0  0  0
   -0.3954    1.2887    0.4814 C   0  0  0  0  0  0  0  0  0  0  0  0
   -1.2761    1.9015   -0.1256 O   0  0  0  0  0  0  0  0  0  0  0  0
    0.4051    1.8919    1.3699 N   0  0  0  0  0  0  0  0  0  0  0  0
    1.1380    1.3380    1.7875 H   0  0  0  0  0  0  0  0  0  0  0  0
    0.3573    3.3183    1.6807 C   0  0  0  0  0  0  0  0  0  0  0  0
   -0.6670    3.6090    1.9198 H   0  0  0  0  0  0  0  0  0  0  0  0
    1.0066    3.5397    2.5289 H   0  0  0  0  0  0  0  0  0  0  0  0
    0.6896    3.8897    0.8118 H   0  0  0  0  0  0  0  0  0  0  0  0
  5  6  2  0  0  0  0
  5  7  1  0  0  0  0
  2  3  1  0  0  0  0
  2  4  1  0  0  0  0
  2  5  1  0  0  0  0
  1  2  1  0  0  0  0
 20 21  2  0  0  0  0
 20 22  1  0  0  0  0
 17 18  1  0  0  0  0
 17 19  2  0  0  0  0
 14 15  1  0  0  0  0
 14 16  1  0  0  0  0
 14 17  1  0  0  0  0
 11 12  1  0  0  0  0
 11 13  1  0  0  0  0
 11 14  1  0  0  0  0
  9 10  1  0  0  0  0
  9 11  1  0  0  0  0
  9 20  1  0  0  0  0
  7  8  1  0  0  0  0
  7  9  1  0  0  0  0
 24 25  1  0  0  0  0
 24 26  1  0  0  0  0
 24 27  1  0  0  0  0
 22 23  1  0  0  0  0
 22 24  1  0  0  0  0
M  CHG  1  18  -1
M  END
$$$$
default_name
  -OEChem-02102213163D

 27 26  0     1  0  0  0  0  0999 V2000
   -3.2406   -3.5400    1.2326 H   0  0  0  0  0  0  0  0  0  0  0  0
   -3.1436   -2.6190    0.6606 C   0  0  0  0  0  0  0  0  0  0  0  0
   -3.8786   -1.8920    0.9996 H   0  0  0  0  0  0  0  0  0  0  0  0
   -3.2846   -2.8280   -0.3984 H   0  0  0  0  0  0  0  0  0  0  0  0
   -1.7586   -2.0580    0.8686 C   0  0  0  0  0  0  0  0  0  0  0  0
   -0.9666   -2.6340    1.6026 O   0  0  0  0  0  0  0  0  0  0  0  0
   -1.4866   -0.9220    0.2366 N   0  0  0  0  0  0  0  0  0  0  0  0
   -2.2166   -0.4790   -0.2994 H   0  0  0  0  0  0  0  0  0  0  0  0
   -0.1956   -0.2250    0.2596 C   0  0  1  0  0  0  0  0  0  0  0  0
    0.3927   -0.6026    1.0964 H   0  0  0  0  0  0  0  0  0  0  0  0
    0.5767   -0.5489   -1.0351 C   0  0  0  0  0  0  0  0  0  0  0  0
   -0.0225   -0.2038   -1.8792 H   0  0  0  0  0  0  0  0  0  0  0  0
    1.5214   -0.0031   -1.0371 H   0  0  0  0  0  0  0  0  0  0  0  0
    0.8605   -2.0491   -1.2197 C   0  0  0  0  0  0  0  0  0  0  0  0
    0.6704   -2.5674   -0.2767 H   0  0  0  0  0  0  0  0  0  0  0  0
    0.1640   -2.4407   -1.9658 H   0  0  0  0  0  0  0  0  0  0  0  0
    2.2999   -2.3477   -1.6646 C   0  0  0  0  0  0  0  0  0  0  0  0
    3.0425   -1.3843   -1.9593 O   0  5  0  0  0  0  0  0  0  0  0  0
    2.6446   -3.5503   -1.6788 O   0  0  0  0  0  0  0  0  0  0  0  0
   -0.3954    1.2887    0.4814 C   0  0  0  0  0  0  0  0  0  0  0  0
   -1.2761    1.9015   -0.1256 O   0  0  0  0  0  0  0  0  0  0  0  0
    0.4051    1.8919    1.3699 N   0  0  0  0  0  0  0  0  0  0  0  0
    1.1380    1.3380    1.7875 H   0  0  0  0  0  0  0  0  0  0  0  0
    0.3573    3.3183    1.6807 C   0  0  0  0  0  0  0  0  0  0  0  0
   -0.6670    3.6090    1.9198 H   0  0  0  0  0  0  0  0  0  0  0  0
    1.0066    3.5397    2.5289 H   0  0  0  0  0  0  0  0  0  0  0  0
    0.6896    3.8897    0.8118 H   0  0  0  0  0  0  0  0  0  0  0  0
  5  6  2  0  0  0  0
  5  7  1  0  0  0  0
  2  3  1  0  0  0  0
  2  4  1  0  0  0  0
  2  5  1  0  0  0  0
  1  2  1  0  0  0  0
 20 21  2  0  0  0  0
 20 22  1  0  0  0  0
 17 18  1  0  0  0  0
 17 19  2  0  0  0  0
 14 15  1  0  0  0  0
 14 16  1  0  0  0  0
 14 17  1  0  0  0  0
 11 12  1  0  0  0  0
 11 13  1  0  0  0  0
 11 14  1  0  0  0  0
  9 10  1  0  0  0  0
  9 11  1  0  0  0  0
  9 20  1  0  0  0  0
  7  8  1  0  0  0  0
  7  9  1  0  0  0  0
 24 25  1  0  0  0  0
 24 26  1  0  0  0  0
 24 27  1  0  0  0  0
 22 23  1  0  0  0  0
 22 24  1  0  0  0  0
M  CHG  1  18  -1
M  END
$$$$
default_name
  -OEChem-02102213163D

 27 26  0     1  0  0  0  0  0999 V2000
   -3.2406   -3.5400    1.2326 H   0  0  0  0  0  0  0  0  0  0  0  0
   -3.1436   -2.6190    0.6606 C   0  0  0  0  0  0  0  0  0  0  0  0
   -3.8786   -1.8920    0.9996 H   0  0  0  0  0  0  0  0  0  0  0  0
   -3.2846   -2.8280   -0.3984 H   0  0  0  0  0  0  0  0  0  0  0  0
   -1.7586   -2.0580    0.8686 C   0  0  0  0  0  0  0  0  0  0  0  0
   -0.9666   -2.6340    1.6026 O   0  0  0  0  0  0  0  0  0  0  0  0
   -1.4866   -0.9220    0.2366 N   0  0  0  0  0  0  0  0  0  0  0  0
   -2.2166   -0.4790   -0.2994 H   0  0  0  0  0  0  0  0  0  0  0  0
   -0.1956   -0.2250    0.2596 C   0  0  1  0  0  0  0  0  0  0  0  0
    0.3927   -0.6026    1.0964 H   0  0  0  0  0  0  0  0  0  0  0  0
    0.5767   -0.5489   -1.0351 C   0  0  0  0  0  0  0  0  0  0  0  0
   -0.0225   -0.2038   -1.8792 H   0  0  0  0  0  0  0  0  0  0  0  0
    1.5214   -0.0031   -1.0371 H   0  0  0  0  0  0  0  0  0  0  0  0
    0.8605   -2.0491   -1.2197 C   0  0  0  0  0  0  0  0  0  0  0  0
    0.4250   -2.6007   -0.3830 H   0  0  0  0  0  0  0  0  0  0  0  0
    0.3661   -2.3815   -2.1363 H   0  0  0  0  0  0  0  0  0  0  0  0
    2.3577   -2.3813   -1.3028 C   0  0  0  0  0  0  0  0  0  0  0  0
    3.1745   -1.4342   -1.3508 O   0  5  0  0  0  0  0  0  0  0  0  0
    2.6647   -3.5941   -1.2920 O   0  0  0  0  0  0  0  0  0  0  0  0
   -0.3954    1.2887    0.4814 C   0  0  0  0  0  0  0  0  0  0  0  0
   -1.2761    1.9015   -0.1256 O   0  0  0  0  0  0  0  0  0  0  0  0
    0.4051    1.8919    1.3699 N   0  0  0  0  0  0  0  0  0  0  0  0
    1.1380    1.3380    1.7875 H   0  0  0  0  0  0  0  0  0  0  0  0
    0.3573    3.3183    1.6807 C   0  0  0  0  0  0  0  0  0  0  0  0
   -0.6670    3.6090    1.9198 H   0  0  0  0  0  0  0  0  0  0  0  0
    1.0066    3.5397    2.5289 H   0  0  0  0  0  0  0  0  0  0  0  0
    0.6896    3.8897    0.8118 H   0  0  0  0  0  0  0  0  0  0  0  0
  5  6  2  0  0  0  0
  5  7  1  0  0  0  0
  2  3  1  0  0  0  0
  2  4  1  0  0  0  0
  2  5  1  0  0  0  0
  1  2  1  0  0  0  0
 20 21  2  0  0  0  0
 20 22  1  0  0  0  0
 17 18  1  0  0  0  0
 17 19  2  0  0  0  0
 14 15  1  0  0  0  0
 14 16  1  0  0  0  0
 14 17  1  0  0  0  0
 11 12  1  0  0  0  0
 11 13  1  0  0  0  0
 11 14  1  0  0  0  0
  9 10  1  0  0  0  0
  9 11  1  0  0  0  0
  9 20  1  0  0  0  0
  7  8  1  0  0  0  0
  7  9  1  0  0  0  0
 24 25  1  0  0  0  0
 24 26  1  0  0  0  0
 24 27  1  0  0  0  0
 22 23  1  0  0  0  0
 22 24  1  0  0  0  0
M  CHG  1  18  -1
M  END
$$$$
default_name
  -OEChem-02102213163D

 27 26  0     1  0  0  0  0  0999 V2000
   -3.2406   -3.5400    1.2326 H   0  0  0  0  0  0  0  0  0  0  0  0
   -3.1436   -2.6190    0.6606 C   0  0  0  0  0  0  0  0  0  0  0  0
   -3.8786   -1.8920    0.9996 H   0  0  0  0  0  0  0  0  0  0  0  0
   -3.2846   -2.8280   -0.3984 H   0  0  0  0  0  0  0  0  0  0  0  0
   -1.7586   -2.0580    0.8686 C   0  0  0  0  0  0  0  0  0  0  0  0
   -0.9666   -2.6340    1.6026 O   0  0  0  0  0  0  0  0  0  0  0  0
   -1.4866   -0.9220    0.2366 N   0  0  0  0  0  0  0  0  0  0  0  0
   -2.2166   -0.4790   -0.2994 H   0  0  0  0  0  0  0  0  0  0  0  0
   -0.1956   -0.2250    0.2596 C   0  0  1  0  0  0  0  0  0  0  0  0
    0.3927   -0.6026    1.0964 H   0  0  0  0  0  0  0  0  0  0  0  0
    0.5767   -0.5489   -1.0351 C   0  0  0  0  0  0  0  0  0  0  0  0
   -0.0225   -0.2038   -1.8792 H   0  0  0  0  0  0  0  0  0  0  0  0
    1.5214   -0.0031   -1.0371 H   0  0  0  0  0  0  0  0  0  0  0  0
    0.8605   -2.0491   -1.2197 C   0  0  0  0  0  0  0  0  0  0  0  0
    0.2137   -2.6202   -0.5493 H   0  0  0  0  0  0  0  0  0  0  0  0
    0.6062   -2.3225   -2.2472 H   0  0  0  0  0  0  0  0  0  0  0  0
    2.3212   -2.4328   -0.9403 C   0  0  0  0  0  0  0  0  0  0  0  0
    3.1469   -1.5155   -0.7321 O   0  5  0  0  0  0  0  0  0  0  0  0
    2.5852   -3.6555   -0.9154 O   0  0  0  0  0  0  0  0  0  0  0  0
   -0.3954    1.2887    0.4814 C   0  0  0  0  0  0  0  0  0  0  0  0
   -1.2761    1.9015   -0.1256 O   0  0  0  0  0  0  0  0  0  0  0  0
    0.4051    1.8919    1.3699 N   0  0  0  0  0  0  0  0  0  0  0  0
    1.1380    1.3380    1.7875 H   0  0  0  0  0  0  0  0  0  0  0  0
    0.3573    3.3183    1.6807 C   0  0  0  0  0  0  0  0  0  0  0  0
   -0.6670    3.6090    1.9198 H   0  0  0  0  0  0  0  0  0  0  0  0
    1.0066    3.5397    2.5289 H   0  0  0  0  0  0  0  0  0  0  0  0
    0.6896    3.8897    0.8118 H   0  0  0  0  0  0  0  0  0  0  0  0
  5  6  2  0  0  0  0
  5  7  1  0  0  0  0
  2  3  1  0  0  0  0
  2  4  1  0  0  0  0
  2  5  1  0  0  0  0
  1  2  1  0  0  0  0
 20 21  2  0  0  0  0
 20 22  1  0  0  0  0
 17 18  1  0  0  0  0
 17 19  2  0  0  0  0
 14 15  1  0  0  0  0
 14 16  1  0  0  0  0
 14 17  1  0  0  0  0
 11 12  1  0  0  0  0
 11 13  1  0  0  0  0
 11 14  1  0  0  0  0
  9 10  1  0  0  0  0
  9 11  1  0  0  0  0
  9 20  1  0  0  0  0
  7  8  1  0  0  0  0
  7  9  1  0  0  0  0
 24 25  1  0  0  0  0
 24 26  1  0  0  0  0
 24 27  1  0  0  0  0
 22 23  1  0  0  0  0
 22 24  1  0  0  0  0
M  CHG  1  18  -1
M  END
$$$$
default_name
  -OEChem-02102213163D

 27 26  0     1  0  0  0  0  0999 V2000
   -3.2406   -3.5400    1.2326 H   0  0  0  0  0  0  0  0  0  0  0  0
   -3.1436   -2.6190    0.6606 C   0  0  0  0  0  0  0  0  0  0  0  0
   -3.8786   -1.8920    0.9996 H   0  0  0  0  0  0  0  0  0  0  0  0
   -3.2846   -2.8280   -0.3984 H   0  0  0  0  0  0  0  0  0  0  0  0
   -1.7586   -2.0580    0.8686 C   0  0  0  0  0  0  0  0  0  0  0  0
   -0.9666   -2.6340    1.6026 O   0  0  0  0  0  0  0  0  0  0  0  0
   -1.4866   -0.9220    0.2366 N   0  0  0  0  0  0  0  0  0  0  0  0
   -2.2166   -0.4790   -0.2994 H   0  0  0  0  0  0  0  0  0  0  0  0
   -0.1956   -0.2250    0.2596 C   0  0  1  0  0  0  0  0  0  0  0  0
    0.3927   -0.6026    1.0964 H   0  0  0  0  0  0  0  0  0  0  0  0
    0.5767   -0.5489   -1.0351 C   0  0  0  0  0  0  0  0  0  0  0  0
   -0.0225   -0.2038   -1.8792 H   0  0  0  0  0  0  0  0  0  0  0  0
    1.5214   -0.0031   -1.0371 H   0  0  0  0  0  0  0  0  0  0  0  0
    0.8605   -2.0491   -1.2197 C   0  0  0  0  0  0  0  0  0  0  0  0
    0.0510   -2.6246   -0.7642 H   0  0  0  0  0  0  0  0  0  0  0  0
    0.8680   -2.2676   -2.2908 H   0  0  0  0  0  0  0  0  0  0  0  0
    2.1928   -2.4987   -0.6019 C   0  0  0  0  0  0  0  0  0  0  0  0
    2.9615   -1.6228   -0.1454 O   0  5  0  0  0  0  0  0  0  0  0  0
    2.4113   -3.7303   -0.5746 O   0  0  0  0  0  0  0  0  0  0  0  0
   -0.3954    1.2887    0.4814 C   0  0  0  0  0  0  0  0  0  0  0  0
   -1.2761    1.9015   -0.1256 O   0  0  0  0  0  0  0  0  0  0  0  0
    0.4051    1.8919    1.3699 N   0  0  0  0  0  0  0  0  0  0  0  0
    1.1380    1.3380    1.7875 H   0  0  0  0  0  0  0  0  0  0  0  0
    0.3573    3.3183    1.6807 C   0  0  0  0  0  0  0  0  0  0  0  0
   -0.6670    3.6090    1.9198 H   0  0  0  0  0  0  0  0  0  0  0  0
    1.0066    3.5397    2.5289 H   0  0  0  0  0  0  0  0  0  0  0  0
    0.6896    3.8897    0.8118 H   0  0  0  0  0  0  0  0  0  0  0  0
  5  6  2  0  0  0  0
  5  7  1  0  0  0  0
  2  3  1  0  0  0  0
  2  4  1  0  0  0  0
  2  5  1  0  0  0  0
  1  2  1  0  0  0  0
 20 21  2  0  0  0  0
 20 22  1  0  0  0  0
 17 18  1  0  0  0  0
 17 19  2  0  0  0  0
 14 15  1  0  0  0  0
 14 16  1  0  0  0  0
 14 17  1  0  0  0  0
 11 12  1  0  0  0  0
 11 13  1  0  0  0  0
 11 14  1  0  0  0  0
  9 10  1  0  0  0  0
  9 11  1  0  0  0  0
  9 20  1  0  0  0  0
  7  8  1  0  0  0  0
  7  9  1  0  0  0  0
 24 25  1  0  0  0  0
 24 26  1  0  0  0  0
 24 27  1  0  0  0  0
 22 23  1  0  0  0  0
 22 24  1  0  0  0  0
M  CHG  1  18  -1
M  END
$$$$
default_name
  -OEChem-02102213163D

 27 26  0     1  0  0  0  0  0999 V2000
   -3.2406   -3.5400    1.2326 H   0  0  0  0  0  0  0  0  0  0  0  0
   -3.1436   -2.6190    0.6606 C   0  0  0  0  0  0  0  0  0  0  0  0
   -3.8786   -1.8920    0.9996 H   0  0  0  0  0  0  0  0  0  0  0  0
   -3.2846   -2.8280   -0.3984 H   0  0  0  0  0  0  0  0  0  0  0  0
   -1.7586   -2.0580    0.8686 C   0  0  0  0  0  0  0  0  0  0  0  0
   -0.9666   -2.6340    1.6026 O   0  0  0  0  0  0  0  0  0  0  0  0
   -1.4866   -0.9220    0.2366 N   0  0  0  0  0  0  0  0  0  0  0  0
   -2.2166   -0.4790   -0.2994 H   0  0  0  0  0  0  0  0  0  0  0  0
   -0.1956   -0.2250    0.2596 C   0  0  1  0  0  0  0  0  0  0  0  0
    0.3927   -0.6026    1.0964 H   0  0  0  0  0  0  0  0  0  0  0  0
    0.5767   -0.5489   -1.0351 C   0  0  0  0  0  0  0  0  0  0  0  0
   -0.0225   -0.2038   -1.8792 H   0  0  0  0  0  0  0  0  0  0  0  0
    1.5214   -0.0031   -1.0371 H   0  0  0  0  0  0  0  0  0  0  0  0
    0.8605   -2.0491   -1.2197 C   0  0  0  0  0  0  0  0  0  0  0  0
   -0.0521   -2.6134   -1.0130 H   0  0  0  0  0  0  0  0  0  0  0  0
    1.1335   -2.2207   -2.2643 H   0  0  0  0  0  0  0  0  0  0  0  0
    1.9813   -2.5746   -0.3105 C   0  0  0  0  0  0  0  0  0  0  0  0
    2.6309   -1.7487    0.3695 O   0  5  0  0  0  0  0  0  0  0  0  0
    2.1550   -3.8134   -0.2929 O   0  0  0  0  0  0  0  0  0  0  0  0
   -0.3954    1.2887    0.4814 C   0  0  0  0  0  0  0  0  0  0  0  0
   -1.2761    1.9015   -0.1256 O   0  0  0  0  0  0  0  0  0  0  0  0
    0.4051    1.8919    1.3699 N   0  0  0  0  0  0  0  0  0  0  0  0
    1.1380    1.3380    1.7875 H   0  0  0  0  0  0  0  0  0  0  0  0
    0.3573    3.3183    1.6807 C   0  0  0  0  0  0  0  0  0  0  0  0
   -0.6670    3.6090    1.9198 H   0  0  0  0  0  0  0  0  0  0  0  0
    1.0066    3.5397    2.5289 H   0  0  0  0  0  0  0  0  0  0  0  0
    0.6896    3.8897    0.8118 H   0  0  0  0  0  0  0  0  0  0  0  0
  5  6  2  0  0  0  0
  5  7  1  0  0  0  0
  2  3  1  0  0  0  0
  2  4  1  0  0  0  0
  2  5  1  0  0  0  0
  1  2  1  0  0  0  0
 20 21  2  0  0  0  0
 20 22  1  0  0  0  0
 17 18  1  0  0  0  0
 17 19  2  0  0  0  0
 14 15  1  0  0  0  0
 14 16  1  0  0  0  0
 14 17  1  0  0  0  0
 11 12  1  0  0  0  0
 11 13  1  0  0  0  0
 11 14  1  0  0  0  0
  9 10  1  0  0  0  0
  9 11  1  0  0  0  0
  9 20  1  0  0  0  0
  7  8  1  0  0  0  0
  7  9  1  0  0  0  0
 24 25  1  0  0  0  0
 24 26  1  0  0  0  0
 24 27  1  0  0  0  0
 22 23  1  0  0  0  0
 22 24  1  0  0  0  0
M  CHG  1  18  -1
M  END
$$$$
default_name
  -OEChem-02102213163D

 27 26  0     1  0  0  0  0  0999 V2000
   -3.2406   -3.5400    1.2326 H   0  0  0  0  0  0  0  0  0  0  0  0
   -3.1436   -2.6190    0.6606 C   0  0  0  0  0  0  0  0  0  0  0  0
   -3.8786   -1.8920    0.9996 H   0  0  0  0  0  0  0  0  0  0  0  0
   -3.2846   -2.8280   -0.3984 H   0  0  0  0  0  0  0  0  0  0  0  0
   -1.7586   -2.0580    0.8686 C   0  0  0  0  0  0  0  0  0  0  0  0
   -0.9666   -2.6340    1.6026 O   0  0  0  0  0  0  0  0  0  0  0  0
   -1.4866   -0.9220    0.2366 N   0  0  0  0  0  0  0  0  0  0  0  0
   -2.2166   -0.4790   -0.2994 H   0  0  0  0  0  0  0  0  0  0  0  0
   -0.1956   -0.2250    0.2596 C   0  0  1  0  0  0  0  0  0  0  0  0
    0.3927   -0.6026    1.0964 H   0  0  0  0  0  0  0  0  0  0  0  0
    0.5767   -0.5489   -1.0351 C   0  0  0  0  0  0  0  0  0  0  0  0
   -0.0225   -0.2038   -1.8792 H   0  0  0  0  0  0  0  0  0  0  0  0
    1.5214   -0.0031   -1.0371 H   0  0  0  0  0  0  0  0  0  0  0  0
    0.8605   -2.0491   -1.2197 C   0  0  0  0  0  0  0  0  0  0  0  0
   -0.0884   -2.5876   -1.2789 H   0  0  0  0  0  0  0  0  0  0  0  0
    1.3848   -2.1848   -2.1694 H   0  0  0  0  0  0  0  0  0  0  0  0
    1.7011   -2.6552   -0.0861 C   0  0  0  0  0  0  0  0  0  0  0  0
    2.1777   -1.8845    0.7773 O   0  5  0  0  0  0  0  0  0  0  0  0
    1.8337   -3.8992   -0.0894 O   0  0  0  0  0  0  0  0  0  0  0  0
   -0.3954    1.2887    0.4814 C   0  0  0  0  0  0  0  0  0  0  0  0
   -1.2761    1.9015   -0.1256 O   0  0  0  0  0  0  0  0  0  0  0  0
    0.4051    1.8919    1.3699 N   0  0  0  0  0  0  0  0  0  0  0  0
    1.1380    1.3380    1.7875 H   0  0  0  0  0  0  0  0  0  0  0  0
    0.3573    3.3183    1.6807 C   0  0  0  0  0  0  0  0  0  0  0  0
   -0.6670    3.6090    1.9198 H   0  0  0  0  0  0  0  0  0  0  0  0
    1.0066    3.5397    2.5289 H   0  0  0  0  0  0  0  0  0  0  0  0
    0.6896    3.8897    0.8118 H   0  0  0  0  0  0  0  0  0  0  0  0
  5  6  2  0  0  0  0
  5  7  1  0  0  0  0
  2  3  1  0  0  0  0
  2  4  1  0  0  0  0
  2  5  1  0  0  0  0
  1  2  1  0  0  0  0
 20 21  2  0  0  0  0
 20 22  1  0  0  0  0
 17 18  1  0  0  0  0
 17 19  2  0  0  0  0
 14 15  1  0  0  0  0
 14 16  1  0  0  0  0
 14 17  1  0  0  0  0
 11 12  1  0  0  0  0
 11 13  1  0  0  0  0
 11 14  1  0  0  0  0
  9 10  1  0  0  0  0
  9 11  1  0  0  0  0
  9 20  1  0  0  0  0
  7  8  1  0  0  0  0
  7  9  1  0  0  0  0
 24 25  1  0  0  0  0
 24 26  1  0  0  0  0
 24 27  1  0  0  0  0
 22 23  1  0  0  0  0
 22 24  1  0  0  0  0
M  CHG  1  18  -1
M  END
$$$$
default_name
  -OEChem-02102213163D

 27 26  0     1  0  0  0  0  0999 V2000
   -3.2406   -3.5400    1.2326 H   0  0  0  0  0  0  0  0  0  0  0  0
   -3.1436   -2.6190    0.6606 C   0  0  0  0  0  0  0  0  0  0  0  0
   -3.8786   -1.8920    0.9996 H   0  0  0  0  0  0  0  0  0  0  0  0
   -3.2846   -2.8280   -0.3984 H   0  0  0  0  0  0  0  0  0  0  0  0
   -1.7586   -2.0580    0.8686 C   0  0  0  0  0  0  0  0  0  0  0  0
   -0.9666   -2.6340    1.6026 O   0  0  0  0  0  0  0  0  0  0  0  0
   -1.4866   -0.9220    0.2366 N   0  0  0  0  0  0  0  0  0  0  0  0
   -2.2166   -0.4790   -0.2994 H   0  0  0  0  0  0  0  0  0  0  0  0
   -0.1956   -0.2250    0.2596 C   0  0  1  0  0  0  0  0  0  0  0  0
    0.3927   -0.6026    1.0964 H   0  0  0  0  0  0  0  0  0  0  0  0
    0.5767   -0.5489   -1.0351 C   0  0  0  0  0  0  0  0  0  0  0  0
   -0.0225   -0.2038   -1.8792 H   0  0  0  0  0  0  0  0  0  0  0  0
    1.5214   -0.0031   -1.0371 H   0  0  0  0  0  0  0  0  0  0  0  0
    0.8605   -2.0491   -1.2197 C   0  0  0  0  0  0  0  0  0  0  0  0
   -0.0556   -2.5488   -1.5436 H   0  0  0  0  0  0  0  0  0  0  0  0
    1.6046   -2.1625   -2.0125 H   0  0  0  0  0  0  0  0  0  0  0  0
    1.3713   -2.7351    0.0561 C   0  0  0  0  0  0  0  0  0  0  0  0
    1.6328   -2.0212    1.0503 O   0  5  0  0  0  0  0  0  0  0  0  0
    1.4693   -3.9818    0.0218 O   0  0  0  0  0  0  0  0  0  0  0  0
   -0.3954    1.2887    0.4814 C   0  0  0  0  0  0  0  0  0  0  0  0
   -1.2761    1.9015   -0.1256 O   0  0  0  0  0  0  0  0  0  0  0  0
    0.4051    1.8919    1.3699 N   0  0  0  0  0  0  0  0  0  0  0  0
    1.1380    1.3380    1.7875 H   0  0  0  0  0  0  0  0  0  0  0  0
    0.3573    3.3183    1.6807 C   0  0  0  0  0  0  0  0  0  0  0  0
   -0.6670    3.6090    1.9198 H   0  0  0  0  0  0  0  0  0  0  0  0
    1.0066    3.5397    2.5289 H   0  0  0  0  0  0  0  0  0  0  0  0
    0.6896    3.8897    0.8118 H   0  0  0  0  0  0  0  0  0  0  0  0
  5  6  2  0  0  0  0
  5  7  1  0  0  0  0
  2  3  1  0  0  0  0
  2  4  1  0  0  0  0
  2  5  1  0  0  0  0
  1  2  1  0  0  0  0
 20 21  2  0  0  0  0
 20 22  1  0  0  0  0
 17 18  1  0  0  0  0
 17 19  2  0  0  0  0
 14 15  1  0  0  0  0
 14 16  1  0  0  0  0
 14 17  1  0  0  0  0
 11 12  1  0  0  0  0
 11 13  1  0  0  0  0
 11 14  1  0  0  0  0
  9 10  1  0  0  0  0
  9 11  1  0  0  0  0
  9 20  1  0  0  0  0
  7  8  1  0  0  0  0
  7  9  1  0  0  0  0
 24 25  1  0  0  0  0
 24 26  1  0  0  0  0
 24 27  1  0  0  0  0
 22 23  1  0  0  0  0
 22 24  1  0  0  0  0
M  CHG  1  18  -1
M  END
$$$$
default_name
  -OEChem-02102213163D

 27 26  0     1  0  0  0  0  0999 V2000
   -3.2406   -3.5400    1.2326 H   0  0  0  0  0  0  0  0  0  0  0  0
   -3.1436   -2.6190    0.6606 C   0  0  0  0  0  0  0  0  0  0  0  0
   -3.8786   -1.8920    0.9996 H   0  0  0  0  0  0  0  0  0  0  0  0
   -3.2846   -2.8280   -0.3984 H   0  0  0  0  0  0  0  0  0  0  0  0
   -1.7586   -2.0580    0.8686 C   0  0  0  0  0  0  0  0  0  0  0  0
   -0.9666   -2.6340    1.6026 O   0  0  0  0  0  0  0  0  0  0  0  0
   -1.4866   -0.9220    0.2366 N   0  0  0  0  0  0  0  0  0  0  0  0
   -2.2166   -0.4790   -0.2994 H   0  0  0  0  0  0  0  0  0  0  0  0
   -0.1956   -0.2250    0.2596 C   0  0  1  0  0  0  0  0  0  0  0  0
    0.3927   -0.6026    1.0964 H   0  0  0  0  0  0  0  0  0  0  0  0
    0.5767   -0.5489   -1.0351 C   0  0  0  0  0  0  0  0  0  0  0  0
   -0.0225   -0.2038   -1.8792 H   0  0  0  0  0  0  0  0  0  0  0  0
    1.5214   -0.0031   -1.0371 H   0  0  0  0  0  0  0  0  0  0  0  0
    0.8605   -2.0491   -1.2197 C   0  0  0  0  0  0  0  0  0  0  0  0
    0.0441   -2.4998   -1.7892 H   0  0  0  0  0  0  0  0  0  0  0  0
    1.7781   -2.1553   -1.8044 H   0  0  0  0  0  0  0  0  0  0  0  0
    1.0143   -2.8088    0.1063 C   0  0  0  0  0  0  0  0  0  0  0  0
    1.0332   -2.1493    1.1699 O   0  5  0  0  0  0  0  0  0  0  0  0
    1.0867   -4.0556    0.0334 O   0  0  0  0  0  0  0  0  0  0  0  0
   -0.3954    1.2887    0.4814 C   0  0  0  0  0  0  0  0  0  0  0  0
   -1.2761    1.9015   -0.1256 O   0  0  0  0  0  0  0  0  0  0  0  0
    0.4051    1.8919    1.3699 N   0  0  0  0  0  0  0  0  0  0  0  0
    1.1380    1.3380    1.7875 H   0  0  0  0  0  0  0  0  0  0  0  0
    0.3573    3.3183    1.6807 C   0  0  0  0  0  0  0  0  0  0  0  0
   -0.6670    3.6090    1.9198 H   0  0  0  0  0  0  0  0  0  0  0  0
    1.0066    3.5397    2.5289 H   0  0  0  0  0  0  0  0  0  0  0  0
    0.6896    3.8897    0.8118 H   0  0  0  0  0  0  0  0  0  0  0  0
  5  6  2  0  0  0  0
  5  7  1  0  0  0  0
  2  3  1  0  0  0  0
  2  4  1  0  0  0  0
  2  5  1  0  0  0  0
  1  2  1  0  0  0  0
 20 21  2  0  0  0  0
 20 22  1  0  0  0  0
 17 18  1  0  0  0  0
 17 19  2  0  0  0  0
 14 15  1  0  0  0  0
 14 16  1  0  0  0  0
 14 17  1  0  0  0  0
 11 12  1  0  0  0  0
 11 13  1  0  0  0  0
 11 14  1  0  0  0  0
  9 10  1  0  0  0  0
  9 11  1  0  0  0  0
  9 20  1  0  0  0  0
  7  8  1  0  0  0  0
  7  9  1  0  0  0  0
 24 25  1  0  0  0  0
 24 26  1  0  0  0  0
 24 27  1  0  0  0  0
 22 23  1  0  0  0  0
 22 24  1  0  0  0  0
M  CHG  1  18  -1
M  END
$$$$
default_name
  -OEChem-02102213163D

 27 26  0     1  0  0  0  0  0999 V2000
   -3.2406   -3.5400    1.2326 H   0  0  0  0  0  0  0  0  0  0  0  0
   -3.1436   -2.6190    0.6606 C   0  0  0  0  0  0  0  0  0  0  0  0
   -3.8786   -1.8920    0.9996 H   0  0  0  0  0  0  0  0  0  0  0  0
   -3.2846   -2.8280   -0.3984 H   0  0  0  0  0  0  0  0  0  0  0  0
   -1.7586   -2.0580    0.8686 C   0  0  0  0  0  0  0  0  0  0  0  0
   -0.9666   -2.6340    1.6026 O   0  0  0  0  0  0  0  0  0  0  0  0
   -1.4866   -0.9220    0.2366 N   0  0  0  0  0  0  0  0  0  0  0  0
   -2.2166   -0.4790   -0.2994 H   0  0  0  0  0  0  0  0  0  0  0  0
   -0.1956   -0.2250    0.2596 C   0  0  1  0  0  0  0  0  0  0  0  0
    0.3927   -0.6026    1.0964 H   0  0  0  0  0  0  0  0  0  0  0  0
    0.5767   -0.5489   -1.0351 C   0  0  0  0  0  0  0  0  0  0  0  0
   -0.0225   -0.2038   -1.8792 H   0  0  0  0  0  0  0  0  0  0  0  0
    1.5214   -0.0031   -1.0371 H   0  0  0  0  0  0  0  0  0  0  0  0
    0.8605   -2.0491   -1.2197 C   0  0  0  0  0  0  0  0  0  0  0  0
    0.2039   -2.4437   -1.9989 H   0  0  0  0  0  0  0  0  0  0  0  0
    1.8933   -2.1637   -1.5593 H   0  0  0  0  0  0  0  0  0  0  0  0
    0.6545   -2.8713    0.0612 C   0  0  0  0  0  0  0  0  0  0  0  0
    0.4199   -2.2602    1.1280 O   0  5  0  0  0  0  0  0  0  0  0  0
    0.7120   -4.1156   -0.0556 O   0  0  0  0  0  0  0  0  0  0  0  0
   -0.3954    1.2887    0.4814 C   0  0  0  0  0  0  0  0  0  0  0  0
   -1.2761    1.9015   -0.1256 O   0  0  0  0  0  0  0  0  0  0  0  0
    0.4051    1.8919    1.3699 N   0  0  0  0  0  0  0  0  0  0  0  0
    1.1380    1.3380    1.7875 H   0  0  0  0  0  0  0  0  0  0  0  0
    0.3573    3.3183    1.6807 C   0  0  0  0  0  0  0  0  0  0  0  0
   -0.6670    3.6090    1.9198 H   0  0  0  0  0  0  0  0  0  0  0  0
    1.0066    3.5397    2.5289 H   0  0  0  0  0  0  0  0  0  0  0  0
    0.6896    3.8897    0.8118 H   0  0  0  0  0  0  0  0  0  0  0  0
  5  6  2  0  0  0  0
  5  7  1  0  0  0  0
  2  3  1  0  0  0  0
  2  4  1  0  0  0  0
  2  5  1  0  0  0  0
  1  2  1  0  0  0  0
 20 21  2  0  0  0  0
 20 22  1  0  0  0  0
 17 18  1  0  0  0  0
 17 19  2  0  0  0  0
 14 15  1  0  0  0  0
 14 16  1  0  0  0  0
 14 17  1  0  0  0  0
 11 12  1  0  0  0  0
 11 13  1  0  0  0  0
 11 14  1  0  0  0  0
  9 10  1  0  0  0  0
  9 11  1  0  0  0  0
  9 20  1  0  0  0  0
  7  8  1  0  0  0  0
  7  9  1  0  0  0  0
 24 25  1  0  0  0  0
 24 26  1  0  0  0  0
 24 27  1  0  0  0  0
 22 23  1  0  0  0  0
 22 24  1  0  0  0  0
M  CHG  1  18  -1
M  END
$$$$
default_name
  -OEChem-02102213163D

 27 26  0     1  0  0  0  0  0999 V2000
   -3.2406   -3.5400    1.2326 H   0  0  0  0  0  0  0  0  0  0  0  0
   -3.1436   -2.6190    0.6606 C   0  0  0  0  0  0  0  0  0  0  0  0
   -3.8786   -1.8920    0.9996 H   0  0  0  0  0  0  0  0  0  0  0  0
   -3.2846   -2.8280   -0.3984 H   0  0  0  0  0  0  0  0  0  0  0  0
   -1.7586   -2.0580    0.8686 C   0  0  0  0  0  0  0  0  0  0  0  0
   -0.9666   -2.6340    1.6026 O   0  0  0  0  0  0  0  0  0  0  0  0
   -1.4866   -0.9220    0.2366 N   0  0  0  0  0  0  0  0  0  0  0  0
   -2.2166   -0.4790   -0.2994 H   0  0  0  0  0  0  0  0  0  0  0  0
   -0.1956   -0.2250    0.2596 C   0  0  1  0  0  0  0  0  0  0  0  0
    0.3927   -0.6026    1.0964 H   0  0  0  0  0  0  0  0  0  0  0  0
    0.5767   -0.5489   -1.0351 C   0  0  0  0  0  0  0  0  0  0  0  0
   -0.0225   -0.2038   -1.8792 H   0  0  0  0  0  0  0  0  0  0  0  0
    1.5214   -0.0031   -1.0371 H   0  0  0  0  0  0  0  0  0  0  0  0
    0.8605   -2.0491   -1.2197 C   0  0  0  0  0  0  0  0  0  0  0  0
    0.4130   -2.3846   -2.1584 H   0  0  0  0  0  0  0  0  0  0  0  0
    1.9424   -2.1870   -1.2939 H   0  0  0  0  0  0  0  0  0  0  0  0
    0.3165   -2.9183   -0.0762 C   0  0  0  0  0  0  0  0  0  0  0  0
   -0.1653   -2.3462    0.9273 O   0  5  0  0  0  0  0  0  0  0  0  0
    0.3706   -4.1576   -0.2390 O   0  0  0  0  0  0  0  0  0  0  0  0
   -0.3954    1.2887    0.4814 C   0  0  0  0  0  0  0  0  0  0  0  0
   -1.2761    1.9015   -0.1256 O   0  0  0  0  0  0  0  0  0  0  0  0
    0.4051    1.8919    1.3699 N   0  0  0  0  0  0  0  0  0  0  0  0
    1.1380    1.3380    1.7875 H   0  0  0  0  0  0  0  0  0  0  0  0
    0.3573    3.3183    1.6807 C   0  0  0  0  0  0  0  0  0  0  0  0
   -0.6670    3.6090    1.9198 H   0  0  0  0  0  0  0  0  0  0  0  0
    1.0066    3.5397    2.5289 H   0  0  0  0  0  0  0  0  0  0  0  0
    0.6896    3.8897    0.8118 H   0  0  0  0  0  0  0  0  0  0  0  0
  5  6  2  0  0  0  0
  5  7  1  0  0  0  0
  2  3  1  0  0  0  0
  2  4  1  0  0  0  0
  2  5  1  0  0  0  0
  1  2  1  0  0  0  0
 20 21  2  0  0  0  0
 20 22  1  0  0  0  0
 17 18  1  0  0  0  0
 17 19  2  0  0  0  0
 14 15  1  0  0  0  0
 14 16  1  0  0  0  0
 14 17  1  0  0  0  0
 11 12  1  0  0  0  0
 11 13  1  0  0  0  0
 11 14  1  0  0  0  0
  9 10  1  0  0  0  0
  9 11  1  0  0  0  0
  9 20  1  0  0  0  0
  7  8  1  0  0  0  0
  7  9  1  0  0  0  0
 24 25  1  0  0  0  0
 24 26  1  0  0  0  0
 24 27  1  0  0  0  0
 22 23  1  0  0  0  0
 22 24  1  0  0  0  0
M  CHG  1  18  -1
M  END
$$$$
default_name
  -OEChem-02102213163D

 27 26  0     1  0  0  0  0  0999 V2000
   -3.2406   -3.5400    1.2326 H   0  0  0  0  0  0  0  0  0  0  0  0
   -3.1436   -2.6190    0.6606 C   0  0  0  0  0  0  0  0  0  0  0  0
   -3.8786   -1.8920    0.9996 H   0  0  0  0  0  0  0  0  0  0  0  0
   -3.2846   -2.8280   -0.3984 H   0  0  0  0  0  0  0  0  0  0  0  0
   -1.7586   -2.0580    0.8686 C   0  0  0  0  0  0  0  0  0  0  0  0
   -0.9666   -2.6340    1.6026 O   0  0  0  0  0  0  0  0  0  0  0  0
   -1.4866   -0.9220    0.2366 N   0  0  0  0  0  0  0  0  0  0  0  0
   -2.2166   -0.4790   -0.2994 H   0  0  0  0  0  0  0  0  0  0  0  0
   -0.1956   -0.2250    0.2596 C   0  0  1  0  0  0  0  0  0  0  0  0
    0.3927   -0.6026    1.0964 H   0  0  0  0  0  0  0  0  0  0  0  0
    0.5767   -0.5489   -1.0351 C   0  0  0  0  0  0  0  0  0  0  0  0
   -0.0225   -0.2038   -1.8792 H   0  0  0  0  0  0  0  0  0  0  0  0
    1.5214   -0.0031   -1.0371 H   0  0  0  0  0  0  0  0  0  0  0  0
    0.8605   -2.0491   -1.2197 C   0  0  0  0  0  0  0  0  0  0  0  0
    0.6571   -2.3263   -2.2569 H   0  0  0  0  0  0  0  0  0  0  0  0
    1.9222   -2.2238   -1.0262 H   0  0  0  0  0  0  0  0  0  0  0  0
    0.0231   -2.9467   -0.2965 C   0  0  0  0  0  0  0  0  0  0  0  0
   -0.6826   -2.4015    0.5816 O   0  5  0  0  0  0  0  0  0  0  0  0
    0.0858   -4.1788   -0.5043 O   0  0  0  0  0  0  0  0  0  0  0  0
   -0.3954    1.2887    0.4814 C   0  0  0  0  0  0  0  0  0  0  0  0
   -1.2761    1.9015   -0.1256 O   0  0  0  0  0  0  0  0  0  0  0  0
    0.4051    1.8919    1.3699 N   0  0  0  0  0  0  0  0  0  0  0  0
    1.1380    1.3380    1.7875 H   0  0  0  0  0  0  0  0  0  0  0  0
    0.3573    3.3183    1.6807 C   0  0  0  0  0  0  0  0  0  0  0  0
   -0.6670    3.6090    1.9198 H   0  0  0  0  0  0  0  0  0  0  0  0
    1.0066    3.5397    2.5289 H   0  0  0  0  0  0  0  0  0  0  0  0
    0.6896    3.8897    0.8118 H   0  0  0  0  0  0  0  0  0  0  0  0
  5  6  2  0  0  0  0
  5  7  1  0  0  0  0
  2  3  1  0  0  0  0
  2  4  1  0  0  0  0
  2  5  1  0  0  0  0
  1  2  1  0  0  0  0
 20 21  2  0  0  0  0
 20 22  1  0  0  0  0
 17 18  1  0  0  0  0
 17 19  2  0  0  0  0
 14 15  1  0  0  0  0
 14 16  1  0  0  0  0
 14 17  1  0  0  0  0
 11 12  1  0  0  0  0
 11 13  1  0  0  0  0
 11 14  1  0  0  0  0
  9 10  1  0  0  0  0
  9 11  1  0  0  0  0
  9 20  1  0  0  0  0
  7  8  1  0  0  0  0
  7  9  1  0  0  0  0
 24 25  1  0  0  0  0
 24 26  1  0  0  0  0
 24 27  1  0  0  0  0
 22 23  1  0  0  0  0
 22 24  1  0  0  0  0
M  CHG  1  18  -1
M  END
$$$$
default_name
  -OEChem-02102213163D

 27 26  0     1  0  0  0  0  0999 V2000
   -3.2406   -3.5400    1.2326 H   0  0  0  0  0  0  0  0  0  0  0  0
   -3.1436   -2.6190    0.6606 C   0  0  0  0  0  0  0  0  0  0  0  0
   -3.8786   -1.8920    0.9996 H   0  0  0  0  0  0  0  0  0  0  0  0
   -3.2846   -2.8280   -0.3984 H   0  0  0  0  0  0  0  0  0  0  0  0
   -1.7586   -2.0580    0.8686 C   0  0  0  0  0  0  0  0  0  0  0  0
   -0.9666   -2.6340    1.6026 O   0  0  0  0  0  0  0  0  0  0  0  0
   -1.4866   -0.9220    0.2366 N   0  0  0  0  0  0  0  0  0  0  0  0
   -2.2166   -0.4790   -0.2994 H   0  0  0  0  0  0  0  0  0  0  0  0
   -0.1956   -0.2250    0.2596 C   0  0  1  0  0  0  0  0  0  0  0  0
    0.3927   -0.6026    1.0964 H   0  0  0  0  0  0  0  0  0  0  0  0
    0.5767   -0.5489   -1.0351 C   0  0  0  0  0  0  0  0  0  0  0  0
   -0.0225   -0.2038   -1.8792 H   0  0  0  0  0  0  0  0  0  0  0  0
    1.5214   -0.0031   -1.0371 H   0  0  0  0  0  0  0  0  0  0  0  0
    0.8605   -2.0491   -1.2197 C   0  0  0  0  0  0  0  0  0  0  0  0
    0.9195   -2.2729   -2.2876 H   0  0  0  0  0  0  0  0  0  0  0  0
    1.8339   -2.2714   -0.7745 H   0  0  0  0  0  0  0  0  0  0  0  0
   -0.2054   -2.9545   -0.5848 C   0  0  0  0  0  0  0  0  0  0  0  0
   -1.0968   -2.4224    0.1144 O   0  5  0  0  0  0  0  0  0  0  0  0
   -0.1229   -4.1778   -0.8336 O   0  0  0  0  0  0  0  0  0  0  0  0
   -0.3954    1.2887    0.4814 C   0  0  0  0  0  0  0  0  0  0  0  0
   -1.2761    1.9015   -0.1256 O   0  0  0  0  0  0  0  0  0  0  0  0
    0.4051    1.8919    1.3699 N   0  0  0  0  0  0  0  0  0  0  0  0
    1.1380    1.3380    1.7875 H   0  0  0  0  0  0  0  0  0  0  0  0
    0.3573    3.3183    1.6807 C   0  0  0  0  0  0  0  0  0  0  0  0
   -0.6670    3.6090    1.9198 H   0  0  0  0  0  0  0  0  0  0  0  0
    1.0066    3.5397    2.5289 H   0  0  0  0  0  0  0  0  0  0  0  0
    0.6896    3.8897    0.8118 H   0  0  0  0  0  0  0  0  0  0  0  0
  5  6  2  0  0  0  0
  5  7  1  0  0  0  0
  2  3  1  0  0  0  0
  2  4  1  0  0  0  0
  2  5  1  0  0  0  0
  1  2  1  0  0  0  0
 20 21  2  0  0  0  0
 20 22  1  0  0  0  0
 17 18  1  0  0  0  0
 17 19  2  0  0  0  0
 14 15  1  0  0  0  0
 14 16  1  0  0  0  0
 14 17  1  0  0  0  0
 11 12  1  0  0  0  0
 11 13  1  0  0  0  0
 11 14  1  0  0  0  0
  9 10  1  0  0  0  0
  9 11  1  0  0  0  0
  9 20  1  0  0  0  0
  7  8  1  0  0  0  0
  7  9  1  0  0  0  0
 24 25  1  0  0  0  0
 24 26  1  0  0  0  0
 24 27  1  0  0  0  0
 22 23  1  0  0  0  0
 22 24  1  0  0  0  0
M  CHG  1  18  -1
M  END
$$$$
default_name
  -OEChem-02102213163D

 27 26  0     1  0  0  0  0  0999 V2000
   -3.2406   -3.5400    1.2326 H   0  0  0  0  0  0  0  0  0  0  0  0
   -3.1436   -2.6190    0.6606 C   0  0  0  0  0  0  0  0  0  0  0  0
   -3.8786   -1.8920    0.9996 H   0  0  0  0  0  0  0  0  0  0  0  0
   -3.2846   -2.8280   -0.3984 H   0  0  0  0  0  0  0  0  0  0  0  0
   -1.7586   -2.0580    0.8686 C   0  0  0  0  0  0  0  0  0  0  0  0
   -0.9666   -2.6340    1.6026 O   0  0  0  0  0  0  0  0  0  0  0  0
   -1.4866   -0.9220    0.2366 N   0  0  0  0  0  0  0  0  0  0  0  0
   -2.2166   -0.4790   -0.2994 H   0  0  0  0  0  0  0  0  0  0  0  0
   -0.1956   -0.2250    0.2596 C   0  0  1  0  0  0  0  0  0  0  0  0
    0.3927   -0.6026    1.0964 H   0  0  0  0  0  0  0  0  0  0  0  0
    0.5767   -0.5489   -1.0351 C   0  0  0  0  0  0  0  0  0  0  0  0
   -0.0225   -0.2038   -1.8792 H   0  0  0  0  0  0  0  0  0  0  0  0
    1.5214   -0.0031   -1.0371 H   0  0  0  0  0  0  0  0  0  0  0  0
    0.8605   -2.0491   -1.2197 C   0  0  0  0  0  0  0  0  0  0  0  0
    1.1824   -2.2280   -2.2484 H   0  0  0  0  0  0  0  0  0  0  0  0
    1.6836   -2.3268   -0.5559 H   0  0  0  0  0  0  0  0  0  0  0  0
   -0.3537   -2.9411   -0.9213 C   0  0  0  0  0  0  0  0  0  0  0  0
   -1.3795   -2.4074   -0.4424 O   0  5  0  0  0  0  0  0  0  0  0  0
   -0.2414   -4.1546   -1.2042 O   0  0  0  0  0  0  0  0  0  0  0  0
   -0.3954    1.2887    0.4814 C   0  0  0  0  0  0  0  0  0  0  0  0
   -1.2761    1.9015   -0.1256 O   0  0  0  0  0  0  0  0  0  0  0  0
    0.4051    1.8919    1.3699 N   0  0  0  0  0  0  0  0  0  0  0  0
    1.1380    1.3380    1.7875 H   0  0  0  0  0  0  0  0  0  0  0  0
    0.3573    3.3183    1.6807 C   0  0  0  0  0  0  0  0  0  0  0  0
   -0.6670    3.6090    1.9198 H   0  0  0  0  0  0  0  0  0  0  0  0
    1.0066    3.5397    2.5289 H   0  0  0  0  0  0  0  0  0  0  0  0
    0.6896    3.8897    0.8118 H   0  0  0  0  0  0  0  0  0  0  0  0
  5  6  2  0  0  0  0
  5  7  1  0  0  0  0
  2  3  1  0  0  0  0
  2  4  1  0  0  0  0
  2  5  1  0  0  0  0
  1  2  1  0  0  0  0
 20 21  2  0  0  0  0
 20 22  1  0  0  0  0
 17 18  1  0  0  0  0
 17 19  2  0  0  0  0
 14 15  1  0  0  0  0
 14 16  1  0  0  0  0
 14 17  1  0  0  0  0
 11 12  1  0  0  0  0
 11 13  1  0  0  0  0
 11 14  1  0  0  0  0
  9 10  1  0  0  0  0
  9 11  1  0  0  0  0
  9 20  1  0  0  0  0
  7  8  1  0  0  0  0
  7  9  1  0  0  0  0
 24 25  1  0  0  0  0
 24 26  1  0  0  0  0
 24 27  1  0  0  0  0
 22 23  1  0  0  0  0
 22 24  1  0  0  0  0
M  CHG  1  18  -1
M  END
$$$$
default_name
  -OEChem-02102213163D

 27 26  0     1  0  0  0  0  0999 V2000
   -3.2406   -3.5400    1.2326 H   0  0  0  0  0  0  0  0  0  0  0  0
   -3.1436   -2.6190    0.6606 C   0  0  0  0  0  0  0  0  0  0  0  0
   -3.8786   -1.8920    0.9996 H   0  0  0  0  0  0  0  0  0  0  0  0
   -3.2846   -2.8280   -0.3984 H   0  0  0  0  0  0  0  0  0  0  0  0
   -1.7586   -2.0580    0.8686 C   0  0  0  0  0  0  0  0  0  0  0  0
   -0.9666   -2.6340    1.6026 O   0  0  0  0  0  0  0  0  0  0  0  0
   -1.4866   -0.9220    0.2366 N   0  0  0  0  0  0  0  0  0  0  0  0
   -2.2166   -0.4790   -0.2994 H   0  0  0  0  0  0  0  0  0  0  0  0
   -0.1956   -0.2250    0.2596 C   0  0  1  0  0  0  0  0  0  0  0  0
    0.3927   -0.6026    1.0964 H   0  0  0  0  0  0  0  0  0  0  0  0
    0.5767   -0.5489   -1.0351 C   0  0  0  0  0  0  0  0  0  0  0  0
   -0.0225   -0.2038   -1.8792 H   0  0  0  0  0  0  0  0  0  0  0  0
    1.5214   -0.0031   -1.0371 H   0  0  0  0  0  0  0  0  0  0  0  0
    0.8605   -2.0491   -1.2197 C   0  0  0  0  0  0  0  0  0  0  0  0
    1.4279   -2.1946   -2.1421 H   0  0  0  0  0  0  0  0  0  0  0  0
    1.4815   -2.3860   -0.3854 H   0  0  0  0  0  0  0  0  0  0  0  0
   -0.4115   -2.9075   -1.2831 C   0  0  0  0  0  0  0  0  0  0  0  0
   -1.5115   -2.3575   -1.0508 O   0  5  0  0  0  0  0  0  0  0  0  0
   -0.2615   -4.1108   -1.5911 O   0  0  0  0  0  0  0  0  0  0  0  0
   -0.3954    1.2887    0.4814 C   0  0  0  0  0  0  0  0  0  0  0  0
   -1.2761    1.9015   -0.1256 O   0  0  0  0  0  0  0  0  0  0  0  0
    0.4051    1.8919    1.3699 N   0  0  0  0  0  0  0  0  0  0  0  0
    1.1380    1.3380    1.7875 H   0  0  0  0  0  0  0  0  0  0  0  0
    0.3573    3.3183    1.6807 C   0  0  0  0  0  0  0  0  0  0  0  0
   -0.6670    3.6090    1.9198 H   0  0  0  0  0  0  0  0  0  0  0  0
    1.0066    3.5397    2.5289 H   0  0  0  0  0  0  0  0  0  0  0  0
    0.6896    3.8897    0.8118 H   0  0  0  0  0  0  0  0  0  0  0  0
  5  6  2  0  0  0  0
  5  7  1  0  0  0  0
  2  3  1  0  0  0  0
  2  4  1  0  0  0  0
  2  5  1  0  0  0  0
  1  2  1  0  0  0  0
 20 21  2  0  0  0  0
 20 22  1  0  0  0  0
 17 18  1  0  0  0  0
 17 19  2  0  0  0  0
 14 15  1  0  0  0  0
 14 16  1  0  0  0  0
 14 17  1  0  0  0  0
 11 12  1  0  0  0  0
 11 13  1  0  0  0  0
 11 14  1  0  0  0  0
  9 10  1  0  0  0  0
  9 11  1  0  0  0  0
  9 20  1  0  0  0  0
  7  8  1  0  0  0  0
  7  9  1  0  0  0  0
 24 25  1  0  0  0  0
 24 26  1  0  0  0  0
 24 27  1  0  0  0  0
 22 23  1  0  0  0  0
 22 24  1  0  0  0  0
M  CHG  1  18  -1
M  END
$$$$
default_name
  -OEChem-02102213163D

 27 26  0     1  0  0  0  0  0999 V2000
   -3.2406   -3.5400    1.2326 H   0  0  0  0  0  0  0  0  0  0  0  0
   -3.1436   -2.6190    0.6606 C   0  0  0  0  0  0  0  0  0  0  0  0
   -3.8786   -1.8920    0.9996 H   0  0  0  0  0  0  0  0  0  0  0  0
   -3.2846   -2.8280   -0.3984 H   0  0  0  0  0  0  0  0  0  0  0  0
   -1.7586   -2.0580    0.8686 C   0  0  0  0  0  0  0  0  0  0  0  0
   -0.9666   -2.6340    1.6026 O   0  0  0  0  0  0  0  0  0  0  0  0
   -1.4866   -0.9220    0.2366 N   0  0  0  0  0  0  0  0  0  0  0  0
   -2.2166   -0.4790   -0.2994 H   0  0  0  0  0  0  0  0  0  0  0  0
   -0.1956   -0.2250    0.2596 C   0  0  1  0  0  0  0  0  0  0  0  0
    0.3927   -0.6026    1.0964 H   0  0  0  0  0  0  0  0  0  0  0  0
    0.5767   -0.5489   -1.0351 C   0  0  0  0  0  0  0  0  0  0  0  0
   -0.0225   -0.2038   -1.8792 H   0  0  0  0  0  0  0  0  0  0  0  0
    1.5214   -0.0031   -1.0371 H   0  0  0  0  0  0  0  0  0  0  0  0
    0.8605   -2.0491   -1.2197 C   0  0  0  0  0  0  0  0  0  0  0  0
    1.6391   -2.1751   -1.9759 H   0  0  0  0  0  0  0  0  0  0  0  0
    1.2413   -2.4450   -0.2745 H   0  0  0  0  0  0  0  0  0  0  0  0
   -0.3750   -2.8560   -1.6455 C   0  0  0  0  0  0  0  0  0  0  0  0
   -1.4839   -2.2762   -1.6695 O   0  5  0  0  0  0  0  0  0  0  0  0
   -0.1820   -4.0495   -1.9677 O   0  0  0  0  0  0  0  0  0  0  0  0
   -0.3954    1.2887    0.4814 C   0  0  0  0  0  0  0  0  0  0  0  0
   -1.2761    1.9015   -0.1256 O   0  0  0  0  0  0  0  0  0  0  0  0
    0.4051    1.8919    1.3699 N   0  0  0  0  0  0  0  0  0  0  0  0
    1.1380    1.3380    1.7875 H   0  0  0  0  0  0  0  0  0  0  0  0
    0.3573    3.3183    1.6807 C   0  0  0  0  0  0  0  0  0  0  0  0
   -0.6670    3.6090    1.9198 H   0  0  0  0  0  0  0  0  0  0  0  0
    1.0066    3.5397    2.5289 H   0  0  0  0  0  0  0  0  0  0  0  0
    0.6896    3.8897    0.8118 H   0  0  0  0  0  0  0  0  0  0  0  0
  5  6  2  0  0  0  0
  5  7  1  0  0  0  0
  2  3  1  0  0  0  0
  2  4  1  0  0  0  0
  2  5  1  0  0  0  0
  1  2  1  0  0  0  0
 20 21  2  0  0  0  0
 20 22  1  0  0  0  0
 17 18  1  0  0  0  0
 17 19  2  0  0  0  0
 14 15  1  0  0  0  0
 14 16  1  0  0  0  0
 14 17  1  0  0  0  0
 11 12  1  0  0  0  0
 11 13  1  0  0  0  0
 11 14  1  0  0  0  0
  9 10  1  0  0  0  0
  9 11  1  0  0  0  0
  9 20  1  0  0  0  0
  7  8  1  0  0  0  0
  7  9  1  0  0  0  0
 24 25  1  0  0  0  0
 24 26  1  0  0  0  0
 24 27  1  0  0  0  0
 22 23  1  0  0  0  0
 22 24  1  0  0  0  0
M  CHG  1  18  -1
M  END
$$$$
default_name
  -OEChem-02102213163D

 27 26  0     1  0  0  0  0  0999 V2000
   -3.2406   -3.5400    1.2326 H   0  0  0  0  0  0  0  0  0  0  0  0
   -3.1436   -2.6190    0.6606 C   0  0  0  0  0  0  0  0  0  0  0  0
   -3.8786   -1.8920    0.9996 H   0  0  0  0  0  0  0  0  0  0  0  0
   -3.2846   -2.8280   -0.3984 H   0  0  0  0  0  0  0  0  0  0  0  0
   -1.7586   -2.0580    0.8686 C   0  0  0  0  0  0  0  0  0  0  0  0
   -0.9666   -2.6340    1.6026 O   0  0  0  0  0  0  0  0  0  0  0  0
   -1.4866   -0.9220    0.2366 N   0  0  0  0  0  0  0  0  0  0  0  0
   -2.2166   -0.4790   -0.2994 H   0  0  0  0  0  0  0  0  0  0  0  0
   -0.1956   -0.2250    0.2596 C   0  0  1  0  0  0  0  0  0  0  0  0
    0.3927   -0.6026    1.0964 H   0  0  0  0  0  0  0  0  0  0  0  0
    0.5767   -0.5489   -1.0351 C   0  0  0  0  0  0  0  0  0  0  0  0
   -0.0225   -0.2038   -1.8792 H   0  0  0  0  0  0  0  0  0  0  0  0
    1.5214   -0.0031   -1.0371 H   0  0  0  0  0  0  0  0  0  0  0  0
    0.8605   -2.0491   -1.2197 C   0  0  0  0  0  0  0  0  0  0  0  0
    1.8018   -2.1708   -1.7610 H   0  0  0  0  0  0  0  0  0  0  0  0
    0.9796   -2.4999   -0.2309 H   0  0  0  0  0  0  0  0  0  0  0  0
   -0.2466   -2.7901   -1.9840 C   0  0  0  0  0  0  0  0  0  0  0  0
   -1.2985   -2.1689   -2.2563 O   0  5  0  0  0  0  0  0  0  0  0  0
   -0.0081   -3.9746   -2.3085 O   0  0  0  0  0  0  0  0  0  0  0  0
   -0.3954    1.2887    0.4814 C   0  0  0  0  0  0  0  0  0  0  0  0
   -1.2761    1.9015   -0.1256 O   0  0  0  0  0  0  0  0  0  0  0  0
    0.4051    1.8919    1.3699 N   0  0  0  0  0  0  0  0  0  0  0  0
    1.1380    1.3380    1.7875 H   0  0  0  0  0  0  0  0  0  0  0  0
    0.3573    3.3183    1.6807 C   0  0  0  0  0  0  0  0  0  0  0  0
   -0.6670    3.6090    1.9198 H   0  0  0  0  0  0  0  0  0  0  0  0
    1.0066    3.5397    2.5289 H   0  0  0  0  0  0  0  0  0  0  0  0
    0.6896    3.8897    0.8118 H   0  0  0  0  0  0  0  0  0  0  0  0
  5  6  2  0  0  0  0
  5  7  1  0  0  0  0
  2  3  1  0  0  0  0
  2  4  1  0  0  0  0
  2  5  1  0  0  0  0
  1  2  1  0  0  0  0
 20 21  2  0  0  0  0
 20 22  1  0  0  0  0
 17 18  1  0  0  0  0
 17 19  2  0  0  0  0
 14 15  1  0  0  0  0
 14 16  1  0  0  0  0
 14 17  1  0  0  0  0
 11 12  1  0  0  0  0
 11 13  1  0  0  0  0
 11 14  1  0  0  0  0
  9 10  1  0  0  0  0
  9 11  1  0  0  0  0
  9 20  1  0  0  0  0
  7  8  1  0  0  0  0
  7  9  1  0  0  0  0
 24 25  1  0  0  0  0
 24 26  1  0  0  0  0
 24 27  1  0  0  0  0
 22 23  1  0  0  0  0
 22 24  1  0  0  0  0
M  CHG  1  18  -1
M  END
$$$$
default_name
  -OEChem-02102213163D

 27 26  0     1  0  0  0  0  0999 V2000
   -3.2406   -3.5400    1.2326 H   0  0  0  0  0  0  0  0  0  0  0  0
   -3.1436   -2.6190    0.6606 C   0  0  0  0  0  0  0  0  0  0  0  0
   -3.8786   -1.8920    0.9996 H   0  0  0  0  0  0  0  0  0  0  0  0
   -3.2846   -2.8280   -0.3984 H   0  0  0  0  0  0  0  0  0  0  0  0
   -1.7586   -2.0580    0.8686 C   0  0  0  0  0  0  0  0  0  0  0  0
   -0.9666   -2.6340    1.6026 O   0  0  0  0  0  0  0  0  0  0  0  0
   -1.4866   -0.9220    0.2366 N   0  0  0  0  0  0  0  0  0  0  0  0
   -2.2166   -0.4790   -0.2994 H   0  0  0  0  0  0  0  0  0  0  0  0
   -0.1956   -0.2250    0.2596 C   0  0  1  0  0  0  0  0  0  0  0  0
    0.3927   -0.6026    1.0964 H   0  0  0  0  0  0  0  0  0  0  0  0
    0.5767   -0.5489   -1.0351 C   0  0  0  0  0  0  0  0  0  0  0  0
   -0.0225   -0.2038   -1.8792 H   0  0  0  0  0  0  0  0  0  0  0  0
    1.5214   -0.0031   -1.0371 H   0  0  0  0  0  0  0  0  0  0  0  0
    0.8605   -2.0491   -1.2197 C   0  0  0  0  0  0  0  0  0  0  0  0
    1.9049   -2.1819   -1.5121 H   0  0  0  0  0  0  0  0  0  0  0  0
    0.7140   -2.5469   -0.2574 H   0  0  0  0  0  0  0  0  0  0  0  0
   -0.0351   -2.7143   -2.2754 C   0  0  0  0  0  0  0  0  0  0  0  0
   -0.9679   -2.0430   -2.7712 O   0  5  0  0  0  0  0  0  0  0  0  0
    0.2482   -3.8915   -2.5902 O   0  0  0  0  0  0  0  0  0  0  0  0
   -0.3954    1.2887    0.4814 C   0  0  0  0  0  0  0  0  0  0  0  0
   -1.2761    1.9015   -0.1256 O   0  0  0  0  0  0  0  0  0  0  0  0
    0.4051    1.8919    1.3699 N   0  0  0  0  0  0  0  0  0  0  0  0
    1.1380    1.3380    1.7875 H   0  0  0  0  0  0  0  0  0  0  0  0
    0.3573    3.3183    1.6807 C   0  0  0  0  0  0  0  0  0  0  0  0
   -0.6670    3.6090    1.9198 H   0  0  0  0  0  0  0  0  0  0  0  0
    1.0066    3.5397    2.5289 H   0  0  0  0  0  0  0  0  0  0  0  0
    0.6896    3.8897    0.8118 H   0  0  0  0  0  0  0  0  0  0  0  0
  5  6  2  0  0  0  0
  5  7  1  0  0  0  0
  2  3  1  0  0  0  0
  2  4  1  0  0  0  0
  2  5  1  0  0  0  0
  1  2  1  0  0  0  0
 20 21  2  0  0  0  0
 20 22  1  0  0  0  0
 17 18  1  0  0  0  0
 17 19  2  0  0  0  0
 14 15  1  0  0  0  0
 14 16  1  0  0  0  0
 14 17  1  0  0  0  0
 11 12  1  0  0  0  0
 11 13  1  0  0  0  0
 11 14  1  0  0  0  0
  9 10  1  0  0  0  0
  9 11  1  0  0  0  0
  9 20  1  0  0  0  0
  7  8  1  0  0  0  0
  7  9  1  0  0  0  0
 24 25  1  0  0  0  0
 24 26  1  0  0  0  0
 24 27  1  0  0  0  0
 22 23  1  0  0  0  0
 22 24  1  0  0  0  0
M  CHG  1  18  -1
M  END
$$$$
default_name
  -OEChem-02102213163D

 27 26  0     1  0  0  0  0  0999 V2000
   -3.2406   -3.5400    1.2326 H   0  0  0  0  0  0  0  0  0  0  0  0
   -3.1436   -2.6190    0.6606 C   0  0  0  0  0  0  0  0  0  0  0  0
   -3.8786   -1.8920    0.9996 H   0  0  0  0  0  0  0  0  0  0  0  0
   -3.2846   -2.8280   -0.3984 H   0  0  0  0  0  0  0  0  0  0  0  0
   -1.7586   -2.0580    0.8686 C   0  0  0  0  0  0  0  0  0  0  0  0
   -0.9666   -2.6340    1.6026 O   0  0  0  0  0  0  0  0  0  0  0  0
   -1.4866   -0.9220    0.2366 N   0  0  0  0  0  0  0  0  0  0  0  0
   -2.2166   -0.4790   -0.2994 H   0  0  0  0  0  0  0  0  0  0  0  0
   -0.1956   -0.2250    0.2596 C   0  0  1  0  0  0  0  0  0  0  0  0
    0.3927   -0.6026    1.0964 H   0  0  0  0  0  0  0  0  0  0  0  0
    0.5767   -0.5489   -1.0351 C   0  0  0  0  0  0  0  0  0  0  0  0
   -0.0225   -0.2038   -1.8792 H   0  0  0  0  0  0  0  0  0  0  0  0
    1.5214   -0.0031   -1.0371 H   0  0  0  0  0  0  0  0  0  0  0  0
    0.8605   -2.0491   -1.2197 C   0  0  0  0  0  0  0  0  0  0  0  0
    1.9413   -2.2077   -1.2463 H   0  0  0  0  0  0  0  0  0  0  0  0
    0.4628   -2.5827   -0.3524 H   0  0  0  0  0  0  0  0  0  0  0  0
    0.2451   -2.6337   -2.4998 C   0  0  0  0  0  0  0  0  0  0  0  0
   -0.5147   -1.9072   -3.1790 O   0  5  0  0  0  0  0  0  0  0  0  0
    0.5695   -3.8057   -2.7936 O   0  0  0  0  0  0  0  0  0  0  0  0
   -0.3954    1.2887    0.4814 C   0  0  0  0  0  0  0  0  0  0  0  0
   -1.2761    1.9015   -0.1256 O   0  0  0  0  0  0  0  0  0  0  0  0
    0.4051    1.8919    1.3699 N   0  0  0  0  0  0  0  0  0  0  0  0
    1.1380    1.3380    1.7875 H   0  0  0  0  0  0  0  0  0  0  0  0
    0.3573    3.3183    1.6807 C   0  0  0  0  0  0  0  0  0  0  0  0
   -0.6670    3.6090    1.9198 H   0  0  0  0  0  0  0  0  0  0  0  0
    1.0066    3.5397    2.5289 H   0  0  0  0  0  0  0  0  0  0  0  0
    0.6896    3.8897    0.8118 H   0  0  0  0  0  0  0  0  0  0  0  0
  5  6  2  0  0  0  0
  5  7  1  0  0  0  0
  2  3  1  0  0  0  0
  2  4  1  0  0  0  0
  2  5  1  0  0  0  0
  1  2  1  0  0  0  0
 20 21  2  0  0  0  0
 20 22  1  0  0  0  0
 17 18  1  0  0  0  0
 17 19  2  0  0  0  0
 14 15  1  0  0  0  0
 14 16  1  0  0  0  0
 14 17  1  0  0  0  0
 11 12  1  0  0  0  0
 11 13  1  0  0  0  0
 11 14  1  0  0  0  0
  9 10  1  0  0  0  0
  9 11  1  0  0  0  0
  9 20  1  0  0  0  0
  7  8  1  0  0  0  0
  7  9  1  0  0  0  0
 24 25  1  0  0  0  0
 24 26  1  0  0  0  0
 24 27  1  0  0  0  0
 22 23  1  0  0  0  0
 22 24  1  0  0  0  0
M  CHG  1  18  -1
M  END
$$$$
default_name
  -OEChem-02102213163D

 27 26  0     1  0  0  0  0  0999 V2000
   -3.2406   -3.5400    1.2326 H   0  0  0  0  0  0  0  0  0  0  0  0
   -3.1436   -2.6190    0.6606 C   0  0  0  0  0  0  0  0  0  0  0  0
   -3.8786   -1.8920    0.9996 H   0  0  0  0  0  0  0  0  0  0  0  0
   -3.2846   -2.8280   -0.3984 H   0  0  0  0  0  0  0  0  0  0  0  0
   -1.7586   -2.0580    0.8686 C   0  0  0  0  0  0  0  0  0  0  0  0
   -0.9666   -2.6340    1.6026 O   0  0  0  0  0  0  0  0  0  0  0  0
   -1.4866   -0.9220    0.2366 N   0  0  0  0  0  0  0  0  0  0  0  0
   -2.2166   -0.4790   -0.2994 H   0  0  0  0  0  0  0  0  0  0  0  0
   -0.1956   -0.2250    0.2596 C   0  0  1  0  0  0  0  0  0  0  0  0
    0.3927   -0.6026    1.0964 H   0  0  0  0  0  0  0  0  0  0  0  0
    0.5767   -0.5489   -1.0351 C   0  0  0  0  0  0  0  0  0  0  0  0
   -0.0225   -0.2038   -1.8792 H   0  0  0  0  0  0  0  0  0  0  0  0
    1.5214   -0.0031   -1.0371 H   0  0  0  0  0  0  0  0  0  0  0  0
    0.8605   -2.0491   -1.2197 C   0  0  0  0  0  0  0  0  0  0  0  0
    1.9085   -2.2465   -0.9816 H   0  0  0  0  0  0  0  0  0  0  0  0
    0.2430   -2.6050   -0.5092 H   0  0  0  0  0  0  0  0  0  0  0  0
    0.5749   -2.5538   -2.6419 C   0  0  0  0  0  0  0  0  0  0  0  0
    0.0302   -1.7705   -3.4520 O   0  5  0  0  0  0  0  0  0  0  0  0
    0.9339   -3.7231   -2.9049 O   0  0  0  0  0  0  0  0  0  0  0  0
   -0.3954    1.2887    0.4814 C   0  0  0  0  0  0  0  0  0  0  0  0
   -1.2761    1.9015   -0.1256 O   0  0  0  0  0  0  0  0  0  0  0  0
    0.4051    1.8919    1.3699 N   0  0  0  0  0  0  0  0  0  0  0  0
    1.1380    1.3380    1.7875 H   0  0  0  0  0  0  0  0  0  0  0  0
    0.3573    3.3183    1.6807 C   0  0  0  0  0  0  0  0  0  0  0  0
   -0.6670    3.6090    1.9198 H   0  0  0  0  0  0  0  0  0  0  0  0
    1.0066    3.5397    2.5289 H   0  0  0  0  0  0  0  0  0  0  0  0
    0.6896    3.8897    0.8118 H   0  0  0  0  0  0  0  0  0  0  0  0
  5  6  2  0  0  0  0
  5  7  1  0  0  0  0
  2  3  1  0  0  0  0
  2  4  1  0  0  0  0
  2  5  1  0  0  0  0
  1  2  1  0  0  0  0
 20 21  2  0  0  0  0
 20 22  1  0  0  0  0
 17 18  1  0  0  0  0
 17 19  2  0  0  0  0
 14 15  1  0  0  0  0
 14 16  1  0  0  0  0
 14 17  1  0  0  0  0
 11 12  1  0  0  0  0
 11 13  1  0  0  0  0
 11 14  1  0  0  0  0
  9 10  1  0  0  0  0
  9 11  1  0  0  0  0
  9 20  1  0  0  0  0
  7  8  1  0  0  0  0
  7  9  1  0  0  0  0
 24 25  1  0  0  0  0
 24 26  1  0  0  0  0
 24 27  1  0  0  0  0
 22 23  1  0  0  0  0
 22 24  1  0  0  0  0
M  CHG  1  18  -1
M  END
$$$$
default_name
  -OEChem-02102213163D

 27 26  0     1  0  0  0  0  0999 V2000
   -3.2406   -3.5400    1.2326 H   0  0  0  0  0  0  0  0  0  0  0  0
   -3.1436   -2.6190    0.6606 C   0  0  0  0  0  0  0  0  0  0  0  0
   -3.8786   -1.8920    0.9996 H   0  0  0  0  0  0  0  0  0  0  0  0
   -3.2846   -2.8280   -0.3984 H   0  0  0  0  0  0  0  0  0  0  0  0
   -1.7586   -2.0580    0.8686 C   0  0  0  0  0  0  0  0  0  0  0  0
   -0.9666   -2.6340    1.6026 O   0  0  0  0  0  0  0  0  0  0  0  0
   -1.4866   -0.9220    0.2366 N   0  0  0  0  0  0  0  0  0  0  0  0
   -2.2166   -0.4790   -0.2994 H   0  0  0  0  0  0  0  0  0  0  0  0
   -0.1956   -0.2250    0.2596 C   0  0  1  0  0  0  0  0  0  0  0  0
    0.3927   -0.6026    1.0964 H   0  0  0  0  0  0  0  0  0  0  0  0
    0.5767   -0.5489   -1.0351 C   0  0  0  0  0  0  0  0  0  0  0  0
   -0.0225   -0.2038   -1.8792 H   0  0  0  0  0  0  0  0  0  0  0  0
    1.5214   -0.0031   -1.0371 H   0  0  0  0  0  0  0  0  0  0  0  0
    0.8605   -2.0491   -1.2197 C   0  0  0  0  0  0  0  0  0  0  0  0
    1.8088   -2.2955   -0.7360 H   0  0  0  0  0  0  0  0  0  0  0  0
    0.0695   -2.6122   -0.7173 H   0  0  0  0  0  0  0  0  0  0  0  0
    0.9319   -2.4801   -2.6922 C   0  0  0  0  0  0  0  0  0  0  0  0
    0.6298   -1.6424   -3.5716 O   0  5  0  0  0  0  0  0  0  0  0  0
    1.3165   -3.6493   -2.9165 O   0  0  0  0  0  0  0  0  0  0  0  0
   -0.3954    1.2887    0.4814 C   0  0  0  0  0  0  0  0  0  0  0  0
   -1.2761    1.9015   -0.1256 O   0  0  0  0  0  0  0  0  0  0  0  0
    0.4051    1.8919    1.3699 N   0  0  0  0  0  0  0  0  0  0  0  0
    1.1380    1.3380    1.7875 H   0  0  0  0  0  0  0  0  0  0  0  0
    0.3573    3.3183    1.6807 C   0  0  0  0  0  0  0  0  0  0  0  0
   -0.6670    3.6090    1.9198 H   0  0  0  0  0  0  0  0  0  0  0  0
    1.0066    3.5397    2.5289 H   0  0  0  0  0  0  0  0  0  0  0  0
    0.6896    3.8897    0.8118 H   0  0  0  0  0  0  0  0  0  0  0  0
  5  6  2  0  0  0  0
  5  7  1  0  0  0  0
  2  3  1  0  0  0  0
  2  4  1  0  0  0  0
  2  5  1  0  0  0  0
  1  2  1  0  0  0  0
 20 21  2  0  0  0  0
 20 22  1  0  0  0  0
 17 18  1  0  0  0  0
 17 19  2  0  0  0  0
 14 15  1  0  0  0  0
 14 16  1  0  0  0  0
 14 17  1  0  0  0  0
 11 12  1  0  0  0  0
 11 13  1  0  0  0  0
 11 14  1  0  0  0  0
  9 10  1  0  0  0  0
  9 11  1  0  0  0  0
  9 20  1  0  0  0  0
  7  8  1  0  0  0  0
  7  9  1  0  0  0  0
 24 25  1  0  0  0  0
 24 26  1  0  0  0  0
 24 27  1  0  0  0  0
 22 23  1  0  0  0  0
 22 24  1  0  0  0  0
M  CHG  1  18  -1
M  END
$$$$
default_name
  -OEChem-02102213163D

 27 26  0     1  0  0  0  0  0999 V2000
   -3.2406   -3.5400    1.2326 H   0  0  0  0  0  0  0  0  0  0  0  0
   -3.1436   -2.6190    0.6606 C   0  0  0  0  0  0  0  0  0  0  0  0
   -3.8786   -1.8920    0.9996 H   0  0  0  0  0  0  0  0  0  0  0  0
   -3.2846   -2.8280   -0.3984 H   0  0  0  0  0  0  0  0  0  0  0  0
   -1.7586   -2.0580    0.8686 C   0  0  0  0  0  0  0  0  0  0  0  0
   -0.9666   -2.6340    1.6026 O   0  0  0  0  0  0  0  0  0  0  0  0
   -1.4866   -0.9220    0.2366 N   0  0  0  0  0  0  0  0  0  0  0  0
   -2.2166   -0.4790   -0.2994 H   0  0  0  0  0  0  0  0  0  0  0  0
   -0.1956   -0.2250    0.2596 C   0  0  1  0  0  0  0  0  0  0  0  0
    0.3927   -0.6026    1.0964 H   0  0  0  0  0  0  0  0  0  0  0  0
    0.5767   -0.5489   -1.0351 C   0  0  0  0  0  0  0  0  0  0  0  0
   -0.0225   -0.2038   -1.8792 H   0  0  0  0  0  0  0  0  0  0  0  0
    1.5214   -0.0031   -1.0371 H   0  0  0  0  0  0  0  0  0  0  0  0
    0.8605   -2.0491   -1.2197 C   0  0  0  0  0  0  0  0  0  0  0  0
    1.6489   -2.3516   -0.5263 H   0  0  0  0  0  0  0  0  0  0  0  0
   -0.0457   -2.6039   -0.9624 H   0  0  0  0  0  0  0  0  0  0  0  0
    1.2917   -2.4176   -2.6470 C   0  0  0  0  0  0  0  0  0  0  0  0
    1.2431   -1.5315   -3.5296 O   0  5  0  0  0  0  0  0  0  0  0  0
    1.6912   -3.5894   -2.8275 O   0  0  0  0  0  0  0  0  0  0  0  0
   -0.3954    1.2887    0.4814 C   0  0  0  0  0  0  0  0  0  0  0  0
   -1.2761    1.9015   -0.1256 O   0  0  0  0  0  0  0  0  0  0  0  0
    0.4051    1.8919    1.3699 N   0  0  0  0  0  0  0  0  0  0  0  0
    1.1380    1.3380    1.7875 H   0  0  0  0  0  0  0  0  0  0  0  0
    0.3573    3.3183    1.6807 C   0  0  0  0  0  0  0  0  0  0  0  0
   -0.6670    3.6090    1.9198 H   0  0  0  0  0  0  0  0  0  0  0  0
    1.0066    3.5397    2.5289 H   0  0  0  0  0  0  0  0  0  0  0  0
    0.6896    3.8897    0.8118 H   0  0  0  0  0  0  0  0  0  0  0  0
  5  6  2  0  0  0  0
  5  7  1  0  0  0  0
  2  3  1  0  0  0  0
  2  4  1  0  0  0  0
  2  5  1  0  0  0  0
  1  2  1  0  0  0  0
 20 21  2  0  0  0  0
 20 22  1  0  0  0  0
 17 18  1  0  0  0  0
 17 19  2  0  0  0  0
 14 15  1  0  0  0  0
 14 16  1  0  0  0  0
 14 17  1  0  0  0  0
 11 12  1  0  0  0  0
 11 13  1  0  0  0  0
 11 14  1  0  0  0  0
  9 10  1  0  0  0  0
  9 11  1  0  0  0  0
  9 20  1  0  0  0  0
  7  8  1  0  0  0  0
  7  9  1  0  0  0  0
 24 25  1  0  0  0  0
 24 26  1  0  0  0  0
 24 27  1  0  0  0  0
 22 23  1  0  0  0  0
 22 24  1  0  0  0  0
M  CHG  1  18  -1
M  END
$$$$
default_name
  -OEChem-02102213163D

 27 26  0     1  0  0  0  0  0999 V2000
   -3.2406   -3.5400    1.2326 H   0  0  0  0  0  0  0  0  0  0  0  0
   -3.1436   -2.6190    0.6606 C   0  0  0  0  0  0  0  0  0  0  0  0
   -3.8786   -1.8920    0.9996 H   0  0  0  0  0  0  0  0  0  0  0  0
   -3.2846   -2.8280   -0.3984 H   0  0  0  0  0  0  0  0  0  0  0  0
   -1.7586   -2.0580    0.8686 C   0  0  0  0  0  0  0  0  0  0  0  0
   -0.9666   -2.6340    1.6026 O   0  0  0  0  0  0  0  0  0  0  0  0
   -1.4866   -0.9220    0.2366 N   0  0  0  0  0  0  0  0  0  0  0  0
   -2.2166   -0.4790   -0.2994 H   0  0  0  0  0  0  0  0  0  0  0  0
   -0.1956   -0.2250    0.2596 C   0  0  1  0  0  0  0  0  0  0  0  0
    0.3927   -0.6026    1.0964 H   0  0  0  0  0  0  0  0  0  0  0  0
    0.5767   -0.5489   -1.0351 C   0  0  0  0  0  0  0  0  0  0  0  0
    0.1246    0.0217   -1.8479 H   0  0  0  0  0  0  0  0  0  0  0  0
    1.6140   -0.2293   -0.9252 H   0  0  0  0  0  0  0  0  0  0  0  0
    0.5453   -2.0402   -1.4100 C   0  0  0  0  0  0  0  0  0  0  0  0
    0.9739   -2.6234   -0.5914 H   0  0  0  0  0  0  0  0  0  0  0  0
   -0.4987   -2.3421   -1.5284 H   0  0  0  0  0  0  0  0  0  0  0  0
    1.3148   -2.3616   -2.6997 C   0  0  0  0  0  0  0  0  0  0  0  0
    1.7623   -1.4092   -3.3775 O   0  5  0  0  0  0  0  0  0  0  0  0
    1.4651   -3.5724   -2.9763 O   0  0  0  0  0  0  0  0  0  0  0  0
   -0.3954    1.2887    0.4814 C   0  0  0  0  0  0  0  0  0  0  0  0
   -1.2761    1.9015   -0.1256 O   0  0  0  0  0  0  0  0  0  0  0  0
    0.4051    1.8919    1.3699 N   0  0  0  0  0  0  0  0  0  0  0  0
    1.1380    1.3380    1.7875 H   0  0  0  0  0  0  0  0  0  0  0  0
    0.3573    3.3183    1.6807 C   0  0  0  0  0  0  0  0  0  0  0  0
   -0.6670    3.6090    1.9198 H   0  0  0  0  0  0  0  0  0  0  0  0
    1.0066    3.5397    2.5289 H   0  0  0  0  0  0  0  0  0  0  0  0
    0.6896    3.8897    0.8118 H   0  0  0  0  0  0  0  0  0  0  0  0
  5  6  2  0  0  0  0
  5  7  1  0  0  0  0
  2  3  1  0  0  0  0
  2  4  1  0  0  0  0
  2  5  1  0  0  0  0
  1  2  1  0  0  0  0
 20 21  2  0  0  0  0
 20 22  1  0  0  0  0
 17 18  1  0  0  0  0
 17 19  2  0  0  0  0
 14 15  1  0  0  0  0
 14 16  1  0  0  0  0
 14 17  1  0  0  0  0
 11 12  1  0  0  0  0
 11 13  1  0  0  0  0
 11 14  1  0  0  0  0
  9 10  1  0  0  0  0
  9 11  1  0  0  0  0
  9 20  1  0  0  0  0
  7  8  1  0  0  0  0
  7  9  1  0  0  0  0
 24 25  1  0  0  0  0
 24 26  1  0  0  0  0
 24 27  1  0  0  0  0
 22 23  1  0  0  0  0
 22 24  1  0  0  0  0
M  CHG  1  18  -1
M  END
$$$$
default_name
  -OEChem-02102213163D

 27 26  0     1  0  0  0  0  0999 V2000
   -3.2406   -3.5400    1.2326 H   0  0  0  0  0  0  0  0  0  0  0  0
   -3.1436   -2.6190    0.6606 C   0  0  0  0  0  0  0  0  0  0  0  0
   -3.8786   -1.8920    0.9996 H   0  0  0  0  0  0  0  0  0  0  0  0
   -3.2846   -2.8280   -0.3984 H   0  0  0  0  0  0  0  0  0  0  0  0
   -1.7586   -2.0580    0.8686 C   0  0  0  0  0  0  0  0  0  0  0  0
   -0.9666   -2.6340    1.6026 O   0  0  0  0  0  0  0  0  0  0  0  0
   -1.4866   -0.9220    0.2366 N   0  0  0  0  0  0  0  0  0  0  0  0
   -2.2166   -0.4790   -0.2994 H   0  0  0  0  0  0  0  0  0  0  0  0
   -0.1956   -0.2250    0.2596 C   0  0  1  0  0  0  0  0  0  0  0  0
    0.3927   -0.6026    1.0964 H   0  0  0  0  0  0  0  0  0  0  0  0
    0.5767   -0.5489   -1.0351 C   0  0  0  0  0  0  0  0  0  0  0  0
    0.1246    0.0217   -1.8479 H   0  0  0  0  0  0  0  0  0  0  0  0
    1.6140   -0.2293   -0.9252 H   0  0  0  0  0  0  0  0  0  0  0  0
    0.5453   -2.0402   -1.4100 C   0  0  0  0  0  0  0  0  0  0  0  0
    0.7169   -2.6380   -0.5116 H   0  0  0  0  0  0  0  0  0  0  0  0
   -0.4527   -2.2780   -1.7876 H   0  0  0  0  0  0  0  0  0  0  0  0
    1.5915   -2.4262   -2.4660 C   0  0  0  0  0  0  0  0  0  0  0  0
    2.2545   -1.5127   -3.0070 O   0  5  0  0  0  0  0  0  0  0  0  0
    1.7289   -3.6476   -2.6994 O   0  0  0  0  0  0  0  0  0  0  0  0
   -0.3954    1.2887    0.4814 C   0  0  0  0  0  0  0  0  0  0  0  0
   -1.2761    1.9015   -0.1256 O   0  0  0  0  0  0  0  0  0  0  0  0
    0.4051    1.8919    1.3699 N   0  0  0  0  0  0  0  0  0  0  0  0
    1.1380    1.3380    1.7875 H   0  0  0  0  0  0  0  0  0  0  0  0
    0.3573    3.3183    1.6807 C   0  0  0  0  0  0  0  0  0  0  0  0
   -0.6670    3.6090    1.9198 H   0  0  0  0  0  0  0  0  0  0  0  0
    1.0066    3.5397    2.5289 H   0  0  0  0  0  0  0  0  0  0  0  0
    0.6896    3.8897    0.8118 H   0  0  0  0  0  0  0  0  0  0  0  0
  5  6  2  0  0  0  0
  5  7  1  0  0  0  0
  2  3  1  0  0  0  0
  2  4  1  0  0  0  0
  2  5  1  0  0  0  0
  1  2  1  0  0  0  0
 20 21  2  0  0  0  0
 20 22  1  0  0  0  0
 17 18  1  0  0  0  0
 17 19  2  0  0  0  0
 14 15  1  0  0  0  0
 14 16  1  0  0  0  0
 14 17  1  0  0  0  0
 11 12  1  0  0  0  0
 11 13  1  0  0  0  0
 11 14  1  0  0  0  0
  9 10  1  0  0  0  0
  9 11  1  0  0  0  0
  9 20  1  0  0  0  0
  7  8  1  0  0  0  0
  7  9  1  0  0  0  0
 24 25  1  0  0  0  0
 24 26  1  0  0  0  0
 24 27  1  0  0  0  0
 22 23  1  0  0  0  0
 22 24  1  0  0  0  0
M  CHG  1  18  -1
M  END
$$$$
default_name
  -OEChem-02102213163D

 27 26  0     1  0  0  0  0  0999 V2000
   -3.2406   -3.5400    1.2326 H   0  0  0  0  0  0  0  0  0  0  0  0
   -3.1436   -2.6190    0.6606 C   0  0  0  0  0  0  0  0  0  0  0  0
   -3.8786   -1.8920    0.9996 H   0  0  0  0  0  0  0  0  0  0  0  0
   -3.2846   -2.8280   -0.3984 H   0  0  0  0  0  0  0  0  0  0  0  0
   -1.7586   -2.0580    0.8686 C   0  0  0  0  0  0  0  0  0  0  0  0
   -0.9666   -2.6340    1.6026 O   0  0  0  0  0  0  0  0  0  0  0  0
   -1.4866   -0.9220    0.2366 N   0  0  0  0  0  0  0  0  0  0  0  0
   -2.2166   -0.4790   -0.2994 H   0  0  0  0  0  0  0  0  0  0  0  0
   -0.1956   -0.2250    0.2596 C   0  0  1  0  0  0  0  0  0  0  0  0
    0.3927   -0.6026    1.0964 H   0  0  0  0  0  0  0  0  0  0  0  0
    0.5767   -0.5489   -1.0351 C   0  0  0  0  0  0  0  0  0  0  0  0
    0.1246    0.0217   -1.8479 H   0  0  0  0  0  0  0  0  0  0  0  0
    1.6140   -0.2293   -0.9252 H   0  0  0  0  0  0  0  0  0  0  0  0
    0.5453   -2.0402   -1.4100 C   0  0  0  0  0  0  0  0  0  0  0  0
    0.4476   -2.6355   -0.4990 H   0  0  0  0  0  0  0  0  0  0  0  0
   -0.3392   -2.2202   -2.0267 H   0  0  0  0  0  0  0  0  0  0  0  0
    1.7961   -2.5047   -2.1705 C   0  0  0  0  0  0  0  0  0  0  0  0
    2.6304   -1.6418   -2.5252 O   0  5  0  0  0  0  0  0  0  0  0  0
    1.9095   -3.7354   -2.3652 O   0  0  0  0  0  0  0  0  0  0  0  0
   -0.3954    1.2887    0.4814 C   0  0  0  0  0  0  0  0  0  0  0  0
   -1.2761    1.9015   -0.1256 O   0  0  0  0  0  0  0  0  0  0  0  0
    0.4051    1.8919    1.3699 N   0  0  0  0  0  0  0  0  0  0  0  0
    1.1380    1.3380    1.7875 H   0  0  0  0  0  0  0  0  0  0  0  0
    0.3573    3.3183    1.6807 C   0  0  0  0  0  0  0  0  0  0  0  0
   -0.6670    3.6090    1.9198 H   0  0  0  0  0  0  0  0  0  0  0  0
    1.0066    3.5397    2.5289 H   0  0  0  0  0  0  0  0  0  0  0  0
    0.6896    3.8897    0.8118 H   0  0  0  0  0  0  0  0  0  0  0  0
  5  6  2  0  0  0  0
  5  7  1  0  0  0  0
  2  3  1  0  0  0  0
  2  4  1  0  0  0  0
  2  5  1  0  0  0  0
  1  2  1  0  0  0  0
 20 21  2  0  0  0  0
 20 22  1  0  0  0  0
 17 18  1  0  0  0  0
 17 19  2  0  0  0  0
 14 15  1  0  0  0  0
 14 16  1  0  0  0  0
 14 17  1  0  0  0  0
 11 12  1  0  0  0  0
 11 13  1  0  0  0  0
 11 14  1  0  0  0  0
  9 10  1  0  0  0  0
  9 11  1  0  0  0  0
  9 20  1  0  0  0  0
  7  8  1  0  0  0  0
  7  9  1  0  0  0  0
 24 25  1  0  0  0  0
 24 26  1  0  0  0  0
 24 27  1  0  0  0  0
 22 23  1  0  0  0  0
 22 24  1  0  0  0  0
M  CHG  1  18  -1
M  END
$$$$
default_name
  -OEChem-02102213163D

 27 26  0     1  0  0  0  0  0999 V2000
   -3.2406   -3.5400    1.2326 H   0  0  0  0  0  0  0  0  0  0  0  0
   -3.1436   -2.6190    0.6606 C   0  0  0  0  0  0  0  0  0  0  0  0
   -3.8786   -1.8920    0.9996 H   0  0  0  0  0  0  0  0  0  0  0  0
   -3.2846   -2.8280   -0.3984 H   0  0  0  0  0  0  0  0  0  0  0  0
   -1.7586   -2.0580    0.8686 C   0  0  0  0  0  0  0  0  0  0  0  0
   -0.9666   -2.6340    1.6026 O   0  0  0  0  0  0  0  0  0  0  0  0
   -1.4866   -0.9220    0.2366 N   0  0  0  0  0  0  0  0  0  0  0  0
   -2.2166   -0.4790   -0.2994 H   0  0  0  0  0  0  0  0  0  0  0  0
   -0.1956   -0.2250    0.2596 C   0  0  1  0  0  0  0  0  0  0  0  0
    0.3927   -0.6026    1.0964 H   0  0  0  0  0  0  0  0  0  0  0  0
    0.5767   -0.5489   -1.0351 C   0  0  0  0  0  0  0  0  0  0  0  0
    0.1246    0.0217   -1.8479 H   0  0  0  0  0  0  0  0  0  0  0  0
    1.6140   -0.2293   -0.9252 H   0  0  0  0  0  0  0  0  0  0  0  0
    0.5453   -2.0402   -1.4100 C   0  0  0  0  0  0  0  0  0  0  0  0
    0.1845   -2.6161   -0.5543 H   0  0  0  0  0  0  0  0  0  0  0  0
   -0.1659   -2.1729   -2.2296 H   0  0  0  0  0  0  0  0  0  0  0  0
    1.9146   -2.5920   -1.8333 C   0  0  0  0  0  0  0  0  0  0  0  0
    2.8645   -1.7876   -1.9647 O   0  5  0  0  0  0  0  0  0  0  0  0
    1.9945   -3.8298   -1.9967 O   0  0  0  0  0  0  0  0  0  0  0  0
   -0.3954    1.2887    0.4814 C   0  0  0  0  0  0  0  0  0  0  0  0
   -1.2761    1.9015   -0.1256 O   0  0  0  0  0  0  0  0  0  0  0  0
    0.4051    1.8919    1.3699 N   0  0  0  0  0  0  0  0  0  0  0  0
    1.1380    1.3380    1.7875 H   0  0  0  0  0  0  0  0  0  0  0  0
    0.3573    3.3183    1.6807 C   0  0  0  0  0  0  0  0  0  0  0  0
   -0.6670    3.6090    1.9198 H   0  0  0  0  0  0  0  0  0  0  0  0
    1.0066    3.5397    2.5289 H   0  0  0  0  0  0  0  0  0  0  0  0
    0.6896    3.8897    0.8118 H   0  0  0  0  0  0  0  0  0  0  0  0
  5  6  2  0  0  0  0
  5  7  1  0  0  0  0
  2  3  1  0  0  0  0
  2  4  1  0  0  0  0
  2  5  1  0  0  0  0
  1  2  1  0  0  0  0
 20 21  2  0  0  0  0
 20 22  1  0  0  0  0
 17 18  1  0  0  0  0
 17 19  2  0  0  0  0
 14 15  1  0  0  0  0
 14 16  1  0  0  0  0
 14 17  1  0  0  0  0
 11 12  1  0  0  0  0
 11 13  1  0  0  0  0
 11 14  1  0  0  0  0
  9 10  1  0  0  0  0
  9 11  1  0  0  0  0
  9 20  1  0  0  0  0
  7  8  1  0  0  0  0
  7  9  1  0  0  0  0
 24 25  1  0  0  0  0
 24 26  1  0  0  0  0
 24 27  1  0  0  0  0
 22 23  1  0  0  0  0
 22 24  1  0  0  0  0
M  CHG  1  18  -1
M  END
$$$$
default_name
  -OEChem-02102213163D

 27 26  0     1  0  0  0  0  0999 V2000
   -3.2406   -3.5400    1.2326 H   0  0  0  0  0  0  0  0  0  0  0  0
   -3.1436   -2.6190    0.6606 C   0  0  0  0  0  0  0  0  0  0  0  0
   -3.8786   -1.8920    0.9996 H   0  0  0  0  0  0  0  0  0  0  0  0
   -3.2846   -2.8280   -0.3984 H   0  0  0  0  0  0  0  0  0  0  0  0
   -1.7586   -2.0580    0.8686 C   0  0  0  0  0  0  0  0  0  0  0  0
   -0.9666   -2.6340    1.6026 O   0  0  0  0  0  0  0  0  0  0  0  0
   -1.4866   -0.9220    0.2366 N   0  0  0  0  0  0  0  0  0  0  0  0
   -2.2166   -0.4790   -0.2994 H   0  0  0  0  0  0  0  0  0  0  0  0
   -0.1956   -0.2250    0.2596 C   0  0  1  0  0  0  0  0  0  0  0  0
    0.3927   -0.6026    1.0964 H   0  0  0  0  0  0  0  0  0  0  0  0
    0.5767   -0.5489   -1.0351 C   0  0  0  0  0  0  0  0  0  0  0  0
    0.1246    0.0217   -1.8479 H   0  0  0  0  0  0  0  0  0  0  0  0
    1.6140   -0.2293   -0.9252 H   0  0  0  0  0  0  0  0  0  0  0  0
    0.5453   -2.0402   -1.4100 C   0  0  0  0  0  0  0  0  0  0  0  0
   -0.0545   -2.5810   -0.6739 H   0  0  0  0  0  0  0  0  0  0  0  0
    0.0554   -2.1392   -2.3823 H   0  0  0  0  0  0  0  0  0  0  0  0
    1.9390   -2.6820   -1.4774 C   0  0  0  0  0  0  0  0  0  0  0  0
    2.9407   -1.9402   -1.3638 O   0  5  0  0  0  0  0  0  0  0  0  0
    1.9782   -3.9244   -1.6189 O   0  0  0  0  0  0  0  0  0  0  0  0
   -0.3954    1.2887    0.4814 C   0  0  0  0  0  0  0  0  0  0  0  0
   -1.2761    1.9015   -0.1256 O   0  0  0  0  0  0  0  0  0  0  0  0
    0.4051    1.8919    1.3699 N   0  0  0  0  0  0  0  0  0  0  0  0
    1.1380    1.3380    1.7875 H   0  0  0  0  0  0  0  0  0  0  0  0
    0.3573    3.3183    1.6807 C   0  0  0  0  0  0  0  0  0  0  0  0
   -0.6670    3.6090    1.9198 H   0  0  0  0  0  0  0  0  0  0  0  0
    1.0066    3.5397    2.5289 H   0  0  0  0  0  0  0  0  0  0  0  0
    0.6896    3.8897    0.8118 H   0  0  0  0  0  0  0  0  0  0  0  0
  5  6  2  0  0  0  0
  5  7  1  0  0  0  0
  2  3  1  0  0  0  0
  2  4  1  0  0  0  0
  2  5  1  0  0  0  0
  1  2  1  0  0  0  0
 20 21  2  0  0  0  0
 20 22  1  0  0  0  0
 17 18  1  0  0  0  0
 17 19  2  0  0  0  0
 14 15  1  0  0  0  0
 14 16  1  0  0  0  0
 14 17  1  0  0  0  0
 11 12  1  0  0  0  0
 11 13  1  0  0  0  0
 11 14  1  0  0  0  0
  9 10  1  0  0  0  0
  9 11  1  0  0  0  0
  9 20  1  0  0  0  0
  7  8  1  0  0  0  0
  7  9  1  0  0  0  0
 24 25  1  0  0  0  0
 24 26  1  0  0  0  0
 24 27  1  0  0  0  0
 22 23  1  0  0  0  0
 22 24  1  0  0  0  0
M  CHG  1  18  -1
M  END
$$$$
default_name
  -OEChem-02102213163D

 27 26  0     1  0  0  0  0  0999 V2000
   -3.2406   -3.5400    1.2326 H   0  0  0  0  0  0  0  0  0  0  0  0
   -3.1436   -2.6190    0.6606 C   0  0  0  0  0  0  0  0  0  0  0  0
   -3.8786   -1.8920    0.9996 H   0  0  0  0  0  0  0  0  0  0  0  0
   -3.2846   -2.8280   -0.3984 H   0  0  0  0  0  0  0  0  0  0  0  0
   -1.7586   -2.0580    0.8686 C   0  0  0  0  0  0  0  0  0  0  0  0
   -0.9666   -2.6340    1.6026 O   0  0  0  0  0  0  0  0  0  0  0  0
   -1.4866   -0.9220    0.2366 N   0  0  0  0  0  0  0  0  0  0  0  0
   -2.2166   -0.4790   -0.2994 H   0  0  0  0  0  0  0  0  0  0  0  0
   -0.1956   -0.2250    0.2596 C   0  0  1  0  0  0  0  0  0  0  0  0
    0.3927   -0.6026    1.0964 H   0  0  0  0  0  0  0  0  0  0  0  0
    0.5767   -0.5489   -1.0351 C   0  0  0  0  0  0  0  0  0  0  0  0
    0.1246    0.0217   -1.8479 H   0  0  0  0  0  0  0  0  0  0  0  0
    1.6140   -0.2293   -0.9252 H   0  0  0  0  0  0  0  0  0  0  0  0
    0.5453   -2.0402   -1.4100 C   0  0  0  0  0  0  0  0  0  0  0  0
   -0.2531   -2.5326   -0.8496 H   0  0  0  0  0  0  0  0  0  0  0  0
    0.3096   -2.1214   -2.4744 H   0  0  0  0  0  0  0  0  0  0  0  0
    1.8675   -2.7685   -1.1270 C   0  0  0  0  0  0  0  0  0  0  0  0
    2.8539   -2.0893   -0.7634 O   0  5  0  0  0  0  0  0  0  0  0  0
    1.8616   -4.0128   -1.2575 O   0  0  0  0  0  0  0  0  0  0  0  0
   -0.3954    1.2887    0.4814 C   0  0  0  0  0  0  0  0  0  0  0  0
   -1.2761    1.9015   -0.1256 O   0  0  0  0  0  0  0  0  0  0  0  0
    0.4051    1.8919    1.3699 N   0  0  0  0  0  0  0  0  0  0  0  0
    1.1380    1.3380    1.7875 H   0  0  0  0  0  0  0  0  0  0  0  0
    0.3573    3.3183    1.6807 C   0  0  0  0  0  0  0  0  0  0  0  0
   -0.6670    3.6090    1.9198 H   0  0  0  0  0  0  0  0  0  0  0  0
    1.0066    3.5397    2.5289 H   0  0  0  0  0  0  0  0  0  0  0  0
    0.6896    3.8897    0.8118 H   0  0  0  0  0  0  0  0  0  0  0  0
  5  6  2  0  0  0  0
  5  7  1  0  0  0  0
  2  3  1  0  0  0  0
  2  4  1  0  0  0  0
  2  5  1  0  0  0  0
  1  2  1  0  0  0  0
 20 21  2  0  0  0  0
 20 22  1  0  0  0  0
 17 18  1  0  0  0  0
 17 19  2  0  0  0  0
 14 15  1  0  0  0  0
 14 16  1  0  0  0  0
 14 17  1  0  0  0  0
 11 12  1  0  0  0  0
 11 13  1  0  0  0  0
 11 14  1  0  0  0  0
  9 10  1  0  0  0  0
  9 11  1  0  0  0  0
  9 20  1  0  0  0  0
  7  8  1  0  0  0  0
  7  9  1  0  0  0  0
 24 25  1  0  0  0  0
 24 26  1  0  0  0  0
 24 27  1  0  0  0  0
 22 23  1  0  0  0  0
 22 24  1  0  0  0  0
M  CHG  1  18  -1
M  END
$$$$
default_name
  -OEChem-02102213163D

 27 26  0     1  0  0  0  0  0999 V2000
   -3.2406   -3.5400    1.2326 H   0  0  0  0  0  0  0  0  0  0  0  0
   -3.1436   -2.6190    0.6606 C   0  0  0  0  0  0  0  0  0  0  0  0
   -3.8786   -1.8920    0.9996 H   0  0  0  0  0  0  0  0  0  0  0  0
   -3.2846   -2.8280   -0.3984 H   0  0  0  0  0  0  0  0  0  0  0  0
   -1.7586   -2.0580    0.8686 C   0  0  0  0  0  0  0  0  0  0  0  0
   -0.9666   -2.6340    1.6026 O   0  0  0  0  0  0  0  0  0  0  0  0
   -1.4866   -0.9220    0.2366 N   0  0  0  0  0  0  0  0  0  0  0  0
   -2.2166   -0.4790   -0.2994 H   0  0  0  0  0  0  0  0  0  0  0  0
   -0.1956   -0.2250    0.2596 C   0  0  1  0  0  0  0  0  0  0  0  0
    0.3927   -0.6026    1.0964 H   0  0  0  0  0  0  0  0  0  0  0  0
    0.5767   -0.5489   -1.0351 C   0  0  0  0  0  0  0  0  0  0  0  0
    0.1246    0.0217   -1.8479 H   0  0  0  0  0  0  0  0  0  0  0  0
    1.6140   -0.2293   -0.9252 H   0  0  0  0  0  0  0  0  0  0  0  0
    0.5453   -2.0402   -1.4100 C   0  0  0  0  0  0  0  0  0  0  0  0
   -0.3979   -2.4743   -1.0695 H   0  0  0  0  0  0  0  0  0  0  0  0
    0.5794   -2.1207   -2.4997 H   0  0  0  0  0  0  0  0  0  0  0  0
    1.7050   -2.8458   -0.8060 C   0  0  0  0  0  0  0  0  0  0  0  0
    2.6100   -2.2246   -0.2045 O   0  5  0  0  0  0  0  0  0  0  0  0
    1.6528   -4.0889   -0.9373 O   0  0  0  0  0  0  0  0  0  0  0  0
   -0.3954    1.2887    0.4814 C   0  0  0  0  0  0  0  0  0  0  0  0
   -1.2761    1.9015   -0.1256 O   0  0  0  0  0  0  0  0  0  0  0  0
    0.4051    1.8919    1.3699 N   0  0  0  0  0  0  0  0  0  0  0  0
    1.1380    1.3380    1.7875 H   0  0  0  0  0  0  0  0  0  0  0  0
    0.3573    3.3183    1.6807 C   0  0  0  0  0  0  0  0  0  0  0  0
   -0.6670    3.6090    1.9198 H   0  0  0  0  0  0  0  0  0  0  0  0
    1.0066    3.5397    2.5289 H   0  0  0  0  0  0  0  0  0  0  0  0
    0.6896    3.8897    0.8118 H   0  0  0  0  0  0  0  0  0  0  0  0
  5  6  2  0  0  0  0
  5  7  1  0  0  0  0
  2  3  1  0  0  0  0
  2  4  1  0  0  0  0
  2  5  1  0  0  0  0
  1  2  1  0  0  0  0
 20 21  2  0  0  0  0
 20 22  1  0  0  0  0
 17 18  1  0  0  0  0
 17 19  2  0  0  0  0
 14 15  1  0  0  0  0
 14 16  1  0  0  0  0
 14 17  1  0  0  0  0
 11 12  1  0  0  0  0
 11 13  1  0  0  0  0
 11 14  1  0  0  0  0
  9 10  1  0  0  0  0
  9 11  1  0  0  0  0
  9 20  1  0  0  0  0
  7  8  1  0  0  0  0
  7  9  1  0  0  0  0
 24 25  1  0  0  0  0
 24 26  1  0  0  0  0
 24 27  1  0  0  0  0
 22 23  1  0  0  0  0
 22 24  1  0  0  0  0
M  CHG  1  18  -1
M  END
$$$$
default_name
  -OEChem-02102213163D

 27 26  0     1  0  0  0  0  0999 V2000
   -3.2406   -3.5400    1.2326 H   0  0  0  0  0  0  0  0  0  0  0  0
   -3.1436   -2.6190    0.6606 C   0  0  0  0  0  0  0  0  0  0  0  0
   -3.8786   -1.8920    0.9996 H   0  0  0  0  0  0  0  0  0  0  0  0
   -3.2846   -2.8280   -0.3984 H   0  0  0  0  0  0  0  0  0  0  0  0
   -1.7586   -2.0580    0.8686 C   0  0  0  0  0  0  0  0  0  0  0  0
   -0.9666   -2.6340    1.6026 O   0  0  0  0  0  0  0  0  0  0  0  0
   -1.4866   -0.9220    0.2366 N   0  0  0  0  0  0  0  0  0  0  0  0
   -2.2166   -0.4790   -0.2994 H   0  0  0  0  0  0  0  0  0  0  0  0
   -0.1956   -0.2250    0.2596 C   0  0  1  0  0  0  0  0  0  0  0  0
    0.3927   -0.6026    1.0964 H   0  0  0  0  0  0  0  0  0  0  0  0
    0.5767   -0.5489   -1.0351 C   0  0  0  0  0  0  0  0  0  0  0  0
    0.1246    0.0217   -1.8479 H   0  0  0  0  0  0  0  0  0  0  0  0
    1.6140   -0.2293   -0.9252 H   0  0  0  0  0  0  0  0  0  0  0  0
    0.5453   -2.0402   -1.4100 C   0  0  0  0  0  0  0  0  0  0  0  0
   -0.4788   -2.4100   -1.3184 H   0  0  0  0  0  0  0  0  0  0  0  0
    0.8464   -2.1373   -2.4564 H   0  0  0  0  0  0  0  0  0  0  0  0
    1.4627   -2.9085   -0.5363 C   0  0  0  0  0  0  0  0  0  0  0  0
    2.2256   -2.3370    0.2748 O   0  5  0  0  0  0  0  0  0  0  0  0
    1.3659   -4.1475   -0.6800 O   0  0  0  0  0  0  0  0  0  0  0  0
   -0.3954    1.2887    0.4814 C   0  0  0  0  0  0  0  0  0  0  0  0
   -1.2761    1.9015   -0.1256 O   0  0  0  0  0  0  0  0  0  0  0  0
    0.4051    1.8919    1.3699 N   0  0  0  0  0  0  0  0  0  0  0  0
    1.1380    1.3380    1.7875 H   0  0  0  0  0  0  0  0  0  0  0  0
    0.3573    3.3183    1.6807 C   0  0  0  0  0  0  0  0  0  0  0  0
   -0.6670    3.6090    1.9198 H   0  0  0  0  0  0  0  0  0  0  0  0
    1.0066    3.5397    2.5289 H   0  0  0  0  0  0  0  0  0  0  0  0
    0.6896    3.8897    0.8118 H   0  0  0  0  0  0  0  0  0  0  0  0
  5  6  2  0  0  0  0
  5  7  1  0  0  0  0
  2  3  1  0  0  0  0
  2  4  1  0  0  0  0
  2  5  1  0  0  0  0
  1  2  1  0  0  0  0
 20 21  2  0  0  0  0
 20 22  1  0  0  0  0
 17 18  1  0  0  0  0
 17 19  2  0  0  0  0
 14 15  1  0  0  0  0
 14 16  1  0  0  0  0
 14 17  1  0  0  0  0
 11 12  1  0  0  0  0
 11 13  1  0  0  0  0
 11 14  1  0  0  0  0
  9 10  1  0  0  0  0
  9 11  1  0  0  0  0
  9 20  1  0  0  0  0
  7  8  1  0  0  0  0
  7  9  1  0  0  0  0
 24 25  1  0  0  0  0
 24 26  1  0  0  0  0
 24 27  1  0  0  0  0
 22 23  1  0  0  0  0
 22 24  1  0  0  0  0
M  CHG  1  18  -1
M  END
$$$$
default_name
  -OEChem-02102213163D

 27 26  0     1  0  0  0  0  0999 V2000
   -3.2406   -3.5400    1.2326 H   0  0  0  0  0  0  0  0  0  0  0  0
   -3.1436   -2.6190    0.6606 C   0  0  0  0  0  0  0  0  0  0  0  0
   -3.8786   -1.8920    0.9996 H   0  0  0  0  0  0  0  0  0  0  0  0
   -3.2846   -2.8280   -0.3984 H   0  0  0  0  0  0  0  0  0  0  0  0
   -1.7586   -2.0580    0.8686 C   0  0  0  0  0  0  0  0  0  0  0  0
   -0.9666   -2.6340    1.6026 O   0  0  0  0  0  0  0  0  0  0  0  0
   -1.4866   -0.9220    0.2366 N   0  0  0  0  0  0  0  0  0  0  0  0
   -2.2166   -0.4790   -0.2994 H   0  0  0  0  0  0  0  0  0  0  0  0
   -0.1956   -0.2250    0.2596 C   0  0  1  0  0  0  0  0  0  0  0  0
    0.3927   -0.6026    1.0964 H   0  0  0  0  0  0  0  0  0  0  0  0
    0.5767   -0.5489   -1.0351 C   0  0  0  0  0  0  0  0  0  0  0  0
    0.1246    0.0217   -1.8479 H   0  0  0  0  0  0  0  0  0  0  0  0
    1.6140   -0.2293   -0.9252 H   0  0  0  0  0  0  0  0  0  0  0  0
    0.5453   -2.0402   -1.4100 C   0  0  0  0  0  0  0  0  0  0  0  0
   -0.4905   -2.3441   -1.5795 H   0  0  0  0  0  0  0  0  0  0  0  0
    1.0924   -2.1698   -2.3475 H   0  0  0  0  0  0  0  0  0  0  0  0
    1.1570   -2.9523   -0.3363 C   0  0  0  0  0  0  0  0  0  0  0  0
    1.7269   -2.4188    0.6420 O   0  5  0  0  0  0  0  0  0  0  0  0
    1.0205   -4.1847   -0.5031 O   0  0  0  0  0  0  0  0  0  0  0  0
   -0.3954    1.2887    0.4814 C   0  0  0  0  0  0  0  0  0  0  0  0
   -1.2761    1.9015   -0.1256 O   0  0  0  0  0  0  0  0  0  0  0  0
    0.4051    1.8919    1.3699 N   0  0  0  0  0  0  0  0  0  0  0  0
    1.1380    1.3380    1.7875 H   0  0  0  0  0  0  0  0  0  0  0  0
    0.3573    3.3183    1.6807 C   0  0  0  0  0  0  0  0  0  0  0  0
   -0.6670    3.6090    1.9198 H   0  0  0  0  0  0  0  0  0  0  0  0
    1.0066    3.5397    2.5289 H   0  0  0  0  0  0  0  0  0  0  0  0
    0.6896    3.8897    0.8118 H   0  0  0  0  0  0  0  0  0  0  0  0
  5  6  2  0  0  0  0
  5  7  1  0  0  0  0
  2  3  1  0  0  0  0
  2  4  1  0  0  0  0
  2  5  1  0  0  0  0
  1  2  1  0  0  0  0
 20 21  2  0  0  0  0
 20 22  1  0  0  0  0
 17 18  1  0  0  0  0
 17 19  2  0  0  0  0
 14 15  1  0  0  0  0
 14 16  1  0  0  0  0
 14 17  1  0  0  0  0
 11 12  1  0  0  0  0
 11 13  1  0  0  0  0
 11 14  1  0  0  0  0
  9 10  1  0  0  0  0
  9 11  1  0  0  0  0
  9 20  1  0  0  0  0
  7  8  1  0  0  0  0
  7  9  1  0  0  0  0
 24 25  1  0  0  0  0
 24 26  1  0  0  0  0
 24 27  1  0  0  0  0
 22 23  1  0  0  0  0
 22 24  1  0  0  0  0
M  CHG  1  18  -1
M  END
$$$$
default_name
  -OEChem-02102213163D

 27 26  0     1  0  0  0  0  0999 V2000
   -3.2406   -3.5400    1.2326 H   0  0  0  0  0  0  0  0  0  0  0  0
   -3.1436   -2.6190    0.6606 C   0  0  0  0  0  0  0  0  0  0  0  0
   -3.8786   -1.8920    0.9996 H   0  0  0  0  0  0  0  0  0  0  0  0
   -3.2846   -2.8280   -0.3984 H   0  0  0  0  0  0  0  0  0  0  0  0
   -1.7586   -2.0580    0.8686 C   0  0  0  0  0  0  0  0  0  0  0  0
   -0.9666   -2.6340    1.6026 O   0  0  0  0  0  0  0  0  0  0  0  0
   -1.4866   -0.9220    0.2366 N   0  0  0  0  0  0  0  0  0  0  0  0
   -2.2166   -0.4790   -0.2994 H   0  0  0  0  0  0  0  0  0  0  0  0
   -0.1956   -0.2250    0.2596 C   0  0  1  0  0  0  0  0  0  0  0  0
    0.3927   -0.6026    1.0964 H   0  0  0  0  0  0  0  0  0  0  0  0
    0.5767   -0.5489   -1.0351 C   0  0  0  0  0  0  0  0  0  0  0  0
    0.1246    0.0217   -1.8479 H   0  0  0  0  0  0  0  0  0  0  0  0
    1.6140   -0.2293   -0.9252 H   0  0  0  0  0  0  0  0  0  0  0  0
    0.5453   -2.0402   -1.4100 C   0  0  0  0  0  0  0  0  0  0  0  0
   -0.4321   -2.2812   -1.8351 H   0  0  0  0  0  0  0  0  0  0  0  0
    1.3006   -2.2162   -2.1804 H   0  0  0  0  0  0  0  0  0  0  0  0
    0.8087   -2.9743   -0.2196 C   0  0  0  0  0  0  0  0  0  0  0  0
    1.1479   -2.4643    0.8719 O   0  5  0  0  0  0  0  0  0  0  0  0
    0.6402   -4.1979   -0.4187 O   0  0  0  0  0  0  0  0  0  0  0  0
   -0.3954    1.2887    0.4814 C   0  0  0  0  0  0  0  0  0  0  0  0
   -1.2761    1.9015   -0.1256 O   0  0  0  0  0  0  0  0  0  0  0  0
    0.4051    1.8919    1.3699 N   0  0  0  0  0  0  0  0  0  0  0  0
    1.1380    1.3380    1.7875 H   0  0  0  0  0  0  0  0  0  0  0  0
    0.3573    3.3183    1.6807 C   0  0  0  0  0  0  0  0  0  0  0  0
   -0.6670    3.6090    1.9198 H   0  0  0  0  0  0  0  0  0  0  0  0
    1.0066    3.5397    2.5289 H   0  0  0  0  0  0  0  0  0  0  0  0
    0.6896    3.8897    0.8118 H   0  0  0  0  0  0  0  0  0  0  0  0
  5  6  2  0  0  0  0
  5  7  1  0  0  0  0
  2  3  1  0  0  0  0
  2  4  1  0  0  0  0
  2  5  1  0  0  0  0
  1  2  1  0  0  0  0
 20 21  2  0  0  0  0
 20 22  1  0  0  0  0
 17 18  1  0  0  0  0
 17 19  2  0  0  0  0
 14 15  1  0  0  0  0
 14 16  1  0  0  0  0
 14 17  1  0  0  0  0
 11 12  1  0  0  0  0
 11 13  1  0  0  0  0
 11 14  1  0  0  0  0
  9 10  1  0  0  0  0
  9 11  1  0  0  0  0
  9 20  1  0  0  0  0
  7  8  1  0  0  0  0
  7  9  1  0  0  0  0
 24 25  1  0  0  0  0
 24 26  1  0  0  0  0
 24 27  1  0  0  0  0
 22 23  1  0  0  0  0
 22 24  1  0  0  0  0
M  CHG  1  18  -1
M  END
$$$$
default_name
  -OEChem-02102213163D

 27 26  0     1  0  0  0  0  0999 V2000
   -3.2406   -3.5400    1.2326 H   0  0  0  0  0  0  0  0  0  0  0  0
   -3.1436   -2.6190    0.6606 C   0  0  0  0  0  0  0  0  0  0  0  0
   -3.8786   -1.8920    0.9996 H   0  0  0  0  0  0  0  0  0  0  0  0
   -3.2846   -2.8280   -0.3984 H   0  0  0  0  0  0  0  0  0  0  0  0
   -1.7586   -2.0580    0.8686 C   0  0  0  0  0  0  0  0  0  0  0  0
   -0.9666   -2.6340    1.6026 O   0  0  0  0  0  0  0  0  0  0  0  0
   -1.4866   -0.9220    0.2366 N   0  0  0  0  0  0  0  0  0  0  0  0
   -2.2166   -0.4790   -0.2994 H   0  0  0  0  0  0  0  0  0  0  0  0
   -0.1956   -0.2250    0.2596 C   0  0  1  0  0  0  0  0  0  0  0  0
    0.3927   -0.6026    1.0964 H   0  0  0  0  0  0  0  0  0  0  0  0
    0.5767   -0.5489   -1.0351 C   0  0  0  0  0  0  0  0  0  0  0  0
    0.1246    0.0217   -1.8479 H   0  0  0  0  0  0  0  0  0  0  0  0
    1.6140   -0.2293   -0.9252 H   0  0  0  0  0  0  0  0  0  0  0  0
    0.5453   -2.0402   -1.4100 C   0  0  0  0  0  0  0  0  0  0  0  0
   -0.3075   -2.2254   -2.0675 H   0  0  0  0  0  0  0  0  0  0  0  0
    1.4569   -2.2733   -1.9665 H   0  0  0  0  0  0  0  0  0  0  0  0
    0.4417   -2.9729   -0.1942 C   0  0  0  0  0  0  0  0  0  0  0  0
    0.5280   -2.4706    0.9490 O   0  5  0  0  0  0  0  0  0  0  0  0
    0.2508   -4.1862   -0.4326 O   0  0  0  0  0  0  0  0  0  0  0  0
   -0.3954    1.2887    0.4814 C   0  0  0  0  0  0  0  0  0  0  0  0
   -1.2761    1.9015   -0.1256 O   0  0  0  0  0  0  0  0  0  0  0  0
    0.4051    1.8919    1.3699 N   0  0  0  0  0  0  0  0  0  0  0  0
    1.1380    1.3380    1.7875 H   0  0  0  0  0  0  0  0  0  0  0  0
    0.3573    3.3183    1.6807 C   0  0  0  0  0  0  0  0  0  0  0  0
   -0.6670    3.6090    1.9198 H   0  0  0  0  0  0  0  0  0  0  0  0
    1.0066    3.5397    2.5289 H   0  0  0  0  0  0  0  0  0  0  0  0
    0.6896    3.8897    0.8118 H   0  0  0  0  0  0  0  0  0  0  0  0
  5  6  2  0  0  0  0
  5  7  1  0  0  0  0
  2  3  1  0  0  0  0
  2  4  1  0  0  0  0
  2  5  1  0  0  0  0
  1  2  1  0  0  0  0
 20 21  2  0  0  0  0
 20 22  1  0  0  0  0
 17 18  1  0  0  0  0
 17 19  2  0  0  0  0
 14 15  1  0  0  0  0
 14 16  1  0  0  0  0
 14 17  1  0  0  0  0
 11 12  1  0  0  0  0
 11 13  1  0  0  0  0
 11 14  1  0  0  0  0
  9 10  1  0  0  0  0
  9 11  1  0  0  0  0
  9 20  1  0  0  0  0
  7  8  1  0  0  0  0
  7  9  1  0  0  0  0
 24 25  1  0  0  0  0
 24 26  1  0  0  0  0
 24 27  1  0  0  0  0
 22 23  1  0  0  0  0
 22 24  1  0  0  0  0
M  CHG  1  18  -1
M  END
$$$$
default_name
  -OEChem-02102213163D

 27 26  0     1  0  0  0  0  0999 V2000
   -3.2406   -3.5400    1.2326 H   0  0  0  0  0  0  0  0  0  0  0  0
   -3.1436   -2.6190    0.6606 C   0  0  0  0  0  0  0  0  0  0  0  0
   -3.8786   -1.8920    0.9996 H   0  0  0  0  0  0  0  0  0  0  0  0
   -3.2846   -2.8280   -0.3984 H   0  0  0  0  0  0  0  0  0  0  0  0
   -1.7586   -2.0580    0.8686 C   0  0  0  0  0  0  0  0  0  0  0  0
   -0.9666   -2.6340    1.6026 O   0  0  0  0  0  0  0  0  0  0  0  0
   -1.4866   -0.9220    0.2366 N   0  0  0  0  0  0  0  0  0  0  0  0
   -2.2166   -0.4790   -0.2994 H   0  0  0  0  0  0  0  0  0  0  0  0
   -0.1956   -0.2250    0.2596 C   0  0  1  0  0  0  0  0  0  0  0  0
    0.3927   -0.6026    1.0964 H   0  0  0  0  0  0  0  0  0  0  0  0
    0.5767   -0.5489   -1.0351 C   0  0  0  0  0  0  0  0  0  0  0  0
    0.1246    0.0217   -1.8479 H   0  0  0  0  0  0  0  0  0  0  0  0
    1.6140   -0.2293   -0.9252 H   0  0  0  0  0  0  0  0  0  0  0  0
    0.5453   -2.0402   -1.4100 C   0  0  0  0  0  0  0  0  0  0  0  0
   -0.1254   -2.1805   -2.2611 H   0  0  0  0  0  0  0  0  0  0  0  0
    1.5505   -2.3371   -1.7204 H   0  0  0  0  0  0  0  0  0  0  0  0
    0.0808   -2.9483   -0.2617 C   0  0  0  0  0  0  0  0  0  0  0  0
   -0.0904   -2.4372    0.8678 O   0  5  0  0  0  0  0  0  0  0  0  0
   -0.1211   -4.1504   -0.5438 O   0  0  0  0  0  0  0  0  0  0  0  0
   -0.3954    1.2887    0.4814 C   0  0  0  0  0  0  0  0  0  0  0  0
   -1.2761    1.9015   -0.1256 O   0  0  0  0  0  0  0  0  0  0  0  0
    0.4051    1.8919    1.3699 N   0  0  0  0  0  0  0  0  0  0  0  0
    1.1380    1.3380    1.7875 H   0  0  0  0  0  0  0  0  0  0  0  0
    0.3573    3.3183    1.6807 C   0  0  0  0  0  0  0  0  0  0  0  0
   -0.6670    3.6090    1.9198 H   0  0  0  0  0  0  0  0  0  0  0  0
    1.0066    3.5397    2.5289 H   0  0  0  0  0  0  0  0  0  0  0  0
    0.6896    3.8897    0.8118 H   0  0  0  0  0  0  0  0  0  0  0  0
  5  6  2  0  0  0  0
  5  7  1  0  0  0  0
  2  3  1  0  0  0  0
  2  4  1  0  0  0  0
  2  5  1  0  0  0  0
  1  2  1  0  0  0  0
 20 21  2  0  0  0  0
 20 22  1  0  0  0  0
 17 18  1  0  0  0  0
 17 19  2  0  0  0  0
 14 15  1  0  0  0  0
 14 16  1  0  0  0  0
 14 17  1  0  0  0  0
 11 12  1  0  0  0  0
 11 13  1  0  0  0  0
 11 14  1  0  0  0  0
  9 10  1  0  0  0  0
  9 11  1  0  0  0  0
  9 20  1  0  0  0  0
  7  8  1  0  0  0  0
  7  9  1  0  0  0  0
 24 25  1  0  0  0  0
 24 26  1  0  0  0  0
 24 27  1  0  0  0  0
 22 23  1  0  0  0  0
 22 24  1  0  0  0  0
M  CHG  1  18  -1
M  END
$$$$
default_name
  -OEChem-02102213163D

 27 26  0     1  0  0  0  0  0999 V2000
   -3.2406   -3.5400    1.2326 H   0  0  0  0  0  0  0  0  0  0  0  0
   -3.1436   -2.6190    0.6606 C   0  0  0  0  0  0  0  0  0  0  0  0
   -3.8786   -1.8920    0.9996 H   0  0  0  0  0  0  0  0  0  0  0  0
   -3.2846   -2.8280   -0.3984 H   0  0  0  0  0  0  0  0  0  0  0  0
   -1.7586   -2.0580    0.8686 C   0  0  0  0  0  0  0  0  0  0  0  0
   -0.9666   -2.6340    1.6026 O   0  0  0  0  0  0  0  0  0  0  0  0
   -1.4866   -0.9220    0.2366 N   0  0  0  0  0  0  0  0  0  0  0  0
   -2.2166   -0.4790   -0.2994 H   0  0  0  0  0  0  0  0  0  0  0  0
   -0.1956   -0.2250    0.2596 C   0  0  1  0  0  0  0  0  0  0  0  0
    0.3927   -0.6026    1.0964 H   0  0  0  0  0  0  0  0  0  0  0  0
    0.5767   -0.5489   -1.0351 C   0  0  0  0  0  0  0  0  0  0  0  0
    0.1246    0.0217   -1.8479 H   0  0  0  0  0  0  0  0  0  0  0  0
    1.6140   -0.2293   -0.9252 H   0  0  0  0  0  0  0  0  0  0  0  0
    0.5453   -2.0402   -1.4100 C   0  0  0  0  0  0  0  0  0  0  0  0
    0.1020   -2.1498   -2.4026 H   0  0  0  0  0  0  0  0  0  0  0  0
    1.5752   -2.4034   -1.4588 H   0  0  0  0  0  0  0  0  0  0  0  0
   -0.2492   -2.9022   -0.4177 C   0  0  0  0  0  0  0  0  0  0  0  0
   -0.6653   -2.3663    0.6341 O   0  5  0  0  0  0  0  0  0  0  0  0
   -0.4502   -4.0929   -0.7447 O   0  0  0  0  0  0  0  0  0  0  0  0
   -0.3954    1.2887    0.4814 C   0  0  0  0  0  0  0  0  0  0  0  0
   -1.2761    1.9015   -0.1256 O   0  0  0  0  0  0  0  0  0  0  0  0
    0.4051    1.8919    1.3699 N   0  0  0  0  0  0  0  0  0  0  0  0
    1.1380    1.3380    1.7875 H   0  0  0  0  0  0  0  0  0  0  0  0
    0.3573    3.3183    1.6807 C   0  0  0  0  0  0  0  0  0  0  0  0
   -0.6670    3.6090    1.9198 H   0  0  0  0  0  0  0  0  0  0  0  0
    1.0066    3.5397    2.5289 H   0  0  0  0  0  0  0  0  0  0  0  0
    0.6896    3.8897    0.8118 H   0  0  0  0  0  0  0  0  0  0  0  0
  5  6  2  0  0  0  0
  5  7  1  0  0  0  0
  2  3  1  0  0  0  0
  2  4  1  0  0  0  0
  2  5  1  0  0  0  0
  1  2  1  0  0  0  0
 20 21  2  0  0  0  0
 20 22  1  0  0  0  0
 17 18  1  0  0  0  0
 17 19  2  0  0  0  0
 14 15  1  0  0  0  0
 14 16  1  0  0  0  0
 14 17  1  0  0  0  0
 11 12  1  0  0  0  0
 11 13  1  0  0  0  0
 11 14  1  0  0  0  0
  9 10  1  0  0  0  0
  9 11  1  0  0  0  0
  9 20  1  0  0  0  0
  7  8  1  0  0  0  0
  7  9  1  0  0  0  0
 24 25  1  0  0  0  0
 24 26  1  0  0  0  0
 24 27  1  0  0  0  0
 22 23  1  0  0  0  0
 22 24  1  0  0  0  0
M  CHG  1  18  -1
M  END
$$$$
default_name
  -OEChem-02102213163D

 27 26  0     1  0  0  0  0  0999 V2000
   -3.2406   -3.5400    1.2326 H   0  0  0  0  0  0  0  0  0  0  0  0
   -3.1436   -2.6190    0.6606 C   0  0  0  0  0  0  0  0  0  0  0  0
   -3.8786   -1.8920    0.9996 H   0  0  0  0  0  0  0  0  0  0  0  0
   -3.2846   -2.8280   -0.3984 H   0  0  0  0  0  0  0  0  0  0  0  0
   -1.7586   -2.0580    0.8686 C   0  0  0  0  0  0  0  0  0  0  0  0
   -0.9666   -2.6340    1.6026 O   0  0  0  0  0  0  0  0  0  0  0  0
   -1.4866   -0.9220    0.2366 N   0  0  0  0  0  0  0  0  0  0  0  0
   -2.2166   -0.4790   -0.2994 H   0  0  0  0  0  0  0  0  0  0  0  0
   -0.1956   -0.2250    0.2596 C   0  0  1  0  0  0  0  0  0  0  0  0
    0.3927   -0.6026    1.0964 H   0  0  0  0  0  0  0  0  0  0  0  0
    0.5767   -0.5489   -1.0351 C   0  0  0  0  0  0  0  0  0  0  0  0
    0.1246    0.0217   -1.8479 H   0  0  0  0  0  0  0  0  0  0  0  0
    1.6140   -0.2293   -0.9252 H   0  0  0  0  0  0  0  0  0  0  0  0
    0.5453   -2.0402   -1.4100 C   0  0  0  0  0  0  0  0  0  0  0  0
    0.3590   -2.1351   -2.4825 H   0  0  0  0  0  0  0  0  0  0  0  0
    1.5292   -2.4676   -1.1996 H   0  0  0  0  0  0  0  0  0  0  0  0
   -0.5260   -2.8376   -0.6514 C   0  0  0  0  0  0  0  0  0  0  0  0
   -1.1575   -2.2628    0.2637 O   0  5  0  0  0  0  0  0  0  0  0  0
   -0.7140   -4.0178   -1.0217 O   0  0  0  0  0  0  0  0  0  0  0  0
   -0.3954    1.2887    0.4814 C   0  0  0  0  0  0  0  0  0  0  0  0
   -1.2761    1.9015   -0.1256 O   0  0  0  0  0  0  0  0  0  0  0  0
    0.4051    1.8919    1.3699 N   0  0  0  0  0  0  0  0  0  0  0  0
    1.1380    1.3380    1.7875 H   0  0  0  0  0  0  0  0  0  0  0  0
    0.3573    3.3183    1.6807 C   0  0  0  0  0  0  0  0  0  0  0  0
   -0.6670    3.6090    1.9198 H   0  0  0  0  0  0  0  0  0  0  0  0
    1.0066    3.5397    2.5289 H   0  0  0  0  0  0  0  0  0  0  0  0
    0.6896    3.8897    0.8118 H   0  0  0  0  0  0  0  0  0  0  0  0
  5  6  2  0  0  0  0
  5  7  1  0  0  0  0
  2  3  1  0  0  0  0
  2  4  1  0  0  0  0
  2  5  1  0  0  0  0
  1  2  1  0  0  0  0
 20 21  2  0  0  0  0
 20 22  1  0  0  0  0
 17 18  1  0  0  0  0
 17 19  2  0  0  0  0
 14 15  1  0  0  0  0
 14 16  1  0  0  0  0
 14 17  1  0  0  0  0
 11 12  1  0  0  0  0
 11 13  1  0  0  0  0
 11 14  1  0  0  0  0
  9 10  1  0  0  0  0
  9 11  1  0  0  0  0
  9 20  1  0  0  0  0
  7  8  1  0  0  0  0
  7  9  1  0  0  0  0
 24 25  1  0  0  0  0
 24 26  1  0  0  0  0
 24 27  1  0  0  0  0
 22 23  1  0  0  0  0
 22 24  1  0  0  0  0
M  CHG  1  18  -1
M  END
$$$$
default_name
  -OEChem-02102213163D

 27 26  0     1  0  0  0  0  0999 V2000
   -3.2406   -3.5400    1.2326 H   0  0  0  0  0  0  0  0  0  0  0  0
   -3.1436   -2.6190    0.6606 C   0  0  0  0  0  0  0  0  0  0  0  0
   -3.8786   -1.8920    0.9996 H   0  0  0  0  0  0  0  0  0  0  0  0
   -3.2846   -2.8280   -0.3984 H   0  0  0  0  0  0  0  0  0  0  0  0
   -1.7586   -2.0580    0.8686 C   0  0  0  0  0  0  0  0  0  0  0  0
   -0.9666   -2.6340    1.6026 O   0  0  0  0  0  0  0  0  0  0  0  0
   -1.4866   -0.9220    0.2366 N   0  0  0  0  0  0  0  0  0  0  0  0
   -2.2166   -0.4790   -0.2994 H   0  0  0  0  0  0  0  0  0  0  0  0
   -0.1956   -0.2250    0.2596 C   0  0  1  0  0  0  0  0  0  0  0  0
    0.3927   -0.6026    1.0964 H   0  0  0  0  0  0  0  0  0  0  0  0
    0.5767   -0.5489   -1.0351 C   0  0  0  0  0  0  0  0  0  0  0  0
    0.1246    0.0217   -1.8479 H   0  0  0  0  0  0  0  0  0  0  0  0
    1.6140   -0.2293   -0.9252 H   0  0  0  0  0  0  0  0  0  0  0  0
    0.5453   -2.0402   -1.4100 C   0  0  0  0  0  0  0  0  0  0  0  0
    0.6283   -2.1376   -2.4951 H   0  0  0  0  0  0  0  0  0  0  0  0
    1.4157   -2.5253   -0.9604 H   0  0  0  0  0  0  0  0  0  0  0  0
   -0.7306   -2.7590   -0.9469 C   0  0  0  0  0  0  0  0  0  0  0  0
   -1.5335   -2.1338   -0.2182 O   0  5  0  0  0  0  0  0  0  0  0  0
   -0.8946   -3.9300   -1.3558 O   0  0  0  0  0  0  0  0  0  0  0  0
   -0.3954    1.2887    0.4814 C   0  0  0  0  0  0  0  0  0  0  0  0
   -1.2761    1.9015   -0.1256 O   0  0  0  0  0  0  0  0  0  0  0  0
    0.4051    1.8919    1.3699 N   0  0  0  0  0  0  0  0  0  0  0  0
    1.1380    1.3380    1.7875 H   0  0  0  0  0  0  0  0  0  0  0  0
    0.3573    3.3183    1.6807 C   0  0  0  0  0  0  0  0  0  0  0  0
   -0.6670    3.6090    1.9198 H   0  0  0  0  0  0  0  0  0  0  0  0
    1.0066    3.5397    2.5289 H   0  0  0  0  0  0  0  0  0  0  0  0
    0.6896    3.8897    0.8118 H   0  0  0  0  0  0  0  0  0  0  0  0
  5  6  2  0  0  0  0
  5  7  1  0  0  0  0
  2  3  1  0  0  0  0
  2  4  1  0  0  0  0
  2  5  1  0  0  0  0
  1  2  1  0  0  0  0
 20 21  2  0  0  0  0
 20 22  1  0  0  0  0
 17 18  1  0  0  0  0
 17 19  2  0  0  0  0
 14 15  1  0  0  0  0
 14 16  1  0  0  0  0
 14 17  1  0  0  0  0
 11 12  1  0  0  0  0
 11 13  1  0  0  0  0
 11 14  1  0  0  0  0
  9 10  1  0  0  0  0
  9 11  1  0  0  0  0
  9 20  1  0  0  0  0
  7  8  1  0  0  0  0
  7  9  1  0  0  0  0
 24 25  1  0  0  0  0
 24 26  1  0  0  0  0
 24 27  1  0  0  0  0
 22 23  1  0  0  0  0
 22 24  1  0  0  0  0
M  CHG  1  18  -1
M  END
$$$$
default_name
  -OEChem-02102213163D

 27 26  0     1  0  0  0  0  0999 V2000
   -3.2406   -3.5400    1.2326 H   0  0  0  0  0  0  0  0  0  0  0  0
   -3.1436   -2.6190    0.6606 C   0  0  0  0  0  0  0  0  0  0  0  0
   -3.8786   -1.8920    0.9996 H   0  0  0  0  0  0  0  0  0  0  0  0
   -3.2846   -2.8280   -0.3984 H   0  0  0  0  0  0  0  0  0  0  0  0
   -1.7586   -2.0580    0.8686 C   0  0  0  0  0  0  0  0  0  0  0  0
   -0.9666   -2.6340    1.6026 O   0  0  0  0  0  0  0  0  0  0  0  0
   -1.4866   -0.9220    0.2366 N   0  0  0  0  0  0  0  0  0  0  0  0
   -2.2166   -0.4790   -0.2994 H   0  0  0  0  0  0  0  0  0  0  0  0
   -0.1956   -0.2250    0.2596 C   0  0  1  0  0  0  0  0  0  0  0  0
    0.3927   -0.6026    1.0964 H   0  0  0  0  0  0  0  0  0  0  0  0
    0.5767   -0.5489   -1.0351 C   0  0  0  0  0  0  0  0  0  0  0  0
    0.1246    0.0217   -1.8479 H   0  0  0  0  0  0  0  0  0  0  0  0
    1.6140   -0.2293   -0.9252 H   0  0  0  0  0  0  0  0  0  0  0  0
    0.5453   -2.0402   -1.4100 C   0  0  0  0  0  0  0  0  0  0  0  0
    0.8914   -2.1571   -2.4397 H   0  0  0  0  0  0  0  0  0  0  0  0
    1.2424   -2.5726   -0.7576 H   0  0  0  0  0  0  0  0  0  0  0  0
   -0.8491   -2.6717   -1.2841 C   0  0  0  0  0  0  0  0  0  0  0  0
   -1.7675   -1.9880   -0.7787 O   0  5  0  0  0  0  0  0  0  0  0  0
   -0.9796   -3.8355   -1.7243 O   0  0  0  0  0  0  0  0  0  0  0  0
   -0.3954    1.2887    0.4814 C   0  0  0  0  0  0  0  0  0  0  0  0
   -1.2761    1.9015   -0.1256 O   0  0  0  0  0  0  0  0  0  0  0  0
    0.4051    1.8919    1.3699 N   0  0  0  0  0  0  0  0  0  0  0  0
    1.1380    1.3380    1.7875 H   0  0  0  0  0  0  0  0  0  0  0  0
    0.3573    3.3183    1.6807 C   0  0  0  0  0  0  0  0  0  0  0  0
   -0.6670    3.6090    1.9198 H   0  0  0  0  0  0  0  0  0  0  0  0
    1.0066    3.5397    2.5289 H   0  0  0  0  0  0  0  0  0  0  0  0
    0.6896    3.8897    0.8118 H   0  0  0  0  0  0  0  0  0  0  0  0
  5  6  2  0  0  0  0
  5  7  1  0  0  0  0
  2  3  1  0  0  0  0
  2  4  1  0  0  0  0
  2  5  1  0  0  0  0
  1  2  1  0  0  0  0
 20 21  2  0  0  0  0
 20 22  1  0  0  0  0
 17 18  1  0  0  0  0
 17 19  2  0  0  0  0
 14 15  1  0  0  0  0
 14 16  1  0  0  0  0
 14 17  1  0  0  0  0
 11 12  1  0  0  0  0
 11 13  1  0  0  0  0
 11 14  1  0  0  0  0
  9 10  1  0  0  0  0
  9 11  1  0  0  0  0
  9 20  1  0  0  0  0
  7  8  1  0  0  0  0
  7  9  1  0  0  0  0
 24 25  1  0  0  0  0
 24 26  1  0  0  0  0
 24 27  1  0  0  0  0
 22 23  1  0  0  0  0
 22 24  1  0  0  0  0
M  CHG  1  18  -1
M  END
$$$$
default_name
  -OEChem-02102213163D

 27 26  0     1  0  0  0  0  0999 V2000
   -3.2406   -3.5400    1.2326 H   0  0  0  0  0  0  0  0  0  0  0  0
   -3.1436   -2.6190    0.6606 C   0  0  0  0  0  0  0  0  0  0  0  0
   -3.8786   -1.8920    0.9996 H   0  0  0  0  0  0  0  0  0  0  0  0
   -3.2846   -2.8280   -0.3984 H   0  0  0  0  0  0  0  0  0  0  0  0
   -1.7586   -2.0580    0.8686 C   0  0  0  0  0  0  0  0  0  0  0  0
   -0.9666   -2.6340    1.6026 O   0  0  0  0  0  0  0  0  0  0  0  0
   -1.4866   -0.9220    0.2366 N   0  0  0  0  0  0  0  0  0  0  0  0
   -2.2166   -0.4790   -0.2994 H   0  0  0  0  0  0  0  0  0  0  0  0
   -0.1956   -0.2250    0.2596 C   0  0  1  0  0  0  0  0  0  0  0  0
    0.3927   -0.6026    1.0964 H   0  0  0  0  0  0  0  0  0  0  0  0
    0.5767   -0.5489   -1.0351 C   0  0  0  0  0  0  0  0  0  0  0  0
    0.1246    0.0217   -1.8479 H   0  0  0  0  0  0  0  0  0  0  0  0
    1.6140   -0.2293   -0.9252 H   0  0  0  0  0  0  0  0  0  0  0  0
    0.5453   -2.0402   -1.4100 C   0  0  0  0  0  0  0  0  0  0  0  0
    1.1304   -2.1922   -2.3201 H   0  0  0  0  0  0  0  0  0  0  0  0
    1.0211   -2.6063   -0.6049 H   0  0  0  0  0  0  0  0  0  0  0  0
   -0.8734   -2.5818   -1.6400 C   0  0  0  0  0  0  0  0  0  0  0  0
   -1.8437   -1.8353   -1.3796 O   0  5  0  0  0  0  0  0  0  0  0  0
   -0.9633   -3.7409   -2.1021 O   0  0  0  0  0  0  0  0  0  0  0  0
   -0.3954    1.2887    0.4814 C   0  0  0  0  0  0  0  0  0  0  0  0
   -1.2761    1.9015   -0.1256 O   0  0  0  0  0  0  0  0  0  0  0  0
    0.4051    1.8919    1.3699 N   0  0  0  0  0  0  0  0  0  0  0  0
    1.1380    1.3380    1.7875 H   0  0  0  0  0  0  0  0  0  0  0  0
    0.3573    3.3183    1.6807 C   0  0  0  0  0  0  0  0  0  0  0  0
   -0.6670    3.6090    1.9198 H   0  0  0  0  0  0  0  0  0  0  0  0
    1.0066    3.5397    2.5289 H   0  0  0  0  0  0  0  0  0  0  0  0
    0.6896    3.8897    0.8118 H   0  0  0  0  0  0  0  0  0  0  0  0
  5  6  2  0  0  0  0
  5  7  1  0  0  0  0
  2  3  1  0  0  0  0
  2  4  1  0  0  0  0
  2  5  1  0  0  0  0
  1  2  1  0  0  0  0
 20 21  2  0  0  0  0
 20 22  1  0  0  0  0
 17 18  1  0  0  0  0
 17 19  2  0  0  0  0
 14 15  1  0  0  0  0
 14 16  1  0  0  0  0
 14 17  1  0  0  0  0
 11 12  1  0  0  0  0
 11 13  1  0  0  0  0
 11 14  1  0  0  0  0
  9 10  1  0  0  0  0
  9 11  1  0  0  0  0
  9 20  1  0  0  0  0
  7  8  1  0  0  0  0
  7  9  1  0  0  0  0
 24 25  1  0  0  0  0
 24 26  1  0  0  0  0
 24 27  1  0  0  0  0
 22 23  1  0  0  0  0
 22 24  1  0  0  0  0
M  CHG  1  18  -1
M  END
$$$$
default_name
  -OEChem-02102213163D

 27 26  0     1  0  0  0  0  0999 V2000
   -3.2406   -3.5400    1.2326 H   0  0  0  0  0  0  0  0  0  0  0  0
   -3.1436   -2.6190    0.6606 C   0  0  0  0  0  0  0  0  0  0  0  0
   -3.8786   -1.8920    0.9996 H   0  0  0  0  0  0  0  0  0  0  0  0
   -3.2846   -2.8280   -0.3984 H   0  0  0  0  0  0  0  0  0  0  0  0
   -1.7586   -2.0580    0.8686 C   0  0  0  0  0  0  0  0  0  0  0  0
   -0.9666   -2.6340    1.6026 O   0  0  0  0  0  0  0  0  0  0  0  0
   -1.4866   -0.9220    0.2366 N   0  0  0  0  0  0  0  0  0  0  0  0
   -2.2166   -0.4790   -0.2994 H   0  0  0  0  0  0  0  0  0  0  0  0
   -0.1956   -0.2250    0.2596 C   0  0  1  0  0  0  0  0  0  0  0  0
    0.3927   -0.6026    1.0964 H   0  0  0  0  0  0  0  0  0  0  0  0
    0.5767   -0.5489   -1.0351 C   0  0  0  0  0  0  0  0  0  0  0  0
    0.1246    0.0217   -1.8479 H   0  0  0  0  0  0  0  0  0  0  0  0
    1.6140   -0.2293   -0.9252 H   0  0  0  0  0  0  0  0  0  0  0  0
    0.5453   -2.0402   -1.4100 C   0  0  0  0  0  0  0  0  0  0  0  0
    1.3290   -2.2405   -2.1444 H   0  0  0  0  0  0  0  0  0  0  0  0
    0.7668   -2.6241   -0.5127 H   0  0  0  0  0  0  0  0  0  0  0  0
   -0.8019   -2.4952   -1.9904 C   0  0  0  0  0  0  0  0  0  0  0  0
   -1.7569   -1.6863   -1.9799 O   0  5  0  0  0  0  0  0  0  0  0  0
   -0.8468   -3.6526   -2.4635 O   0  0  0  0  0  0  0  0  0  0  0  0
   -0.3954    1.2887    0.4814 C   0  0  0  0  0  0  0  0  0  0  0  0
   -1.2761    1.9015   -0.1256 O   0  0  0  0  0  0  0  0  0  0  0  0
    0.4051    1.8919    1.3699 N   0  0  0  0  0  0  0  0  0  0  0  0
    1.1380    1.3380    1.7875 H   0  0  0  0  0  0  0  0  0  0  0  0
    0.3573    3.3183    1.6807 C   0  0  0  0  0  0  0  0  0  0  0  0
   -0.6670    3.6090    1.9198 H   0  0  0  0  0  0  0  0  0  0  0  0
    1.0066    3.5397    2.5289 H   0  0  0  0  0  0  0  0  0  0  0  0
    0.6896    3.8897    0.8118 H   0  0  0  0  0  0  0  0  0  0  0  0
  5  6  2  0  0  0  0
  5  7  1  0  0  0  0
  2  3  1  0  0  0  0
  2  4  1  0  0  0  0
  2  5  1  0  0  0  0
  1  2  1  0  0  0  0
 20 21  2  0  0  0  0
 20 22  1  0  0  0  0
 17 18  1  0  0  0  0
 17 19  2  0  0  0  0
 14 15  1  0  0  0  0
 14 16  1  0  0  0  0
 14 17  1  0  0  0  0
 11 12  1  0  0  0  0
 11 13  1  0  0  0  0
 11 14  1  0  0  0  0
  9 10  1  0  0  0  0
  9 11  1  0  0  0  0
  9 20  1  0  0  0  0
  7  8  1  0  0  0  0
  7  9  1  0  0  0  0
 24 25  1  0  0  0  0
 24 26  1  0  0  0  0
 24 27  1  0  0  0  0
 22 23  1  0  0  0  0
 22 24  1  0  0  0  0
M  CHG  1  18  -1
M  END
$$$$
default_name
  -OEChem-02102213163D

 27 26  0     1  0  0  0  0  0999 V2000
   -3.2406   -3.5400    1.2326 H   0  0  0  0  0  0  0  0  0  0  0  0
   -3.1436   -2.6190    0.6606 C   0  0  0  0  0  0  0  0  0  0  0  0
   -3.8786   -1.8920    0.9996 H   0  0  0  0  0  0  0  0  0  0  0  0
   -3.2846   -2.8280   -0.3984 H   0  0  0  0  0  0  0  0  0  0  0  0
   -1.7586   -2.0580    0.8686 C   0  0  0  0  0  0  0  0  0  0  0  0
   -0.9666   -2.6340    1.6026 O   0  0  0  0  0  0  0  0  0  0  0  0
   -1.4866   -0.9220    0.2366 N   0  0  0  0  0  0  0  0  0  0  0  0
   -2.2166   -0.4790   -0.2994 H   0  0  0  0  0  0  0  0  0  0  0  0
   -0.1956   -0.2250    0.2596 C   0  0  1  0  0  0  0  0  0  0  0  0
    0.3927   -0.6026    1.0964 H   0  0  0  0  0  0  0  0  0  0  0  0
    0.5767   -0.5489   -1.0351 C   0  0  0  0  0  0  0  0  0  0  0  0
    0.1246    0.0217   -1.8479 H   0  0  0  0  0  0  0  0  0  0  0  0
    1.6140   -0.2293   -0.9252 H   0  0  0  0  0  0  0  0  0  0  0  0
    0.5453   -2.0402   -1.4100 C   0  0  0  0  0  0  0  0  0  0  0  0
    1.4738   -2.2989   -1.9246 H   0  0  0  0  0  0  0  0  0  0  0  0
    0.4971   -2.6248   -0.4875 H   0  0  0  0  0  0  0  0  0  0  0  0
   -0.6395   -2.4180   -2.3114 C   0  0  0  0  0  0  0  0  0  0  0  0
   -1.5130   -1.5509   -2.5388 O   0  5  0  0  0  0  0  0  0  0  0  0
   -0.6379   -3.5765   -2.7837 O   0  0  0  0  0  0  0  0  0  0  0  0
   -0.3954    1.2887    0.4814 C   0  0  0  0  0  0  0  0  0  0  0  0
   -1.2761    1.9015   -0.1256 O   0  0  0  0  0  0  0  0  0  0  0  0
    0.4051    1.8919    1.3699 N   0  0  0  0  0  0  0  0  0  0  0  0
    1.1380    1.3380    1.7875 H   0  0  0  0  0  0  0  0  0  0  0  0
    0.3573    3.3183    1.6807 C   0  0  0  0  0  0  0  0  0  0  0  0
   -0.6670    3.6090    1.9198 H   0  0  0  0  0  0  0  0  0  0  0  0
    1.0066    3.5397    2.5289 H   0  0  0  0  0  0  0  0  0  0  0  0
    0.6896    3.8897    0.8118 H   0  0  0  0  0  0  0  0  0  0  0  0
  5  6  2  0  0  0  0
  5  7  1  0  0  0  0
  2  3  1  0  0  0  0
  2  4  1  0  0  0  0
  2  5  1  0  0  0  0
  1  2  1  0  0  0  0
 20 21  2  0  0  0  0
 20 22  1  0  0  0  0
 17 18  1  0  0  0  0
 17 19  2  0  0  0  0
 14 15  1  0  0  0  0
 14 16  1  0  0  0  0
 14 17  1  0  0  0  0
 11 12  1  0  0  0  0
 11 13  1  0  0  0  0
 11 14  1  0  0  0  0
  9 10  1  0  0  0  0
  9 11  1  0  0  0  0
  9 20  1  0  0  0  0
  7  8  1  0  0  0  0
  7  9  1  0  0  0  0
 24 25  1  0  0  0  0
 24 26  1  0  0  0  0
 24 27  1  0  0  0  0
 22 23  1  0  0  0  0
 22 24  1  0  0  0  0
M  CHG  1  18  -1
M  END
$$$$
default_name
  -OEChem-02102213163D

 27 26  0     1  0  0  0  0  0999 V2000
   -3.2406   -3.5400    1.2326 H   0  0  0  0  0  0  0  0  0  0  0  0
   -3.1436   -2.6190    0.6606 C   0  0  0  0  0  0  0  0  0  0  0  0
   -3.8786   -1.8920    0.9996 H   0  0  0  0  0  0  0  0  0  0  0  0
   -3.2846   -2.8280   -0.3984 H   0  0  0  0  0  0  0  0  0  0  0  0
   -1.7586   -2.0580    0.8686 C   0  0  0  0  0  0  0  0  0  0  0  0
   -0.9666   -2.6340    1.6026 O   0  0  0  0  0  0  0  0  0  0  0  0
   -1.4866   -0.9220    0.2366 N   0  0  0  0  0  0  0  0  0  0  0  0
   -2.2166   -0.4790   -0.2994 H   0  0  0  0  0  0  0  0  0  0  0  0
   -0.1956   -0.2250    0.2596 C   0  0  1  0  0  0  0  0  0  0  0  0
    0.3927   -0.6026    1.0964 H   0  0  0  0  0  0  0  0  0  0  0  0
    0.5767   -0.5489   -1.0351 C   0  0  0  0  0  0  0  0  0  0  0  0
    0.1246    0.0217   -1.8479 H   0  0  0  0  0  0  0  0  0  0  0  0
    1.6140   -0.2293   -0.9252 H   0  0  0  0  0  0  0  0  0  0  0  0
    0.5453   -2.0402   -1.4100 C   0  0  0  0  0  0  0  0  0  0  0  0
    1.5547   -2.3631   -1.6757 H   0  0  0  0  0  0  0  0  0  0  0  0
    0.2301   -2.6083   -0.5307 H   0  0  0  0  0  0  0  0  0  0  0  0
   -0.3972   -2.3553   -2.5811 C   0  0  0  0  0  0  0  0  0  0  0  0
   -1.1286   -1.4386   -3.0182 O   0  5  0  0  0  0  0  0  0  0  0  0
   -0.3510   -3.5178   -3.0411 O   0  0  0  0  0  0  0  0  0  0  0  0
   -0.3954    1.2887    0.4814 C   0  0  0  0  0  0  0  0  0  0  0  0
   -1.2761    1.9015   -0.1256 O   0  0  0  0  0  0  0  0  0  0  0  0
    0.4051    1.8919    1.3699 N   0  0  0  0  0  0  0  0  0  0  0  0
    1.1380    1.3380    1.7875 H   0  0  0  0  0  0  0  0  0  0  0  0
    0.3573    3.3183    1.6807 C   0  0  0  0  0  0  0  0  0  0  0  0
   -0.6670    3.6090    1.9198 H   0  0  0  0  0  0  0  0  0  0  0  0
    1.0066    3.5397    2.5289 H   0  0  0  0  0  0  0  0  0  0  0  0
    0.6896    3.8897    0.8118 H   0  0  0  0  0  0  0  0  0  0  0  0
  5  6  2  0  0  0  0
  5  7  1  0  0  0  0
  2  3  1  0  0  0  0
  2  4  1  0  0  0  0
  2  5  1  0  0  0  0
  1  2  1  0  0  0  0
 20 21  2  0  0  0  0
 20 22  1  0  0  0  0
 17 18  1  0  0  0  0
 17 19  2  0  0  0  0
 14 15  1  0  0  0  0
 14 16  1  0  0  0  0
 14 17  1  0  0  0  0
 11 12  1  0  0  0  0
 11 13  1  0  0  0  0
 11 14  1  0  0  0  0
  9 10  1  0  0  0  0
  9 11  1  0  0  0  0
  9 20  1  0  0  0  0
  7  8  1  0  0  0  0
  7  9  1  0  0  0  0
 24 25  1  0  0  0  0
 24 26  1  0  0  0  0
 24 27  1  0  0  0  0
 22 23  1  0  0  0  0
 22 24  1  0  0  0  0
M  CHG  1  18  -1
M  END
$$$$
default_name
  -OEChem-02102213163D

 27 26  0     1  0  0  0  0  0999 V2000
   -3.2406   -3.5400    1.2326 H   0  0  0  0  0  0  0  0  0  0  0  0
   -3.1436   -2.6190    0.6606 C   0  0  0  0  0  0  0  0  0  0  0  0
   -3.8786   -1.8920    0.9996 H   0  0  0  0  0  0  0  0  0  0  0  0
   -3.2846   -2.8280   -0.3984 H   0  0  0  0  0  0  0  0  0  0  0  0
   -1.7586   -2.0580    0.8686 C   0  0  0  0  0  0  0  0  0  0  0  0
   -0.9666   -2.6340    1.6026 O   0  0  0  0  0  0  0  0  0  0  0  0
   -1.4866   -0.9220    0.2366 N   0  0  0  0  0  0  0  0  0  0  0  0
   -2.2166   -0.4790   -0.2994 H   0  0  0  0  0  0  0  0  0  0  0  0
   -0.1956   -0.2250    0.2596 C   0  0  1  0  0  0  0  0  0  0  0  0
    0.3927   -0.6026    1.0964 H   0  0  0  0  0  0  0  0  0  0  0  0
    0.5767   -0.5489   -1.0351 C   0  0  0  0  0  0  0  0  0  0  0  0
    0.1246    0.0217   -1.8479 H   0  0  0  0  0  0  0  0  0  0  0  0
    1.6140   -0.2293   -0.9252 H   0  0  0  0  0  0  0  0  0  0  0  0
    0.5453   -2.0402   -1.4100 C   0  0  0  0  0  0  0  0  0  0  0  0
    1.5664   -2.4290   -1.4145 H   0  0  0  0  0  0  0  0  0  0  0  0
   -0.0159   -2.5757   -0.6396 H   0  0  0  0  0  0  0  0  0  0  0  0
   -0.0914   -2.3115   -2.7811 C   0  0  0  0  0  0  0  0  0  0  0  0
   -0.6299   -1.3568   -3.3854 O   0  5  0  0  0  0  0  0  0  0  0  0
   -0.0057   -3.4807   -3.2180 O   0  0  0  0  0  0  0  0  0  0  0  0
   -0.3954    1.2887    0.4814 C   0  0  0  0  0  0  0  0  0  0  0  0
   -1.2761    1.9015   -0.1256 O   0  0  0  0  0  0  0  0  0  0  0  0
    0.4051    1.8919    1.3699 N   0  0  0  0  0  0  0  0  0  0  0  0
    1.1380    1.3380    1.7875 H   0  0  0  0  0  0  0  0  0  0  0  0
    0.3573    3.3183    1.6807 C   0  0  0  0  0  0  0  0  0  0  0  0
   -0.6670    3.6090    1.9198 H   0  0  0  0  0  0  0  0  0  0  0  0
    1.0066    3.5397    2.5289 H   0  0  0  0  0  0  0  0  0  0  0  0
    0.6896    3.8897    0.8118 H   0  0  0  0  0  0  0  0  0  0  0  0
  5  6  2  0  0  0  0
  5  7  1  0  0  0  0
  2  3  1  0  0  0  0
  2  4  1  0  0  0  0
  2  5  1  0  0  0  0
  1  2  1  0  0  0  0
 20 21  2  0  0  0  0
 20 22  1  0  0  0  0
 17 18  1  0  0  0  0
 17 19  2  0  0  0  0
 14 15  1  0  0  0  0
 14 16  1  0  0  0  0
 14 17  1  0  0  0  0
 11 12  1  0  0  0  0
 11 13  1  0  0  0  0
 11 14  1  0  0  0  0
  9 10  1  0  0  0  0
  9 11  1  0  0  0  0
  9 20  1  0  0  0  0
  7  8  1  0  0  0  0
  7  9  1  0  0  0  0
 24 25  1  0  0  0  0
 24 26  1  0  0  0  0
 24 27  1  0  0  0  0
 22 23  1  0  0  0  0
 22 24  1  0  0  0  0
M  CHG  1  18  -1
M  END
$$$$
default_name
  -OEChem-02102213163D

 27 26  0     1  0  0  0  0  0999 V2000
   -3.2406   -3.5400    1.2326 H   0  0  0  0  0  0  0  0  0  0  0  0
   -3.1436   -2.6190    0.6606 C   0  0  0  0  0  0  0  0  0  0  0  0
   -3.8786   -1.8920    0.9996 H   0  0  0  0  0  0  0  0  0  0  0  0
   -3.2846   -2.8280   -0.3984 H   0  0  0  0  0  0  0  0  0  0  0  0
   -1.7586   -2.0580    0.8686 C   0  0  0  0  0  0  0  0  0  0  0  0
   -0.9666   -2.6340    1.6026 O   0  0  0  0  0  0  0  0  0  0  0  0
   -1.4866   -0.9220    0.2366 N   0  0  0  0  0  0  0  0  0  0  0  0
   -2.2166   -0.4790   -0.2994 H   0  0  0  0  0  0  0  0  0  0  0  0
   -0.1956   -0.2250    0.2596 C   0  0  1  0  0  0  0  0  0  0  0  0
    0.3927   -0.6026    1.0964 H   0  0  0  0  0  0  0  0  0  0  0  0
    0.5767   -0.5489   -1.0351 C   0  0  0  0  0  0  0  0  0  0  0  0
    0.1246    0.0217   -1.8479 H   0  0  0  0  0  0  0  0  0  0  0  0
    1.6140   -0.2293   -0.9252 H   0  0  0  0  0  0  0  0  0  0  0  0
    0.5453   -2.0402   -1.4100 C   0  0  0  0  0  0  0  0  0  0  0  0
    1.5080   -2.4920   -1.1590 H   0  0  0  0  0  0  0  0  0  0  0  0
   -0.2241   -2.5293   -0.8067 H   0  0  0  0  0  0  0  0  0  0  0  0
    0.2568   -2.2895   -2.8978 C   0  0  0  0  0  0  0  0  0  0  0  0
   -0.0509   -1.3112   -3.6153 O   0  5  0  0  0  0  0  0  0  0  0  0
    0.3747   -3.4675   -3.3023 O   0  0  0  0  0  0  0  0  0  0  0  0
   -0.3954    1.2887    0.4814 C   0  0  0  0  0  0  0  0  0  0  0  0
   -1.2761    1.9015   -0.1256 O   0  0  0  0  0  0  0  0  0  0  0  0
    0.4051    1.8919    1.3699 N   0  0  0  0  0  0  0  0  0  0  0  0
    1.1380    1.3380    1.7875 H   0  0  0  0  0  0  0  0  0  0  0  0
    0.3573    3.3183    1.6807 C   0  0  0  0  0  0  0  0  0  0  0  0
   -0.6670    3.6090    1.9198 H   0  0  0  0  0  0  0  0  0  0  0  0
    1.0066    3.5397    2.5289 H   0  0  0  0  0  0  0  0  0  0  0  0
    0.6896    3.8897    0.8118 H   0  0  0  0  0  0  0  0  0  0  0  0
  5  6  2  0  0  0  0
  5  7  1  0  0  0  0
  2  3  1  0  0  0  0
  2  4  1  0  0  0  0
  2  5  1  0  0  0  0
  1  2  1  0  0  0  0
 20 21  2  0  0  0  0
 20 22  1  0  0  0  0
 17 18  1  0  0  0  0
 17 19  2  0  0  0  0
 14 15  1  0  0  0  0
 14 16  1  0  0  0  0
 14 17  1  0  0  0  0
 11 12  1  0  0  0  0
 11 13  1  0  0  0  0
 11 14  1  0  0  0  0
  9 10  1  0  0  0  0
  9 11  1  0  0  0  0
  9 20  1  0  0  0  0
  7  8  1  0  0  0  0
  7  9  1  0  0  0  0
 24 25  1  0  0  0  0
 24 26  1  0  0  0  0
 24 27  1  0  0  0  0
 22 23  1  0  0  0  0
 22 24  1  0  0  0  0
M  CHG  1  18  -1
M  END
$$$$
default_name
  -OEChem-02102213163D

 27 26  0     1  0  0  0  0  0999 V2000
   -3.2406   -3.5400    1.2326 H   0  0  0  0  0  0  0  0  0  0  0  0
   -3.1436   -2.6190    0.6606 C   0  0  0  0  0  0  0  0  0  0  0  0
   -3.8786   -1.8920    0.9996 H   0  0  0  0  0  0  0  0  0  0  0  0
   -3.2846   -2.8280   -0.3984 H   0  0  0  0  0  0  0  0  0  0  0  0
   -1.7586   -2.0580    0.8686 C   0  0  0  0  0  0  0  0  0  0  0  0
   -0.9666   -2.6340    1.6026 O   0  0  0  0  0  0  0  0  0  0  0  0
   -1.4866   -0.9220    0.2366 N   0  0  0  0  0  0  0  0  0  0  0  0
   -2.2166   -0.4790   -0.2994 H   0  0  0  0  0  0  0  0  0  0  0  0
   -0.1956   -0.2250    0.2596 C   0  0  1  0  0  0  0  0  0  0  0  0
    0.3927   -0.6026    1.0964 H   0  0  0  0  0  0  0  0  0  0  0  0
    0.5767   -0.5489   -1.0351 C   0  0  0  0  0  0  0  0  0  0  0  0
    0.1246    0.0217   -1.8479 H   0  0  0  0  0  0  0  0  0  0  0  0
    1.6140   -0.2293   -0.9252 H   0  0  0  0  0  0  0  0  0  0  0  0
    0.5453   -2.0402   -1.4100 C   0  0  0  0  0  0  0  0  0  0  0  0
    1.3834   -2.5478   -0.9266 H   0  0  0  0  0  0  0  0  0  0  0  0
   -0.3804   -2.4722   -1.0206 H   0  0  0  0  0  0  0  0  0  0  0  0
    0.6239   -2.2908   -2.9232 C   0  0  0  0  0  0  0  0  0  0  0  0
    0.5689   -1.3049   -3.6923 O   0  5  0  0  0  0  0  0  0  0  0  0
    0.7641   -3.4792   -3.2885 O   0  0  0  0  0  0  0  0  0  0  0  0
   -0.3954    1.2887    0.4814 C   0  0  0  0  0  0  0  0  0  0  0  0
   -1.2761    1.9015   -0.1256 O   0  0  0  0  0  0  0  0  0  0  0  0
    0.4051    1.8919    1.3699 N   0  0  0  0  0  0  0  0  0  0  0  0
    1.1380    1.3380    1.7875 H   0  0  0  0  0  0  0  0  0  0  0  0
    0.3573    3.3183    1.6807 C   0  0  0  0  0  0  0  0  0  0  0  0
   -0.6670    3.6090    1.9198 H   0  0  0  0  0  0  0  0  0  0  0  0
    1.0066    3.5397    2.5289 H   0  0  0  0  0  0  0  0  0  0  0  0
    0.6896    3.8897    0.8118 H   0  0  0  0  0  0  0  0  0  0  0  0
  5  6  2  0  0  0  0
  5  7  1  0  0  0  0
  2  3  1  0  0  0  0
  2  4  1  0  0  0  0
  2  5  1  0  0  0  0
  1  2  1  0  0  0  0
 20 21  2  0  0  0  0
 20 22  1  0  0  0  0
 17 18  1  0  0  0  0
 17 19  2  0  0  0  0
 14 15  1  0  0  0  0
 14 16  1  0  0  0  0
 14 17  1  0  0  0  0
 11 12  1  0  0  0  0
 11 13  1  0  0  0  0
 11 14  1  0  0  0  0
  9 10  1  0  0  0  0
  9 11  1  0  0  0  0
  9 20  1  0  0  0  0
  7  8  1  0  0  0  0
  7  9  1  0  0  0  0
 24 25  1  0  0  0  0
 24 26  1  0  0  0  0
 24 27  1  0  0  0  0
 22 23  1  0  0  0  0
 22 24  1  0  0  0  0
M  CHG  1  18  -1
M  END
$$$$
default_name
  -OEChem-02102213163D

 27 26  0     1  0  0  0  0  0999 V2000
   -3.2406   -3.5400    1.2326 H   0  0  0  0  0  0  0  0  0  0  0  0
   -3.1436   -2.6190    0.6606 C   0  0  0  0  0  0  0  0  0  0  0  0
   -3.8786   -1.8920    0.9996 H   0  0  0  0  0  0  0  0  0  0  0  0
   -3.2846   -2.8280   -0.3984 H   0  0  0  0  0  0  0  0  0  0  0  0
   -1.7586   -2.0580    0.8686 C   0  0  0  0  0  0  0  0  0  0  0  0
   -0.9666   -2.6340    1.6026 O   0  0  0  0  0  0  0  0  0  0  0  0
   -1.4866   -0.9220    0.2366 N   0  0  0  0  0  0  0  0  0  0  0  0
   -2.2166   -0.4790   -0.2994 H   0  0  0  0  0  0  0  0  0  0  0  0
   -0.1956   -0.2250    0.2596 C   0  0  1  0  0  0  0  0  0  0  0  0
    0.3927   -0.6026    1.0964 H   0  0  0  0  0  0  0  0  0  0  0  0
    0.5767   -0.5489   -1.0351 C   0  0  0  0  0  0  0  0  0  0  0  0
    0.1246    0.0217   -1.8479 H   0  0  0  0  0  0  0  0  0  0  0  0
    1.6140   -0.2293   -0.9252 H   0  0  0  0  0  0  0  0  0  0  0  0
    0.5453   -2.0402   -1.4100 C   0  0  0  0  0  0  0  0  0  0  0  0
    1.2013   -2.5926   -0.7330 H   0  0  0  0  0  0  0  0  0  0  0  0
   -0.4741   -2.4084   -1.2668 H   0  0  0  0  0  0  0  0  0  0  0  0
    0.9847   -2.3154   -2.8557 C   0  0  0  0  0  0  0  0  0  0  0  0
    1.1874   -1.3384   -3.6112 O   0  5  0  0  0  0  0  0  0  0  0  0
    1.1360   -3.5150   -3.1773 O   0  0  0  0  0  0  0  0  0  0  0  0
   -0.3954    1.2887    0.4814 C   0  0  0  0  0  0  0  0  0  0  0  0
   -1.2761    1.9015   -0.1256 O   0  0  0  0  0  0  0  0  0  0  0  0
    0.4051    1.8919    1.3699 N   0  0  0  0  0  0  0  0  0  0  0  0
    1.1380    1.3380    1.7875 H   0  0  0  0  0  0  0  0  0  0  0  0
    0.3573    3.3183    1.6807 C   0  0  0  0  0  0  0  0  0  0  0  0
   -0.6670    3.6090    1.9198 H   0  0  0  0  0  0  0  0  0  0  0  0
    1.0066    3.5397    2.5289 H   0  0  0  0  0  0  0  0  0  0  0  0
    0.6896    3.8897    0.8118 H   0  0  0  0  0  0  0  0  0  0  0  0
  5  6  2  0  0  0  0
  5  7  1  0  0  0  0
  2  3  1  0  0  0  0
  2  4  1  0  0  0  0
  2  5  1  0  0  0  0
  1  2  1  0  0  0  0
 20 21  2  0  0  0  0
 20 22  1  0  0  0  0
 17 18  1  0  0  0  0
 17 19  2  0  0  0  0
 14 15  1  0  0  0  0
 14 16  1  0  0  0  0
 14 17  1  0  0  0  0
 11 12  1  0  0  0  0
 11 13  1  0  0  0  0
 11 14  1  0  0  0  0
  9 10  1  0  0  0  0
  9 11  1  0  0  0  0
  9 20  1  0  0  0  0
  7  8  1  0  0  0  0
  7  9  1  0  0  0  0
 24 25  1  0  0  0  0
 24 26  1  0  0  0  0
 24 27  1  0  0  0  0
 22 23  1  0  0  0  0
 22 24  1  0  0  0  0
M  CHG  1  18  -1
M  END
$$$$
default_name
  -OEChem-02102213163D

 27 26  0     1  0  0  0  0  0999 V2000
   -3.2406   -3.5400    1.2326 H   0  0  0  0  0  0  0  0  0  0  0  0
   -3.1436   -2.6190    0.6606 C   0  0  0  0  0  0  0  0  0  0  0  0
   -3.8786   -1.8920    0.9996 H   0  0  0  0  0  0  0  0  0  0  0  0
   -3.2846   -2.8280   -0.3984 H   0  0  0  0  0  0  0  0  0  0  0  0
   -1.7586   -2.0580    0.8686 C   0  0  0  0  0  0  0  0  0  0  0  0
   -0.9666   -2.6340    1.6026 O   0  0  0  0  0  0  0  0  0  0  0  0
   -1.4866   -0.9220    0.2366 N   0  0  0  0  0  0  0  0  0  0  0  0
   -2.2166   -0.4790   -0.2994 H   0  0  0  0  0  0  0  0  0  0  0  0
   -0.1956   -0.2250    0.2596 C   0  0  1  0  0  0  0  0  0  0  0  0
    0.3927   -0.6026    1.0964 H   0  0  0  0  0  0  0  0  0  0  0  0
    0.5767   -0.5489   -1.0351 C   0  0  0  0  0  0  0  0  0  0  0  0
    0.3139    0.2035   -1.7805 H   0  0  0  0  0  0  0  0  0  0  0  0
    1.6483   -0.4824   -0.8415 H   0  0  0  0  0  0  0  0  0  0  0  0
    0.2531   -1.9383   -1.6097 C   0  0  0  0  0  0  0  0  0  0  0  0
    0.4899   -2.6984   -0.8614 H   0  0  0  0  0  0  0  0  0  0  0  0
   -0.8207   -1.9852   -1.8097 H   0  0  0  0  0  0  0  0  0  0  0  0
    1.0228   -2.2598   -2.8993 C   0  0  0  0  0  0  0  0  0  0  0  0
    1.7090   -1.3536   -3.4232 O   0  5  0  0  0  0  0  0  0  0  0  0
    0.9295   -3.4302   -3.3314 O   0  0  0  0  0  0  0  0  0  0  0  0
   -0.3954    1.2887    0.4814 C   0  0  0  0  0  0  0  0  0  0  0  0
   -1.2761    1.9015   -0.1256 O   0  0  0  0  0  0  0  0  0  0  0  0
    0.4051    1.8919    1.3699 N   0  0  0  0  0  0  0  0  0  0  0  0
    1.1380    1.3380    1.7875 H   0  0  0  0  0  0  0  0  0  0  0  0
    0.3573    3.3183    1.6807 C   0  0  0  0  0  0  0  0  0  0  0  0
   -0.6670    3.6090    1.9198 H   0  0  0  0  0  0  0  0  0  0  0  0
    1.0066    3.5397    2.5289 H   0  0  0  0  0  0  0  0  0  0  0  0
    0.6896    3.8897    0.8118 H   0  0  0  0  0  0  0  0  0  0  0  0
  5  6  2  0  0  0  0
  5  7  1  0  0  0  0
  2  3  1  0  0  0  0
  2  4  1  0  0  0  0
  2  5  1  0  0  0  0
  1  2  1  0  0  0  0
 20 21  2  0  0  0  0
 20 22  1  0  0  0  0
 17 18  1  0  0  0  0
 17 19  2  0  0  0  0
 14 15  1  0  0  0  0
 14 16  1  0  0  0  0
 14 17  1  0  0  0  0
 11 12  1  0  0  0  0
 11 13  1  0  0  0  0
 11 14  1  0  0  0  0
  9 10  1  0  0  0  0
  9 11  1  0  0  0  0
  9 20  1  0  0  0  0
  7  8  1  0  0  0  0
  7  9  1  0  0  0  0
 24 25  1  0  0  0  0
 24 26  1  0  0  0  0
 24 27  1  0  0  0  0
 22 23  1  0  0  0  0
 22 24  1  0  0  0  0
M  CHG  1  18  -1
M  END
$$$$
default_name
  -OEChem-02102213163D

 27 26  0     1  0  0  0  0  0999 V2000
   -3.2406   -3.5400    1.2326 H   0  0  0  0  0  0  0  0  0  0  0  0
   -3.1436   -2.6190    0.6606 C   0  0  0  0  0  0  0  0  0  0  0  0
   -3.8786   -1.8920    0.9996 H   0  0  0  0  0  0  0  0  0  0  0  0
   -3.2846   -2.8280   -0.3984 H   0  0  0  0  0  0  0  0  0  0  0  0
   -1.7586   -2.0580    0.8686 C   0  0  0  0  0  0  0  0  0  0  0  0
   -0.9666   -2.6340    1.6026 O   0  0  0  0  0  0  0  0  0  0  0  0
   -1.4866   -0.9220    0.2366 N   0  0  0  0  0  0  0  0  0  0  0  0
   -2.2166   -0.4790   -0.2994 H   0  0  0  0  0  0  0  0  0  0  0  0
   -0.1956   -0.2250    0.2596 C   0  0  1  0  0  0  0  0  0  0  0  0
    0.3927   -0.6026    1.0964 H   0  0  0  0  0  0  0  0  0  0  0  0
    0.5767   -0.5489   -1.0351 C   0  0  0  0  0  0  0  0  0  0  0  0
    0.3139    0.2035   -1.7805 H   0  0  0  0  0  0  0  0  0  0  0  0
    1.6483   -0.4824   -0.8415 H   0  0  0  0  0  0  0  0  0  0  0  0
    0.2531   -1.9383   -1.6097 C   0  0  0  0  0  0  0  0  0  0  0  0
    0.2308   -2.6657   -0.7946 H   0  0  0  0  0  0  0  0  0  0  0  0
   -0.7444   -1.9012   -2.0557 H   0  0  0  0  0  0  0  0  0  0  0  0
    1.2626   -2.4123   -2.6657 C   0  0  0  0  0  0  0  0  0  0  0  0
    2.1411   -1.6082   -3.0508 O   0  5  0  0  0  0  0  0  0  0  0  0
    1.1515   -3.5955   -3.0568 O   0  0  0  0  0  0  0  0  0  0  0  0
   -0.3954    1.2887    0.4814 C   0  0  0  0  0  0  0  0  0  0  0  0
   -1.2761    1.9015   -0.1256 O   0  0  0  0  0  0  0  0  0  0  0  0
    0.4051    1.8919    1.3699 N   0  0  0  0  0  0  0  0  0  0  0  0
    1.1380    1.3380    1.7875 H   0  0  0  0  0  0  0  0  0  0  0  0
    0.3573    3.3183    1.6807 C   0  0  0  0  0  0  0  0  0  0  0  0
   -0.6670    3.6090    1.9198 H   0  0  0  0  0  0  0  0  0  0  0  0
    1.0066    3.5397    2.5289 H   0  0  0  0  0  0  0  0  0  0  0  0
    0.6896    3.8897    0.8118 H   0  0  0  0  0  0  0  0  0  0  0  0
  5  6  2  0  0  0  0
  5  7  1  0  0  0  0
  2  3  1  0  0  0  0
  2  4  1  0  0  0  0
  2  5  1  0  0  0  0
  1  2  1  0  0  0  0
 20 21  2  0  0  0  0
 20 22  1  0  0  0  0
 17 18  1  0  0  0  0
 17 19  2  0  0  0  0
 14 15  1  0  0  0  0
 14 16  1  0  0  0  0
 14 17  1  0  0  0  0
 11 12  1  0  0  0  0
 11 13  1  0  0  0  0
 11 14  1  0  0  0  0
  9 10  1  0  0  0  0
  9 11  1  0  0  0  0
  9 20  1  0  0  0  0
  7  8  1  0  0  0  0
  7  9  1  0  0  0  0
 24 25  1  0  0  0  0
 24 26  1  0  0  0  0
 24 27  1  0  0  0  0
 22 23  1  0  0  0  0
 22 24  1  0  0  0  0
M  CHG  1  18  -1
M  END
$$$$
default_name
  -OEChem-02102213163D

 27 26  0     1  0  0  0  0  0999 V2000
   -3.2406   -3.5400    1.2326 H   0  0  0  0  0  0  0  0  0  0  0  0
   -3.1436   -2.6190    0.6606 C   0  0  0  0  0  0  0  0  0  0  0  0
   -3.8786   -1.8920    0.9996 H   0  0  0  0  0  0  0  0  0  0  0  0
   -3.2846   -2.8280   -0.3984 H   0  0  0  0  0  0  0  0  0  0  0  0
   -1.7586   -2.0580    0.8686 C   0  0  0  0  0  0  0  0  0  0  0  0
   -0.9666   -2.6340    1.6026 O   0  0  0  0  0  0  0  0  0  0  0  0
   -1.4866   -0.9220    0.2366 N   0  0  0  0  0  0  0  0  0  0  0  0
   -2.2166   -0.4790   -0.2994 H   0  0  0  0  0  0  0  0  0  0  0  0
   -0.1956   -0.2250    0.2596 C   0  0  1  0  0  0  0  0  0  0  0  0
    0.3927   -0.6026    1.0964 H   0  0  0  0  0  0  0  0  0  0  0  0
    0.5767   -0.5489   -1.0351 C   0  0  0  0  0  0  0  0  0  0  0  0
    0.3139    0.2035   -1.7805 H   0  0  0  0  0  0  0  0  0  0  0  0
    1.6483   -0.4824   -0.8415 H   0  0  0  0  0  0  0  0  0  0  0  0
    0.2531   -1.9383   -1.6097 C   0  0  0  0  0  0  0  0  0  0  0  0
   -0.0319   -2.6053   -0.7926 H   0  0  0  0  0  0  0  0  0  0  0  0
   -0.6050   -1.8409   -2.2801 H   0  0  0  0  0  0  0  0  0  0  0  0
    1.4249   -2.5701   -2.3756 C   0  0  0  0  0  0  0  0  0  0  0  0
    2.4467   -1.8757   -2.5762 O   0  5  0  0  0  0  0  0  0  0  0  0
    1.2857   -3.7616   -2.7307 O   0  0  0  0  0  0  0  0  0  0  0  0
   -0.3954    1.2887    0.4814 C   0  0  0  0  0  0  0  0  0  0  0  0
   -1.2761    1.9015   -0.1256 O   0  0  0  0  0  0  0  0  0  0  0  0
    0.4051    1.8919    1.3699 N   0  0  0  0  0  0  0  0  0  0  0  0
    1.1380    1.3380    1.7875 H   0  0  0  0  0  0  0  0  0  0  0  0
    0.3573    3.3183    1.6807 C   0  0  0  0  0  0  0  0  0  0  0  0
   -0.6670    3.6090    1.9198 H   0  0  0  0  0  0  0  0  0  0  0  0
    1.0066    3.5397    2.5289 H   0  0  0  0  0  0  0  0  0  0  0  0
    0.6896    3.8897    0.8118 H   0  0  0  0  0  0  0  0  0  0  0  0
  5  6  2  0  0  0  0
  5  7  1  0  0  0  0
  2  3  1  0  0  0  0
  2  4  1  0  0  0  0
  2  5  1  0  0  0  0
  1  2  1  0  0  0  0
 20 21  2  0  0  0  0
 20 22  1  0  0  0  0
 17 18  1  0  0  0  0
 17 19  2  0  0  0  0
 14 15  1  0  0  0  0
 14 16  1  0  0  0  0
 14 17  1  0  0  0  0
 11 12  1  0  0  0  0
 11 13  1  0  0  0  0
 11 14  1  0  0  0  0
  9 10  1  0  0  0  0
  9 11  1  0  0  0  0
  9 20  1  0  0  0  0
  7  8  1  0  0  0  0
  7  9  1  0  0  0  0
 24 25  1  0  0  0  0
 24 26  1  0  0  0  0
 24 27  1  0  0  0  0
 22 23  1  0  0  0  0
 22 24  1  0  0  0  0
M  CHG  1  18  -1
M  END
$$$$
default_name
  -OEChem-02102213163D

 27 26  0     1  0  0  0  0  0999 V2000
   -3.2406   -3.5400    1.2326 H   0  0  0  0  0  0  0  0  0  0  0  0
   -3.1436   -2.6190    0.6606 C   0  0  0  0  0  0  0  0  0  0  0  0
   -3.8786   -1.8920    0.9996 H   0  0  0  0  0  0  0  0  0  0  0  0
   -3.2846   -2.8280   -0.3984 H   0  0  0  0  0  0  0  0  0  0  0  0
   -1.7586   -2.0580    0.8686 C   0  0  0  0  0  0  0  0  0  0  0  0
   -0.9666   -2.6340    1.6026 O   0  0  0  0  0  0  0  0  0  0  0  0
   -1.4866   -0.9220    0.2366 N   0  0  0  0  0  0  0  0  0  0  0  0
   -2.2166   -0.4790   -0.2994 H   0  0  0  0  0  0  0  0  0  0  0  0
   -0.1956   -0.2250    0.2596 C   0  0  1  0  0  0  0  0  0  0  0  0
    0.3927   -0.6026    1.0964 H   0  0  0  0  0  0  0  0  0  0  0  0
    0.5767   -0.5489   -1.0351 C   0  0  0  0  0  0  0  0  0  0  0  0
    0.3139    0.2035   -1.7805 H   0  0  0  0  0  0  0  0  0  0  0  0
    1.6483   -0.4824   -0.8415 H   0  0  0  0  0  0  0  0  0  0  0  0
    0.2531   -1.9383   -1.6097 C   0  0  0  0  0  0  0  0  0  0  0  0
   -0.2803   -2.5215   -0.8553 H   0  0  0  0  0  0  0  0  0  0  0  0
   -0.4120   -1.8083   -2.4676 H   0  0  0  0  0  0  0  0  0  0  0  0
    1.4986   -2.7224   -2.0488 C   0  0  0  0  0  0  0  0  0  0  0  0
    2.6051   -2.1377   -2.0318 O   0  5  0  0  0  0  0  0  0  0  0  0
    1.3231   -3.9173   -2.3753 O   0  0  0  0  0  0  0  0  0  0  0  0
   -0.3954    1.2887    0.4814 C   0  0  0  0  0  0  0  0  0  0  0  0
   -1.2761    1.9015   -0.1256 O   0  0  0  0  0  0  0  0  0  0  0  0
    0.4051    1.8919    1.3699 N   0  0  0  0  0  0  0  0  0  0  0  0
    1.1380    1.3380    1.7875 H   0  0  0  0  0  0  0  0  0  0  0  0
    0.3573    3.3183    1.6807 C   0  0  0  0  0  0  0  0  0  0  0  0
   -0.6670    3.6090    1.9198 H   0  0  0  0  0  0  0  0  0  0  0  0
    1.0066    3.5397    2.5289 H   0  0  0  0  0  0  0  0  0  0  0  0
    0.6896    3.8897    0.8118 H   0  0  0  0  0  0  0  0  0  0  0  0
  5  6  2  0  0  0  0
  5  7  1  0  0  0  0
  2  3  1  0  0  0  0
  2  4  1  0  0  0  0
  2  5  1  0  0  0  0
  1  2  1  0  0  0  0
 20 21  2  0  0  0  0
 20 22  1  0  0  0  0
 17 18  1  0  0  0  0
 17 19  2  0  0  0  0
 14 15  1  0  0  0  0
 14 16  1  0  0  0  0
 14 17  1  0  0  0  0
 11 12  1  0  0  0  0
 11 13  1  0  0  0  0
 11 14  1  0  0  0  0
  9 10  1  0  0  0  0
  9 11  1  0  0  0  0
  9 20  1  0  0  0  0
  7  8  1  0  0  0  0
  7  9  1  0  0  0  0
 24 25  1  0  0  0  0
 24 26  1  0  0  0  0
 24 27  1  0  0  0  0
 22 23  1  0  0  0  0
 22 24  1  0  0  0  0
M  CHG  1  18  -1
M  END
$$$$
default_name
  -OEChem-02102213163D

 27 26  0     1  0  0  0  0  0999 V2000
   -3.2406   -3.5400    1.2326 H   0  0  0  0  0  0  0  0  0  0  0  0
   -3.1436   -2.6190    0.6606 C   0  0  0  0  0  0  0  0  0  0  0  0
   -3.8786   -1.8920    0.9996 H   0  0  0  0  0  0  0  0  0  0  0  0
   -3.2846   -2.8280   -0.3984 H   0  0  0  0  0  0  0  0  0  0  0  0
   -1.7586   -2.0580    0.8686 C   0  0  0  0  0  0  0  0  0  0  0  0
   -0.9666   -2.6340    1.6026 O   0  0  0  0  0  0  0  0  0  0  0  0
   -1.4866   -0.9220    0.2366 N   0  0  0  0  0  0  0  0  0  0  0  0
   -2.2166   -0.4790   -0.2994 H   0  0  0  0  0  0  0  0  0  0  0  0
   -0.1956   -0.2250    0.2596 C   0  0  1  0  0  0  0  0  0  0  0  0
    0.3927   -0.6026    1.0964 H   0  0  0  0  0  0  0  0  0  0  0  0
    0.5767   -0.5489   -1.0351 C   0  0  0  0  0  0  0  0  0  0  0  0
    0.3139    0.2035   -1.7805 H   0  0  0  0  0  0  0  0  0  0  0  0
    1.6483   -0.4824   -0.8415 H   0  0  0  0  0  0  0  0  0  0  0  0
    0.2531   -1.9383   -1.6097 C   0  0  0  0  0  0  0  0  0  0  0  0
   -0.4975   -2.4200   -0.9785 H   0  0  0  0  0  0  0  0  0  0  0  0
   -0.1787   -1.8057   -2.6053 H   0  0  0  0  0  0  0  0  0  0  0  0
    1.4786   -2.8588   -1.7077 C   0  0  0  0  0  0  0  0  0  0  0  0
    2.6055   -2.3765   -1.4546 O   0  5  0  0  0  0  0  0  0  0  0  0
    1.2610   -4.0519   -2.0148 O   0  0  0  0  0  0  0  0  0  0  0  0
   -0.3954    1.2887    0.4814 C   0  0  0  0  0  0  0  0  0  0  0  0
   -1.2761    1.9015   -0.1256 O   0  0  0  0  0  0  0  0  0  0  0  0
    0.4051    1.8919    1.3699 N   0  0  0  0  0  0  0  0  0  0  0  0
    1.1380    1.3380    1.7875 H   0  0  0  0  0  0  0  0  0  0  0  0
    0.3573    3.3183    1.6807 C   0  0  0  0  0  0  0  0  0  0  0  0
   -0.6670    3.6090    1.9198 H   0  0  0  0  0  0  0  0  0  0  0  0
    1.0066    3.5397    2.5289 H   0  0  0  0  0  0  0  0  0  0  0  0
    0.6896    3.8897    0.8118 H   0  0  0  0  0  0  0  0  0  0  0  0
  5  6  2  0  0  0  0
  5  7  1  0  0  0  0
  2  3  1  0  0  0  0
  2  4  1  0  0  0  0
  2  5  1  0  0  0  0
  1  2  1  0  0  0  0
 20 21  2  0  0  0  0
 20 22  1  0  0  0  0
 17 18  1  0  0  0  0
 17 19  2  0  0  0  0
 14 15  1  0  0  0  0
 14 16  1  0  0  0  0
 14 17  1  0  0  0  0
 11 12  1  0  0  0  0
 11 13  1  0  0  0  0
 11 14  1  0  0  0  0
  9 10  1  0  0  0  0
  9 11  1  0  0  0  0
  9 20  1  0  0  0  0
  7  8  1  0  0  0  0
  7  9  1  0  0  0  0
 24 25  1  0  0  0  0
 24 26  1  0  0  0  0
 24 27  1  0  0  0  0
 22 23  1  0  0  0  0
 22 24  1  0  0  0  0
M  CHG  1  18  -1
M  END
$$$$
default_name
  -OEChem-02102213163D

 27 26  0     1  0  0  0  0  0999 V2000
   -3.2406   -3.5400    1.2326 H   0  0  0  0  0  0  0  0  0  0  0  0
   -3.1436   -2.6190    0.6606 C   0  0  0  0  0  0  0  0  0  0  0  0
   -3.8786   -1.8920    0.9996 H   0  0  0  0  0  0  0  0  0  0  0  0
   -3.2846   -2.8280   -0.3984 H   0  0  0  0  0  0  0  0  0  0  0  0
   -1.7586   -2.0580    0.8686 C   0  0  0  0  0  0  0  0  0  0  0  0
   -0.9666   -2.6340    1.6026 O   0  0  0  0  0  0  0  0  0  0  0  0
   -1.4866   -0.9220    0.2366 N   0  0  0  0  0  0  0  0  0  0  0  0
   -2.2166   -0.4790   -0.2994 H   0  0  0  0  0  0  0  0  0  0  0  0
   -0.1956   -0.2250    0.2596 C   0  0  1  0  0  0  0  0  0  0  0  0
    0.3927   -0.6026    1.0964 H   0  0  0  0  0  0  0  0  0  0  0  0
    0.5767   -0.5489   -1.0351 C   0  0  0  0  0  0  0  0  0  0  0  0
    0.3139    0.2035   -1.7805 H   0  0  0  0  0  0  0  0  0  0  0  0
    1.6483   -0.4824   -0.8415 H   0  0  0  0  0  0  0  0  0  0  0  0
    0.2531   -1.9383   -1.6097 C   0  0  0  0  0  0  0  0  0  0  0  0
   -0.6687   -2.3076   -1.1538 H   0  0  0  0  0  0  0  0  0  0  0  0
    0.0792   -1.8333   -2.6839 H   0  0  0  0  0  0  0  0  0  0  0  0
    1.3664   -2.9700   -1.3754 C   0  0  0  0  0  0  0  0  0  0  0  0
    2.4478   -2.5758   -0.8839 O   0  5  0  0  0  0  0  0  0  0  0  0
    1.1037   -4.1563   -1.6737 O   0  0  0  0  0  0  0  0  0  0  0  0
   -0.3954    1.2887    0.4814 C   0  0  0  0  0  0  0  0  0  0  0  0
   -1.2761    1.9015   -0.1256 O   0  0  0  0  0  0  0  0  0  0  0  0
    0.4051    1.8919    1.3699 N   0  0  0  0  0  0  0  0  0  0  0  0
    1.1380    1.3380    1.7875 H   0  0  0  0  0  0  0  0  0  0  0  0
    0.3573    3.3183    1.6807 C   0  0  0  0  0  0  0  0  0  0  0  0
   -0.6670    3.6090    1.9198 H   0  0  0  0  0  0  0  0  0  0  0  0
    1.0066    3.5397    2.5289 H   0  0  0  0  0  0  0  0  0  0  0  0
    0.6896    3.8897    0.8118 H   0  0  0  0  0  0  0  0  0  0  0  0
  5  6  2  0  0  0  0
  5  7  1  0  0  0  0
  2  3  1  0  0  0  0
  2  4  1  0  0  0  0
  2  5  1  0  0  0  0
  1  2  1  0  0  0  0
 20 21  2  0  0  0  0
 20 22  1  0  0  0  0
 17 18  1  0  0  0  0
 17 19  2  0  0  0  0
 14 15  1  0  0  0  0
 14 16  1  0  0  0  0
 14 17  1  0  0  0  0
 11 12  1  0  0  0  0
 11 13  1  0  0  0  0
 11 14  1  0  0  0  0
  9 10  1  0  0  0  0
  9 11  1  0  0  0  0
  9 20  1  0  0  0  0
  7  8  1  0  0  0  0
  7  9  1  0  0  0  0
 24 25  1  0  0  0  0
 24 26  1  0  0  0  0
 24 27  1  0  0  0  0
 22 23  1  0  0  0  0
 22 24  1  0  0  0  0
M  CHG  1  18  -1
M  END
$$$$
default_name
  -OEChem-02102213163D

 27 26  0     1  0  0  0  0  0999 V2000
   -3.2406   -3.5400    1.2326 H   0  0  0  0  0  0  0  0  0  0  0  0
   -3.1436   -2.6190    0.6606 C   0  0  0  0  0  0  0  0  0  0  0  0
   -3.8786   -1.8920    0.9996 H   0  0  0  0  0  0  0  0  0  0  0  0
   -3.2846   -2.8280   -0.3984 H   0  0  0  0  0  0  0  0  0  0  0  0
   -1.7586   -2.0580    0.8686 C   0  0  0  0  0  0  0  0  0  0  0  0
   -0.9666   -2.6340    1.6026 O   0  0  0  0  0  0  0  0  0  0  0  0
   -1.4866   -0.9220    0.2366 N   0  0  0  0  0  0  0  0  0  0  0  0
   -2.2166   -0.4790   -0.2994 H   0  0  0  0  0  0  0  0  0  0  0  0
   -0.1956   -0.2250    0.2596 C   0  0  1  0  0  0  0  0  0  0  0  0
    0.3927   -0.6026    1.0964 H   0  0  0  0  0  0  0  0  0  0  0  0
    0.5767   -0.5489   -1.0351 C   0  0  0  0  0  0  0  0  0  0  0  0
    0.3139    0.2035   -1.7805 H   0  0  0  0  0  0  0  0  0  0  0  0
    1.6483   -0.4824   -0.8415 H   0  0  0  0  0  0  0  0  0  0  0  0
    0.2531   -1.9383   -1.6097 C   0  0  0  0  0  0  0  0  0  0  0  0
   -0.7822   -2.1921   -1.3693 H   0  0  0  0  0  0  0  0  0  0  0  0
    0.3440   -1.8891   -2.6981 H   0  0  0  0  0  0  0  0  0  0  0  0
    1.1696   -3.0486   -1.0747 C   0  0  0  0  0  0  0  0  0  0  0  0
    2.1428   -2.7219   -0.3588 O   0  5  0  0  0  0  0  0  0  0  0  0
    0.8620   -4.2234   -1.3753 O   0  0  0  0  0  0  0  0  0  0  0  0
   -0.3954    1.2887    0.4814 C   0  0  0  0  0  0  0  0  0  0  0  0
   -1.2761    1.9015   -0.1256 O   0  0  0  0  0  0  0  0  0  0  0  0
    0.4051    1.8919    1.3699 N   0  0  0  0  0  0  0  0  0  0  0  0
    1.1380    1.3380    1.7875 H   0  0  0  0  0  0  0  0  0  0  0  0
    0.3573    3.3183    1.6807 C   0  0  0  0  0  0  0  0  0  0  0  0
   -0.6670    3.6090    1.9198 H   0  0  0  0  0  0  0  0  0  0  0  0
    1.0066    3.5397    2.5289 H   0  0  0  0  0  0  0  0  0  0  0  0
    0.6896    3.8897    0.8118 H   0  0  0  0  0  0  0  0  0  0  0  0
  5  6  2  0  0  0  0
  5  7  1  0  0  0  0
  2  3  1  0  0  0  0
  2  4  1  0  0  0  0
  2  5  1  0  0  0  0
  1  2  1  0  0  0  0
 20 21  2  0  0  0  0
 20 22  1  0  0  0  0
 17 18  1  0  0  0  0
 17 19  2  0  0  0  0
 14 15  1  0  0  0  0
 14 16  1  0  0  0  0
 14 17  1  0  0  0  0
 11 12  1  0  0  0  0
 11 13  1  0  0  0  0
 11 14  1  0  0  0  0
  9 10  1  0  0  0  0
  9 11  1  0  0  0  0
  9 20  1  0  0  0  0
  7  8  1  0  0  0  0
  7  9  1  0  0  0  0
 24 25  1  0  0  0  0
 24 26  1  0  0  0  0
 24 27  1  0  0  0  0
 22 23  1  0  0  0  0
 22 24  1  0  0  0  0
M  CHG  1  18  -1
M  END
$$$$
default_name
  -OEChem-02102213163D

 27 26  0     1  0  0  0  0  0999 V2000
   -3.2406   -3.5400    1.2326 H   0  0  0  0  0  0  0  0  0  0  0  0
   -3.1436   -2.6190    0.6606 C   0  0  0  0  0  0  0  0  0  0  0  0
   -3.8786   -1.8920    0.9996 H   0  0  0  0  0  0  0  0  0  0  0  0
   -3.2846   -2.8280   -0.3984 H   0  0  0  0  0  0  0  0  0  0  0  0
   -1.7586   -2.0580    0.8686 C   0  0  0  0  0  0  0  0  0  0  0  0
   -0.9666   -2.6340    1.6026 O   0  0  0  0  0  0  0  0  0  0  0  0
   -1.4866   -0.9220    0.2366 N   0  0  0  0  0  0  0  0  0  0  0  0
   -2.2166   -0.4790   -0.2994 H   0  0  0  0  0  0  0  0  0  0  0  0
   -0.1956   -0.2250    0.2596 C   0  0  1  0  0  0  0  0  0  0  0  0
    0.3927   -0.6026    1.0964 H   0  0  0  0  0  0  0  0  0  0  0  0
    0.5767   -0.5489   -1.0351 C   0  0  0  0  0  0  0  0  0  0  0  0
    0.3139    0.2035   -1.7805 H   0  0  0  0  0  0  0  0  0  0  0  0
    1.6483   -0.4824   -0.8415 H   0  0  0  0  0  0  0  0  0  0  0  0
    0.2531   -1.9383   -1.6097 C   0  0  0  0  0  0  0  0  0  0  0  0
   -0.8302   -2.0812   -1.6103 H   0  0  0  0  0  0  0  0  0  0  0  0
    0.5976   -1.9694   -2.6468 H   0  0  0  0  0  0  0  0  0  0  0  0
    0.9015   -3.0890   -0.8259 C   0  0  0  0  0  0  0  0  0  0  0  0
    1.7113   -2.8049    0.0851 O   0  5  0  0  0  0  0  0  0  0  0  0
    0.5522   -4.2486   -1.1400 O   0  0  0  0  0  0  0  0  0  0  0  0
   -0.3954    1.2887    0.4814 C   0  0  0  0  0  0  0  0  0  0  0  0
   -1.2761    1.9015   -0.1256 O   0  0  0  0  0  0  0  0  0  0  0  0
    0.4051    1.8919    1.3699 N   0  0  0  0  0  0  0  0  0  0  0  0
    1.1380    1.3380    1.7875 H   0  0  0  0  0  0  0  0  0  0  0  0
    0.3573    3.3183    1.6807 C   0  0  0  0  0  0  0  0  0  0  0  0
   -0.6670    3.6090    1.9198 H   0  0  0  0  0  0  0  0  0  0  0  0
    1.0066    3.5397    2.5289 H   0  0  0  0  0  0  0  0  0  0  0  0
    0.6896    3.8897    0.8118 H   0  0  0  0  0  0  0  0  0  0  0  0
  5  6  2  0  0  0  0
  5  7  1  0  0  0  0
  2  3  1  0  0  0  0
  2  4  1  0  0  0  0
  2  5  1  0  0  0  0
  1  2  1  0  0  0  0
 20 21  2  0  0  0  0
 20 22  1  0  0  0  0
 17 18  1  0  0  0  0
 17 19  2  0  0  0  0
 14 15  1  0  0  0  0
 14 16  1  0  0  0  0
 14 17  1  0  0  0  0
 11 12  1  0  0  0  0
 11 13  1  0  0  0  0
 11 14  1  0  0  0  0
  9 10  1  0  0  0  0
  9 11  1  0  0  0  0
  9 20  1  0  0  0  0
  7  8  1  0  0  0  0
  7  9  1  0  0  0  0
 24 25  1  0  0  0  0
 24 26  1  0  0  0  0
 24 27  1  0  0  0  0
 22 23  1  0  0  0  0
 22 24  1  0  0  0  0
M  CHG  1  18  -1
M  END
$$$$
default_name
  -OEChem-02102213163D

 27 26  0     1  0  0  0  0  0999 V2000
   -3.2406   -3.5400    1.2326 H   0  0  0  0  0  0  0  0  0  0  0  0
   -3.1436   -2.6190    0.6606 C   0  0  0  0  0  0  0  0  0  0  0  0
   -3.8786   -1.8920    0.9996 H   0  0  0  0  0  0  0  0  0  0  0  0
   -3.2846   -2.8280   -0.3984 H   0  0  0  0  0  0  0  0  0  0  0  0
   -1.7586   -2.0580    0.8686 C   0  0  0  0  0  0  0  0  0  0  0  0
   -0.9666   -2.6340    1.6026 O   0  0  0  0  0  0  0  0  0  0  0  0
   -1.4866   -0.9220    0.2366 N   0  0  0  0  0  0  0  0  0  0  0  0
   -2.2166   -0.4790   -0.2994 H   0  0  0  0  0  0  0  0  0  0  0  0
   -0.1956   -0.2250    0.2596 C   0  0  1  0  0  0  0  0  0  0  0  0
    0.3927   -0.6026    1.0964 H   0  0  0  0  0  0  0  0  0  0  0  0
    0.5767   -0.5489   -1.0351 C   0  0  0  0  0  0  0  0  0  0  0  0
    0.3139    0.2035   -1.7805 H   0  0  0  0  0  0  0  0  0  0  0  0
    1.6483   -0.4824   -0.8415 H   0  0  0  0  0  0  0  0  0  0  0  0
    0.2531   -1.9383   -1.6097 C   0  0  0  0  0  0  0  0  0  0  0  0
   -0.8096   -1.9826   -1.8603 H   0  0  0  0  0  0  0  0  0  0  0  0
    0.8229   -2.0687   -2.5335 H   0  0  0  0  0  0  0  0  0  0  0  0
    0.5805   -3.0886   -0.6461 C   0  0  0  0  0  0  0  0  0  0  0  0
    1.1826   -2.8193    0.4176 O   0  5  0  0  0  0  0  0  0  0  0  0
    0.1955   -4.2301   -0.9838 O   0  0  0  0  0  0  0  0  0  0  0  0
   -0.3954    1.2887    0.4814 C   0  0  0  0  0  0  0  0  0  0  0  0
   -1.2761    1.9015   -0.1256 O   0  0  0  0  0  0  0  0  0  0  0  0
    0.4051    1.8919    1.3699 N   0  0  0  0  0  0  0  0  0  0  0  0
    1.1380    1.3380    1.7875 H   0  0  0  0  0  0  0  0  0  0  0  0
    0.3573    3.3183    1.6807 C   0  0  0  0  0  0  0  0  0  0  0  0
   -0.6670    3.6090    1.9198 H   0  0  0  0  0  0  0  0  0  0  0  0
    1.0066    3.5397    2.5289 H   0  0  0  0  0  0  0  0  0  0  0  0
    0.6896    3.8897    0.8118 H   0  0  0  0  0  0  0  0  0  0  0  0
  5  6  2  0  0  0  0
  5  7  1  0  0  0  0
  2  3  1  0  0  0  0
  2  4  1  0  0  0  0
  2  5  1  0  0  0  0
  1  2  1  0  0  0  0
 20 21  2  0  0  0  0
 20 22  1  0  0  0  0
 17 18  1  0  0  0  0
 17 19  2  0  0  0  0
 14 15  1  0  0  0  0
 14 16  1  0  0  0  0
 14 17  1  0  0  0  0
 11 12  1  0  0  0  0
 11 13  1  0  0  0  0
 11 14  1  0  0  0  0
  9 10  1  0  0  0  0
  9 11  1  0  0  0  0
  9 20  1  0  0  0  0
  7  8  1  0  0  0  0
  7  9  1  0  0  0  0
 24 25  1  0  0  0  0
 24 26  1  0  0  0  0
 24 27  1  0  0  0  0
 22 23  1  0  0  0  0
 22 24  1  0  0  0  0
M  CHG  1  18  -1
M  END
$$$$
default_name
  -OEChem-02102213163D

 27 26  0     1  0  0  0  0  0999 V2000
   -3.2406   -3.5400    1.2326 H   0  0  0  0  0  0  0  0  0  0  0  0
   -3.1436   -2.6190    0.6606 C   0  0  0  0  0  0  0  0  0  0  0  0
   -3.8786   -1.8920    0.9996 H   0  0  0  0  0  0  0  0  0  0  0  0
   -3.2846   -2.8280   -0.3984 H   0  0  0  0  0  0  0  0  0  0  0  0
   -1.7586   -2.0580    0.8686 C   0  0  0  0  0  0  0  0  0  0  0  0
   -0.9666   -2.6340    1.6026 O   0  0  0  0  0  0  0  0  0  0  0  0
   -1.4866   -0.9220    0.2366 N   0  0  0  0  0  0  0  0  0  0  0  0
   -2.2166   -0.4790   -0.2994 H   0  0  0  0  0  0  0  0  0  0  0  0
   -0.1956   -0.2250    0.2596 C   0  0  1  0  0  0  0  0  0  0  0  0
    0.3927   -0.6026    1.0964 H   0  0  0  0  0  0  0  0  0  0  0  0
    0.5767   -0.5489   -1.0351 C   0  0  0  0  0  0  0  0  0  0  0  0
    0.3139    0.2035   -1.7805 H   0  0  0  0  0  0  0  0  0  0  0  0
    1.6483   -0.4824   -0.8415 H   0  0  0  0  0  0  0  0  0  0  0  0
    0.2531   -1.9383   -1.6097 C   0  0  0  0  0  0  0  0  0  0  0  0
   -0.7216   -1.9030   -2.1023 H   0  0  0  0  0  0  0  0  0  0  0  0
    1.0044   -2.1802   -2.3661 H   0  0  0  0  0  0  0  0  0  0  0  0
    0.2284   -3.0473   -0.5475 C   0  0  0  0  0  0  0  0  0  0  0  0
    0.5929   -2.7639    0.6158 O   0  5  0  0  0  0  0  0  0  0  0  0
   -0.1837   -4.1693   -0.9173 O   0  0  0  0  0  0  0  0  0  0  0  0
   -0.3954    1.2887    0.4814 C   0  0  0  0  0  0  0  0  0  0  0  0
   -1.2761    1.9015   -0.1256 O   0  0  0  0  0  0  0  0  0  0  0  0
    0.4051    1.8919    1.3699 N   0  0  0  0  0  0  0  0  0  0  0  0
    1.1380    1.3380    1.7875 H   0  0  0  0  0  0  0  0  0  0  0  0
    0.3573    3.3183    1.6807 C   0  0  0  0  0  0  0  0  0  0  0  0
   -0.6670    3.6090    1.9198 H   0  0  0  0  0  0  0  0  0  0  0  0
    1.0066    3.5397    2.5289 H   0  0  0  0  0  0  0  0  0  0  0  0
    0.6896    3.8897    0.8118 H   0  0  0  0  0  0  0  0  0  0  0  0
  5  6  2  0  0  0  0
  5  7  1  0  0  0  0
  2  3  1  0  0  0  0
  2  4  1  0  0  0  0
  2  5  1  0  0  0  0
  1  2  1  0  0  0  0
 20 21  2  0  0  0  0
 20 22  1  0  0  0  0
 17 18  1  0  0  0  0
 17 19  2  0  0  0  0
 14 15  1  0  0  0  0
 14 16  1  0  0  0  0
 14 17  1  0  0  0  0
 11 12  1  0  0  0  0
 11 13  1  0  0  0  0
 11 14  1  0  0  0  0
  9 10  1  0  0  0  0
  9 11  1  0  0  0  0
  9 20  1  0  0  0  0
  7  8  1  0  0  0  0
  7  9  1  0  0  0  0
 24 25  1  0  0  0  0
 24 26  1  0  0  0  0
 24 27  1  0  0  0  0
 22 23  1  0  0  0  0
 22 24  1  0  0  0  0
M  CHG  1  18  -1
M  END
$$$$
default_name
  -OEChem-02102213163D

 27 26  0     1  0  0  0  0  0999 V2000
   -3.2406   -3.5400    1.2326 H   0  0  0  0  0  0  0  0  0  0  0  0
   -3.1436   -2.6190    0.6606 C   0  0  0  0  0  0  0  0  0  0  0  0
   -3.8786   -1.8920    0.9996 H   0  0  0  0  0  0  0  0  0  0  0  0
   -3.2846   -2.8280   -0.3984 H   0  0  0  0  0  0  0  0  0  0  0  0
   -1.7586   -2.0580    0.8686 C   0  0  0  0  0  0  0  0  0  0  0  0
   -0.9666   -2.6340    1.6026 O   0  0  0  0  0  0  0  0  0  0  0  0
   -1.4866   -0.9220    0.2366 N   0  0  0  0  0  0  0  0  0  0  0  0
   -2.2166   -0.4790   -0.2994 H   0  0  0  0  0  0  0  0  0  0  0  0
   -0.1956   -0.2250    0.2596 C   0  0  1  0  0  0  0  0  0  0  0  0
    0.3927   -0.6026    1.0964 H   0  0  0  0  0  0  0  0  0  0  0  0
    0.5767   -0.5489   -1.0351 C   0  0  0  0  0  0  0  0  0  0  0  0
    0.3139    0.2035   -1.7805 H   0  0  0  0  0  0  0  0  0  0  0  0
    1.6483   -0.4824   -0.8415 H   0  0  0  0  0  0  0  0  0  0  0  0
    0.2531   -1.9383   -1.6097 C   0  0  0  0  0  0  0  0  0  0  0  0
   -0.5724   -1.8478   -2.3199 H   0  0  0  0  0  0  0  0  0  0  0  0
    1.1298   -2.2964   -2.1558 H   0  0  0  0  0  0  0  0  0  0  0  0
   -0.1307   -2.9681   -0.5368 C   0  0  0  0  0  0  0  0  0  0  0  0
   -0.0178   -2.6425    0.6664 O   0  5  0  0  0  0  0  0  0  0  0  0
   -0.5597   -4.0702   -0.9450 O   0  0  0  0  0  0  0  0  0  0  0  0
   -0.3954    1.2887    0.4814 C   0  0  0  0  0  0  0  0  0  0  0  0
   -1.2761    1.9015   -0.1256 O   0  0  0  0  0  0  0  0  0  0  0  0
    0.4051    1.8919    1.3699 N   0  0  0  0  0  0  0  0  0  0  0  0
    1.1380    1.3380    1.7875 H   0  0  0  0  0  0  0  0  0  0  0  0
    0.3573    3.3183    1.6807 C   0  0  0  0  0  0  0  0  0  0  0  0
   -0.6670    3.6090    1.9198 H   0  0  0  0  0  0  0  0  0  0  0  0
    1.0066    3.5397    2.5289 H   0  0  0  0  0  0  0  0  0  0  0  0
    0.6896    3.8897    0.8118 H   0  0  0  0  0  0  0  0  0  0  0  0
  5  6  2  0  0  0  0
  5  7  1  0  0  0  0
  2  3  1  0  0  0  0
  2  4  1  0  0  0  0
  2  5  1  0  0  0  0
  1  2  1  0  0  0  0
 20 21  2  0  0  0  0
 20 22  1  0  0  0  0
 17 18  1  0  0  0  0
 17 19  2  0  0  0  0
 14 15  1  0  0  0  0
 14 16  1  0  0  0  0
 14 17  1  0  0  0  0
 11 12  1  0  0  0  0
 11 13  1  0  0  0  0
 11 14  1  0  0  0  0
  9 10  1  0  0  0  0
  9 11  1  0  0  0  0
  9 20  1  0  0  0  0
  7  8  1  0  0  0  0
  7  9  1  0  0  0  0
 24 25  1  0  0  0  0
 24 26  1  0  0  0  0
 24 27  1  0  0  0  0
 22 23  1  0  0  0  0
 22 24  1  0  0  0  0
M  CHG  1  18  -1
M  END
$$$$
default_name
  -OEChem-02102213163D

 27 26  0     1  0  0  0  0  0999 V2000
   -3.2406   -3.5400    1.2326 H   0  0  0  0  0  0  0  0  0  0  0  0
   -3.1436   -2.6190    0.6606 C   0  0  0  0  0  0  0  0  0  0  0  0
   -3.8786   -1.8920    0.9996 H   0  0  0  0  0  0  0  0  0  0  0  0
   -3.2846   -2.8280   -0.3984 H   0  0  0  0  0  0  0  0  0  0  0  0
   -1.7586   -2.0580    0.8686 C   0  0  0  0  0  0  0  0  0  0  0  0
   -0.9666   -2.6340    1.6026 O   0  0  0  0  0  0  0  0  0  0  0  0
   -1.4866   -0.9220    0.2366 N   0  0  0  0  0  0  0  0  0  0  0  0
   -2.2166   -0.4790   -0.2994 H   0  0  0  0  0  0  0  0  0  0  0  0
   -0.1956   -0.2250    0.2596 C   0  0  1  0  0  0  0  0  0  0  0  0
    0.3927   -0.6026    1.0964 H   0  0  0  0  0  0  0  0  0  0  0  0
    0.5767   -0.5489   -1.0351 C   0  0  0  0  0  0  0  0  0  0  0  0
    0.3139    0.2035   -1.7805 H   0  0  0  0  0  0  0  0  0  0  0  0
    1.6483   -0.4824   -0.8415 H   0  0  0  0  0  0  0  0  0  0  0  0
    0.2531   -1.9383   -1.6097 C   0  0  0  0  0  0  0  0  0  0  0  0
   -0.3720   -1.8207   -2.4982 H   0  0  0  0  0  0  0  0  0  0  0  0
    1.1905   -2.4093   -1.9171 H   0  0  0  0  0  0  0  0  0  0  0  0
   -0.4725   -2.8562   -0.6148 C   0  0  0  0  0  0  0  0  0  0  0  0
   -0.6077   -2.4635    0.5659 O   0  5  0  0  0  0  0  0  0  0  0  0
   -0.9068   -3.9397   -1.0651 O   0  0  0  0  0  0  0  0  0  0  0  0
   -0.3954    1.2887    0.4814 C   0  0  0  0  0  0  0  0  0  0  0  0
   -1.2761    1.9015   -0.1256 O   0  0  0  0  0  0  0  0  0  0  0  0
    0.4051    1.8919    1.3699 N   0  0  0  0  0  0  0  0  0  0  0  0
    1.1380    1.3380    1.7875 H   0  0  0  0  0  0  0  0  0  0  0  0
    0.3573    3.3183    1.6807 C   0  0  0  0  0  0  0  0  0  0  0  0
   -0.6670    3.6090    1.9198 H   0  0  0  0  0  0  0  0  0  0  0  0
    1.0066    3.5397    2.5289 H   0  0  0  0  0  0  0  0  0  0  0  0
    0.6896    3.8897    0.8118 H   0  0  0  0  0  0  0  0  0  0  0  0
  5  6  2  0  0  0  0
  5  7  1  0  0  0  0
  2  3  1  0  0  0  0
  2  4  1  0  0  0  0
  2  5  1  0  0  0  0
  1  2  1  0  0  0  0
 20 21  2  0  0  0  0
 20 22  1  0  0  0  0
 17 18  1  0  0  0  0
 17 19  2  0  0  0  0
 14 15  1  0  0  0  0
 14 16  1  0  0  0  0
 14 17  1  0  0  0  0
 11 12  1  0  0  0  0
 11 13  1  0  0  0  0
 11 14  1  0  0  0  0
  9 10  1  0  0  0  0
  9 11  1  0  0  0  0
  9 20  1  0  0  0  0
  7  8  1  0  0  0  0
  7  9  1  0  0  0  0
 24 25  1  0  0  0  0
 24 26  1  0  0  0  0
 24 27  1  0  0  0  0
 22 23  1  0  0  0  0
 22 24  1  0  0  0  0
M  CHG  1  18  -1
M  END
$$$$
default_name
  -OEChem-02102213163D

 27 26  0     1  0  0  0  0  0999 V2000
   -3.2406   -3.5400    1.2326 H   0  0  0  0  0  0  0  0  0  0  0  0
   -3.1436   -2.6190    0.6606 C   0  0  0  0  0  0  0  0  0  0  0  0
   -3.8786   -1.8920    0.9996 H   0  0  0  0  0  0  0  0  0  0  0  0
   -3.2846   -2.8280   -0.3984 H   0  0  0  0  0  0  0  0  0  0  0  0
   -1.7586   -2.0580    0.8686 C   0  0  0  0  0  0  0  0  0  0  0  0
   -0.9666   -2.6340    1.6026 O   0  0  0  0  0  0  0  0  0  0  0  0
   -1.4866   -0.9220    0.2366 N   0  0  0  0  0  0  0  0  0  0  0  0
   -2.2166   -0.4790   -0.2994 H   0  0  0  0  0  0  0  0  0  0  0  0
   -0.1956   -0.2250    0.2596 C   0  0  1  0  0  0  0  0  0  0  0  0
    0.3927   -0.6026    1.0964 H   0  0  0  0  0  0  0  0  0  0  0  0
    0.5767   -0.5489   -1.0351 C   0  0  0  0  0  0  0  0  0  0  0  0
    0.3139    0.2035   -1.7805 H   0  0  0  0  0  0  0  0  0  0  0  0
    1.6483   -0.4824   -0.8415 H   0  0  0  0  0  0  0  0  0  0  0  0
    0.2531   -1.9383   -1.6097 C   0  0  0  0  0  0  0  0  0  0  0  0
   -0.1342   -1.8237   -2.6250 H   0  0  0  0  0  0  0  0  0  0  0  0
    1.1824   -2.5112   -1.6661 H   0  0  0  0  0  0  0  0  0  0  0  0
   -0.7735   -2.7194   -0.7761 C   0  0  0  0  0  0  0  0  0  0  0  0
   -1.1367   -2.2391    0.3211 O   0  5  0  0  0  0  0  0  0  0  0  0
   -1.2014   -3.7866   -1.2694 O   0  0  0  0  0  0  0  0  0  0  0  0
   -0.3954    1.2887    0.4814 C   0  0  0  0  0  0  0  0  0  0  0  0
   -1.2761    1.9015   -0.1256 O   0  0  0  0  0  0  0  0  0  0  0  0
    0.4051    1.8919    1.3699 N   0  0  0  0  0  0  0  0  0  0  0  0
    1.1380    1.3380    1.7875 H   0  0  0  0  0  0  0  0  0  0  0  0
    0.3573    3.3183    1.6807 C   0  0  0  0  0  0  0  0  0  0  0  0
   -0.6670    3.6090    1.9198 H   0  0  0  0  0  0  0  0  0  0  0  0
    1.0066    3.5397    2.5289 H   0  0  0  0  0  0  0  0  0  0  0  0
    0.6896    3.8897    0.8118 H   0  0  0  0  0  0  0  0  0  0  0  0
  5  6  2  0  0  0  0
  5  7  1  0  0  0  0
  2  3  1  0  0  0  0
  2  4  1  0  0  0  0
  2  5  1  0  0  0  0
  1  2  1  0  0  0  0
 20 21  2  0  0  0  0
 20 22  1  0  0  0  0
 17 18  1  0  0  0  0
 17 19  2  0  0  0  0
 14 15  1  0  0  0  0
 14 16  1  0  0  0  0
 14 17  1  0  0  0  0
 11 12  1  0  0  0  0
 11 13  1  0  0  0  0
 11 14  1  0  0  0  0
  9 10  1  0  0  0  0
  9 11  1  0  0  0  0
  9 20  1  0  0  0  0
  7  8  1  0  0  0  0
  7  9  1  0  0  0  0
 24 25  1  0  0  0  0
 24 26  1  0  0  0  0
 24 27  1  0  0  0  0
 22 23  1  0  0  0  0
 22 24  1  0  0  0  0
M  CHG  1  18  -1
M  END
$$$$
default_name
  -OEChem-02102213163D

 27 26  0     1  0  0  0  0  0999 V2000
   -3.2406   -3.5400    1.2326 H   0  0  0  0  0  0  0  0  0  0  0  0
   -3.1436   -2.6190    0.6606 C   0  0  0  0  0  0  0  0  0  0  0  0
   -3.8786   -1.8920    0.9996 H   0  0  0  0  0  0  0  0  0  0  0  0
   -3.2846   -2.8280   -0.3984 H   0  0  0  0  0  0  0  0  0  0  0  0
   -1.7586   -2.0580    0.8686 C   0  0  0  0  0  0  0  0  0  0  0  0
   -0.9666   -2.6340    1.6026 O   0  0  0  0  0  0  0  0  0  0  0  0
   -1.4866   -0.9220    0.2366 N   0  0  0  0  0  0  0  0  0  0  0  0
   -2.2166   -0.4790   -0.2994 H   0  0  0  0  0  0  0  0  0  0  0  0
   -0.1956   -0.2250    0.2596 C   0  0  1  0  0  0  0  0  0  0  0  0
    0.3927   -0.6026    1.0964 H   0  0  0  0  0  0  0  0  0  0  0  0
    0.5767   -0.5489   -1.0351 C   0  0  0  0  0  0  0  0  0  0  0  0
    0.3139    0.2035   -1.7805 H   0  0  0  0  0  0  0  0  0  0  0  0
    1.6483   -0.4824   -0.8415 H   0  0  0  0  0  0  0  0  0  0  0  0
    0.2531   -1.9383   -1.6097 C   0  0  0  0  0  0  0  0  0  0  0  0
    0.1249   -1.8565   -2.6918 H   0  0  0  0  0  0  0  0  0  0  0  0
    1.1061   -2.5952   -1.4200 H   0  0  0  0  0  0  0  0  0  0  0  0
   -1.0134   -2.5669   -1.0098 C   0  0  0  0  0  0  0  0  0  0  0  0
   -1.5688   -1.9844   -0.0513 O   0  5  0  0  0  0  0  0  0  0  0  0
   -1.4234   -3.6213   -1.5440 O   0  0  0  0  0  0  0  0  0  0  0  0
   -0.3954    1.2887    0.4814 C   0  0  0  0  0  0  0  0  0  0  0  0
   -1.2761    1.9015   -0.1256 O   0  0  0  0  0  0  0  0  0  0  0  0
    0.4051    1.8919    1.3699 N   0  0  0  0  0  0  0  0  0  0  0  0
    1.1380    1.3380    1.7875 H   0  0  0  0  0  0  0  0  0  0  0  0
    0.3573    3.3183    1.6807 C   0  0  0  0  0  0  0  0  0  0  0  0
   -0.6670    3.6090    1.9198 H   0  0  0  0  0  0  0  0  0  0  0  0
    1.0066    3.5397    2.5289 H   0  0  0  0  0  0  0  0  0  0  0  0
    0.6896    3.8897    0.8118 H   0  0  0  0  0  0  0  0  0  0  0  0
  5  6  2  0  0  0  0
  5  7  1  0  0  0  0
  2  3  1  0  0  0  0
  2  4  1  0  0  0  0
  2  5  1  0  0  0  0
  1  2  1  0  0  0  0
 20 21  2  0  0  0  0
 20 22  1  0  0  0  0
 17 18  1  0  0  0  0
 17 19  2  0  0  0  0
 14 15  1  0  0  0  0
 14 16  1  0  0  0  0
 14 17  1  0  0  0  0
 11 12  1  0  0  0  0
 11 13  1  0  0  0  0
 11 14  1  0  0  0  0
  9 10  1  0  0  0  0
  9 11  1  0  0  0  0
  9 20  1  0  0  0  0
  7  8  1  0  0  0  0
  7  9  1  0  0  0  0
 24 25  1  0  0  0  0
 24 26  1  0  0  0  0
 24 27  1  0  0  0  0
 22 23  1  0  0  0  0
 22 24  1  0  0  0  0
M  CHG  1  18  -1
M  END
$$$$
default_name
  -OEChem-02102213163D

 27 26  0     1  0  0  0  0  0999 V2000
   -3.2406   -3.5400    1.2326 H   0  0  0  0  0  0  0  0  0  0  0  0
   -3.1436   -2.6190    0.6606 C   0  0  0  0  0  0  0  0  0  0  0  0
   -3.8786   -1.8920    0.9996 H   0  0  0  0  0  0  0  0  0  0  0  0
   -3.2846   -2.8280   -0.3984 H   0  0  0  0  0  0  0  0  0  0  0  0
   -1.7586   -2.0580    0.8686 C   0  0  0  0  0  0  0  0  0  0  0  0
   -0.9666   -2.6340    1.6026 O   0  0  0  0  0  0  0  0  0  0  0  0
   -1.4866   -0.9220    0.2366 N   0  0  0  0  0  0  0  0  0  0  0  0
   -2.2166   -0.4790   -0.2994 H   0  0  0  0  0  0  0  0  0  0  0  0
   -0.1956   -0.2250    0.2596 C   0  0  1  0  0  0  0  0  0  0  0  0
    0.3927   -0.6026    1.0964 H   0  0  0  0  0  0  0  0  0  0  0  0
    0.5767   -0.5489   -1.0351 C   0  0  0  0  0  0  0  0  0  0  0  0
    0.3139    0.2035   -1.7805 H   0  0  0  0  0  0  0  0  0  0  0  0
    1.6483   -0.4824   -0.8415 H   0  0  0  0  0  0  0  0  0  0  0  0
    0.2531   -1.9383   -1.6097 C   0  0  0  0  0  0  0  0  0  0  0  0
    0.3877   -1.9168   -2.6939 H   0  0  0  0  0  0  0  0  0  0  0  0
    0.9667   -2.6555   -1.1956 H   0  0  0  0  0  0  0  0  0  0  0  0
   -1.1757   -2.4091   -1.2999 C   0  0  0  0  0  0  0  0  0  0  0  0
   -1.8745   -1.7170   -0.5258 O   0  5  0  0  0  0  0  0  0  0  0  0
   -1.5577   -3.4552   -1.8700 O   0  0  0  0  0  0  0  0  0  0  0  0
   -0.3954    1.2887    0.4814 C   0  0  0  0  0  0  0  0  0  0  0  0
   -1.2761    1.9015   -0.1256 O   0  0  0  0  0  0  0  0  0  0  0  0
    0.4051    1.8919    1.3699 N   0  0  0  0  0  0  0  0  0  0  0  0
    1.1380    1.3380    1.7875 H   0  0  0  0  0  0  0  0  0  0  0  0
    0.3573    3.3183    1.6807 C   0  0  0  0  0  0  0  0  0  0  0  0
   -0.6670    3.6090    1.9198 H   0  0  0  0  0  0  0  0  0  0  0  0
    1.0066    3.5397    2.5289 H   0  0  0  0  0  0  0  0  0  0  0  0
    0.6896    3.8897    0.8118 H   0  0  0  0  0  0  0  0  0  0  0  0
  5  6  2  0  0  0  0
  5  7  1  0  0  0  0
  2  3  1  0  0  0  0
  2  4  1  0  0  0  0
  2  5  1  0  0  0  0
  1  2  1  0  0  0  0
 20 21  2  0  0  0  0
 20 22  1  0  0  0  0
 17 18  1  0  0  0  0
 17 19  2  0  0  0  0
 14 15  1  0  0  0  0
 14 16  1  0  0  0  0
 14 17  1  0  0  0  0
 11 12  1  0  0  0  0
 11 13  1  0  0  0  0
 11 14  1  0  0  0  0
  9 10  1  0  0  0  0
  9 11  1  0  0  0  0
  9 20  1  0  0  0  0
  7  8  1  0  0  0  0
  7  9  1  0  0  0  0
 24 25  1  0  0  0  0
 24 26  1  0  0  0  0
 24 27  1  0  0  0  0
 22 23  1  0  0  0  0
 22 24  1  0  0  0  0
M  CHG  1  18  -1
M  END
$$$$
default_name
  -OEChem-02102213163D

 27 26  0     1  0  0  0  0  0999 V2000
   -3.2406   -3.5400    1.2326 H   0  0  0  0  0  0  0  0  0  0  0  0
   -3.1436   -2.6190    0.6606 C   0  0  0  0  0  0  0  0  0  0  0  0
   -3.8786   -1.8920    0.9996 H   0  0  0  0  0  0  0  0  0  0  0  0
   -3.2846   -2.8280   -0.3984 H   0  0  0  0  0  0  0  0  0  0  0  0
   -1.7586   -2.0580    0.8686 C   0  0  0  0  0  0  0  0  0  0  0  0
   -0.9666   -2.6340    1.6026 O   0  0  0  0  0  0  0  0  0  0  0  0
   -1.4866   -0.9220    0.2366 N   0  0  0  0  0  0  0  0  0  0  0  0
   -2.2166   -0.4790   -0.2994 H   0  0  0  0  0  0  0  0  0  0  0  0
   -0.1956   -0.2250    0.2596 C   0  0  1  0  0  0  0  0  0  0  0  0
    0.3927   -0.6026    1.0964 H   0  0  0  0  0  0  0  0  0  0  0  0
    0.5767   -0.5489   -1.0351 C   0  0  0  0  0  0  0  0  0  0  0  0
    0.3139    0.2035   -1.7805 H   0  0  0  0  0  0  0  0  0  0  0  0
    1.6483   -0.4824   -0.8415 H   0  0  0  0  0  0  0  0  0  0  0  0
    0.2531   -1.9383   -1.6097 C   0  0  0  0  0  0  0  0  0  0  0  0
    0.6361   -2.0006   -2.6312 H   0  0  0  0  0  0  0  0  0  0  0  0
    0.7738   -2.6881   -1.0082 H   0  0  0  0  0  0  0  0  0  0  0  0
   -1.2493   -2.2568   -1.6266 C   0  0  0  0  0  0  0  0  0  0  0  0
   -2.0329   -1.4549   -1.0703 O   0  5  0  0  0  0  0  0  0  0  0  0
   -1.5950   -3.2995   -2.2255 O   0  0  0  0  0  0  0  0  0  0  0  0
   -0.3954    1.2887    0.4814 C   0  0  0  0  0  0  0  0  0  0  0  0
   -1.2761    1.9015   -0.1256 O   0  0  0  0  0  0  0  0  0  0  0  0
    0.4051    1.8919    1.3699 N   0  0  0  0  0  0  0  0  0  0  0  0
    1.1380    1.3380    1.7875 H   0  0  0  0  0  0  0  0  0  0  0  0
    0.3573    3.3183    1.6807 C   0  0  0  0  0  0  0  0  0  0  0  0
   -0.6670    3.6090    1.9198 H   0  0  0  0  0  0  0  0  0  0  0  0
    1.0066    3.5397    2.5289 H   0  0  0  0  0  0  0  0  0  0  0  0
    0.6896    3.8897    0.8118 H   0  0  0  0  0  0  0  0  0  0  0  0
  5  6  2  0  0  0  0
  5  7  1  0  0  0  0
  2  3  1  0  0  0  0
  2  4  1  0  0  0  0
  2  5  1  0  0  0  0
  1  2  1  0  0  0  0
 20 21  2  0  0  0  0
 20 22  1  0  0  0  0
 17 18  1  0  0  0  0
 17 19  2  0  0  0  0
 14 15  1  0  0  0  0
 14 16  1  0  0  0  0
 14 17  1  0  0  0  0
 11 12  1  0  0  0  0
 11 13  1  0  0  0  0
 11 14  1  0  0  0  0
  9 10  1  0  0  0  0
  9 11  1  0  0  0  0
  9 20  1  0  0  0  0
  7  8  1  0  0  0  0
  7  9  1  0  0  0  0
 24 25  1  0  0  0  0
 24 26  1  0  0  0  0
 24 27  1  0  0  0  0
 22 23  1  0  0  0  0
 22 24  1  0  0  0  0
M  CHG  1  18  -1
M  END
$$$$
default_name
  -OEChem-02102213163D

 27 26  0     1  0  0  0  0  0999 V2000
   -3.2406   -3.5400    1.2326 H   0  0  0  0  0  0  0  0  0  0  0  0
   -3.1436   -2.6190    0.6606 C   0  0  0  0  0  0  0  0  0  0  0  0
   -3.8786   -1.8920    0.9996 H   0  0  0  0  0  0  0  0  0  0  0  0
   -3.2846   -2.8280   -0.3984 H   0  0  0  0  0  0  0  0  0  0  0  0
   -1.7586   -2.0580    0.8686 C   0  0  0  0  0  0  0  0  0  0  0  0
   -0.9666   -2.6340    1.6026 O   0  0  0  0  0  0  0  0  0  0  0  0
   -1.4866   -0.9220    0.2366 N   0  0  0  0  0  0  0  0  0  0  0  0
   -2.2166   -0.4790   -0.2994 H   0  0  0  0  0  0  0  0  0  0  0  0
   -0.1956   -0.2250    0.2596 C   0  0  1  0  0  0  0  0  0  0  0  0
    0.3927   -0.6026    1.0964 H   0  0  0  0  0  0  0  0  0  0  0  0
    0.5767   -0.5489   -1.0351 C   0  0  0  0  0  0  0  0  0  0  0  0
    0.3139    0.2035   -1.7805 H   0  0  0  0  0  0  0  0  0  0  0  0
    1.6483   -0.4824   -0.8415 H   0  0  0  0  0  0  0  0  0  0  0  0
    0.2531   -1.9383   -1.6097 C   0  0  0  0  0  0  0  0  0  0  0  0
    0.8533   -2.1021   -2.5080 H   0  0  0  0  0  0  0  0  0  0  0  0
    0.5404   -2.6907   -0.8705 H   0  0  0  0  0  0  0  0  0  0  0  0
   -1.2294   -2.1204   -1.9677 C   0  0  0  0  0  0  0  0  0  0  0  0
   -2.0333   -1.2161   -1.6475 O   0  5  0  0  0  0  0  0  0  0  0  0
   -1.5330   -3.1649   -2.5860 O   0  0  0  0  0  0  0  0  0  0  0  0
   -0.3954    1.2887    0.4814 C   0  0  0  0  0  0  0  0  0  0  0  0
   -1.2761    1.9015   -0.1256 O   0  0  0  0  0  0  0  0  0  0  0  0
    0.4051    1.8919    1.3699 N   0  0  0  0  0  0  0  0  0  0  0  0
    1.1380    1.3380    1.7875 H   0  0  0  0  0  0  0  0  0  0  0  0
    0.3573    3.3183    1.6807 C   0  0  0  0  0  0  0  0  0  0  0  0
   -0.6670    3.6090    1.9198 H   0  0  0  0  0  0  0  0  0  0  0  0
    1.0066    3.5397    2.5289 H   0  0  0  0  0  0  0  0  0  0  0  0
    0.6896    3.8897    0.8118 H   0  0  0  0  0  0  0  0  0  0  0  0
  5  6  2  0  0  0  0
  5  7  1  0  0  0  0
  2  3  1  0  0  0  0
  2  4  1  0  0  0  0
  2  5  1  0  0  0  0
  1  2  1  0  0  0  0
 20 21  2  0  0  0  0
 20 22  1  0  0  0  0
 17 18  1  0  0  0  0
 17 19  2  0  0  0  0
 14 15  1  0  0  0  0
 14 16  1  0  0  0  0
 14 17  1  0  0  0  0
 11 12  1  0  0  0  0
 11 13  1  0  0  0  0
 11 14  1  0  0  0  0
  9 10  1  0  0  0  0
  9 11  1  0  0  0  0
  9 20  1  0  0  0  0
  7  8  1  0  0  0  0
  7  9  1  0  0  0  0
 24 25  1  0  0  0  0
 24 26  1  0  0  0  0
 24 27  1  0  0  0  0
 22 23  1  0  0  0  0
 22 24  1  0  0  0  0
M  CHG  1  18  -1
M  END
$$$$
default_name
  -OEChem-02102213163D

 27 26  0     1  0  0  0  0  0999 V2000
   -3.2406   -3.5400    1.2326 H   0  0  0  0  0  0  0  0  0  0  0  0
   -3.1436   -2.6190    0.6606 C   0  0  0  0  0  0  0  0  0  0  0  0
   -3.8786   -1.8920    0.9996 H   0  0  0  0  0  0  0  0  0  0  0  0
   -3.2846   -2.8280   -0.3984 H   0  0  0  0  0  0  0  0  0  0  0  0
   -1.7586   -2.0580    0.8686 C   0  0  0  0  0  0  0  0  0  0  0  0
   -0.9666   -2.6340    1.6026 O   0  0  0  0  0  0  0  0  0  0  0  0
   -1.4866   -0.9220    0.2366 N   0  0  0  0  0  0  0  0  0  0  0  0
   -2.2166   -0.4790   -0.2994 H   0  0  0  0  0  0  0  0  0  0  0  0
   -0.1956   -0.2250    0.2596 C   0  0  1  0  0  0  0  0  0  0  0  0
    0.3927   -0.6026    1.0964 H   0  0  0  0  0  0  0  0  0  0  0  0
    0.5767   -0.5489   -1.0351 C   0  0  0  0  0  0  0  0  0  0  0  0
    0.3139    0.2035   -1.7805 H   0  0  0  0  0  0  0  0  0  0  0  0
    1.6483   -0.4824   -0.8415 H   0  0  0  0  0  0  0  0  0  0  0  0
    0.2531   -1.9383   -1.6097 C   0  0  0  0  0  0  0  0  0  0  0  0
    1.0244   -2.2145   -2.3326 H   0  0  0  0  0  0  0  0  0  0  0  0
    0.2826   -2.6631   -0.7919 H   0  0  0  0  0  0  0  0  0  0  0  0
   -1.1171   -2.0092   -2.3000 C   0  0  0  0  0  0  0  0  0  0  0  0
   -1.8756   -1.0169   -2.2181 O   0  5  0  0  0  0  0  0  0  0  0  0
   -1.3757   -3.0604   -2.9271 O   0  0  0  0  0  0  0  0  0  0  0  0
   -0.3954    1.2887    0.4814 C   0  0  0  0  0  0  0  0  0  0  0  0
   -1.2761    1.9015   -0.1256 O   0  0  0  0  0  0  0  0  0  0  0  0
    0.4051    1.8919    1.3699 N   0  0  0  0  0  0  0  0  0  0  0  0
    1.1380    1.3380    1.7875 H   0  0  0  0  0  0  0  0  0  0  0  0
    0.3573    3.3183    1.6807 C   0  0  0  0  0  0  0  0  0  0  0  0
   -0.6670    3.6090    1.9198 H   0  0  0  0  0  0  0  0  0  0  0  0
    1.0066    3.5397    2.5289 H   0  0  0  0  0  0  0  0  0  0  0  0
    0.6896    3.8897    0.8118 H   0  0  0  0  0  0  0  0  0  0  0  0
  5  6  2  0  0  0  0
  5  7  1  0  0  0  0
  2  3  1  0  0  0  0
  2  4  1  0  0  0  0
  2  5  1  0  0  0  0
  1  2  1  0  0  0  0
 20 21  2  0  0  0  0
 20 22  1  0  0  0  0
 17 18  1  0  0  0  0
 17 19  2  0  0  0  0
 14 15  1  0  0  0  0
 14 16  1  0  0  0  0
 14 17  1  0  0  0  0
 11 12  1  0  0  0  0
 11 13  1  0  0  0  0
 11 14  1  0  0  0  0
  9 10  1  0  0  0  0
  9 11  1  0  0  0  0
  9 20  1  0  0  0  0
  7  8  1  0  0  0  0
  7  9  1  0  0  0  0
 24 25  1  0  0  0  0
 24 26  1  0  0  0  0
 24 27  1  0  0  0  0
 22 23  1  0  0  0  0
 22 24  1  0  0  0  0
M  CHG  1  18  -1
M  END
$$$$
default_name
  -OEChem-02102213163D

 27 26  0     1  0  0  0  0  0999 V2000
   -3.2406   -3.5400    1.2326 H   0  0  0  0  0  0  0  0  0  0  0  0
   -3.1436   -2.6190    0.6606 C   0  0  0  0  0  0  0  0  0  0  0  0
   -3.8786   -1.8920    0.9996 H   0  0  0  0  0  0  0  0  0  0  0  0
   -3.2846   -2.8280   -0.3984 H   0  0  0  0  0  0  0  0  0  0  0  0
   -1.7586   -2.0580    0.8686 C   0  0  0  0  0  0  0  0  0  0  0  0
   -0.9666   -2.6340    1.6026 O   0  0  0  0  0  0  0  0  0  0  0  0
   -1.4866   -0.9220    0.2366 N   0  0  0  0  0  0  0  0  0  0  0  0
   -2.2166   -0.4790   -0.2994 H   0  0  0  0  0  0  0  0  0  0  0  0
   -0.1956   -0.2250    0.2596 C   0  0  1  0  0  0  0  0  0  0  0  0
    0.3927   -0.6026    1.0964 H   0  0  0  0  0  0  0  0  0  0  0  0
    0.5767   -0.5489   -1.0351 C   0  0  0  0  0  0  0  0  0  0  0  0
    0.3139    0.2035   -1.7805 H   0  0  0  0  0  0  0  0  0  0  0  0
    1.6483   -0.4824   -0.8415 H   0  0  0  0  0  0  0  0  0  0  0  0
    0.2531   -1.9383   -1.6097 C   0  0  0  0  0  0  0  0  0  0  0  0
    1.1379   -2.3301   -2.1171 H   0  0  0  0  0  0  0  0  0  0  0  0
    0.0178   -2.6073   -0.7777 H   0  0  0  0  0  0  0  0  0  0  0  0
   -0.9203   -1.9306   -2.6008 C   0  0  0  0  0  0  0  0  0  0  0  0
   -1.5706   -0.8708   -2.7433 O   0  5  0  0  0  0  0  0  0  0  0  0
   -1.1339   -2.9934   -3.2254 O   0  0  0  0  0  0  0  0  0  0  0  0
   -0.3954    1.2887    0.4814 C   0  0  0  0  0  0  0  0  0  0  0  0
   -1.2761    1.9015   -0.1256 O   0  0  0  0  0  0  0  0  0  0  0  0
    0.4051    1.8919    1.3699 N   0  0  0  0  0  0  0  0  0  0  0  0
    1.1380    1.3380    1.7875 H   0  0  0  0  0  0  0  0  0  0  0  0
    0.3573    3.3183    1.6807 C   0  0  0  0  0  0  0  0  0  0  0  0
   -0.6670    3.6090    1.9198 H   0  0  0  0  0  0  0  0  0  0  0  0
    1.0066    3.5397    2.5289 H   0  0  0  0  0  0  0  0  0  0  0  0
    0.6896    3.8897    0.8118 H   0  0  0  0  0  0  0  0  0  0  0  0
  5  6  2  0  0  0  0
  5  7  1  0  0  0  0
  2  3  1  0  0  0  0
  2  4  1  0  0  0  0
  2  5  1  0  0  0  0
  1  2  1  0  0  0  0
 20 21  2  0  0  0  0
 20 22  1  0  0  0  0
 17 18  1  0  0  0  0
 17 19  2  0  0  0  0
 14 15  1  0  0  0  0
 14 16  1  0  0  0  0
 14 17  1  0  0  0  0
 11 12  1  0  0  0  0
 11 13  1  0  0  0  0
 11 14  1  0  0  0  0
  9 10  1  0  0  0  0
  9 11  1  0  0  0  0
  9 20  1  0  0  0  0
  7  8  1  0  0  0  0
  7  9  1  0  0  0  0
 24 25  1  0  0  0  0
 24 26  1  0  0  0  0
 24 27  1  0  0  0  0
 22 23  1  0  0  0  0
 22 24  1  0  0  0  0
M  CHG  1  18  -1
M  END
$$$$
default_name
  -OEChem-02102213163D

 27 26  0     1  0  0  0  0  0999 V2000
   -3.2406   -3.5400    1.2326 H   0  0  0  0  0  0  0  0  0  0  0  0
   -3.1436   -2.6190    0.6606 C   0  0  0  0  0  0  0  0  0  0  0  0
   -3.8786   -1.8920    0.9996 H   0  0  0  0  0  0  0  0  0  0  0  0
   -3.2846   -2.8280   -0.3984 H   0  0  0  0  0  0  0  0  0  0  0  0
   -1.7586   -2.0580    0.8686 C   0  0  0  0  0  0  0  0  0  0  0  0
   -0.9666   -2.6340    1.6026 O   0  0  0  0  0  0  0  0  0  0  0  0
   -1.4866   -0.9220    0.2366 N   0  0  0  0  0  0  0  0  0  0  0  0
   -2.2166   -0.4790   -0.2994 H   0  0  0  0  0  0  0  0  0  0  0  0
   -0.1956   -0.2250    0.2596 C   0  0  1  0  0  0  0  0  0  0  0  0
    0.3927   -0.6026    1.0964 H   0  0  0  0  0  0  0  0  0  0  0  0
    0.5767   -0.5489   -1.0351 C   0  0  0  0  0  0  0  0  0  0  0  0
    0.3139    0.2035   -1.7805 H   0  0  0  0  0  0  0  0  0  0  0  0
    1.6483   -0.4824   -0.8415 H   0  0  0  0  0  0  0  0  0  0  0  0
    0.2531   -1.9383   -1.6097 C   0  0  0  0  0  0  0  0  0  0  0  0
    1.1860   -2.4409   -1.8762 H   0  0  0  0  0  0  0  0  0  0  0  0
   -0.2359   -2.5270   -0.8290 H   0  0  0  0  0  0  0  0  0  0  0  0
   -0.6522   -1.8902   -2.8495 C   0  0  0  0  0  0  0  0  0  0  0  0
   -1.1390   -0.7877   -3.1872 O   0  5  0  0  0  0  0  0  0  0  0  0
   -0.8242   -2.9682   -3.4607 O   0  0  0  0  0  0  0  0  0  0  0  0
   -0.3954    1.2887    0.4814 C   0  0  0  0  0  0  0  0  0  0  0  0
   -1.2761    1.9015   -0.1256 O   0  0  0  0  0  0  0  0  0  0  0  0
    0.4051    1.8919    1.3699 N   0  0  0  0  0  0  0  0  0  0  0  0
    1.1380    1.3380    1.7875 H   0  0  0  0  0  0  0  0  0  0  0  0
    0.3573    3.3183    1.6807 C   0  0  0  0  0  0  0  0  0  0  0  0
   -0.6670    3.6090    1.9198 H   0  0  0  0  0  0  0  0  0  0  0  0
    1.0066    3.5397    2.5289 H   0  0  0  0  0  0  0  0  0  0  0  0
    0.6896    3.8897    0.8118 H   0  0  0  0  0  0  0  0  0  0  0  0
  5  6  2  0  0  0  0
  5  7  1  0  0  0  0
  2  3  1  0  0  0  0
  2  4  1  0  0  0  0
  2  5  1  0  0  0  0
  1  2  1  0  0  0  0
 20 21  2  0  0  0  0
 20 22  1  0  0  0  0
 17 18  1  0  0  0  0
 17 19  2  0  0  0  0
 14 15  1  0  0  0  0
 14 16  1  0  0  0  0
 14 17  1  0  0  0  0
 11 12  1  0  0  0  0
 11 13  1  0  0  0  0
 11 14  1  0  0  0  0
  9 10  1  0  0  0  0
  9 11  1  0  0  0  0
  9 20  1  0  0  0  0
  7  8  1  0  0  0  0
  7  9  1  0  0  0  0
 24 25  1  0  0  0  0
 24 26  1  0  0  0  0
 24 27  1  0  0  0  0
 22 23  1  0  0  0  0
 22 24  1  0  0  0  0
M  CHG  1  18  -1
M  END
$$$$
default_name
  -OEChem-02102213163D

 27 26  0     1  0  0  0  0  0999 V2000
   -3.2406   -3.5400    1.2326 H   0  0  0  0  0  0  0  0  0  0  0  0
   -3.1436   -2.6190    0.6606 C   0  0  0  0  0  0  0  0  0  0  0  0
   -3.8786   -1.8920    0.9996 H   0  0  0  0  0  0  0  0  0  0  0  0
   -3.2846   -2.8280   -0.3984 H   0  0  0  0  0  0  0  0  0  0  0  0
   -1.7586   -2.0580    0.8686 C   0  0  0  0  0  0  0  0  0  0  0  0
   -0.9666   -2.6340    1.6026 O   0  0  0  0  0  0  0  0  0  0  0  0
   -1.4866   -0.9220    0.2366 N   0  0  0  0  0  0  0  0  0  0  0  0
   -2.2166   -0.4790   -0.2994 H   0  0  0  0  0  0  0  0  0  0  0  0
   -0.1956   -0.2250    0.2596 C   0  0  1  0  0  0  0  0  0  0  0  0
    0.3927   -0.6026    1.0964 H   0  0  0  0  0  0  0  0  0  0  0  0
    0.5767   -0.5489   -1.0351 C   0  0  0  0  0  0  0  0  0  0  0  0
    0.3139    0.2035   -1.7805 H   0  0  0  0  0  0  0  0  0  0  0  0
    1.6483   -0.4824   -0.8415 H   0  0  0  0  0  0  0  0  0  0  0  0
    0.2531   -1.9383   -1.6097 C   0  0  0  0  0  0  0  0  0  0  0  0
    1.1653   -2.5395   -1.6261 H   0  0  0  0  0  0  0  0  0  0  0  0
   -0.4612   -2.4277   -0.9422 H   0  0  0  0  0  0  0  0  0  0  0  0
   -0.3312   -1.8906   -3.0293 C   0  0  0  0  0  0  0  0  0  0  0  0
   -0.6104   -0.7734   -3.5196 O   0  5  0  0  0  0  0  0  0  0  0  0
   -0.4675   -2.9867   -3.6170 O   0  0  0  0  0  0  0  0  0  0  0  0
   -0.3954    1.2887    0.4814 C   0  0  0  0  0  0  0  0  0  0  0  0
   -1.2761    1.9015   -0.1256 O   0  0  0  0  0  0  0  0  0  0  0  0
    0.4051    1.8919    1.3699 N   0  0  0  0  0  0  0  0  0  0  0  0
    1.1380    1.3380    1.7875 H   0  0  0  0  0  0  0  0  0  0  0  0
    0.3573    3.3183    1.6807 C   0  0  0  0  0  0  0  0  0  0  0  0
   -0.6670    3.6090    1.9198 H   0  0  0  0  0  0  0  0  0  0  0  0
    1.0066    3.5397    2.5289 H   0  0  0  0  0  0  0  0  0  0  0  0
    0.6896    3.8897    0.8118 H   0  0  0  0  0  0  0  0  0  0  0  0
  5  6  2  0  0  0  0
  5  7  1  0  0  0  0
  2  3  1  0  0  0  0
  2  4  1  0  0  0  0
  2  5  1  0  0  0  0
  1  2  1  0  0  0  0
 20 21  2  0  0  0  0
 20 22  1  0  0  0  0
 17 18  1  0  0  0  0
 17 19  2  0  0  0  0
 14 15  1  0  0  0  0
 14 16  1  0  0  0  0
 14 17  1  0  0  0  0
 11 12  1  0  0  0  0
 11 13  1  0  0  0  0
 11 14  1  0  0  0  0
  9 10  1  0  0  0  0
  9 11  1  0  0  0  0
  9 20  1  0  0  0  0
  7  8  1  0  0  0  0
  7  9  1  0  0  0  0
 24 25  1  0  0  0  0
 24 26  1  0  0  0  0
 24 27  1  0  0  0  0
 22 23  1  0  0  0  0
 22 24  1  0  0  0  0
M  CHG  1  18  -1
M  END
$$$$
default_name
  -OEChem-02102213163D

 27 26  0     1  0  0  0  0  0999 V2000
   -3.2406   -3.5400    1.2326 H   0  0  0  0  0  0  0  0  0  0  0  0
   -3.1436   -2.6190    0.6606 C   0  0  0  0  0  0  0  0  0  0  0  0
   -3.8786   -1.8920    0.9996 H   0  0  0  0  0  0  0  0  0  0  0  0
   -3.2846   -2.8280   -0.3984 H   0  0  0  0  0  0  0  0  0  0  0  0
   -1.7586   -2.0580    0.8686 C   0  0  0  0  0  0  0  0  0  0  0  0
   -0.9666   -2.6340    1.6026 O   0  0  0  0  0  0  0  0  0  0  0  0
   -1.4866   -0.9220    0.2366 N   0  0  0  0  0  0  0  0  0  0  0  0
   -2.2166   -0.4790   -0.2994 H   0  0  0  0  0  0  0  0  0  0  0  0
   -0.1956   -0.2250    0.2596 C   0  0  1  0  0  0  0  0  0  0  0  0
    0.3927   -0.6026    1.0964 H   0  0  0  0  0  0  0  0  0  0  0  0
    0.5767   -0.5489   -1.0351 C   0  0  0  0  0  0  0  0  0  0  0  0
    0.3139    0.2035   -1.7805 H   0  0  0  0  0  0  0  0  0  0  0  0
    1.6483   -0.4824   -0.8415 H   0  0  0  0  0  0  0  0  0  0  0  0
    0.2531   -1.9383   -1.6097 C   0  0  0  0  0  0  0  0  0  0  0  0
    1.0774   -2.6191   -1.3841 H   0  0  0  0  0  0  0  0  0  0  0  0
   -0.6427   -2.3161   -1.1097 H   0  0  0  0  0  0  0  0  0  0  0  0
    0.0209   -1.9319   -3.1280 C   0  0  0  0  0  0  0  0  0  0  0  0
   -0.0206   -0.8288   -3.7179 O   0  5  0  0  0  0  0  0  0  0  0  0
   -0.0883   -3.0475   -3.6835 O   0  0  0  0  0  0  0  0  0  0  0  0
   -0.3954    1.2887    0.4814 C   0  0  0  0  0  0  0  0  0  0  0  0
   -1.2761    1.9015   -0.1256 O   0  0  0  0  0  0  0  0  0  0  0  0
    0.4051    1.8919    1.3699 N   0  0  0  0  0  0  0  0  0  0  0  0
    1.1380    1.3380    1.7875 H   0  0  0  0  0  0  0  0  0  0  0  0
    0.3573    3.3183    1.6807 C   0  0  0  0  0  0  0  0  0  0  0  0
   -0.6670    3.6090    1.9198 H   0  0  0  0  0  0  0  0  0  0  0  0
    1.0066    3.5397    2.5289 H   0  0  0  0  0  0  0  0  0  0  0  0
    0.6896    3.8897    0.8118 H   0  0  0  0  0  0  0  0  0  0  0  0
  5  6  2  0  0  0  0
  5  7  1  0  0  0  0
  2  3  1  0  0  0  0
  2  4  1  0  0  0  0
  2  5  1  0  0  0  0
  1  2  1  0  0  0  0
 20 21  2  0  0  0  0
 20 22  1  0  0  0  0
 17 18  1  0  0  0  0
 17 19  2  0  0  0  0
 14 15  1  0  0  0  0
 14 16  1  0  0  0  0
 14 17  1  0  0  0  0
 11 12  1  0  0  0  0
 11 13  1  0  0  0  0
 11 14  1  0  0  0  0
  9 10  1  0  0  0  0
  9 11  1  0  0  0  0
  9 20  1  0  0  0  0
  7  8  1  0  0  0  0
  7  9  1  0  0  0  0
 24 25  1  0  0  0  0
 24 26  1  0  0  0  0
 24 27  1  0  0  0  0
 22 23  1  0  0  0  0
 22 24  1  0  0  0  0
M  CHG  1  18  -1
M  END
$$$$
default_name
  -OEChem-02102213163D

 27 26  0     1  0  0  0  0  0999 V2000
   -3.2406   -3.5400    1.2326 H   0  0  0  0  0  0  0  0  0  0  0  0
   -3.1436   -2.6190    0.6606 C   0  0  0  0  0  0  0  0  0  0  0  0
   -3.8786   -1.8920    0.9996 H   0  0  0  0  0  0  0  0  0  0  0  0
   -3.2846   -2.8280   -0.3984 H   0  0  0  0  0  0  0  0  0  0  0  0
   -1.7586   -2.0580    0.8686 C   0  0  0  0  0  0  0  0  0  0  0  0
   -0.9666   -2.6340    1.6026 O   0  0  0  0  0  0  0  0  0  0  0  0
   -1.4866   -0.9220    0.2366 N   0  0  0  0  0  0  0  0  0  0  0  0
   -2.2166   -0.4790   -0.2994 H   0  0  0  0  0  0  0  0  0  0  0  0
   -0.1956   -0.2250    0.2596 C   0  0  1  0  0  0  0  0  0  0  0  0
    0.3927   -0.6026    1.0964 H   0  0  0  0  0  0  0  0  0  0  0  0
    0.5767   -0.5489   -1.0351 C   0  0  0  0  0  0  0  0  0  0  0  0
    0.3139    0.2035   -1.7805 H   0  0  0  0  0  0  0  0  0  0  0  0
    1.6483   -0.4824   -0.8415 H   0  0  0  0  0  0  0  0  0  0  0  0
    0.2531   -1.9383   -1.6097 C   0  0  0  0  0  0  0  0  0  0  0  0
    0.9281   -2.6743   -1.1665 H   0  0  0  0  0  0  0  0  0  0  0  0
   -0.7681   -2.2000   -1.3200 H   0  0  0  0  0  0  0  0  0  0  0  0
    0.3800   -2.0111   -3.1386 C   0  0  0  0  0  0  0  0  0  0  0  0
    0.5900   -0.9501   -3.7685 O   0  5  0  0  0  0  0  0  0  0  0  0
    0.2877   -3.1466   -3.6558 O   0  0  0  0  0  0  0  0  0  0  0  0
   -0.3954    1.2887    0.4814 C   0  0  0  0  0  0  0  0  0  0  0  0
   -1.2761    1.9015   -0.1256 O   0  0  0  0  0  0  0  0  0  0  0  0
    0.4051    1.8919    1.3699 N   0  0  0  0  0  0  0  0  0  0  0  0
    1.1380    1.3380    1.7875 H   0  0  0  0  0  0  0  0  0  0  0  0
    0.3573    3.3183    1.6807 C   0  0  0  0  0  0  0  0  0  0  0  0
   -0.6670    3.6090    1.9198 H   0  0  0  0  0  0  0  0  0  0  0  0
    1.0066    3.5397    2.5289 H   0  0  0  0  0  0  0  0  0  0  0  0
    0.6896    3.8897    0.8118 H   0  0  0  0  0  0  0  0  0  0  0  0
  5  6  2  0  0  0  0
  5  7  1  0  0  0  0
  2  3  1  0  0  0  0
  2  4  1  0  0  0  0
  2  5  1  0  0  0  0
  1  2  1  0  0  0  0
 20 21  2  0  0  0  0
 20 22  1  0  0  0  0
 17 18  1  0  0  0  0
 17 19  2  0  0  0  0
 14 15  1  0  0  0  0
 14 16  1  0  0  0  0
 14 17  1  0  0  0  0
 11 12  1  0  0  0  0
 11 13  1  0  0  0  0
 11 14  1  0  0  0  0
  9 10  1  0  0  0  0
  9 11  1  0  0  0  0
  9 20  1  0  0  0  0
  7  8  1  0  0  0  0
  7  9  1  0  0  0  0
 24 25  1  0  0  0  0
 24 26  1  0  0  0  0
 24 27  1  0  0  0  0
 22 23  1  0  0  0  0
 22 24  1  0  0  0  0
M  CHG  1  18  -1
M  END
$$$$
default_name
  -OEChem-02102213163D

 27 26  0     1  0  0  0  0  0999 V2000
   -3.2406   -3.5400    1.2326 H   0  0  0  0  0  0  0  0  0  0  0  0
   -3.1436   -2.6190    0.6606 C   0  0  0  0  0  0  0  0  0  0  0  0
   -3.8786   -1.8920    0.9996 H   0  0  0  0  0  0  0  0  0  0  0  0
   -3.2846   -2.8280   -0.3984 H   0  0  0  0  0  0  0  0  0  0  0  0
   -1.7586   -2.0580    0.8686 C   0  0  0  0  0  0  0  0  0  0  0  0
   -0.9666   -2.6340    1.6026 O   0  0  0  0  0  0  0  0  0  0  0  0
   -1.4866   -0.9220    0.2366 N   0  0  0  0  0  0  0  0  0  0  0  0
   -2.2166   -0.4790   -0.2994 H   0  0  0  0  0  0  0  0  0  0  0  0
   -0.1956   -0.2250    0.2596 C   0  0  1  0  0  0  0  0  0  0  0  0
    0.3927   -0.6026    1.0964 H   0  0  0  0  0  0  0  0  0  0  0  0
    0.5767   -0.5489   -1.0351 C   0  0  0  0  0  0  0  0  0  0  0  0
    0.3139    0.2035   -1.7805 H   0  0  0  0  0  0  0  0  0  0  0  0
    1.6483   -0.4824   -0.8415 H   0  0  0  0  0  0  0  0  0  0  0  0
    0.2531   -1.9383   -1.6097 C   0  0  0  0  0  0  0  0  0  0  0  0
    0.7277   -2.7014   -0.9882 H   0  0  0  0  0  0  0  0  0  0  0  0
   -0.8288   -2.0871   -1.5587 H   0  0  0  0  0  0  0  0  0  0  0  0
    0.7217   -2.1230   -3.0607 C   0  0  0  0  0  0  0  0  0  0  0  0
    1.1800   -1.1291   -3.6679 O   0  5  0  0  0  0  0  0  0  0  0  0
    0.6349   -3.2771   -3.5357 O   0  0  0  0  0  0  0  0  0  0  0  0
   -0.3954    1.2887    0.4814 C   0  0  0  0  0  0  0  0  0  0  0  0
   -1.2761    1.9015   -0.1256 O   0  0  0  0  0  0  0  0  0  0  0  0
    0.4051    1.8919    1.3699 N   0  0  0  0  0  0  0  0  0  0  0  0
    1.1380    1.3380    1.7875 H   0  0  0  0  0  0  0  0  0  0  0  0
    0.3573    3.3183    1.6807 C   0  0  0  0  0  0  0  0  0  0  0  0
   -0.6670    3.6090    1.9198 H   0  0  0  0  0  0  0  0  0  0  0  0
    1.0066    3.5397    2.5289 H   0  0  0  0  0  0  0  0  0  0  0  0
    0.6896    3.8897    0.8118 H   0  0  0  0  0  0  0  0  0  0  0  0
  5  6  2  0  0  0  0
  5  7  1  0  0  0  0
  2  3  1  0  0  0  0
  2  4  1  0  0  0  0
  2  5  1  0  0  0  0
  1  2  1  0  0  0  0
 20 21  2  0  0  0  0
 20 22  1  0  0  0  0
 17 18  1  0  0  0  0
 17 19  2  0  0  0  0
 14 15  1  0  0  0  0
 14 16  1  0  0  0  0
 14 17  1  0  0  0  0
 11 12  1  0  0  0  0
 11 13  1  0  0  0  0
 11 14  1  0  0  0  0
  9 10  1  0  0  0  0
  9 11  1  0  0  0  0
  9 20  1  0  0  0  0
  7  8  1  0  0  0  0
  7  9  1  0  0  0  0
 24 25  1  0  0  0  0
 24 26  1  0  0  0  0
 24 27  1  0  0  0  0
 22 23  1  0  0  0  0
 22 24  1  0  0  0  0
M  CHG  1  18  -1
M  END
$$$$
default_name
  -OEChem-02102213163D

 27 26  0     1  0  0  0  0  0999 V2000
   -3.2406   -3.5400    1.2326 H   0  0  0  0  0  0  0  0  0  0  0  0
   -3.1436   -2.6190    0.6606 C   0  0  0  0  0  0  0  0  0  0  0  0
   -3.8786   -1.8920    0.9996 H   0  0  0  0  0  0  0  0  0  0  0  0
   -3.2846   -2.8280   -0.3984 H   0  0  0  0  0  0  0  0  0  0  0  0
   -1.7586   -2.0580    0.8686 C   0  0  0  0  0  0  0  0  0  0  0  0
   -0.9666   -2.6340    1.6026 O   0  0  0  0  0  0  0  0  0  0  0  0
   -1.4866   -0.9220    0.2366 N   0  0  0  0  0  0  0  0  0  0  0  0
   -2.2166   -0.4790   -0.2994 H   0  0  0  0  0  0  0  0  0  0  0  0
   -0.1956   -0.2250    0.2596 C   0  0  1  0  0  0  0  0  0  0  0  0
    0.3927   -0.6026    1.0964 H   0  0  0  0  0  0  0  0  0  0  0  0
    0.5767   -0.5489   -1.0351 C   0  0  0  0  0  0  0  0  0  0  0  0
    0.5326    0.3291   -1.6815 H   0  0  0  0  0  0  0  0  0  0  0  0
    1.6219   -0.7453   -0.7915 H   0  0  0  0  0  0  0  0  0  0  0  0
    0.0038   -1.7505   -1.8054 C   0  0  0  0  0  0  0  0  0  0  0  0
    0.0207   -2.6307   -1.1582 H   0  0  0  0  0  0  0  0  0  0  0  0
   -1.0388   -1.5340   -2.0526 H   0  0  0  0  0  0  0  0  0  0  0  0
    0.7738   -2.0722   -3.0948 C   0  0  0  0  0  0  0  0  0  0  0  0
    1.6721   -1.2823   -3.4630 O   0  5  0  0  0  0  0  0  0  0  0  0
    0.4623   -3.1305   -3.6850 O   0  0  0  0  0  0  0  0  0  0  0  0
   -0.3954    1.2887    0.4814 C   0  0  0  0  0  0  0  0  0  0  0  0
   -1.2761    1.9015   -0.1256 O   0  0  0  0  0  0  0  0  0  0  0  0
    0.4051    1.8919    1.3699 N   0  0  0  0  0  0  0  0  0  0  0  0
    1.1380    1.3380    1.7875 H   0  0  0  0  0  0  0  0  0  0  0  0
    0.3573    3.3183    1.6807 C   0  0  0  0  0  0  0  0  0  0  0  0
   -0.6670    3.6090    1.9198 H   0  0  0  0  0  0  0  0  0  0  0  0
    1.0066    3.5397    2.5289 H   0  0  0  0  0  0  0  0  0  0  0  0
    0.6896    3.8897    0.8118 H   0  0  0  0  0  0  0  0  0  0  0  0
  5  6  2  0  0  0  0
  5  7  1  0  0  0  0
  2  3  1  0  0  0  0
  2  4  1  0  0  0  0
  2  5  1  0  0  0  0
  1  2  1  0  0  0  0
 20 21  2  0  0  0  0
 20 22  1  0  0  0  0
 17 18  1  0  0  0  0
 17 19  2  0  0  0  0
 14 15  1  0  0  0  0
 14 16  1  0  0  0  0
 14 17  1  0  0  0  0
 11 12  1  0  0  0  0
 11 13  1  0  0  0  0
 11 14  1  0  0  0  0
  9 10  1  0  0  0  0
  9 11  1  0  0  0  0
  9 20  1  0  0  0  0
  7  8  1  0  0  0  0
  7  9  1  0  0  0  0
 24 25  1  0  0  0  0
 24 26  1  0  0  0  0
 24 27  1  0  0  0  0
 22 23  1  0  0  0  0
 22 24  1  0  0  0  0
M  CHG  1  18  -1
M  END
$$$$
default_name
  -OEChem-02102213163D

 27 26  0     1  0  0  0  0  0999 V2000
   -3.2406   -3.5400    1.2326 H   0  0  0  0  0  0  0  0  0  0  0  0
   -3.1436   -2.6190    0.6606 C   0  0  0  0  0  0  0  0  0  0  0  0
   -3.8786   -1.8920    0.9996 H   0  0  0  0  0  0  0  0  0  0  0  0
   -3.2846   -2.8280   -0.3984 H   0  0  0  0  0  0  0  0  0  0  0  0
   -1.7586   -2.0580    0.8686 C   0  0  0  0  0  0  0  0  0  0  0  0
   -0.9666   -2.6340    1.6026 O   0  0  0  0  0  0  0  0  0  0  0  0
   -1.4866   -0.9220    0.2366 N   0  0  0  0  0  0  0  0  0  0  0  0
   -2.2166   -0.4790   -0.2994 H   0  0  0  0  0  0  0  0  0  0  0  0
   -0.1956   -0.2250    0.2596 C   0  0  1  0  0  0  0  0  0  0  0  0
    0.3927   -0.6026    1.0964 H   0  0  0  0  0  0  0  0  0  0  0  0
    0.5767   -0.5489   -1.0351 C   0  0  0  0  0  0  0  0  0  0  0  0
    0.5326    0.3291   -1.6815 H   0  0  0  0  0  0  0  0  0  0  0  0
    1.6219   -0.7453   -0.7915 H   0  0  0  0  0  0  0  0  0  0  0  0
    0.0038   -1.7505   -1.8054 C   0  0  0  0  0  0  0  0  0  0  0  0
   -0.2293   -2.5500   -1.0980 H   0  0  0  0  0  0  0  0  0  0  0  0
   -0.9296   -1.4392   -2.2818 H   0  0  0  0  0  0  0  0  0  0  0  0
    0.9588   -2.3016   -2.8746 C   0  0  0  0  0  0  0  0  0  0  0  0
    2.0131   -1.6701   -3.1116 O   0  5  0  0  0  0  0  0  0  0  0  0
    0.6244   -3.3733   -3.4267 O   0  0  0  0  0  0  0  0  0  0  0  0
   -0.3954    1.2887    0.4814 C   0  0  0  0  0  0  0  0  0  0  0  0
   -1.2761    1.9015   -0.1256 O   0  0  0  0  0  0  0  0  0  0  0  0
    0.4051    1.8919    1.3699 N   0  0  0  0  0  0  0  0  0  0  0  0
    1.1380    1.3380    1.7875 H   0  0  0  0  0  0  0  0  0  0  0  0
    0.3573    3.3183    1.6807 C   0  0  0  0  0  0  0  0  0  0  0  0
   -0.6670    3.6090    1.9198 H   0  0  0  0  0  0  0  0  0  0  0  0
    1.0066    3.5397    2.5289 H   0  0  0  0  0  0  0  0  0  0  0  0
    0.6896    3.8897    0.8118 H   0  0  0  0  0  0  0  0  0  0  0  0
  5  6  2  0  0  0  0
  5  7  1  0  0  0  0
  2  3  1  0  0  0  0
  2  4  1  0  0  0  0
  2  5  1  0  0  0  0
  1  2  1  0  0  0  0
 20 21  2  0  0  0  0
 20 22  1  0  0  0  0
 17 18  1  0  0  0  0
 17 19  2  0  0  0  0
 14 15  1  0  0  0  0
 14 16  1  0  0  0  0
 14 17  1  0  0  0  0
 11 12  1  0  0  0  0
 11 13  1  0  0  0  0
 11 14  1  0  0  0  0
  9 10  1  0  0  0  0
  9 11  1  0  0  0  0
  9 20  1  0  0  0  0
  7  8  1  0  0  0  0
  7  9  1  0  0  0  0
 24 25  1  0  0  0  0
 24 26  1  0  0  0  0
 24 27  1  0  0  0  0
 22 23  1  0  0  0  0
 22 24  1  0  0  0  0
M  CHG  1  18  -1
M  END
$$$$
default_name
  -OEChem-02102213163D

 27 26  0     1  0  0  0  0  0999 V2000
   -3.2406   -3.5400    1.2326 H   0  0  0  0  0  0  0  0  0  0  0  0
   -3.1436   -2.6190    0.6606 C   0  0  0  0  0  0  0  0  0  0  0  0
   -3.8786   -1.8920    0.9996 H   0  0  0  0  0  0  0  0  0  0  0  0
   -3.2846   -2.8280   -0.3984 H   0  0  0  0  0  0  0  0  0  0  0  0
   -1.7586   -2.0580    0.8686 C   0  0  0  0  0  0  0  0  0  0  0  0
   -0.9666   -2.6340    1.6026 O   0  0  0  0  0  0  0  0  0  0  0  0
   -1.4866   -0.9220    0.2366 N   0  0  0  0  0  0  0  0  0  0  0  0
   -2.2166   -0.4790   -0.2994 H   0  0  0  0  0  0  0  0  0  0  0  0
   -0.1956   -0.2250    0.2596 C   0  0  1  0  0  0  0  0  0  0  0  0
    0.3927   -0.6026    1.0964 H   0  0  0  0  0  0  0  0  0  0  0  0
    0.5767   -0.5489   -1.0351 C   0  0  0  0  0  0  0  0  0  0  0  0
    0.5326    0.3291   -1.6815 H   0  0  0  0  0  0  0  0  0  0  0  0
    1.6219   -0.7453   -0.7915 H   0  0  0  0  0  0  0  0  0  0  0  0
    0.0038   -1.7505   -1.8054 C   0  0  0  0  0  0  0  0  0  0  0  0
   -0.4726   -2.4339   -1.0983 H   0  0  0  0  0  0  0  0  0  0  0  0
   -0.7654   -1.3839   -2.4902 H   0  0  0  0  0  0  0  0  0  0  0  0
    1.0633   -2.5259   -2.6023 C   0  0  0  0  0  0  0  0  0  0  0  0
    2.2212   -2.0551   -2.6658 O   0  5  0  0  0  0  0  0  0  0  0  0
    0.6974   -3.6040   -3.1211 O   0  0  0  0  0  0  0  0  0  0  0  0
   -0.3954    1.2887    0.4814 C   0  0  0  0  0  0  0  0  0  0  0  0
   -1.2761    1.9015   -0.1256 O   0  0  0  0  0  0  0  0  0  0  0  0
    0.4051    1.8919    1.3699 N   0  0  0  0  0  0  0  0  0  0  0  0
    1.1380    1.3380    1.7875 H   0  0  0  0  0  0  0  0  0  0  0  0
    0.3573    3.3183    1.6807 C   0  0  0  0  0  0  0  0  0  0  0  0
   -0.6670    3.6090    1.9198 H   0  0  0  0  0  0  0  0  0  0  0  0
    1.0066    3.5397    2.5289 H   0  0  0  0  0  0  0  0  0  0  0  0
    0.6896    3.8897    0.8118 H   0  0  0  0  0  0  0  0  0  0  0  0
  5  6  2  0  0  0  0
  5  7  1  0  0  0  0
  2  3  1  0  0  0  0
  2  4  1  0  0  0  0
  2  5  1  0  0  0  0
  1  2  1  0  0  0  0
 20 21  2  0  0  0  0
 20 22  1  0  0  0  0
 17 18  1  0  0  0  0
 17 19  2  0  0  0  0
 14 15  1  0  0  0  0
 14 16  1  0  0  0  0
 14 17  1  0  0  0  0
 11 12  1  0  0  0  0
 11 13  1  0  0  0  0
 11 14  1  0  0  0  0
  9 10  1  0  0  0  0
  9 11  1  0  0  0  0
  9 20  1  0  0  0  0
  7  8  1  0  0  0  0
  7  9  1  0  0  0  0
 24 25  1  0  0  0  0
 24 26  1  0  0  0  0
 24 27  1  0  0  0  0
 22 23  1  0  0  0  0
 22 24  1  0  0  0  0
M  CHG  1  18  -1
M  END
$$$$
default_name
  -OEChem-02102213163D

 27 26  0     1  0  0  0  0  0999 V2000
   -3.2406   -3.5400    1.2326 H   0  0  0  0  0  0  0  0  0  0  0  0
   -3.1436   -2.6190    0.6606 C   0  0  0  0  0  0  0  0  0  0  0  0
   -3.8786   -1.8920    0.9996 H   0  0  0  0  0  0  0  0  0  0  0  0
   -3.2846   -2.8280   -0.3984 H   0  0  0  0  0  0  0  0  0  0  0  0
   -1.7586   -2.0580    0.8686 C   0  0  0  0  0  0  0  0  0  0  0  0
   -0.9666   -2.6340    1.6026 O   0  0  0  0  0  0  0  0  0  0  0  0
   -1.4866   -0.9220    0.2366 N   0  0  0  0  0  0  0  0  0  0  0  0
   -2.2166   -0.4790   -0.2994 H   0  0  0  0  0  0  0  0  0  0  0  0
   -0.1956   -0.2250    0.2596 C   0  0  1  0  0  0  0  0  0  0  0  0
    0.3927   -0.6026    1.0964 H   0  0  0  0  0  0  0  0  0  0  0  0
    0.5767   -0.5489   -1.0351 C   0  0  0  0  0  0  0  0  0  0  0  0
    0.5326    0.3291   -1.6815 H   0  0  0  0  0  0  0  0  0  0  0  0
    1.6219   -0.7453   -0.7915 H   0  0  0  0  0  0  0  0  0  0  0  0
    0.0038   -1.7505   -1.8054 C   0  0  0  0  0  0  0  0  0  0  0  0
   -0.6925   -2.2902   -1.1589 H   0  0  0  0  0  0  0  0  0  0  0  0
   -0.5576   -1.3718   -2.6636 H   0  0  0  0  0  0  0  0  0  0  0  0
    1.0801   -2.7299   -2.2966 C   0  0  0  0  0  0  0  0  0  0  0  0
    2.2822   -2.4109   -2.1561 O   0  5  0  0  0  0  0  0  0  0  0  0
    0.6761   -3.8068   -2.7888 O   0  0  0  0  0  0  0  0  0  0  0  0
   -0.3954    1.2887    0.4814 C   0  0  0  0  0  0  0  0  0  0  0  0
   -1.2761    1.9015   -0.1256 O   0  0  0  0  0  0  0  0  0  0  0  0
    0.4051    1.8919    1.3699 N   0  0  0  0  0  0  0  0  0  0  0  0
    1.1380    1.3380    1.7875 H   0  0  0  0  0  0  0  0  0  0  0  0
    0.3573    3.3183    1.6807 C   0  0  0  0  0  0  0  0  0  0  0  0
   -0.6670    3.6090    1.9198 H   0  0  0  0  0  0  0  0  0  0  0  0
    1.0066    3.5397    2.5289 H   0  0  0  0  0  0  0  0  0  0  0  0
    0.6896    3.8897    0.8118 H   0  0  0  0  0  0  0  0  0  0  0  0
  5  6  2  0  0  0  0
  5  7  1  0  0  0  0
  2  3  1  0  0  0  0
  2  4  1  0  0  0  0
  2  5  1  0  0  0  0
  1  2  1  0  0  0  0
 20 21  2  0  0  0  0
 20 22  1  0  0  0  0
 17 18  1  0  0  0  0
 17 19  2  0  0  0  0
 14 15  1  0  0  0  0
 14 16  1  0  0  0  0
 14 17  1  0  0  0  0
 11 12  1  0  0  0  0
 11 13  1  0  0  0  0
 11 14  1  0  0  0  0
  9 10  1  0  0  0  0
  9 11  1  0  0  0  0
  9 20  1  0  0  0  0
  7  8  1  0  0  0  0
  7  9  1  0  0  0  0
 24 25  1  0  0  0  0
 24 26  1  0  0  0  0
 24 27  1  0  0  0  0
 22 23  1  0  0  0  0
 22 24  1  0  0  0  0
M  CHG  1  18  -1
M  END
$$$$
default_name
  -OEChem-02102213163D

 27 26  0     1  0  0  0  0  0999 V2000
   -3.2406   -3.5400    1.2326 H   0  0  0  0  0  0  0  0  0  0  0  0
   -3.1436   -2.6190    0.6606 C   0  0  0  0  0  0  0  0  0  0  0  0
   -3.8786   -1.8920    0.9996 H   0  0  0  0  0  0  0  0  0  0  0  0
   -3.2846   -2.8280   -0.3984 H   0  0  0  0  0  0  0  0  0  0  0  0
   -1.7586   -2.0580    0.8686 C   0  0  0  0  0  0  0  0  0  0  0  0
   -0.9666   -2.6340    1.6026 O   0  0  0  0  0  0  0  0  0  0  0  0
   -1.4866   -0.9220    0.2366 N   0  0  0  0  0  0  0  0  0  0  0  0
   -2.2166   -0.4790   -0.2994 H   0  0  0  0  0  0  0  0  0  0  0  0
   -0.1956   -0.2250    0.2596 C   0  0  1  0  0  0  0  0  0  0  0  0
    0.3927   -0.6026    1.0964 H   0  0  0  0  0  0  0  0  0  0  0  0
    0.5767   -0.5489   -1.0351 C   0  0  0  0  0  0  0  0  0  0  0  0
    0.5326    0.3291   -1.6815 H   0  0  0  0  0  0  0  0  0  0  0  0
    1.6219   -0.7453   -0.7915 H   0  0  0  0  0  0  0  0  0  0  0  0
    0.0038   -1.7505   -1.8054 C   0  0  0  0  0  0  0  0  0  0  0  0
   -0.8739   -2.1287   -1.2758 H   0  0  0  0  0  0  0  0  0  0  0  0
   -0.3202   -1.4038   -2.7902 H   0  0  0  0  0  0  0  0  0  0  0  0
    1.0081   -2.8996   -1.9782 C   0  0  0  0  0  0  0  0  0  0  0  0
    2.1919   -2.7133   -1.6170 O   0  5  0  0  0  0  0  0  0  0  0  0
    0.5621   -3.9679   -2.4527 O   0  0  0  0  0  0  0  0  0  0  0  0
   -0.3954    1.2887    0.4814 C   0  0  0  0  0  0  0  0  0  0  0  0
   -1.2761    1.9015   -0.1256 O   0  0  0  0  0  0  0  0  0  0  0  0
    0.4051    1.8919    1.3699 N   0  0  0  0  0  0  0  0  0  0  0  0
    1.1380    1.3380    1.7875 H   0  0  0  0  0  0  0  0  0  0  0  0
    0.3573    3.3183    1.6807 C   0  0  0  0  0  0  0  0  0  0  0  0
   -0.6670    3.6090    1.9198 H   0  0  0  0  0  0  0  0  0  0  0  0
    1.0066    3.5397    2.5289 H   0  0  0  0  0  0  0  0  0  0  0  0
    0.6896    3.8897    0.8118 H   0  0  0  0  0  0  0  0  0  0  0  0
  5  6  2  0  0  0  0
  5  7  1  0  0  0  0
  2  3  1  0  0  0  0
  2  4  1  0  0  0  0
  2  5  1  0  0  0  0
  1  2  1  0  0  0  0
 20 21  2  0  0  0  0
 20 22  1  0  0  0  0
 17 18  1  0  0  0  0
 17 19  2  0  0  0  0
 14 15  1  0  0  0  0
 14 16  1  0  0  0  0
 14 17  1  0  0  0  0
 11 12  1  0  0  0  0
 11 13  1  0  0  0  0
 11 14  1  0  0  0  0
  9 10  1  0  0  0  0
  9 11  1  0  0  0  0
  9 20  1  0  0  0  0
  7  8  1  0  0  0  0
  7  9  1  0  0  0  0
 24 25  1  0  0  0  0
 24 26  1  0  0  0  0
 24 27  1  0  0  0  0
 22 23  1  0  0  0  0
 22 24  1  0  0  0  0
M  CHG  1  18  -1
M  END
$$$$
default_name
  -OEChem-02102213163D

 27 26  0     1  0  0  0  0  0999 V2000
   -3.2406   -3.5400    1.2326 H   0  0  0  0  0  0  0  0  0  0  0  0
   -3.1436   -2.6190    0.6606 C   0  0  0  0  0  0  0  0  0  0  0  0
   -3.8786   -1.8920    0.9996 H   0  0  0  0  0  0  0  0  0  0  0  0
   -3.2846   -2.8280   -0.3984 H   0  0  0  0  0  0  0  0  0  0  0  0
   -1.7586   -2.0580    0.8686 C   0  0  0  0  0  0  0  0  0  0  0  0
   -0.9666   -2.6340    1.6026 O   0  0  0  0  0  0  0  0  0  0  0  0
   -1.4866   -0.9220    0.2366 N   0  0  0  0  0  0  0  0  0  0  0  0
   -2.2166   -0.4790   -0.2994 H   0  0  0  0  0  0  0  0  0  0  0  0
   -0.1956   -0.2250    0.2596 C   0  0  1  0  0  0  0  0  0  0  0  0
    0.3927   -0.6026    1.0964 H   0  0  0  0  0  0  0  0  0  0  0  0
    0.5767   -0.5489   -1.0351 C   0  0  0  0  0  0  0  0  0  0  0  0
    0.5326    0.3291   -1.6815 H   0  0  0  0  0  0  0  0  0  0  0  0
    1.6219   -0.7453   -0.7915 H   0  0  0  0  0  0  0  0  0  0  0  0
    0.0038   -1.7505   -1.8054 C   0  0  0  0  0  0  0  0  0  0  0  0
   -1.0047   -1.9605   -1.4410 H   0  0  0  0  0  0  0  0  0  0  0  0
   -0.0694   -1.4777   -2.8615 H   0  0  0  0  0  0  0  0  0  0  0  0
    0.8521   -3.0236   -1.6688 C   0  0  0  0  0  0  0  0  0  0  0  0
    1.9565   -2.9418   -1.0855 O   0  5  0  0  0  0  0  0  0  0  0  0
    0.3631   -4.0763   -2.1355 O   0  0  0  0  0  0  0  0  0  0  0  0
   -0.3954    1.2887    0.4814 C   0  0  0  0  0  0  0  0  0  0  0  0
   -1.2761    1.9015   -0.1256 O   0  0  0  0  0  0  0  0  0  0  0  0
    0.4051    1.8919    1.3699 N   0  0  0  0  0  0  0  0  0  0  0  0
    1.1380    1.3380    1.7875 H   0  0  0  0  0  0  0  0  0  0  0  0
    0.3573    3.3183    1.6807 C   0  0  0  0  0  0  0  0  0  0  0  0
   -0.6670    3.6090    1.9198 H   0  0  0  0  0  0  0  0  0  0  0  0
    1.0066    3.5397    2.5289 H   0  0  0  0  0  0  0  0  0  0  0  0
    0.6896    3.8897    0.8118 H   0  0  0  0  0  0  0  0  0  0  0  0
  5  6  2  0  0  0  0
  5  7  1  0  0  0  0
  2  3  1  0  0  0  0
  2  4  1  0  0  0  0
  2  5  1  0  0  0  0
  1  2  1  0  0  0  0
 20 21  2  0  0  0  0
 20 22  1  0  0  0  0
 17 18  1  0  0  0  0
 17 19  2  0  0  0  0
 14 15  1  0  0  0  0
 14 16  1  0  0  0  0
 14 17  1  0  0  0  0
 11 12  1  0  0  0  0
 11 13  1  0  0  0  0
 11 14  1  0  0  0  0
  9 10  1  0  0  0  0
  9 11  1  0  0  0  0
  9 20  1  0  0  0  0
  7  8  1  0  0  0  0
  7  9  1  0  0  0  0
 24 25  1  0  0  0  0
 24 26  1  0  0  0  0
 24 27  1  0  0  0  0
 22 23  1  0  0  0  0
 22 24  1  0  0  0  0
M  CHG  1  18  -1
M  END
$$$$
default_name
  -OEChem-02102213163D

 27 26  0     1  0  0  0  0  0999 V2000
   -3.2406   -3.5400    1.2326 H   0  0  0  0  0  0  0  0  0  0  0  0
   -3.1436   -2.6190    0.6606 C   0  0  0  0  0  0  0  0  0  0  0  0
   -3.8786   -1.8920    0.9996 H   0  0  0  0  0  0  0  0  0  0  0  0
   -3.2846   -2.8280   -0.3984 H   0  0  0  0  0  0  0  0  0  0  0  0
   -1.7586   -2.0580    0.8686 C   0  0  0  0  0  0  0  0  0  0  0  0
   -0.9666   -2.6340    1.6026 O   0  0  0  0  0  0  0  0  0  0  0  0
   -1.4866   -0.9220    0.2366 N   0  0  0  0  0  0  0  0  0  0  0  0
   -2.2166   -0.4790   -0.2994 H   0  0  0  0  0  0  0  0  0  0  0  0
   -0.1956   -0.2250    0.2596 C   0  0  1  0  0  0  0  0  0  0  0  0
    0.3927   -0.6026    1.0964 H   0  0  0  0  0  0  0  0  0  0  0  0
    0.5767   -0.5489   -1.0351 C   0  0  0  0  0  0  0  0  0  0  0  0
    0.5326    0.3291   -1.6815 H   0  0  0  0  0  0  0  0  0  0  0  0
    1.6219   -0.7453   -0.7915 H   0  0  0  0  0  0  0  0  0  0  0  0
    0.0038   -1.7505   -1.8054 C   0  0  0  0  0  0  0  0  0  0  0  0
   -1.0758   -1.7970   -1.6432 H   0  0  0  0  0  0  0  0  0  0  0  0
    0.1777   -1.5885   -2.8724 H   0  0  0  0  0  0  0  0  0  0  0  0
    0.6228   -3.0932   -1.3896 C   0  0  0  0  0  0  0  0  0  0  0  0
    1.5919   -3.0807   -0.5976 O   0  5  0  0  0  0  0  0  0  0  0  0
    0.0927   -4.1247   -1.8589 O   0  0  0  0  0  0  0  0  0  0  0  0
   -0.3954    1.2887    0.4814 C   0  0  0  0  0  0  0  0  0  0  0  0
   -1.2761    1.9015   -0.1256 O   0  0  0  0  0  0  0  0  0  0  0  0
    0.4051    1.8919    1.3699 N   0  0  0  0  0  0  0  0  0  0  0  0
    1.1380    1.3380    1.7875 H   0  0  0  0  0  0  0  0  0  0  0  0
    0.3573    3.3183    1.6807 C   0  0  0  0  0  0  0  0  0  0  0  0
   -0.6670    3.6090    1.9198 H   0  0  0  0  0  0  0  0  0  0  0  0
    1.0066    3.5397    2.5289 H   0  0  0  0  0  0  0  0  0  0  0  0
    0.6896    3.8897    0.8118 H   0  0  0  0  0  0  0  0  0  0  0  0
  5  6  2  0  0  0  0
  5  7  1  0  0  0  0
  2  3  1  0  0  0  0
  2  4  1  0  0  0  0
  2  5  1  0  0  0  0
  1  2  1  0  0  0  0
 20 21  2  0  0  0  0
 20 22  1  0  0  0  0
 17 18  1  0  0  0  0
 17 19  2  0  0  0  0
 14 15  1  0  0  0  0
 14 16  1  0  0  0  0
 14 17  1  0  0  0  0
 11 12  1  0  0  0  0
 11 13  1  0  0  0  0
 11 14  1  0  0  0  0
  9 10  1  0  0  0  0
  9 11  1  0  0  0  0
  9 20  1  0  0  0  0
  7  8  1  0  0  0  0
  7  9  1  0  0  0  0
 24 25  1  0  0  0  0
 24 26  1  0  0  0  0
 24 27  1  0  0  0  0
 22 23  1  0  0  0  0
 22 24  1  0  0  0  0
M  CHG  1  18  -1
M  END
$$$$
default_name
  -OEChem-02102213163D

 27 26  0     1  0  0  0  0  0999 V2000
   -3.2406   -3.5400    1.2326 H   0  0  0  0  0  0  0  0  0  0  0  0
   -3.1436   -2.6190    0.6606 C   0  0  0  0  0  0  0  0  0  0  0  0
   -3.8786   -1.8920    0.9996 H   0  0  0  0  0  0  0  0  0  0  0  0
   -3.2846   -2.8280   -0.3984 H   0  0  0  0  0  0  0  0  0  0  0  0
   -1.7586   -2.0580    0.8686 C   0  0  0  0  0  0  0  0  0  0  0  0
   -0.9666   -2.6340    1.6026 O   0  0  0  0  0  0  0  0  0  0  0  0
   -1.4866   -0.9220    0.2366 N   0  0  0  0  0  0  0  0  0  0  0  0
   -2.2166   -0.4790   -0.2994 H   0  0  0  0  0  0  0  0  0  0  0  0
   -0.1956   -0.2250    0.2596 C   0  0  1  0  0  0  0  0  0  0  0  0
    0.3927   -0.6026    1.0964 H   0  0  0  0  0  0  0  0  0  0  0  0
    0.5767   -0.5489   -1.0351 C   0  0  0  0  0  0  0  0  0  0  0  0
    0.5326    0.3291   -1.6815 H   0  0  0  0  0  0  0  0  0  0  0  0
    1.6219   -0.7453   -0.7915 H   0  0  0  0  0  0  0  0  0  0  0  0
    0.0038   -1.7505   -1.8054 C   0  0  0  0  0  0  0  0  0  0  0  0
   -1.0823   -1.6494   -1.8686 H   0  0  0  0  0  0  0  0  0  0  0  0
    0.4042   -1.7285   -2.8224 H   0  0  0  0  0  0  0  0  0  0  0  0
    0.3359   -3.1039   -1.1595 C   0  0  0  0  0  0  0  0  0  0  0  0
    1.1232   -3.1206   -0.1867 O   0  5  0  0  0  0  0  0  0  0  0  0
   -0.2307   -4.1097   -1.6418 O   0  0  0  0  0  0  0  0  0  0  0  0
   -0.3954    1.2887    0.4814 C   0  0  0  0  0  0  0  0  0  0  0  0
   -1.2761    1.9015   -0.1256 O   0  0  0  0  0  0  0  0  0  0  0  0
    0.4051    1.8919    1.3699 N   0  0  0  0  0  0  0  0  0  0  0  0
    1.1380    1.3380    1.7875 H   0  0  0  0  0  0  0  0  0  0  0  0
    0.3573    3.3183    1.6807 C   0  0  0  0  0  0  0  0  0  0  0  0
   -0.6670    3.6090    1.9198 H   0  0  0  0  0  0  0  0  0  0  0  0
    1.0066    3.5397    2.5289 H   0  0  0  0  0  0  0  0  0  0  0  0
    0.6896    3.8897    0.8118 H   0  0  0  0  0  0  0  0  0  0  0  0
  5  6  2  0  0  0  0
  5  7  1  0  0  0  0
  2  3  1  0  0  0  0
  2  4  1  0  0  0  0
  2  5  1  0  0  0  0
  1  2  1  0  0  0  0
 20 21  2  0  0  0  0
 20 22  1  0  0  0  0
 17 18  1  0  0  0  0
 17 19  2  0  0  0  0
 14 15  1  0  0  0  0
 14 16  1  0  0  0  0
 14 17  1  0  0  0  0
 11 12  1  0  0  0  0
 11 13  1  0  0  0  0
 11 14  1  0  0  0  0
  9 10  1  0  0  0  0
  9 11  1  0  0  0  0
  9 20  1  0  0  0  0
  7  8  1  0  0  0  0
  7  9  1  0  0  0  0
 24 25  1  0  0  0  0
 24 26  1  0  0  0  0
 24 27  1  0  0  0  0
 22 23  1  0  0  0  0
 22 24  1  0  0  0  0
M  CHG  1  18  -1
M  END
$$$$
default_name
  -OEChem-02102213163D

 27 26  0     1  0  0  0  0  0999 V2000
   -3.2406   -3.5400    1.2326 H   0  0  0  0  0  0  0  0  0  0  0  0
   -3.1436   -2.6190    0.6606 C   0  0  0  0  0  0  0  0  0  0  0  0
   -3.8786   -1.8920    0.9996 H   0  0  0  0  0  0  0  0  0  0  0  0
   -3.2846   -2.8280   -0.3984 H   0  0  0  0  0  0  0  0  0  0  0  0
   -1.7586   -2.0580    0.8686 C   0  0  0  0  0  0  0  0  0  0  0  0
   -0.9666   -2.6340    1.6026 O   0  0  0  0  0  0  0  0  0  0  0  0
   -1.4866   -0.9220    0.2366 N   0  0  0  0  0  0  0  0  0  0  0  0
   -2.2166   -0.4790   -0.2994 H   0  0  0  0  0  0  0  0  0  0  0  0
   -0.1956   -0.2250    0.2596 C   0  0  1  0  0  0  0  0  0  0  0  0
    0.3927   -0.6026    1.0964 H   0  0  0  0  0  0  0  0  0  0  0  0
    0.5767   -0.5489   -1.0351 C   0  0  0  0  0  0  0  0  0  0  0  0
    0.5326    0.3291   -1.6815 H   0  0  0  0  0  0  0  0  0  0  0  0
    1.6219   -0.7453   -0.7915 H   0  0  0  0  0  0  0  0  0  0  0  0
    0.0038   -1.7505   -1.8054 C   0  0  0  0  0  0  0  0  0  0  0  0
   -1.0240   -1.5277   -2.1019 H   0  0  0  0  0  0  0  0  0  0  0  0
    0.5947   -1.8884   -2.7148 H   0  0  0  0  0  0  0  0  0  0  0  0
    0.0108   -3.0548   -0.9943 C   0  0  0  0  0  0  0  0  0  0  0  0
    0.5821   -3.0587    0.1193 O   0  5  0  0  0  0  0  0  0  0  0  0
   -0.5851   -4.0323   -1.4989 O   0  0  0  0  0  0  0  0  0  0  0  0
   -0.3954    1.2887    0.4814 C   0  0  0  0  0  0  0  0  0  0  0  0
   -1.2761    1.9015   -0.1256 O   0  0  0  0  0  0  0  0  0  0  0  0
    0.4051    1.8919    1.3699 N   0  0  0  0  0  0  0  0  0  0  0  0
    1.1380    1.3380    1.7875 H   0  0  0  0  0  0  0  0  0  0  0  0
    0.3573    3.3183    1.6807 C   0  0  0  0  0  0  0  0  0  0  0  0
   -0.6670    3.6090    1.9198 H   0  0  0  0  0  0  0  0  0  0  0  0
    1.0066    3.5397    2.5289 H   0  0  0  0  0  0  0  0  0  0  0  0
    0.6896    3.8897    0.8118 H   0  0  0  0  0  0  0  0  0  0  0  0
  5  6  2  0  0  0  0
  5  7  1  0  0  0  0
  2  3  1  0  0  0  0
  2  4  1  0  0  0  0
  2  5  1  0  0  0  0
  1  2  1  0  0  0  0
 20 21  2  0  0  0  0
 20 22  1  0  0  0  0
 17 18  1  0  0  0  0
 17 19  2  0  0  0  0
 14 15  1  0  0  0  0
 14 16  1  0  0  0  0
 14 17  1  0  0  0  0
 11 12  1  0  0  0  0
 11 13  1  0  0  0  0
 11 14  1  0  0  0  0
  9 10  1  0  0  0  0
  9 11  1  0  0  0  0
  9 20  1  0  0  0  0
  7  8  1  0  0  0  0
  7  9  1  0  0  0  0
 24 25  1  0  0  0  0
 24 26  1  0  0  0  0
 24 27  1  0  0  0  0
 22 23  1  0  0  0  0
 22 24  1  0  0  0  0
M  CHG  1  18  -1
M  END
$$$$
default_name
  -OEChem-02102213163D

 27 26  0     1  0  0  0  0  0999 V2000
   -3.2406   -3.5400    1.2326 H   0  0  0  0  0  0  0  0  0  0  0  0
   -3.1436   -2.6190    0.6606 C   0  0  0  0  0  0  0  0  0  0  0  0
   -3.8786   -1.8920    0.9996 H   0  0  0  0  0  0  0  0  0  0  0  0
   -3.2846   -2.8280   -0.3984 H   0  0  0  0  0  0  0  0  0  0  0  0
   -1.7586   -2.0580    0.8686 C   0  0  0  0  0  0  0  0  0  0  0  0
   -0.9666   -2.6340    1.6026 O   0  0  0  0  0  0  0  0  0  0  0  0
   -1.4866   -0.9220    0.2366 N   0  0  0  0  0  0  0  0  0  0  0  0
   -2.2166   -0.4790   -0.2994 H   0  0  0  0  0  0  0  0  0  0  0  0
   -0.1956   -0.2250    0.2596 C   0  0  1  0  0  0  0  0  0  0  0  0
    0.3927   -0.6026    1.0964 H   0  0  0  0  0  0  0  0  0  0  0  0
    0.5767   -0.5489   -1.0351 C   0  0  0  0  0  0  0  0  0  0  0  0
    0.5326    0.3291   -1.6815 H   0  0  0  0  0  0  0  0  0  0  0  0
    1.6219   -0.7453   -0.7915 H   0  0  0  0  0  0  0  0  0  0  0  0
    0.0038   -1.7505   -1.8054 C   0  0  0  0  0  0  0  0  0  0  0  0
   -0.9046   -1.4402   -2.3273 H   0  0  0  0  0  0  0  0  0  0  0  0
    0.7362   -2.0571   -2.5568 H   0  0  0  0  0  0  0  0  0  0  0  0
   -0.3302   -2.9493   -0.9052 C   0  0  0  0  0  0  0  0  0  0  0  0
    0.0056   -2.8994    0.2994 O   0  5  0  0  0  0  0  0  0  0  0  0
   -0.9462   -3.8979   -1.4399 O   0  0  0  0  0  0  0  0  0  0  0  0
   -0.3954    1.2887    0.4814 C   0  0  0  0  0  0  0  0  0  0  0  0
   -1.2761    1.9015   -0.1256 O   0  0  0  0  0  0  0  0  0  0  0  0
    0.4051    1.8919    1.3699 N   0  0  0  0  0  0  0  0  0  0  0  0
    1.1380    1.3380    1.7875 H   0  0  0  0  0  0  0  0  0  0  0  0
    0.3573    3.3183    1.6807 C   0  0  0  0  0  0  0  0  0  0  0  0
   -0.6670    3.6090    1.9198 H   0  0  0  0  0  0  0  0  0  0  0  0
    1.0066    3.5397    2.5289 H   0  0  0  0  0  0  0  0  0  0  0  0
    0.6896    3.8897    0.8118 H   0  0  0  0  0  0  0  0  0  0  0  0
  5  6  2  0  0  0  0
  5  7  1  0  0  0  0
  2  3  1  0  0  0  0
  2  4  1  0  0  0  0
  2  5  1  0  0  0  0
  1  2  1  0  0  0  0
 20 21  2  0  0  0  0
 20 22  1  0  0  0  0
 17 18  1  0  0  0  0
 17 19  2  0  0  0  0
 14 15  1  0  0  0  0
 14 16  1  0  0  0  0
 14 17  1  0  0  0  0
 11 12  1  0  0  0  0
 11 13  1  0  0  0  0
 11 14  1  0  0  0  0
  9 10  1  0  0  0  0
  9 11  1  0  0  0  0
  9 20  1  0  0  0  0
  7  8  1  0  0  0  0
  7  9  1  0  0  0  0
 24 25  1  0  0  0  0
 24 26  1  0  0  0  0
 24 27  1  0  0  0  0
 22 23  1  0  0  0  0
 22 24  1  0  0  0  0
M  CHG  1  18  -1
M  END
$$$$
default_name
  -OEChem-02102213163D

 27 26  0     1  0  0  0  0  0999 V2000
   -3.2406   -3.5400    1.2326 H   0  0  0  0  0  0  0  0  0  0  0  0
   -3.1436   -2.6190    0.6606 C   0  0  0  0  0  0  0  0  0  0  0  0
   -3.8786   -1.8920    0.9996 H   0  0  0  0  0  0  0  0  0  0  0  0
   -3.2846   -2.8280   -0.3984 H   0  0  0  0  0  0  0  0  0  0  0  0
   -1.7586   -2.0580    0.8686 C   0  0  0  0  0  0  0  0  0  0  0  0
   -0.9666   -2.6340    1.6026 O   0  0  0  0  0  0  0  0  0  0  0  0
   -1.4866   -0.9220    0.2366 N   0  0  0  0  0  0  0  0  0  0  0  0
   -2.2166   -0.4790   -0.2994 H   0  0  0  0  0  0  0  0  0  0  0  0
   -0.1956   -0.2250    0.2596 C   0  0  1  0  0  0  0  0  0  0  0  0
    0.3927   -0.6026    1.0964 H   0  0  0  0  0  0  0  0  0  0  0  0
    0.5767   -0.5489   -1.0351 C   0  0  0  0  0  0  0  0  0  0  0  0
    0.5326    0.3291   -1.6815 H   0  0  0  0  0  0  0  0  0  0  0  0
    1.6219   -0.7453   -0.7915 H   0  0  0  0  0  0  0  0  0  0  0  0
    0.0038   -1.7505   -1.8054 C   0  0  0  0  0  0  0  0  0  0  0  0
   -0.7324   -1.3928   -2.5292 H   0  0  0  0  0  0  0  0  0  0  0  0
    0.8191   -2.2231   -2.3594 H   0  0  0  0  0  0  0  0  0  0  0  0
   -0.6640   -2.7946   -0.8983 C   0  0  0  0  0  0  0  0  0  0  0  0
   -0.5670   -2.6534    0.3415 O   0  5  0  0  0  0  0  0  0  0  0  0
   -1.2896   -3.7156   -1.4690 O   0  0  0  0  0  0  0  0  0  0  0  0
   -0.3954    1.2887    0.4814 C   0  0  0  0  0  0  0  0  0  0  0  0
   -1.2761    1.9015   -0.1256 O   0  0  0  0  0  0  0  0  0  0  0  0
    0.4051    1.8919    1.3699 N   0  0  0  0  0  0  0  0  0  0  0  0
    1.1380    1.3380    1.7875 H   0  0  0  0  0  0  0  0  0  0  0  0
    0.3573    3.3183    1.6807 C   0  0  0  0  0  0  0  0  0  0  0  0
   -0.6670    3.6090    1.9198 H   0  0  0  0  0  0  0  0  0  0  0  0
    1.0066    3.5397    2.5289 H   0  0  0  0  0  0  0  0  0  0  0  0
    0.6896    3.8897    0.8118 H   0  0  0  0  0  0  0  0  0  0  0  0
  5  6  2  0  0  0  0
  5  7  1  0  0  0  0
  2  3  1  0  0  0  0
  2  4  1  0  0  0  0
  2  5  1  0  0  0  0
  1  2  1  0  0  0  0
 20 21  2  0  0  0  0
 20 22  1  0  0  0  0
 17 18  1  0  0  0  0
 17 19  2  0  0  0  0
 14 15  1  0  0  0  0
 14 16  1  0  0  0  0
 14 17  1  0  0  0  0
 11 12  1  0  0  0  0
 11 13  1  0  0  0  0
 11 14  1  0  0  0  0
  9 10  1  0  0  0  0
  9 11  1  0  0  0  0
  9 20  1  0  0  0  0
  7  8  1  0  0  0  0
  7  9  1  0  0  0  0
 24 25  1  0  0  0  0
 24 26  1  0  0  0  0
 24 27  1  0  0  0  0
 22 23  1  0  0  0  0
 22 24  1  0  0  0  0
M  CHG  1  18  -1
M  END
$$$$
default_name
  -OEChem-02102213163D

 27 26  0     1  0  0  0  0  0999 V2000
   -3.2406   -3.5400    1.2326 H   0  0  0  0  0  0  0  0  0  0  0  0
   -3.1436   -2.6190    0.6606 C   0  0  0  0  0  0  0  0  0  0  0  0
   -3.8786   -1.8920    0.9996 H   0  0  0  0  0  0  0  0  0  0  0  0
   -3.2846   -2.8280   -0.3984 H   0  0  0  0  0  0  0  0  0  0  0  0
   -1.7586   -2.0580    0.8686 C   0  0  0  0  0  0  0  0  0  0  0  0
   -0.9666   -2.6340    1.6026 O   0  0  0  0  0  0  0  0  0  0  0  0
   -1.4866   -0.9220    0.2366 N   0  0  0  0  0  0  0  0  0  0  0  0
   -2.2166   -0.4790   -0.2994 H   0  0  0  0  0  0  0  0  0  0  0  0
   -0.1956   -0.2250    0.2596 C   0  0  1  0  0  0  0  0  0  0  0  0
    0.3927   -0.6026    1.0964 H   0  0  0  0  0  0  0  0  0  0  0  0
    0.5767   -0.5489   -1.0351 C   0  0  0  0  0  0  0  0  0  0  0  0
    0.5326    0.3291   -1.6815 H   0  0  0  0  0  0  0  0  0  0  0  0
    1.6219   -0.7453   -0.7915 H   0  0  0  0  0  0  0  0  0  0  0  0
    0.0038   -1.7505   -1.8054 C   0  0  0  0  0  0  0  0  0  0  0  0
   -0.5192   -1.3889   -2.6940 H   0  0  0  0  0  0  0  0  0  0  0  0
    0.8378   -2.3753   -2.1360 H   0  0  0  0  0  0  0  0  0  0  0  0
   -0.9678   -2.6013   -0.9740 C   0  0  0  0  0  0  0  0  0  0  0  0
   -1.0967   -2.3374    0.2427 O   0  5  0  0  0  0  0  0  0  0  0  0
   -1.5917   -3.4978   -1.5841 O   0  0  0  0  0  0  0  0  0  0  0  0
   -0.3954    1.2887    0.4814 C   0  0  0  0  0  0  0  0  0  0  0  0
   -1.2761    1.9015   -0.1256 O   0  0  0  0  0  0  0  0  0  0  0  0
    0.4051    1.8919    1.3699 N   0  0  0  0  0  0  0  0  0  0  0  0
    1.1380    1.3380    1.7875 H   0  0  0  0  0  0  0  0  0  0  0  0
    0.3573    3.3183    1.6807 C   0  0  0  0  0  0  0  0  0  0  0  0
   -0.6670    3.6090    1.9198 H   0  0  0  0  0  0  0  0  0  0  0  0
    1.0066    3.5397    2.5289 H   0  0  0  0  0  0  0  0  0  0  0  0
    0.6896    3.8897    0.8118 H   0  0  0  0  0  0  0  0  0  0  0  0
  5  6  2  0  0  0  0
  5  7  1  0  0  0  0
  2  3  1  0  0  0  0
  2  4  1  0  0  0  0
  2  5  1  0  0  0  0
  1  2  1  0  0  0  0
 20 21  2  0  0  0  0
 20 22  1  0  0  0  0
 17 18  1  0  0  0  0
 17 19  2  0  0  0  0
 14 15  1  0  0  0  0
 14 16  1  0  0  0  0
 14 17  1  0  0  0  0
 11 12  1  0  0  0  0
 11 13  1  0  0  0  0
 11 14  1  0  0  0  0
  9 10  1  0  0  0  0
  9 11  1  0  0  0  0
  9 20  1  0  0  0  0
  7  8  1  0  0  0  0
  7  9  1  0  0  0  0
 24 25  1  0  0  0  0
 24 26  1  0  0  0  0
 24 27  1  0  0  0  0
 22 23  1  0  0  0  0
 22 24  1  0  0  0  0
M  CHG  1  18  -1
M  END
$$$$
default_name
  -OEChem-02102213163D

 27 26  0     1  0  0  0  0  0999 V2000
   -3.2406   -3.5400    1.2326 H   0  0  0  0  0  0  0  0  0  0  0  0
   -3.1436   -2.6190    0.6606 C   0  0  0  0  0  0  0  0  0  0  0  0
   -3.8786   -1.8920    0.9996 H   0  0  0  0  0  0  0  0  0  0  0  0
   -3.2846   -2.8280   -0.3984 H   0  0  0  0  0  0  0  0  0  0  0  0
   -1.7586   -2.0580    0.8686 C   0  0  0  0  0  0  0  0  0  0  0  0
   -0.9666   -2.6340    1.6026 O   0  0  0  0  0  0  0  0  0  0  0  0
   -1.4866   -0.9220    0.2366 N   0  0  0  0  0  0  0  0  0  0  0  0
   -2.2166   -0.4790   -0.2994 H   0  0  0  0  0  0  0  0  0  0  0  0
   -0.1956   -0.2250    0.2596 C   0  0  1  0  0  0  0  0  0  0  0  0
    0.3927   -0.6026    1.0964 H   0  0  0  0  0  0  0  0  0  0  0  0
    0.5767   -0.5489   -1.0351 C   0  0  0  0  0  0  0  0  0  0  0  0
    0.5326    0.3291   -1.6815 H   0  0  0  0  0  0  0  0  0  0  0  0
    1.6219   -0.7453   -0.7915 H   0  0  0  0  0  0  0  0  0  0  0  0
    0.0038   -1.7505   -1.8054 C   0  0  0  0  0  0  0  0  0  0  0  0
   -0.2793   -1.4286   -2.8104 H   0  0  0  0  0  0  0  0  0  0  0  0
    0.7909   -2.5031   -1.9017 H   0  0  0  0  0  0  0  0  0  0  0  0
   -1.2208   -2.3824   -1.1271 C   0  0  0  0  0  0  0  0  0  0  0  0
   -1.5474   -1.9732    0.0096 O   0  5  0  0  0  0  0  0  0  0  0  0
   -1.8320   -3.2593   -1.7774 O   0  0  0  0  0  0  0  0  0  0  0  0
   -0.3954    1.2887    0.4814 C   0  0  0  0  0  0  0  0  0  0  0  0
   -1.2761    1.9015   -0.1256 O   0  0  0  0  0  0  0  0  0  0  0  0
    0.4051    1.8919    1.3699 N   0  0  0  0  0  0  0  0  0  0  0  0
    1.1380    1.3380    1.7875 H   0  0  0  0  0  0  0  0  0  0  0  0
    0.3573    3.3183    1.6807 C   0  0  0  0  0  0  0  0  0  0  0  0
   -0.6670    3.6090    1.9198 H   0  0  0  0  0  0  0  0  0  0  0  0
    1.0066    3.5397    2.5289 H   0  0  0  0  0  0  0  0  0  0  0  0
    0.6896    3.8897    0.8118 H   0  0  0  0  0  0  0  0  0  0  0  0
  5  6  2  0  0  0  0
  5  7  1  0  0  0  0
  2  3  1  0  0  0  0
  2  4  1  0  0  0  0
  2  5  1  0  0  0  0
  1  2  1  0  0  0  0
 20 21  2  0  0  0  0
 20 22  1  0  0  0  0
 17 18  1  0  0  0  0
 17 19  2  0  0  0  0
 14 15  1  0  0  0  0
 14 16  1  0  0  0  0
 14 17  1  0  0  0  0
 11 12  1  0  0  0  0
 11 13  1  0  0  0  0
 11 14  1  0  0  0  0
  9 10  1  0  0  0  0
  9 11  1  0  0  0  0
  9 20  1  0  0  0  0
  7  8  1  0  0  0  0
  7  9  1  0  0  0  0
 24 25  1  0  0  0  0
 24 26  1  0  0  0  0
 24 27  1  0  0  0  0
 22 23  1  0  0  0  0
 22 24  1  0  0  0  0
M  CHG  1  18  -1
M  END
$$$$
default_name
  -OEChem-02102213163D

 27 26  0     1  0  0  0  0  0999 V2000
   -3.2406   -3.5400    1.2326 H   0  0  0  0  0  0  0  0  0  0  0  0
   -3.1436   -2.6190    0.6606 C   0  0  0  0  0  0  0  0  0  0  0  0
   -3.8786   -1.8920    0.9996 H   0  0  0  0  0  0  0  0  0  0  0  0
   -3.2846   -2.8280   -0.3984 H   0  0  0  0  0  0  0  0  0  0  0  0
   -1.7586   -2.0580    0.8686 C   0  0  0  0  0  0  0  0  0  0  0  0
   -0.9666   -2.6340    1.6026 O   0  0  0  0  0  0  0  0  0  0  0  0
   -1.4866   -0.9220    0.2366 N   0  0  0  0  0  0  0  0  0  0  0  0
   -2.2166   -0.4790   -0.2994 H   0  0  0  0  0  0  0  0  0  0  0  0
   -0.1956   -0.2250    0.2596 C   0  0  1  0  0  0  0  0  0  0  0  0
    0.3927   -0.6026    1.0964 H   0  0  0  0  0  0  0  0  0  0  0  0
    0.5767   -0.5489   -1.0351 C   0  0  0  0  0  0  0  0  0  0  0  0
    0.5326    0.3291   -1.6815 H   0  0  0  0  0  0  0  0  0  0  0  0
    1.6219   -0.7453   -0.7915 H   0  0  0  0  0  0  0  0  0  0  0  0
    0.0038   -1.7505   -1.8054 C   0  0  0  0  0  0  0  0  0  0  0  0
   -0.0292   -1.5093   -2.8706 H   0  0  0  0  0  0  0  0  0  0  0  0
    0.6816   -2.5979   -1.6725 H   0  0  0  0  0  0  0  0  0  0  0  0
   -1.4059   -2.1530   -1.3474 C   0  0  0  0  0  0  0  0  0  0  0  0
   -1.8885   -1.5853   -0.3417 O   0  5  0  0  0  0  0  0  0  0  0  0
   -1.9941   -3.0165   -2.0356 O   0  0  0  0  0  0  0  0  0  0  0  0
   -0.3954    1.2887    0.4814 C   0  0  0  0  0  0  0  0  0  0  0  0
   -1.2761    1.9015   -0.1256 O   0  0  0  0  0  0  0  0  0  0  0  0
    0.4051    1.8919    1.3699 N   0  0  0  0  0  0  0  0  0  0  0  0
    1.1380    1.3380    1.7875 H   0  0  0  0  0  0  0  0  0  0  0  0
    0.3573    3.3183    1.6807 C   0  0  0  0  0  0  0  0  0  0  0  0
   -0.6670    3.6090    1.9198 H   0  0  0  0  0  0  0  0  0  0  0  0
    1.0066    3.5397    2.5289 H   0  0  0  0  0  0  0  0  0  0  0  0
    0.6896    3.8897    0.8118 H   0  0  0  0  0  0  0  0  0  0  0  0
  5  6  2  0  0  0  0
  5  7  1  0  0  0  0
  2  3  1  0  0  0  0
  2  4  1  0  0  0  0
  2  5  1  0  0  0  0
  1  2  1  0  0  0  0
 20 21  2  0  0  0  0
 20 22  1  0  0  0  0
 17 18  1  0  0  0  0
 17 19  2  0  0  0  0
 14 15  1  0  0  0  0
 14 16  1  0  0  0  0
 14 17  1  0  0  0  0
 11 12  1  0  0  0  0
 11 13  1  0  0  0  0
 11 14  1  0  0  0  0
  9 10  1  0  0  0  0
  9 11  1  0  0  0  0
  9 20  1  0  0  0  0
  7  8  1  0  0  0  0
  7  9  1  0  0  0  0
 24 25  1  0  0  0  0
 24 26  1  0  0  0  0
 24 27  1  0  0  0  0
 22 23  1  0  0  0  0
 22 24  1  0  0  0  0
M  CHG  1  18  -1
M  END
$$$$
default_name
  -OEChem-02102213163D

 27 26  0     1  0  0  0  0  0999 V2000
   -3.2406   -3.5400    1.2326 H   0  0  0  0  0  0  0  0  0  0  0  0
   -3.1436   -2.6190    0.6606 C   0  0  0  0  0  0  0  0  0  0  0  0
   -3.8786   -1.8920    0.9996 H   0  0  0  0  0  0  0  0  0  0  0  0
   -3.2846   -2.8280   -0.3984 H   0  0  0  0  0  0  0  0  0  0  0  0
   -1.7586   -2.0580    0.8686 C   0  0  0  0  0  0  0  0  0  0  0  0
   -0.9666   -2.6340    1.6026 O   0  0  0  0  0  0  0  0  0  0  0  0
   -1.4866   -0.9220    0.2366 N   0  0  0  0  0  0  0  0  0  0  0  0
   -2.2166   -0.4790   -0.2994 H   0  0  0  0  0  0  0  0  0  0  0  0
   -0.1956   -0.2250    0.2596 C   0  0  1  0  0  0  0  0  0  0  0  0
    0.3927   -0.6026    1.0964 H   0  0  0  0  0  0  0  0  0  0  0  0
    0.5767   -0.5489   -1.0351 C   0  0  0  0  0  0  0  0  0  0  0  0
    0.5326    0.3291   -1.6815 H   0  0  0  0  0  0  0  0  0  0  0  0
    1.6219   -0.7453   -0.7915 H   0  0  0  0  0  0  0  0  0  0  0  0
    0.0038   -1.7505   -1.8054 C   0  0  0  0  0  0  0  0  0  0  0  0
    0.2140   -1.6254   -2.8703 H   0  0  0  0  0  0  0  0  0  0  0  0
    0.5175   -2.6532   -1.4641 H   0  0  0  0  0  0  0  0  0  0  0  0
   -1.5104   -1.9287   -1.6197 C   0  0  0  0  0  0  0  0  0  0  0  0
   -2.0965   -1.2004   -0.7875 O   0  5  0  0  0  0  0  0  0  0  0  0
   -2.0670   -2.7858   -2.3413 O   0  0  0  0  0  0  0  0  0  0  0  0
   -0.3954    1.2887    0.4814 C   0  0  0  0  0  0  0  0  0  0  0  0
   -1.2761    1.9015   -0.1256 O   0  0  0  0  0  0  0  0  0  0  0  0
    0.4051    1.8919    1.3699 N   0  0  0  0  0  0  0  0  0  0  0  0
    1.1380    1.3380    1.7875 H   0  0  0  0  0  0  0  0  0  0  0  0
    0.3573    3.3183    1.6807 C   0  0  0  0  0  0  0  0  0  0  0  0
   -0.6670    3.6090    1.9198 H   0  0  0  0  0  0  0  0  0  0  0  0
    1.0066    3.5397    2.5289 H   0  0  0  0  0  0  0  0  0  0  0  0
    0.6896    3.8897    0.8118 H   0  0  0  0  0  0  0  0  0  0  0  0
  5  6  2  0  0  0  0
  5  7  1  0  0  0  0
  2  3  1  0  0  0  0
  2  4  1  0  0  0  0
  2  5  1  0  0  0  0
  1  2  1  0  0  0  0
 20 21  2  0  0  0  0
 20 22  1  0  0  0  0
 17 18  1  0  0  0  0
 17 19  2  0  0  0  0
 14 15  1  0  0  0  0
 14 16  1  0  0  0  0
 14 17  1  0  0  0  0
 11 12  1  0  0  0  0
 11 13  1  0  0  0  0
 11 14  1  0  0  0  0
  9 10  1  0  0  0  0
  9 11  1  0  0  0  0
  9 20  1  0  0  0  0
  7  8  1  0  0  0  0
  7  9  1  0  0  0  0
 24 25  1  0  0  0  0
 24 26  1  0  0  0  0
 24 27  1  0  0  0  0
 22 23  1  0  0  0  0
 22 24  1  0  0  0  0
M  CHG  1  18  -1
M  END
$$$$
default_name
  -OEChem-02102213163D

 27 26  0     1  0  0  0  0  0999 V2000
   -3.2406   -3.5400    1.2326 H   0  0  0  0  0  0  0  0  0  0  0  0
   -3.1436   -2.6190    0.6606 C   0  0  0  0  0  0  0  0  0  0  0  0
   -3.8786   -1.8920    0.9996 H   0  0  0  0  0  0  0  0  0  0  0  0
   -3.2846   -2.8280   -0.3984 H   0  0  0  0  0  0  0  0  0  0  0  0
   -1.7586   -2.0580    0.8686 C   0  0  0  0  0  0  0  0  0  0  0  0
   -0.9666   -2.6340    1.6026 O   0  0  0  0  0  0  0  0  0  0  0  0
   -1.4866   -0.9220    0.2366 N   0  0  0  0  0  0  0  0  0  0  0  0
   -2.2166   -0.4790   -0.2994 H   0  0  0  0  0  0  0  0  0  0  0  0
   -0.1956   -0.2250    0.2596 C   0  0  1  0  0  0  0  0  0  0  0  0
    0.3927   -0.6026    1.0964 H   0  0  0  0  0  0  0  0  0  0  0  0
    0.5767   -0.5489   -1.0351 C   0  0  0  0  0  0  0  0  0  0  0  0
    0.5326    0.3291   -1.6815 H   0  0  0  0  0  0  0  0  0  0  0  0
    1.6219   -0.7453   -0.7915 H   0  0  0  0  0  0  0  0  0  0  0  0
    0.0038   -1.7505   -1.8054 C   0  0  0  0  0  0  0  0  0  0  0  0
    0.4339   -1.7691   -2.8097 H   0  0  0  0  0  0  0  0  0  0  0  0
    0.3096   -2.6652   -1.2907 H   0  0  0  0  0  0  0  0  0  0  0  0
   -1.5272   -1.7247   -1.9254 C   0  0  0  0  0  0  0  0  0  0  0  0
   -2.1575   -0.8446   -1.2973 O   0  5  0  0  0  0  0  0  0  0  0  0
   -2.0458   -2.5830   -2.6735 O   0  0  0  0  0  0  0  0  0  0  0  0
   -0.3954    1.2887    0.4814 C   0  0  0  0  0  0  0  0  0  0  0  0
   -1.2761    1.9015   -0.1256 O   0  0  0  0  0  0  0  0  0  0  0  0
    0.4051    1.8919    1.3699 N   0  0  0  0  0  0  0  0  0  0  0  0
    1.1380    1.3380    1.7875 H   0  0  0  0  0  0  0  0  0  0  0  0
    0.3573    3.3183    1.6807 C   0  0  0  0  0  0  0  0  0  0  0  0
   -0.6670    3.6090    1.9198 H   0  0  0  0  0  0  0  0  0  0  0  0
    1.0066    3.5397    2.5289 H   0  0  0  0  0  0  0  0  0  0  0  0
    0.6896    3.8897    0.8118 H   0  0  0  0  0  0  0  0  0  0  0  0
  5  6  2  0  0  0  0
  5  7  1  0  0  0  0
  2  3  1  0  0  0  0
  2  4  1  0  0  0  0
  2  5  1  0  0  0  0
  1  2  1  0  0  0  0
 20 21  2  0  0  0  0
 20 22  1  0  0  0  0
 17 18  1  0  0  0  0
 17 19  2  0  0  0  0
 14 15  1  0  0  0  0
 14 16  1  0  0  0  0
 14 17  1  0  0  0  0
 11 12  1  0  0  0  0
 11 13  1  0  0  0  0
 11 14  1  0  0  0  0
  9 10  1  0  0  0  0
  9 11  1  0  0  0  0
  9 20  1  0  0  0  0
  7  8  1  0  0  0  0
  7  9  1  0  0  0  0
 24 25  1  0  0  0  0
 24 26  1  0  0  0  0
 24 27  1  0  0  0  0
 22 23  1  0  0  0  0
 22 24  1  0  0  0  0
M  CHG  1  18  -1
M  END
$$$$
default_name
  -OEChem-02102213163D

 27 26  0     1  0  0  0  0  0999 V2000
   -3.2406   -3.5400    1.2326 H   0  0  0  0  0  0  0  0  0  0  0  0
   -3.1436   -2.6190    0.6606 C   0  0  0  0  0  0  0  0  0  0  0  0
   -3.8786   -1.8920    0.9996 H   0  0  0  0  0  0  0  0  0  0  0  0
   -3.2846   -2.8280   -0.3984 H   0  0  0  0  0  0  0  0  0  0  0  0
   -1.7586   -2.0580    0.8686 C   0  0  0  0  0  0  0  0  0  0  0  0
   -0.9666   -2.6340    1.6026 O   0  0  0  0  0  0  0  0  0  0  0  0
   -1.4866   -0.9220    0.2366 N   0  0  0  0  0  0  0  0  0  0  0  0
   -2.2166   -0.4790   -0.2994 H   0  0  0  0  0  0  0  0  0  0  0  0
   -0.1956   -0.2250    0.2596 C   0  0  1  0  0  0  0  0  0  0  0  0
    0.3927   -0.6026    1.0964 H   0  0  0  0  0  0  0  0  0  0  0  0
    0.5767   -0.5489   -1.0351 C   0  0  0  0  0  0  0  0  0  0  0  0
    0.5326    0.3291   -1.6815 H   0  0  0  0  0  0  0  0  0  0  0  0
    1.6219   -0.7453   -0.7915 H   0  0  0  0  0  0  0  0  0  0  0  0
    0.0038   -1.7505   -1.8054 C   0  0  0  0  0  0  0  0  0  0  0  0
    0.6154   -1.9306   -2.6928 H   0  0  0  0  0  0  0  0  0  0  0  0
    0.0722   -2.6332   -1.1641 H   0  0  0  0  0  0  0  0  0  0  0  0
   -1.4551   -1.5550   -2.2438 C   0  0  0  0  0  0  0  0  0  0  0  0
   -2.0672   -0.5421   -1.8363 O   0  5  0  0  0  0  0  0  0  0  0  0
   -1.9317   -2.4219   -3.0097 O   0  0  0  0  0  0  0  0  0  0  0  0
   -0.3954    1.2887    0.4814 C   0  0  0  0  0  0  0  0  0  0  0  0
   -1.2761    1.9015   -0.1256 O   0  0  0  0  0  0  0  0  0  0  0  0
    0.4051    1.8919    1.3699 N   0  0  0  0  0  0  0  0  0  0  0  0
    1.1380    1.3380    1.7875 H   0  0  0  0  0  0  0  0  0  0  0  0
    0.3573    3.3183    1.6807 C   0  0  0  0  0  0  0  0  0  0  0  0
   -0.6670    3.6090    1.9198 H   0  0  0  0  0  0  0  0  0  0  0  0
    1.0066    3.5397    2.5289 H   0  0  0  0  0  0  0  0  0  0  0  0
    0.6896    3.8897    0.8118 H   0  0  0  0  0  0  0  0  0  0  0  0
  5  6  2  0  0  0  0
  5  7  1  0  0  0  0
  2  3  1  0  0  0  0
  2  4  1  0  0  0  0
  2  5  1  0  0  0  0
  1  2  1  0  0  0  0
 20 21  2  0  0  0  0
 20 22  1  0  0  0  0
 17 18  1  0  0  0  0
 17 19  2  0  0  0  0
 14 15  1  0  0  0  0
 14 16  1  0  0  0  0
 14 17  1  0  0  0  0
 11 12  1  0  0  0  0
 11 13  1  0  0  0  0
 11 14  1  0  0  0  0
  9 10  1  0  0  0  0
  9 11  1  0  0  0  0
  9 20  1  0  0  0  0
  7  8  1  0  0  0  0
  7  9  1  0  0  0  0
 24 25  1  0  0  0  0
 24 26  1  0  0  0  0
 24 27  1  0  0  0  0
 22 23  1  0  0  0  0
 22 24  1  0  0  0  0
M  CHG  1  18  -1
M  END
$$$$
default_name
  -OEChem-02102213163D

 27 26  0     1  0  0  0  0  0999 V2000
   -3.2406   -3.5400    1.2326 H   0  0  0  0  0  0  0  0  0  0  0  0
   -3.1436   -2.6190    0.6606 C   0  0  0  0  0  0  0  0  0  0  0  0
   -3.8786   -1.8920    0.9996 H   0  0  0  0  0  0  0  0  0  0  0  0
   -3.2846   -2.8280   -0.3984 H   0  0  0  0  0  0  0  0  0  0  0  0
   -1.7586   -2.0580    0.8686 C   0  0  0  0  0  0  0  0  0  0  0  0
   -0.9666   -2.6340    1.6026 O   0  0  0  0  0  0  0  0  0  0  0  0
   -1.4866   -0.9220    0.2366 N   0  0  0  0  0  0  0  0  0  0  0  0
   -2.2166   -0.4790   -0.2994 H   0  0  0  0  0  0  0  0  0  0  0  0
   -0.1956   -0.2250    0.2596 C   0  0  1  0  0  0  0  0  0  0  0  0
    0.3927   -0.6026    1.0964 H   0  0  0  0  0  0  0  0  0  0  0  0
    0.5767   -0.5489   -1.0351 C   0  0  0  0  0  0  0  0  0  0  0  0
    0.5326    0.3291   -1.6815 H   0  0  0  0  0  0  0  0  0  0  0  0
    1.6219   -0.7453   -0.7915 H   0  0  0  0  0  0  0  0  0  0  0  0
    0.0038   -1.7505   -1.8054 C   0  0  0  0  0  0  0  0  0  0  0  0
    0.7461   -2.0988   -2.5276 H   0  0  0  0  0  0  0  0  0  0  0  0
   -0.1785   -2.5593   -1.0928 H   0  0  0  0  0  0  0  0  0  0  0  0
   -1.2992   -1.4310   -2.5532 C   0  0  0  0  0  0  0  0  0  0  0  0
   -1.8318   -0.3137   -2.3679 O   0  5  0  0  0  0  0  0  0  0  0  0
   -1.7327   -2.3135   -3.3269 O   0  0  0  0  0  0  0  0  0  0  0  0
   -0.3954    1.2887    0.4814 C   0  0  0  0  0  0  0  0  0  0  0  0
   -1.2761    1.9015   -0.1256 O   0  0  0  0  0  0  0  0  0  0  0  0
    0.4051    1.8919    1.3699 N   0  0  0  0  0  0  0  0  0  0  0  0
    1.1380    1.3380    1.7875 H   0  0  0  0  0  0  0  0  0  0  0  0
    0.3573    3.3183    1.6807 C   0  0  0  0  0  0  0  0  0  0  0  0
   -0.6670    3.6090    1.9198 H   0  0  0  0  0  0  0  0  0  0  0  0
    1.0066    3.5397    2.5289 H   0  0  0  0  0  0  0  0  0  0  0  0
    0.6896    3.8897    0.8118 H   0  0  0  0  0  0  0  0  0  0  0  0
  5  6  2  0  0  0  0
  5  7  1  0  0  0  0
  2  3  1  0  0  0  0
  2  4  1  0  0  0  0
  2  5  1  0  0  0  0
  1  2  1  0  0  0  0
 20 21  2  0  0  0  0
 20 22  1  0  0  0  0
 17 18  1  0  0  0  0
 17 19  2  0  0  0  0
 14 15  1  0  0  0  0
 14 16  1  0  0  0  0
 14 17  1  0  0  0  0
 11 12  1  0  0  0  0
 11 13  1  0  0  0  0
 11 14  1  0  0  0  0
  9 10  1  0  0  0  0
  9 11  1  0  0  0  0
  9 20  1  0  0  0  0
  7  8  1  0  0  0  0
  7  9  1  0  0  0  0
 24 25  1  0  0  0  0
 24 26  1  0  0  0  0
 24 27  1  0  0  0  0
 22 23  1  0  0  0  0
 22 24  1  0  0  0  0
M  CHG  1  18  -1
M  END
$$$$
default_name
  -OEChem-02102213163D

 27 26  0     1  0  0  0  0  0999 V2000
   -3.2406   -3.5400    1.2326 H   0  0  0  0  0  0  0  0  0  0  0  0
   -3.1436   -2.6190    0.6606 C   0  0  0  0  0  0  0  0  0  0  0  0
   -3.8786   -1.8920    0.9996 H   0  0  0  0  0  0  0  0  0  0  0  0
   -3.2846   -2.8280   -0.3984 H   0  0  0  0  0  0  0  0  0  0  0  0
   -1.7586   -2.0580    0.8686 C   0  0  0  0  0  0  0  0  0  0  0  0
   -0.9666   -2.6340    1.6026 O   0  0  0  0  0  0  0  0  0  0  0  0
   -1.4866   -0.9220    0.2366 N   0  0  0  0  0  0  0  0  0  0  0  0
   -2.2166   -0.4790   -0.2994 H   0  0  0  0  0  0  0  0  0  0  0  0
   -0.1956   -0.2250    0.2596 C   0  0  1  0  0  0  0  0  0  0  0  0
    0.3927   -0.6026    1.0964 H   0  0  0  0  0  0  0  0  0  0  0  0
    0.5767   -0.5489   -1.0351 C   0  0  0  0  0  0  0  0  0  0  0  0
    0.5326    0.3291   -1.6815 H   0  0  0  0  0  0  0  0  0  0  0  0
    1.6219   -0.7453   -0.7915 H   0  0  0  0  0  0  0  0  0  0  0  0
    0.0038   -1.7505   -1.8054 C   0  0  0  0  0  0  0  0  0  0  0  0
    0.8172   -2.2623   -2.3254 H   0  0  0  0  0  0  0  0  0  0  0  0
   -0.4256   -2.4486   -1.0819 H   0  0  0  0  0  0  0  0  0  0  0  0
   -1.0699   -1.3614   -2.8324 C   0  0  0  0  0  0  0  0  0  0  0  0
   -1.4672   -0.1748   -2.8557 O   0  5  0  0  0  0  0  0  0  0  0  0
   -1.4623   -2.2651   -3.6034 O   0  0  0  0  0  0  0  0  0  0  0  0
   -0.3954    1.2887    0.4814 C   0  0  0  0  0  0  0  0  0  0  0  0
   -1.2761    1.9015   -0.1256 O   0  0  0  0  0  0  0  0  0  0  0  0
    0.4051    1.8919    1.3699 N   0  0  0  0  0  0  0  0  0  0  0  0
    1.1380    1.3380    1.7875 H   0  0  0  0  0  0  0  0  0  0  0  0
    0.3573    3.3183    1.6807 C   0  0  0  0  0  0  0  0  0  0  0  0
   -0.6670    3.6090    1.9198 H   0  0  0  0  0  0  0  0  0  0  0  0
    1.0066    3.5397    2.5289 H   0  0  0  0  0  0  0  0  0  0  0  0
    0.6896    3.8897    0.8118 H   0  0  0  0  0  0  0  0  0  0  0  0
  5  6  2  0  0  0  0
  5  7  1  0  0  0  0
  2  3  1  0  0  0  0
  2  4  1  0  0  0  0
  2  5  1  0  0  0  0
  1  2  1  0  0  0  0
 20 21  2  0  0  0  0
 20 22  1  0  0  0  0
 17 18  1  0  0  0  0
 17 19  2  0  0  0  0
 14 15  1  0  0  0  0
 14 16  1  0  0  0  0
 14 17  1  0  0  0  0
 11 12  1  0  0  0  0
 11 13  1  0  0  0  0
 11 14  1  0  0  0  0
  9 10  1  0  0  0  0
  9 11  1  0  0  0  0
  9 20  1  0  0  0  0
  7  8  1  0  0  0  0
  7  9  1  0  0  0  0
 24 25  1  0  0  0  0
 24 26  1  0  0  0  0
 24 27  1  0  0  0  0
 22 23  1  0  0  0  0
 22 24  1  0  0  0  0
M  CHG  1  18  -1
M  END
$$$$
default_name
  -OEChem-02102213163D

 27 26  0     1  0  0  0  0  0999 V2000
   -3.2406   -3.5400    1.2326 H   0  0  0  0  0  0  0  0  0  0  0  0
   -3.1436   -2.6190    0.6606 C   0  0  0  0  0  0  0  0  0  0  0  0
   -3.8786   -1.8920    0.9996 H   0  0  0  0  0  0  0  0  0  0  0  0
   -3.2846   -2.8280   -0.3984 H   0  0  0  0  0  0  0  0  0  0  0  0
   -1.7586   -2.0580    0.8686 C   0  0  0  0  0  0  0  0  0  0  0  0
   -0.9666   -2.6340    1.6026 O   0  0  0  0  0  0  0  0  0  0  0  0
   -1.4866   -0.9220    0.2366 N   0  0  0  0  0  0  0  0  0  0  0  0
   -2.2166   -0.4790   -0.2994 H   0  0  0  0  0  0  0  0  0  0  0  0
   -0.1956   -0.2250    0.2596 C   0  0  1  0  0  0  0  0  0  0  0  0
    0.3927   -0.6026    1.0964 H   0  0  0  0  0  0  0  0  0  0  0  0
    0.5767   -0.5489   -1.0351 C   0  0  0  0  0  0  0  0  0  0  0  0
    0.5326    0.3291   -1.6815 H   0  0  0  0  0  0  0  0  0  0  0  0
    1.6219   -0.7453   -0.7915 H   0  0  0  0  0  0  0  0  0  0  0  0
    0.0038   -1.7505   -1.8054 C   0  0  0  0  0  0  0  0  0  0  0  0
    0.8238   -2.4099   -2.1000 H   0  0  0  0  0  0  0  0  0  0  0  0
   -0.6521   -2.3085   -1.1319 H   0  0  0  0  0  0  0  0  0  0  0  0
   -0.7829   -1.3507   -3.0624 C   0  0  0  0  0  0  0  0  0  0  0  0
   -0.9985   -0.1349   -3.2666 O   0  5  0  0  0  0  0  0  0  0  0  0
   -1.1389   -2.2801   -3.8206 O   0  0  0  0  0  0  0  0  0  0  0  0
   -0.3954    1.2887    0.4814 C   0  0  0  0  0  0  0  0  0  0  0  0
   -1.2761    1.9015   -0.1256 O   0  0  0  0  0  0  0  0  0  0  0  0
    0.4051    1.8919    1.3699 N   0  0  0  0  0  0  0  0  0  0  0  0
    1.1380    1.3380    1.7875 H   0  0  0  0  0  0  0  0  0  0  0  0
    0.3573    3.3183    1.6807 C   0  0  0  0  0  0  0  0  0  0  0  0
   -0.6670    3.6090    1.9198 H   0  0  0  0  0  0  0  0  0  0  0  0
    1.0066    3.5397    2.5289 H   0  0  0  0  0  0  0  0  0  0  0  0
    0.6896    3.8897    0.8118 H   0  0  0  0  0  0  0  0  0  0  0  0
  5  6  2  0  0  0  0
  5  7  1  0  0  0  0
  2  3  1  0  0  0  0
  2  4  1  0  0  0  0
  2  5  1  0  0  0  0
  1  2  1  0  0  0  0
 20 21  2  0  0  0  0
 20 22  1  0  0  0  0
 17 18  1  0  0  0  0
 17 19  2  0  0  0  0
 14 15  1  0  0  0  0
 14 16  1  0  0  0  0
 14 17  1  0  0  0  0
 11 12  1  0  0  0  0
 11 13  1  0  0  0  0
 11 14  1  0  0  0  0
  9 10  1  0  0  0  0
  9 11  1  0  0  0  0
  9 20  1  0  0  0  0
  7  8  1  0  0  0  0
  7  9  1  0  0  0  0
 24 25  1  0  0  0  0
 24 26  1  0  0  0  0
 24 27  1  0  0  0  0
 22 23  1  0  0  0  0
 22 24  1  0  0  0  0
M  CHG  1  18  -1
M  END
$$$$
default_name
  -OEChem-02102213163D

 27 26  0     1  0  0  0  0  0999 V2000
   -3.2406   -3.5400    1.2326 H   0  0  0  0  0  0  0  0  0  0  0  0
   -3.1436   -2.6190    0.6606 C   0  0  0  0  0  0  0  0  0  0  0  0
   -3.8786   -1.8920    0.9996 H   0  0  0  0  0  0  0  0  0  0  0  0
   -3.2846   -2.8280   -0.3984 H   0  0  0  0  0  0  0  0  0  0  0  0
   -1.7586   -2.0580    0.8686 C   0  0  0  0  0  0  0  0  0  0  0  0
   -0.9666   -2.6340    1.6026 O   0  0  0  0  0  0  0  0  0  0  0  0
   -1.4866   -0.9220    0.2366 N   0  0  0  0  0  0  0  0  0  0  0  0
   -2.2166   -0.4790   -0.2994 H   0  0  0  0  0  0  0  0  0  0  0  0
   -0.1956   -0.2250    0.2596 C   0  0  1  0  0  0  0  0  0  0  0  0
    0.3927   -0.6026    1.0964 H   0  0  0  0  0  0  0  0  0  0  0  0
    0.5767   -0.5489   -1.0351 C   0  0  0  0  0  0  0  0  0  0  0  0
    0.5326    0.3291   -1.6815 H   0  0  0  0  0  0  0  0  0  0  0  0
    1.6219   -0.7453   -0.7915 H   0  0  0  0  0  0  0  0  0  0  0  0
    0.0038   -1.7505   -1.8054 C   0  0  0  0  0  0  0  0  0  0  0  0
    0.7654   -2.5316   -1.8666 H   0  0  0  0  0  0  0  0  0  0  0  0
   -0.8426   -2.1487   -1.2395 H   0  0  0  0  0  0  0  0  0  0  0  0
   -0.4579   -1.3998   -3.2276 C   0  0  0  0  0  0  0  0  0  0  0  0
   -0.4574   -0.1967   -3.5726 O   0  5  0  0  0  0  0  0  0  0  0  0
   -0.7846   -2.3574   -3.9635 O   0  0  0  0  0  0  0  0  0  0  0  0
   -0.3954    1.2887    0.4814 C   0  0  0  0  0  0  0  0  0  0  0  0
   -1.2761    1.9015   -0.1256 O   0  0  0  0  0  0  0  0  0  0  0  0
    0.4051    1.8919    1.3699 N   0  0  0  0  0  0  0  0  0  0  0  0
    1.1380    1.3380    1.7875 H   0  0  0  0  0  0  0  0  0  0  0  0
    0.3573    3.3183    1.6807 C   0  0  0  0  0  0  0  0  0  0  0  0
   -0.6670    3.6090    1.9198 H   0  0  0  0  0  0  0  0  0  0  0  0
    1.0066    3.5397    2.5289 H   0  0  0  0  0  0  0  0  0  0  0  0
    0.6896    3.8897    0.8118 H   0  0  0  0  0  0  0  0  0  0  0  0
  5  6  2  0  0  0  0
  5  7  1  0  0  0  0
  2  3  1  0  0  0  0
  2  4  1  0  0  0  0
  2  5  1  0  0  0  0
  1  2  1  0  0  0  0
 20 21  2  0  0  0  0
 20 22  1  0  0  0  0
 17 18  1  0  0  0  0
 17 19  2  0  0  0  0
 14 15  1  0  0  0  0
 14 16  1  0  0  0  0
 14 17  1  0  0  0  0
 11 12  1  0  0  0  0
 11 13  1  0  0  0  0
 11 14  1  0  0  0  0
  9 10  1  0  0  0  0
  9 11  1  0  0  0  0
  9 20  1  0  0  0  0
  7  8  1  0  0  0  0
  7  9  1  0  0  0  0
 24 25  1  0  0  0  0
 24 26  1  0  0  0  0
 24 27  1  0  0  0  0
 22 23  1  0  0  0  0
 22 24  1  0  0  0  0
M  CHG  1  18  -1
M  END
$$$$
default_name
  -OEChem-02102213163D

 27 26  0     1  0  0  0  0  0999 V2000
   -3.2406   -3.5400    1.2326 H   0  0  0  0  0  0  0  0  0  0  0  0
   -3.1436   -2.6190    0.6606 C   0  0  0  0  0  0  0  0  0  0  0  0
   -3.8786   -1.8920    0.9996 H   0  0  0  0  0  0  0  0  0  0  0  0
   -3.2846   -2.8280   -0.3984 H   0  0  0  0  0  0  0  0  0  0  0  0
   -1.7586   -2.0580    0.8686 C   0  0  0  0  0  0  0  0  0  0  0  0
   -0.9666   -2.6340    1.6026 O   0  0  0  0  0  0  0  0  0  0  0  0
   -1.4866   -0.9220    0.2366 N   0  0  0  0  0  0  0  0  0  0  0  0
   -2.2166   -0.4790   -0.2994 H   0  0  0  0  0  0  0  0  0  0  0  0
   -0.1956   -0.2250    0.2596 C   0  0  1  0  0  0  0  0  0  0  0  0
    0.3927   -0.6026    1.0964 H   0  0  0  0  0  0  0  0  0  0  0  0
    0.5767   -0.5489   -1.0351 C   0  0  0  0  0  0  0  0  0  0  0  0
    0.5326    0.3291   -1.6815 H   0  0  0  0  0  0  0  0  0  0  0  0
    1.6219   -0.7453   -0.7915 H   0  0  0  0  0  0  0  0  0  0  0  0
    0.0038   -1.7505   -1.8054 C   0  0  0  0  0  0  0  0  0  0  0  0
    0.6461   -2.6191   -1.6413 H   0  0  0  0  0  0  0  0  0  0  0  0
   -0.9842   -1.9800   -1.3975 H   0  0  0  0  0  0  0  0  0  0  0  0
   -0.1168   -1.5053   -3.3167 C   0  0  0  0  0  0  0  0  0  0  0  0
    0.1190   -0.3561   -3.7528 O   0  5  0  0  0  0  0  0  0  0  0  0
   -0.4235   -2.4919   -4.0224 O   0  0  0  0  0  0  0  0  0  0  0  0
   -0.3954    1.2887    0.4814 C   0  0  0  0  0  0  0  0  0  0  0  0
   -1.2761    1.9015   -0.1256 O   0  0  0  0  0  0  0  0  0  0  0  0
    0.4051    1.8919    1.3699 N   0  0  0  0  0  0  0  0  0  0  0  0
    1.1380    1.3380    1.7875 H   0  0  0  0  0  0  0  0  0  0  0  0
    0.3573    3.3183    1.6807 C   0  0  0  0  0  0  0  0  0  0  0  0
   -0.6670    3.6090    1.9198 H   0  0  0  0  0  0  0  0  0  0  0  0
    1.0066    3.5397    2.5289 H   0  0  0  0  0  0  0  0  0  0  0  0
    0.6896    3.8897    0.8118 H   0  0  0  0  0  0  0  0  0  0  0  0
  5  6  2  0  0  0  0
  5  7  1  0  0  0  0
  2  3  1  0  0  0  0
  2  4  1  0  0  0  0
  2  5  1  0  0  0  0
  1  2  1  0  0  0  0
 20 21  2  0  0  0  0
 20 22  1  0  0  0  0
 17 18  1  0  0  0  0
 17 19  2  0  0  0  0
 14 15  1  0  0  0  0
 14 16  1  0  0  0  0
 14 17  1  0  0  0  0
 11 12  1  0  0  0  0
 11 13  1  0  0  0  0
 11 14  1  0  0  0  0
  9 10  1  0  0  0  0
  9 11  1  0  0  0  0
  9 20  1  0  0  0  0
  7  8  1  0  0  0  0
  7  9  1  0  0  0  0
 24 25  1  0  0  0  0
 24 26  1  0  0  0  0
 24 27  1  0  0  0  0
 22 23  1  0  0  0  0
 22 24  1  0  0  0  0
M  CHG  1  18  -1
M  END
$$$$
default_name
  -OEChem-02102213163D

 27 26  0     1  0  0  0  0  0999 V2000
   -3.2406   -3.5400    1.2326 H   0  0  0  0  0  0  0  0  0  0  0  0
   -3.1436   -2.6190    0.6606 C   0  0  0  0  0  0  0  0  0  0  0  0
   -3.8786   -1.8920    0.9996 H   0  0  0  0  0  0  0  0  0  0  0  0
   -3.2846   -2.8280   -0.3984 H   0  0  0  0  0  0  0  0  0  0  0  0
   -1.7586   -2.0580    0.8686 C   0  0  0  0  0  0  0  0  0  0  0  0
   -0.9666   -2.6340    1.6026 O   0  0  0  0  0  0  0  0  0  0  0  0
   -1.4866   -0.9220    0.2366 N   0  0  0  0  0  0  0  0  0  0  0  0
   -2.2166   -0.4790   -0.2994 H   0  0  0  0  0  0  0  0  0  0  0  0
   -0.1956   -0.2250    0.2596 C   0  0  1  0  0  0  0  0  0  0  0  0
    0.3927   -0.6026    1.0964 H   0  0  0  0  0  0  0  0  0  0  0  0
    0.5767   -0.5489   -1.0351 C   0  0  0  0  0  0  0  0  0  0  0  0
    0.5326    0.3291   -1.6815 H   0  0  0  0  0  0  0  0  0  0  0  0
    1.6219   -0.7453   -0.7915 H   0  0  0  0  0  0  0  0  0  0  0  0
    0.0038   -1.7505   -1.8054 C   0  0  0  0  0  0  0  0  0  0  0  0
    0.4739   -2.6665   -1.4394 H   0  0  0  0  0  0  0  0  0  0  0  0
   -1.0671   -1.8139   -1.5949 H   0  0  0  0  0  0  0  0  0  0  0  0
    0.2170   -1.6600   -3.3237 C   0  0  0  0  0  0  0  0  0  0  0  0
    0.6916   -0.6021   -3.7949 O   0  5  0  0  0  0  0  0  0  0  0  0
   -0.0801   -2.6742   -3.9933 O   0  0  0  0  0  0  0  0  0  0  0  0
   -0.3954    1.2887    0.4814 C   0  0  0  0  0  0  0  0  0  0  0  0
   -1.2761    1.9015   -0.1256 O   0  0  0  0  0  0  0  0  0  0  0  0
    0.4051    1.8919    1.3699 N   0  0  0  0  0  0  0  0  0  0  0  0
    1.1380    1.3380    1.7875 H   0  0  0  0  0  0  0  0  0  0  0  0
    0.3573    3.3183    1.6807 C   0  0  0  0  0  0  0  0  0  0  0  0
   -0.6670    3.6090    1.9198 H   0  0  0  0  0  0  0  0  0  0  0  0
    1.0066    3.5397    2.5289 H   0  0  0  0  0  0  0  0  0  0  0  0
    0.6896    3.8897    0.8118 H   0  0  0  0  0  0  0  0  0  0  0  0
  5  6  2  0  0  0  0
  5  7  1  0  0  0  0
  2  3  1  0  0  0  0
  2  4  1  0  0  0  0
  2  5  1  0  0  0  0
  1  2  1  0  0  0  0
 20 21  2  0  0  0  0
 20 22  1  0  0  0  0
 17 18  1  0  0  0  0
 17 19  2  0  0  0  0
 14 15  1  0  0  0  0
 14 16  1  0  0  0  0
 14 17  1  0  0  0  0
 11 12  1  0  0  0  0
 11 13  1  0  0  0  0
 11 14  1  0  0  0  0
  9 10  1  0  0  0  0
  9 11  1  0  0  0  0
  9 20  1  0  0  0  0
  7  8  1  0  0  0  0
  7  9  1  0  0  0  0
 24 25  1  0  0  0  0
 24 26  1  0  0  0  0
 24 27  1  0  0  0  0
 22 23  1  0  0  0  0
 22 24  1  0  0  0  0
M  CHG  1  18  -1
M  END
$$$$
default_name
  -OEChem-02102213163D

 27 26  0     1  0  0  0  0  0999 V2000
   -3.2406   -3.5400    1.2326 H   0  0  0  0  0  0  0  0  0  0  0  0
   -3.1436   -2.6190    0.6606 C   0  0  0  0  0  0  0  0  0  0  0  0
   -3.8786   -1.8920    0.9996 H   0  0  0  0  0  0  0  0  0  0  0  0
   -3.2846   -2.8280   -0.3984 H   0  0  0  0  0  0  0  0  0  0  0  0
   -1.7586   -2.0580    0.8686 C   0  0  0  0  0  0  0  0  0  0  0  0
   -0.9666   -2.6340    1.6026 O   0  0  0  0  0  0  0  0  0  0  0  0
   -1.4866   -0.9220    0.2366 N   0  0  0  0  0  0  0  0  0  0  0  0
   -2.2166   -0.4790   -0.2994 H   0  0  0  0  0  0  0  0  0  0  0  0
   -0.1956   -0.2250    0.2596 C   0  0  1  0  0  0  0  0  0  0  0  0
    0.3927   -0.6026    1.0964 H   0  0  0  0  0  0  0  0  0  0  0  0
    0.5767   -0.5489   -1.0351 C   0  0  0  0  0  0  0  0  0  0  0  0
    0.5326    0.3291   -1.6815 H   0  0  0  0  0  0  0  0  0  0  0  0
    1.6219   -0.7453   -0.7915 H   0  0  0  0  0  0  0  0  0  0  0  0
    0.0038   -1.7505   -1.8054 C   0  0  0  0  0  0  0  0  0  0  0  0
    0.2606   -2.6704   -1.2746 H   0  0  0  0  0  0  0  0  0  0  0  0
   -1.0857   -1.6618   -1.8183 H   0  0  0  0  0  0  0  0  0  0  0  0
    0.5207   -1.8533   -3.2480 C   0  0  0  0  0  0  0  0  0  0  0  0
    1.2214   -0.9180   -3.6960 O   0  5  0  0  0  0  0  0  0  0  0  0
    0.2220   -2.8920   -3.8783 O   0  0  0  0  0  0  0  0  0  0  0  0
   -0.3954    1.2887    0.4814 C   0  0  0  0  0  0  0  0  0  0  0  0
   -1.2761    1.9015   -0.1256 O   0  0  0  0  0  0  0  0  0  0  0  0
    0.4051    1.8919    1.3699 N   0  0  0  0  0  0  0  0  0  0  0  0
    1.1380    1.3380    1.7875 H   0  0  0  0  0  0  0  0  0  0  0  0
    0.3573    3.3183    1.6807 C   0  0  0  0  0  0  0  0  0  0  0  0
   -0.6670    3.6090    1.9198 H   0  0  0  0  0  0  0  0  0  0  0  0
    1.0066    3.5397    2.5289 H   0  0  0  0  0  0  0  0  0  0  0  0
    0.6896    3.8897    0.8118 H   0  0  0  0  0  0  0  0  0  0  0  0
  5  6  2  0  0  0  0
  5  7  1  0  0  0  0
  2  3  1  0  0  0  0
  2  4  1  0  0  0  0
  2  5  1  0  0  0  0
  1  2  1  0  0  0  0
 20 21  2  0  0  0  0
 20 22  1  0  0  0  0
 17 18  1  0  0  0  0
 17 19  2  0  0  0  0
 14 15  1  0  0  0  0
 14 16  1  0  0  0  0
 14 17  1  0  0  0  0
 11 12  1  0  0  0  0
 11 13  1  0  0  0  0
 11 14  1  0  0  0  0
  9 10  1  0  0  0  0
  9 11  1  0  0  0  0
  9 20  1  0  0  0  0
  7  8  1  0  0  0  0
  7  9  1  0  0  0  0
 24 25  1  0  0  0  0
 24 26  1  0  0  0  0
 24 27  1  0  0  0  0
 22 23  1  0  0  0  0
 22 24  1  0  0  0  0
M  CHG  1  18  -1
M  END
$$$$
default_name
  -OEChem-02102213163D

 27 26  0     1  0  0  0  0  0999 V2000
   -3.2406   -3.5400    1.2326 H   0  0  0  0  0  0  0  0  0  0  0  0
   -3.1436   -2.6190    0.6606 C   0  0  0  0  0  0  0  0  0  0  0  0
   -3.8786   -1.8920    0.9996 H   0  0  0  0  0  0  0  0  0  0  0  0
   -3.2846   -2.8280   -0.3984 H   0  0  0  0  0  0  0  0  0  0  0  0
   -1.7586   -2.0580    0.8686 C   0  0  0  0  0  0  0  0  0  0  0  0
   -0.9666   -2.6340    1.6026 O   0  0  0  0  0  0  0  0  0  0  0  0
   -1.4866   -0.9220    0.2366 N   0  0  0  0  0  0  0  0  0  0  0  0
   -2.2166   -0.4790   -0.2994 H   0  0  0  0  0  0  0  0  0  0  0  0
   -0.1956   -0.2250    0.2596 C   0  0  1  0  0  0  0  0  0  0  0  0
    0.3927   -0.6026    1.0964 H   0  0  0  0  0  0  0  0  0  0  0  0
    0.5767   -0.5489   -1.0351 C   0  0  0  0  0  0  0  0  0  0  0  0
    0.7658    0.3902   -1.5576 H   0  0  0  0  0  0  0  0  0  0  0  0
    1.5365   -0.9999   -0.7788 H   0  0  0  0  0  0  0  0  0  0  0  0
   -0.1855   -1.4896   -1.9835 C   0  0  0  0  0  0  0  0  0  0  0  0
   -0.4016   -2.4249   -1.4615 H   0  0  0  0  0  0  0  0  0  0  0  0
   -1.1383   -1.0192   -2.2407 H   0  0  0  0  0  0  0  0  0  0  0  0
    0.5846   -1.8115   -3.2728 C   0  0  0  0  0  0  0  0  0  0  0  0
    1.6541   -1.2003   -3.4942 O   0  5  0  0  0  0  0  0  0  0  0  0
    0.0954   -2.6935   -4.0131 O   0  0  0  0  0  0  0  0  0  0  0  0
   -0.3954    1.2887    0.4814 C   0  0  0  0  0  0  0  0  0  0  0  0
   -1.2761    1.9015   -0.1256 O   0  0  0  0  0  0  0  0  0  0  0  0
    0.4051    1.8919    1.3699 N   0  0  0  0  0  0  0  0  0  0  0  0
    1.1380    1.3380    1.7875 H   0  0  0  0  0  0  0  0  0  0  0  0
    0.3573    3.3183    1.6807 C   0  0  0  0  0  0  0  0  0  0  0  0
   -0.6670    3.6090    1.9198 H   0  0  0  0  0  0  0  0  0  0  0  0
    1.0066    3.5397    2.5289 H   0  0  0  0  0  0  0  0  0  0  0  0
    0.6896    3.8897    0.8118 H   0  0  0  0  0  0  0  0  0  0  0  0
  5  6  2  0  0  0  0
  5  7  1  0  0  0  0
  2  3  1  0  0  0  0
  2  4  1  0  0  0  0
  2  5  1  0  0  0  0
  1  2  1  0  0  0  0
 20 21  2  0  0  0  0
 20 22  1  0  0  0  0
 17 18  1  0  0  0  0
 17 19  2  0  0  0  0
 14 15  1  0  0  0  0
 14 16  1  0  0  0  0
 14 17  1  0  0  0  0
 11 12  1  0  0  0  0
 11 13  1  0  0  0  0
 11 14  1  0  0  0  0
  9 10  1  0  0  0  0
  9 11  1  0  0  0  0
  9 20  1  0  0  0  0
  7  8  1  0  0  0  0
  7  9  1  0  0  0  0
 24 25  1  0  0  0  0
 24 26  1  0  0  0  0
 24 27  1  0  0  0  0
 22 23  1  0  0  0  0
 22 24  1  0  0  0  0
M  CHG  1  18  -1
M  END
$$$$
default_name
  -OEChem-02102213163D

 27 26  0     1  0  0  0  0  0999 V2000
   -3.2406   -3.5400    1.2326 H   0  0  0  0  0  0  0  0  0  0  0  0
   -3.1436   -2.6190    0.6606 C   0  0  0  0  0  0  0  0  0  0  0  0
   -3.8786   -1.8920    0.9996 H   0  0  0  0  0  0  0  0  0  0  0  0
   -3.2846   -2.8280   -0.3984 H   0  0  0  0  0  0  0  0  0  0  0  0
   -1.7586   -2.0580    0.8686 C   0  0  0  0  0  0  0  0  0  0  0  0
   -0.9666   -2.6340    1.6026 O   0  0  0  0  0  0  0  0  0  0  0  0
   -1.4866   -0.9220    0.2366 N   0  0  0  0  0  0  0  0  0  0  0  0
   -2.2166   -0.4790   -0.2994 H   0  0  0  0  0  0  0  0  0  0  0  0
   -0.1956   -0.2250    0.2596 C   0  0  1  0  0  0  0  0  0  0  0  0
    0.3927   -0.6026    1.0964 H   0  0  0  0  0  0  0  0  0  0  0  0
    0.5767   -0.5489   -1.0351 C   0  0  0  0  0  0  0  0  0  0  0  0
    0.7658    0.3902   -1.5576 H   0  0  0  0  0  0  0  0  0  0  0  0
    1.5365   -0.9999   -0.7788 H   0  0  0  0  0  0  0  0  0  0  0  0
   -0.1855   -1.4896   -1.9835 C   0  0  0  0  0  0  0  0  0  0  0  0
   -0.6322   -2.2990   -1.4011 H   0  0  0  0  0  0  0  0  0  0  0  0
   -0.9958   -0.9233   -2.4503 H   0  0  0  0  0  0  0  0  0  0  0  0
    0.7008   -2.1015   -3.0785 C   0  0  0  0  0  0  0  0  0  0  0  0
    1.8794   -1.6942   -3.1853 O   0  5  0  0  0  0  0  0  0  0  0  0
    0.1838   -2.9962   -3.7839 O   0  0  0  0  0  0  0  0  0  0  0  0
   -0.3954    1.2887    0.4814 C   0  0  0  0  0  0  0  0  0  0  0  0
   -1.2761    1.9015   -0.1256 O   0  0  0  0  0  0  0  0  0  0  0  0
    0.4051    1.8919    1.3699 N   0  0  0  0  0  0  0  0  0  0  0  0
    1.1380    1.3380    1.7875 H   0  0  0  0  0  0  0  0  0  0  0  0
    0.3573    3.3183    1.6807 C   0  0  0  0  0  0  0  0  0  0  0  0
   -0.6670    3.6090    1.9198 H   0  0  0  0  0  0  0  0  0  0  0  0
    1.0066    3.5397    2.5289 H   0  0  0  0  0  0  0  0  0  0  0  0
    0.6896    3.8897    0.8118 H   0  0  0  0  0  0  0  0  0  0  0  0
  5  6  2  0  0  0  0
  5  7  1  0  0  0  0
  2  3  1  0  0  0  0
  2  4  1  0  0  0  0
  2  5  1  0  0  0  0
  1  2  1  0  0  0  0
 20 21  2  0  0  0  0
 20 22  1  0  0  0  0
 17 18  1  0  0  0  0
 17 19  2  0  0  0  0
 14 15  1  0  0  0  0
 14 16  1  0  0  0  0
 14 17  1  0  0  0  0
 11 12  1  0  0  0  0
 11 13  1  0  0  0  0
 11 14  1  0  0  0  0
  9 10  1  0  0  0  0
  9 11  1  0  0  0  0
  9 20  1  0  0  0  0
  7  8  1  0  0  0  0
  7  9  1  0  0  0  0
 24 25  1  0  0  0  0
 24 26  1  0  0  0  0
 24 27  1  0  0  0  0
 22 23  1  0  0  0  0
 22 24  1  0  0  0  0
M  CHG  1  18  -1
M  END
$$$$
default_name
  -OEChem-02102213163D

 27 26  0     1  0  0  0  0  0999 V2000
   -3.2406   -3.5400    1.2326 H   0  0  0  0  0  0  0  0  0  0  0  0
   -3.1436   -2.6190    0.6606 C   0  0  0  0  0  0  0  0  0  0  0  0
   -3.8786   -1.8920    0.9996 H   0  0  0  0  0  0  0  0  0  0  0  0
   -3.2846   -2.8280   -0.3984 H   0  0  0  0  0  0  0  0  0  0  0  0
   -1.7586   -2.0580    0.8686 C   0  0  0  0  0  0  0  0  0  0  0  0
   -0.9666   -2.6340    1.6026 O   0  0  0  0  0  0  0  0  0  0  0  0
   -1.4866   -0.9220    0.2366 N   0  0  0  0  0  0  0  0  0  0  0  0
   -2.2166   -0.4790   -0.2994 H   0  0  0  0  0  0  0  0  0  0  0  0
   -0.1956   -0.2250    0.2596 C   0  0  1  0  0  0  0  0  0  0  0  0
    0.3927   -0.6026    1.0964 H   0  0  0  0  0  0  0  0  0  0  0  0
    0.5767   -0.5489   -1.0351 C   0  0  0  0  0  0  0  0  0  0  0  0
    0.7658    0.3902   -1.5576 H   0  0  0  0  0  0  0  0  0  0  0  0
    1.5365   -0.9999   -0.7788 H   0  0  0  0  0  0  0  0  0  0  0  0
   -0.1855   -1.4896   -1.9835 C   0  0  0  0  0  0  0  0  0  0  0  0
   -0.8444   -2.1329   -1.3953 H   0  0  0  0  0  0  0  0  0  0  0  0
   -0.8097   -0.8803   -2.6425 H   0  0  0  0  0  0  0  0  0  0  0  0
    0.7360   -2.3753   -2.8352 C   0  0  0  0  0  0  0  0  0  0  0  0
    1.9693   -2.1677   -2.7879 O   0  5  0  0  0  0  0  0  0  0  0  0
    0.1846   -3.2733   -3.5097 O   0  0  0  0  0  0  0  0  0  0  0  0
   -0.3954    1.2887    0.4814 C   0  0  0  0  0  0  0  0  0  0  0  0
   -1.2761    1.9015   -0.1256 O   0  0  0  0  0  0  0  0  0  0  0  0
    0.4051    1.8919    1.3699 N   0  0  0  0  0  0  0  0  0  0  0  0
    1.1380    1.3380    1.7875 H   0  0  0  0  0  0  0  0  0  0  0  0
    0.3573    3.3183    1.6807 C   0  0  0  0  0  0  0  0  0  0  0  0
   -0.6670    3.6090    1.9198 H   0  0  0  0  0  0  0  0  0  0  0  0
    1.0066    3.5397    2.5289 H   0  0  0  0  0  0  0  0  0  0  0  0
    0.6896    3.8897    0.8118 H   0  0  0  0  0  0  0  0  0  0  0  0
  5  6  2  0  0  0  0
  5  7  1  0  0  0  0
  2  3  1  0  0  0  0
  2  4  1  0  0  0  0
  2  5  1  0  0  0  0
  1  2  1  0  0  0  0
 20 21  2  0  0  0  0
 20 22  1  0  0  0  0
 17 18  1  0  0  0  0
 17 19  2  0  0  0  0
 14 15  1  0  0  0  0
 14 16  1  0  0  0  0
 14 17  1  0  0  0  0
 11 12  1  0  0  0  0
 11 13  1  0  0  0  0
 11 14  1  0  0  0  0
  9 10  1  0  0  0  0
  9 11  1  0  0  0  0
  9 20  1  0  0  0  0
  7  8  1  0  0  0  0
  7  9  1  0  0  0  0
 24 25  1  0  0  0  0
 24 26  1  0  0  0  0
 24 27  1  0  0  0  0
 22 23  1  0  0  0  0
 22 24  1  0  0  0  0
M  CHG  1  18  -1
M  END
$$$$
default_name
  -OEChem-02102213163D

 27 26  0     1  0  0  0  0  0999 V2000
   -3.2406   -3.5400    1.2326 H   0  0  0  0  0  0  0  0  0  0  0  0
   -3.1436   -2.6190    0.6606 C   0  0  0  0  0  0  0  0  0  0  0  0
   -3.8786   -1.8920    0.9996 H   0  0  0  0  0  0  0  0  0  0  0  0
   -3.2846   -2.8280   -0.3984 H   0  0  0  0  0  0  0  0  0  0  0  0
   -1.7586   -2.0580    0.8686 C   0  0  0  0  0  0  0  0  0  0  0  0
   -0.9666   -2.6340    1.6026 O   0  0  0  0  0  0  0  0  0  0  0  0
   -1.4866   -0.9220    0.2366 N   0  0  0  0  0  0  0  0  0  0  0  0
   -2.2166   -0.4790   -0.2994 H   0  0  0  0  0  0  0  0  0  0  0  0
   -0.1956   -0.2250    0.2596 C   0  0  1  0  0  0  0  0  0  0  0  0
    0.3927   -0.6026    1.0964 H   0  0  0  0  0  0  0  0  0  0  0  0
    0.5767   -0.5489   -1.0351 C   0  0  0  0  0  0  0  0  0  0  0  0
    0.7658    0.3902   -1.5576 H   0  0  0  0  0  0  0  0  0  0  0  0
    1.5365   -0.9999   -0.7788 H   0  0  0  0  0  0  0  0  0  0  0  0
   -0.1855   -1.4896   -1.9835 C   0  0  0  0  0  0  0  0  0  0  0  0
   -1.0237   -1.9378   -1.4447 H   0  0  0  0  0  0  0  0  0  0  0  0
   -0.5927   -0.8931   -2.8042 H   0  0  0  0  0  0  0  0  0  0  0  0
    0.6877   -2.6141   -2.5595 C   0  0  0  0  0  0  0  0  0  0  0  0
    1.9177   -2.5884   -2.3291 O   0  5  0  0  0  0  0  0  0  0  0  0
    0.0976   -3.5058   -3.2091 O   0  0  0  0  0  0  0  0  0  0  0  0
   -0.3954    1.2887    0.4814 C   0  0  0  0  0  0  0  0  0  0  0  0
   -1.2761    1.9015   -0.1256 O   0  0  0  0  0  0  0  0  0  0  0  0
    0.4051    1.8919    1.3699 N   0  0  0  0  0  0  0  0  0  0  0  0
    1.1380    1.3380    1.7875 H   0  0  0  0  0  0  0  0  0  0  0  0
    0.3573    3.3183    1.6807 C   0  0  0  0  0  0  0  0  0  0  0  0
   -0.6670    3.6090    1.9198 H   0  0  0  0  0  0  0  0  0  0  0  0
    1.0066    3.5397    2.5289 H   0  0  0  0  0  0  0  0  0  0  0  0
    0.6896    3.8897    0.8118 H   0  0  0  0  0  0  0  0  0  0  0  0
  5  6  2  0  0  0  0
  5  7  1  0  0  0  0
  2  3  1  0  0  0  0
  2  4  1  0  0  0  0
  2  5  1  0  0  0  0
  1  2  1  0  0  0  0
 20 21  2  0  0  0  0
 20 22  1  0  0  0  0
 17 18  1  0  0  0  0
 17 19  2  0  0  0  0
 14 15  1  0  0  0  0
 14 16  1  0  0  0  0
 14 17  1  0  0  0  0
 11 12  1  0  0  0  0
 11 13  1  0  0  0  0
 11 14  1  0  0  0  0
  9 10  1  0  0  0  0
  9 11  1  0  0  0  0
  9 20  1  0  0  0  0
  7  8  1  0  0  0  0
  7  9  1  0  0  0  0
 24 25  1  0  0  0  0
 24 26  1  0  0  0  0
 24 27  1  0  0  0  0
 22 23  1  0  0  0  0
 22 24  1  0  0  0  0
M  CHG  1  18  -1
M  END
$$$$
default_name
  -OEChem-02102213163D

 27 26  0     1  0  0  0  0  0999 V2000
   -3.2406   -3.5400    1.2326 H   0  0  0  0  0  0  0  0  0  0  0  0
   -3.1436   -2.6190    0.6606 C   0  0  0  0  0  0  0  0  0  0  0  0
   -3.8786   -1.8920    0.9996 H   0  0  0  0  0  0  0  0  0  0  0  0
   -3.2846   -2.8280   -0.3984 H   0  0  0  0  0  0  0  0  0  0  0  0
   -1.7586   -2.0580    0.8686 C   0  0  0  0  0  0  0  0  0  0  0  0
   -0.9666   -2.6340    1.6026 O   0  0  0  0  0  0  0  0  0  0  0  0
   -1.4866   -0.9220    0.2366 N   0  0  0  0  0  0  0  0  0  0  0  0
   -2.2166   -0.4790   -0.2994 H   0  0  0  0  0  0  0  0  0  0  0  0
   -0.1956   -0.2250    0.2596 C   0  0  1  0  0  0  0  0  0  0  0  0
    0.3927   -0.6026    1.0964 H   0  0  0  0  0  0  0  0  0  0  0  0
    0.5767   -0.5489   -1.0351 C   0  0  0  0  0  0  0  0  0  0  0  0
    0.7658    0.3902   -1.5576 H   0  0  0  0  0  0  0  0  0  0  0  0
    1.5365   -0.9999   -0.7788 H   0  0  0  0  0  0  0  0  0  0  0  0
   -0.1855   -1.4896   -1.9835 C   0  0  0  0  0  0  0  0  0  0  0  0
   -1.1581   -1.7271   -1.5457 H   0  0  0  0  0  0  0  0  0  0  0  0
   -0.3595   -0.9609   -2.9245 H   0  0  0  0  0  0  0  0  0  0  0  0
    0.5594   -2.8018   -2.2703 C   0  0  0  0  0  0  0  0  0  0  0  0
    1.7280   -2.9277   -1.8401 O   0  5  0  0  0  0  0  0  0  0  0  0
   -0.0710   -3.6781   -2.9027 O   0  0  0  0  0  0  0  0  0  0  0  0
   -0.3954    1.2887    0.4814 C   0  0  0  0  0  0  0  0  0  0  0  0
   -1.2761    1.9015   -0.1256 O   0  0  0  0  0  0  0  0  0  0  0  0
    0.4051    1.8919    1.3699 N   0  0  0  0  0  0  0  0  0  0  0  0
    1.1380    1.3380    1.7875 H   0  0  0  0  0  0  0  0  0  0  0  0
    0.3573    3.3183    1.6807 C   0  0  0  0  0  0  0  0  0  0  0  0
   -0.6670    3.6090    1.9198 H   0  0  0  0  0  0  0  0  0  0  0  0
    1.0066    3.5397    2.5289 H   0  0  0  0  0  0  0  0  0  0  0  0
    0.6896    3.8897    0.8118 H   0  0  0  0  0  0  0  0  0  0  0  0
  5  6  2  0  0  0  0
  5  7  1  0  0  0  0
  2  3  1  0  0  0  0
  2  4  1  0  0  0  0
  2  5  1  0  0  0  0
  1  2  1  0  0  0  0
 20 21  2  0  0  0  0
 20 22  1  0  0  0  0
 17 18  1  0  0  0  0
 17 19  2  0  0  0  0
 14 15  1  0  0  0  0
 14 16  1  0  0  0  0
 14 17  1  0  0  0  0
 11 12  1  0  0  0  0
 11 13  1  0  0  0  0
 11 14  1  0  0  0  0
  9 10  1  0  0  0  0
  9 11  1  0  0  0  0
  9 20  1  0  0  0  0
  7  8  1  0  0  0  0
  7  9  1  0  0  0  0
 24 25  1  0  0  0  0
 24 26  1  0  0  0  0
 24 27  1  0  0  0  0
 22 23  1  0  0  0  0
 22 24  1  0  0  0  0
M  CHG  1  18  -1
M  END
$$$$
default_name
  -OEChem-02102213163D

 27 26  0     1  0  0  0  0  0999 V2000
   -3.2406   -3.5400    1.2326 H   0  0  0  0  0  0  0  0  0  0  0  0
   -3.1436   -2.6190    0.6606 C   0  0  0  0  0  0  0  0  0  0  0  0
   -3.8786   -1.8920    0.9996 H   0  0  0  0  0  0  0  0  0  0  0  0
   -3.2846   -2.8280   -0.3984 H   0  0  0  0  0  0  0  0  0  0  0  0
   -1.7586   -2.0580    0.8686 C   0  0  0  0  0  0  0  0  0  0  0  0
   -0.9666   -2.6340    1.6026 O   0  0  0  0  0  0  0  0  0  0  0  0
   -1.4866   -0.9220    0.2366 N   0  0  0  0  0  0  0  0  0  0  0  0
   -2.2166   -0.4790   -0.2994 H   0  0  0  0  0  0  0  0  0  0  0  0
   -0.1956   -0.2250    0.2596 C   0  0  1  0  0  0  0  0  0  0  0  0
    0.3927   -0.6026    1.0964 H   0  0  0  0  0  0  0  0  0  0  0  0
    0.5767   -0.5489   -1.0351 C   0  0  0  0  0  0  0  0  0  0  0  0
    0.7658    0.3902   -1.5576 H   0  0  0  0  0  0  0  0  0  0  0  0
    1.5365   -0.9999   -0.7788 H   0  0  0  0  0  0  0  0  0  0  0  0
   -0.1855   -1.4896   -1.9835 C   0  0  0  0  0  0  0  0  0  0  0  0
   -1.2382   -1.5150   -1.6917 H   0  0  0  0  0  0  0  0  0  0  0  0
   -0.1260   -1.0790   -2.9950 H   0  0  0  0  0  0  0  0  0  0  0  0
    0.3597   -2.9255   -1.9871 C   0  0  0  0  0  0  0  0  0  0  0  0
    1.4132   -3.1624   -1.3543 O   0  5  0  0  0  0  0  0  0  0  0  0
   -0.3099   -3.7782   -2.6114 O   0  0  0  0  0  0  0  0  0  0  0  0
   -0.3954    1.2887    0.4814 C   0  0  0  0  0  0  0  0  0  0  0  0
   -1.2761    1.9015   -0.1256 O   0  0  0  0  0  0  0  0  0  0  0  0
    0.4051    1.8919    1.3699 N   0  0  0  0  0  0  0  0  0  0  0  0
    1.1380    1.3380    1.7875 H   0  0  0  0  0  0  0  0  0  0  0  0
    0.3573    3.3183    1.6807 C   0  0  0  0  0  0  0  0  0  0  0  0
   -0.6670    3.6090    1.9198 H   0  0  0  0  0  0  0  0  0  0  0  0
    1.0066    3.5397    2.5289 H   0  0  0  0  0  0  0  0  0  0  0  0
    0.6896    3.8897    0.8118 H   0  0  0  0  0  0  0  0  0  0  0  0
  5  6  2  0  0  0  0
  5  7  1  0  0  0  0
  2  3  1  0  0  0  0
  2  4  1  0  0  0  0
  2  5  1  0  0  0  0
  1  2  1  0  0  0  0
 20 21  2  0  0  0  0
 20 22  1  0  0  0  0
 17 18  1  0  0  0  0
 17 19  2  0  0  0  0
 14 15  1  0  0  0  0
 14 16  1  0  0  0  0
 14 17  1  0  0  0  0
 11 12  1  0  0  0  0
 11 13  1  0  0  0  0
 11 14  1  0  0  0  0
  9 10  1  0  0  0  0
  9 11  1  0  0  0  0
  9 20  1  0  0  0  0
  7  8  1  0  0  0  0
  7  9  1  0  0  0  0
 24 25  1  0  0  0  0
 24 26  1  0  0  0  0
 24 27  1  0  0  0  0
 22 23  1  0  0  0  0
 22 24  1  0  0  0  0
M  CHG  1  18  -1
M  END
$$$$
default_name
  -OEChem-02102213163D

 27 26  0     1  0  0  0  0  0999 V2000
   -3.2406   -3.5400    1.2326 H   0  0  0  0  0  0  0  0  0  0  0  0
   -3.1436   -2.6190    0.6606 C   0  0  0  0  0  0  0  0  0  0  0  0
   -3.8786   -1.8920    0.9996 H   0  0  0  0  0  0  0  0  0  0  0  0
   -3.2846   -2.8280   -0.3984 H   0  0  0  0  0  0  0  0  0  0  0  0
   -1.7586   -2.0580    0.8686 C   0  0  0  0  0  0  0  0  0  0  0  0
   -0.9666   -2.6340    1.6026 O   0  0  0  0  0  0  0  0  0  0  0  0
   -1.4866   -0.9220    0.2366 N   0  0  0  0  0  0  0  0  0  0  0  0
   -2.2166   -0.4790   -0.2994 H   0  0  0  0  0  0  0  0  0  0  0  0
   -0.1956   -0.2250    0.2596 C   0  0  1  0  0  0  0  0  0  0  0  0
    0.3927   -0.6026    1.0964 H   0  0  0  0  0  0  0  0  0  0  0  0
    0.5767   -0.5489   -1.0351 C   0  0  0  0  0  0  0  0  0  0  0  0
    0.7658    0.3902   -1.5576 H   0  0  0  0  0  0  0  0  0  0  0  0
    1.5365   -0.9999   -0.7788 H   0  0  0  0  0  0  0  0  0  0  0  0
   -0.1855   -1.4896   -1.9835 C   0  0  0  0  0  0  0  0  0  0  0  0
   -1.2586   -1.3162   -1.8725 H   0  0  0  0  0  0  0  0  0  0  0  0
    0.0918   -1.2393   -3.0110 H   0  0  0  0  0  0  0  0  0  0  0  0
    0.1022   -2.9767   -1.7293 C   0  0  0  0  0  0  0  0  0  0  0  0
    0.9948   -3.2766   -0.9048 O   0  5  0  0  0  0  0  0  0  0  0  0
   -0.6027   -3.7994   -2.3550 O   0  0  0  0  0  0  0  0  0  0  0  0
   -0.3954    1.2887    0.4814 C   0  0  0  0  0  0  0  0  0  0  0  0
   -1.2761    1.9015   -0.1256 O   0  0  0  0  0  0  0  0  0  0  0  0
    0.4051    1.8919    1.3699 N   0  0  0  0  0  0  0  0  0  0  0  0
    1.1380    1.3380    1.7875 H   0  0  0  0  0  0  0  0  0  0  0  0
    0.3573    3.3183    1.6807 C   0  0  0  0  0  0  0  0  0  0  0  0
   -0.6670    3.6090    1.9198 H   0  0  0  0  0  0  0  0  0  0  0  0
    1.0066    3.5397    2.5289 H   0  0  0  0  0  0  0  0  0  0  0  0
    0.6896    3.8897    0.8118 H   0  0  0  0  0  0  0  0  0  0  0  0
  5  6  2  0  0  0  0
  5  7  1  0  0  0  0
  2  3  1  0  0  0  0
  2  4  1  0  0  0  0
  2  5  1  0  0  0  0
  1  2  1  0  0  0  0
 20 21  2  0  0  0  0
 20 22  1  0  0  0  0
 17 18  1  0  0  0  0
 17 19  2  0  0  0  0
 14 15  1  0  0  0  0
 14 16  1  0  0  0  0
 14 17  1  0  0  0  0
 11 12  1  0  0  0  0
 11 13  1  0  0  0  0
 11 14  1  0  0  0  0
  9 10  1  0  0  0  0
  9 11  1  0  0  0  0
  9 20  1  0  0  0  0
  7  8  1  0  0  0  0
  7  9  1  0  0  0  0
 24 25  1  0  0  0  0
 24 26  1  0  0  0  0
 24 27  1  0  0  0  0
 22 23  1  0  0  0  0
 22 24  1  0  0  0  0
M  CHG  1  18  -1
M  END
$$$$
default_name
  -OEChem-02102213163D

 27 26  0     1  0  0  0  0  0999 V2000
   -3.2406   -3.5400    1.2326 H   0  0  0  0  0  0  0  0  0  0  0  0
   -3.1436   -2.6190    0.6606 C   0  0  0  0  0  0  0  0  0  0  0  0
   -3.8786   -1.8920    0.9996 H   0  0  0  0  0  0  0  0  0  0  0  0
   -3.2846   -2.8280   -0.3984 H   0  0  0  0  0  0  0  0  0  0  0  0
   -1.7586   -2.0580    0.8686 C   0  0  0  0  0  0  0  0  0  0  0  0
   -0.9666   -2.6340    1.6026 O   0  0  0  0  0  0  0  0  0  0  0  0
   -1.4866   -0.9220    0.2366 N   0  0  0  0  0  0  0  0  0  0  0  0
   -2.2166   -0.4790   -0.2994 H   0  0  0  0  0  0  0  0  0  0  0  0
   -0.1956   -0.2250    0.2596 C   0  0  1  0  0  0  0  0  0  0  0  0
    0.3927   -0.6026    1.0964 H   0  0  0  0  0  0  0  0  0  0  0  0
    0.5767   -0.5489   -1.0351 C   0  0  0  0  0  0  0  0  0  0  0  0
    0.7658    0.3902   -1.5576 H   0  0  0  0  0  0  0  0  0  0  0  0
    1.5365   -0.9999   -0.7788 H   0  0  0  0  0  0  0  0  0  0  0  0
   -0.1855   -1.4896   -1.9835 C   0  0  0  0  0  0  0  0  0  0  0  0
   -1.2180   -1.1440   -2.0759 H   0  0  0  0  0  0  0  0  0  0  0  0
    0.2792   -1.4311   -2.9713 H   0  0  0  0  0  0  0  0  0  0  0  0
   -0.1955   -2.9521   -1.5145 C   0  0  0  0  0  0  0  0  0  0  0  0
    0.5013   -3.2624   -0.5222 O   0  5  0  0  0  0  0  0  0  0  0  0
   -0.9296   -3.7403   -2.1509 O   0  0  0  0  0  0  0  0  0  0  0  0
   -0.3954    1.2887    0.4814 C   0  0  0  0  0  0  0  0  0  0  0  0
   -1.2761    1.9015   -0.1256 O   0  0  0  0  0  0  0  0  0  0  0  0
    0.4051    1.8919    1.3699 N   0  0  0  0  0  0  0  0  0  0  0  0
    1.1380    1.3380    1.7875 H   0  0  0  0  0  0  0  0  0  0  0  0
    0.3573    3.3183    1.6807 C   0  0  0  0  0  0  0  0  0  0  0  0
   -0.6670    3.6090    1.9198 H   0  0  0  0  0  0  0  0  0  0  0  0
    1.0066    3.5397    2.5289 H   0  0  0  0  0  0  0  0  0  0  0  0
    0.6896    3.8897    0.8118 H   0  0  0  0  0  0  0  0  0  0  0  0
  5  6  2  0  0  0  0
  5  7  1  0  0  0  0
  2  3  1  0  0  0  0
  2  4  1  0  0  0  0
  2  5  1  0  0  0  0
  1  2  1  0  0  0  0
 20 21  2  0  0  0  0
 20 22  1  0  0  0  0
 17 18  1  0  0  0  0
 17 19  2  0  0  0  0
 14 15  1  0  0  0  0
 14 16  1  0  0  0  0
 14 17  1  0  0  0  0
 11 12  1  0  0  0  0
 11 13  1  0  0  0  0
 11 14  1  0  0  0  0
  9 10  1  0  0  0  0
  9 11  1  0  0  0  0
  9 20  1  0  0  0  0
  7  8  1  0  0  0  0
  7  9  1  0  0  0  0
 24 25  1  0  0  0  0
 24 26  1  0  0  0  0
 24 27  1  0  0  0  0
 22 23  1  0  0  0  0
 22 24  1  0  0  0  0
M  CHG  1  18  -1
M  END
$$$$
default_name
  -OEChem-02102213163D

 27 26  0     1  0  0  0  0  0999 V2000
   -3.2406   -3.5400    1.2326 H   0  0  0  0  0  0  0  0  0  0  0  0
   -3.1436   -2.6190    0.6606 C   0  0  0  0  0  0  0  0  0  0  0  0
   -3.8786   -1.8920    0.9996 H   0  0  0  0  0  0  0  0  0  0  0  0
   -3.2846   -2.8280   -0.3984 H   0  0  0  0  0  0  0  0  0  0  0  0
   -1.7586   -2.0580    0.8686 C   0  0  0  0  0  0  0  0  0  0  0  0
   -0.9666   -2.6340    1.6026 O   0  0  0  0  0  0  0  0  0  0  0  0
   -1.4866   -0.9220    0.2366 N   0  0  0  0  0  0  0  0  0  0  0  0
   -2.2166   -0.4790   -0.2994 H   0  0  0  0  0  0  0  0  0  0  0  0
   -0.1956   -0.2250    0.2596 C   0  0  1  0  0  0  0  0  0  0  0  0
    0.3927   -0.6026    1.0964 H   0  0  0  0  0  0  0  0  0  0  0  0
    0.5767   -0.5489   -1.0351 C   0  0  0  0  0  0  0  0  0  0  0  0
    0.7658    0.3902   -1.5576 H   0  0  0  0  0  0  0  0  0  0  0  0
    1.5365   -0.9999   -0.7788 H   0  0  0  0  0  0  0  0  0  0  0  0
   -0.1855   -1.4896   -1.9835 C   0  0  0  0  0  0  0  0  0  0  0  0
   -1.1190   -1.0103   -2.2881 H   0  0  0  0  0  0  0  0  0  0  0  0
    0.4233   -1.6411   -2.8788 H   0  0  0  0  0  0  0  0  0  0  0  0
   -0.5132   -2.8532   -1.3573 C   0  0  0  0  0  0  0  0  0  0  0  0
   -0.0338   -3.1209   -0.2325 O   0  5  0  0  0  0  0  0  0  0  0  0
   -1.2681   -3.6049   -2.0132 O   0  0  0  0  0  0  0  0  0  0  0  0
   -0.3954    1.2887    0.4814 C   0  0  0  0  0  0  0  0  0  0  0  0
   -1.2761    1.9015   -0.1256 O   0  0  0  0  0  0  0  0  0  0  0  0
    0.4051    1.8919    1.3699 N   0  0  0  0  0  0  0  0  0  0  0  0
    1.1380    1.3380    1.7875 H   0  0  0  0  0  0  0  0  0  0  0  0
    0.3573    3.3183    1.6807 C   0  0  0  0  0  0  0  0  0  0  0  0
   -0.6670    3.6090    1.9198 H   0  0  0  0  0  0  0  0  0  0  0  0
    1.0066    3.5397    2.5289 H   0  0  0  0  0  0  0  0  0  0  0  0
    0.6896    3.8897    0.8118 H   0  0  0  0  0  0  0  0  0  0  0  0
  5  6  2  0  0  0  0
  5  7  1  0  0  0  0
  2  3  1  0  0  0  0
  2  4  1  0  0  0  0
  2  5  1  0  0  0  0
  1  2  1  0  0  0  0
 20 21  2  0  0  0  0
 20 22  1  0  0  0  0
 17 18  1  0  0  0  0
 17 19  2  0  0  0  0
 14 15  1  0  0  0  0
 14 16  1  0  0  0  0
 14 17  1  0  0  0  0
 11 12  1  0  0  0  0
 11 13  1  0  0  0  0
 11 14  1  0  0  0  0
  9 10  1  0  0  0  0
  9 11  1  0  0  0  0
  9 20  1  0  0  0  0
  7  8  1  0  0  0  0
  7  9  1  0  0  0  0
 24 25  1  0  0  0  0
 24 26  1  0  0  0  0
 24 27  1  0  0  0  0
 22 23  1  0  0  0  0
 22 24  1  0  0  0  0
M  CHG  1  18  -1
M  END
$$$$
default_name
  -OEChem-02102213163D

 27 26  0     1  0  0  0  0  0999 V2000
   -3.2406   -3.5400    1.2326 H   0  0  0  0  0  0  0  0  0  0  0  0
   -3.1436   -2.6190    0.6606 C   0  0  0  0  0  0  0  0  0  0  0  0
   -3.8786   -1.8920    0.9996 H   0  0  0  0  0  0  0  0  0  0  0  0
   -3.2846   -2.8280   -0.3984 H   0  0  0  0  0  0  0  0  0  0  0  0
   -1.7586   -2.0580    0.8686 C   0  0  0  0  0  0  0  0  0  0  0  0
   -0.9666   -2.6340    1.6026 O   0  0  0  0  0  0  0  0  0  0  0  0
   -1.4866   -0.9220    0.2366 N   0  0  0  0  0  0  0  0  0  0  0  0
   -2.2166   -0.4790   -0.2994 H   0  0  0  0  0  0  0  0  0  0  0  0
   -0.1956   -0.2250    0.2596 C   0  0  1  0  0  0  0  0  0  0  0  0
    0.3927   -0.6026    1.0964 H   0  0  0  0  0  0  0  0  0  0  0  0
    0.5767   -0.5489   -1.0351 C   0  0  0  0  0  0  0  0  0  0  0  0
    0.7658    0.3902   -1.5576 H   0  0  0  0  0  0  0  0  0  0  0  0
    1.5365   -0.9999   -0.7788 H   0  0  0  0  0  0  0  0  0  0  0  0
   -0.1855   -1.4896   -1.9835 C   0  0  0  0  0  0  0  0  0  0  0  0
   -0.9686   -0.9242   -2.4944 H   0  0  0  0  0  0  0  0  0  0  0  0
    0.5143   -1.8551   -2.7397 H   0  0  0  0  0  0  0  0  0  0  0  0
   -0.8291   -2.6868   -1.2684 C   0  0  0  0  0  0  0  0  0  0  0  0
   -0.5738   -2.8616   -0.0556 O   0  5  0  0  0  0  0  0  0  0  0  0
   -1.5954   -3.4024   -1.9511 O   0  0  0  0  0  0  0  0  0  0  0  0
   -0.3954    1.2887    0.4814 C   0  0  0  0  0  0  0  0  0  0  0  0
   -1.2761    1.9015   -0.1256 O   0  0  0  0  0  0  0  0  0  0  0  0
    0.4051    1.8919    1.3699 N   0  0  0  0  0  0  0  0  0  0  0  0
    1.1380    1.3380    1.7875 H   0  0  0  0  0  0  0  0  0  0  0  0
    0.3573    3.3183    1.6807 C   0  0  0  0  0  0  0  0  0  0  0  0
   -0.6670    3.6090    1.9198 H   0  0  0  0  0  0  0  0  0  0  0  0
    1.0066    3.5397    2.5289 H   0  0  0  0  0  0  0  0  0  0  0  0
    0.6896    3.8897    0.8118 H   0  0  0  0  0  0  0  0  0  0  0  0
  5  6  2  0  0  0  0
  5  7  1  0  0  0  0
  2  3  1  0  0  0  0
  2  4  1  0  0  0  0
  2  5  1  0  0  0  0
  1  2  1  0  0  0  0
 20 21  2  0  0  0  0
 20 22  1  0  0  0  0
 17 18  1  0  0  0  0
 17 19  2  0  0  0  0
 14 15  1  0  0  0  0
 14 16  1  0  0  0  0
 14 17  1  0  0  0  0
 11 12  1  0  0  0  0
 11 13  1  0  0  0  0
 11 14  1  0  0  0  0
  9 10  1  0  0  0  0
  9 11  1  0  0  0  0
  9 20  1  0  0  0  0
  7  8  1  0  0  0  0
  7  9  1  0  0  0  0
 24 25  1  0  0  0  0
 24 26  1  0  0  0  0
 24 27  1  0  0  0  0
 22 23  1  0  0  0  0
 22 24  1  0  0  0  0
M  CHG  1  18  -1
M  END
$$$$
default_name
  -OEChem-02102213163D

 27 26  0     1  0  0  0  0  0999 V2000
   -3.2406   -3.5400    1.2326 H   0  0  0  0  0  0  0  0  0  0  0  0
   -3.1436   -2.6190    0.6606 C   0  0  0  0  0  0  0  0  0  0  0  0
   -3.8786   -1.8920    0.9996 H   0  0  0  0  0  0  0  0  0  0  0  0
   -3.2846   -2.8280   -0.3984 H   0  0  0  0  0  0  0  0  0  0  0  0
   -1.7586   -2.0580    0.8686 C   0  0  0  0  0  0  0  0  0  0  0  0
   -0.9666   -2.6340    1.6026 O   0  0  0  0  0  0  0  0  0  0  0  0
   -1.4866   -0.9220    0.2366 N   0  0  0  0  0  0  0  0  0  0  0  0
   -2.2166   -0.4790   -0.2994 H   0  0  0  0  0  0  0  0  0  0  0  0
   -0.1956   -0.2250    0.2596 C   0  0  1  0  0  0  0  0  0  0  0  0
    0.3927   -0.6026    1.0964 H   0  0  0  0  0  0  0  0  0  0  0  0
    0.5767   -0.5489   -1.0351 C   0  0  0  0  0  0  0  0  0  0  0  0
    0.7658    0.3902   -1.5576 H   0  0  0  0  0  0  0  0  0  0  0  0
    1.5365   -0.9999   -0.7788 H   0  0  0  0  0  0  0  0  0  0  0  0
   -0.1855   -1.4896   -1.9835 C   0  0  0  0  0  0  0  0  0  0  0  0
   -0.7768   -0.8914   -2.6810 H   0  0  0  0  0  0  0  0  0  0  0  0
    0.5460   -2.0585   -2.5635 H   0  0  0  0  0  0  0  0  0  0  0  0
   -1.1217   -2.4643   -1.2539 C   0  0  0  0  0  0  0  0  0  0  0  0
   -1.0821   -2.5024   -0.0035 O   0  5  0  0  0  0  0  0  0  0  0  0
   -1.8890   -3.1465   -1.9689 O   0  0  0  0  0  0  0  0  0  0  0  0
   -0.3954    1.2887    0.4814 C   0  0  0  0  0  0  0  0  0  0  0  0
   -1.2761    1.9015   -0.1256 O   0  0  0  0  0  0  0  0  0  0  0  0
    0.4051    1.8919    1.3699 N   0  0  0  0  0  0  0  0  0  0  0  0
    1.1380    1.3380    1.7875 H   0  0  0  0  0  0  0  0  0  0  0  0
    0.3573    3.3183    1.6807 C   0  0  0  0  0  0  0  0  0  0  0  0
   -0.6670    3.6090    1.9198 H   0  0  0  0  0  0  0  0  0  0  0  0
    1.0066    3.5397    2.5289 H   0  0  0  0  0  0  0  0  0  0  0  0
    0.6896    3.8897    0.8118 H   0  0  0  0  0  0  0  0  0  0  0  0
  5  6  2  0  0  0  0
  5  7  1  0  0  0  0
  2  3  1  0  0  0  0
  2  4  1  0  0  0  0
  2  5  1  0  0  0  0
  1  2  1  0  0  0  0
 20 21  2  0  0  0  0
 20 22  1  0  0  0  0
 17 18  1  0  0  0  0
 17 19  2  0  0  0  0
 14 15  1  0  0  0  0
 14 16  1  0  0  0  0
 14 17  1  0  0  0  0
 11 12  1  0  0  0  0
 11 13  1  0  0  0  0
 11 14  1  0  0  0  0
  9 10  1  0  0  0  0
  9 11  1  0  0  0  0
  9 20  1  0  0  0  0
  7  8  1  0  0  0  0
  7  9  1  0  0  0  0
 24 25  1  0  0  0  0
 24 26  1  0  0  0  0
 24 27  1  0  0  0  0
 22 23  1  0  0  0  0
 22 24  1  0  0  0  0
M  CHG  1  18  -1
M  END
$$$$
default_name
  -OEChem-02102213163D

 27 26  0     1  0  0  0  0  0999 V2000
   -3.2406   -3.5400    1.2326 H   0  0  0  0  0  0  0  0  0  0  0  0
   -3.1436   -2.6190    0.6606 C   0  0  0  0  0  0  0  0  0  0  0  0
   -3.8786   -1.8920    0.9996 H   0  0  0  0  0  0  0  0  0  0  0  0
   -3.2846   -2.8280   -0.3984 H   0  0  0  0  0  0  0  0  0  0  0  0
   -1.7586   -2.0580    0.8686 C   0  0  0  0  0  0  0  0  0  0  0  0
   -0.9666   -2.6340    1.6026 O   0  0  0  0  0  0  0  0  0  0  0  0
   -1.4866   -0.9220    0.2366 N   0  0  0  0  0  0  0  0  0  0  0  0
   -2.2166   -0.4790   -0.2994 H   0  0  0  0  0  0  0  0  0  0  0  0
   -0.1956   -0.2250    0.2596 C   0  0  1  0  0  0  0  0  0  0  0  0
    0.3927   -0.6026    1.0964 H   0  0  0  0  0  0  0  0  0  0  0  0
    0.5767   -0.5489   -1.0351 C   0  0  0  0  0  0  0  0  0  0  0  0
    0.7658    0.3902   -1.5576 H   0  0  0  0  0  0  0  0  0  0  0  0
    1.5365   -0.9999   -0.7788 H   0  0  0  0  0  0  0  0  0  0  0  0
   -0.1855   -1.4896   -1.9835 C   0  0  0  0  0  0  0  0  0  0  0  0
   -0.5568   -0.9144   -2.8351 H   0  0  0  0  0  0  0  0  0  0  0  0
    0.5163   -2.2374   -2.3622 H   0  0  0  0  0  0  0  0  0  0  0  0
   -1.3712   -2.2008   -1.3148 C   0  0  0  0  0  0  0  0  0  0  0  0
   -1.5240   -2.0675   -0.0797 O   0  5  0  0  0  0  0  0  0  0  0  0
   -2.1289   -2.8549   -2.0653 O   0  0  0  0  0  0  0  0  0  0  0  0
   -0.3954    1.2887    0.4814 C   0  0  0  0  0  0  0  0  0  0  0  0
   -1.2761    1.9015   -0.1256 O   0  0  0  0  0  0  0  0  0  0  0  0
    0.4051    1.8919    1.3699 N   0  0  0  0  0  0  0  0  0  0  0  0
    1.1380    1.3380    1.7875 H   0  0  0  0  0  0  0  0  0  0  0  0
    0.3573    3.3183    1.6807 C   0  0  0  0  0  0  0  0  0  0  0  0
   -0.6670    3.6090    1.9198 H   0  0  0  0  0  0  0  0  0  0  0  0
    1.0066    3.5397    2.5289 H   0  0  0  0  0  0  0  0  0  0  0  0
    0.6896    3.8897    0.8118 H   0  0  0  0  0  0  0  0  0  0  0  0
  5  6  2  0  0  0  0
  5  7  1  0  0  0  0
  2  3  1  0  0  0  0
  2  4  1  0  0  0  0
  2  5  1  0  0  0  0
  1  2  1  0  0  0  0
 20 21  2  0  0  0  0
 20 22  1  0  0  0  0
 17 18  1  0  0  0  0
 17 19  2  0  0  0  0
 14 15  1  0  0  0  0
 14 16  1  0  0  0  0
 14 17  1  0  0  0  0
 11 12  1  0  0  0  0
 11 13  1  0  0  0  0
 11 14  1  0  0  0  0
  9 10  1  0  0  0  0
  9 11  1  0  0  0  0
  9 20  1  0  0  0  0
  7  8  1  0  0  0  0
  7  9  1  0  0  0  0
 24 25  1  0  0  0  0
 24 26  1  0  0  0  0
 24 27  1  0  0  0  0
 22 23  1  0  0  0  0
 22 24  1  0  0  0  0
M  CHG  1  18  -1
M  END
$$$$
default_name
  -OEChem-02102213163D

 27 26  0     1  0  0  0  0  0999 V2000
   -3.2406   -3.5400    1.2326 H   0  0  0  0  0  0  0  0  0  0  0  0
   -3.1436   -2.6190    0.6606 C   0  0  0  0  0  0  0  0  0  0  0  0
   -3.8786   -1.8920    0.9996 H   0  0  0  0  0  0  0  0  0  0  0  0
   -3.2846   -2.8280   -0.3984 H   0  0  0  0  0  0  0  0  0  0  0  0
   -1.7586   -2.0580    0.8686 C   0  0  0  0  0  0  0  0  0  0  0  0
   -0.9666   -2.6340    1.6026 O   0  0  0  0  0  0  0  0  0  0  0  0
   -1.4866   -0.9220    0.2366 N   0  0  0  0  0  0  0  0  0  0  0  0
   -2.2166   -0.4790   -0.2994 H   0  0  0  0  0  0  0  0  0  0  0  0
   -0.1956   -0.2250    0.2596 C   0  0  1  0  0  0  0  0  0  0  0  0
    0.3927   -0.6026    1.0964 H   0  0  0  0  0  0  0  0  0  0  0  0
    0.5767   -0.5489   -1.0351 C   0  0  0  0  0  0  0  0  0  0  0  0
    0.7658    0.3902   -1.5576 H   0  0  0  0  0  0  0  0  0  0  0  0
    1.5365   -0.9999   -0.7788 H   0  0  0  0  0  0  0  0  0  0  0  0
   -0.1855   -1.4896   -1.9835 C   0  0  0  0  0  0  0  0  0  0  0  0
   -0.3236   -0.9914   -2.9462 H   0  0  0  0  0  0  0  0  0  0  0  0
    0.4272   -2.3796   -2.1495 H   0  0  0  0  0  0  0  0  0  0  0  0
   -1.5605   -1.9143   -1.4469 C   0  0  0  0  0  0  0  0  0  0  0  0
   -1.8694   -1.5867   -0.2791 O   0  5  0  0  0  0  0  0  0  0  0  0
   -2.2989   -2.5472   -2.2339 O   0  0  0  0  0  0  0  0  0  0  0  0
   -0.3954    1.2887    0.4814 C   0  0  0  0  0  0  0  0  0  0  0  0
   -1.2761    1.9015   -0.1256 O   0  0  0  0  0  0  0  0  0  0  0  0
    0.4051    1.8919    1.3699 N   0  0  0  0  0  0  0  0  0  0  0  0
    1.1380    1.3380    1.7875 H   0  0  0  0  0  0  0  0  0  0  0  0
    0.3573    3.3183    1.6807 C   0  0  0  0  0  0  0  0  0  0  0  0
   -0.6670    3.6090    1.9198 H   0  0  0  0  0  0  0  0  0  0  0  0
    1.0066    3.5397    2.5289 H   0  0  0  0  0  0  0  0  0  0  0  0
    0.6896    3.8897    0.8118 H   0  0  0  0  0  0  0  0  0  0  0  0
  5  6  2  0  0  0  0
  5  7  1  0  0  0  0
  2  3  1  0  0  0  0
  2  4  1  0  0  0  0
  2  5  1  0  0  0  0
  1  2  1  0  0  0  0
 20 21  2  0  0  0  0
 20 22  1  0  0  0  0
 17 18  1  0  0  0  0
 17 19  2  0  0  0  0
 14 15  1  0  0  0  0
 14 16  1  0  0  0  0
 14 17  1  0  0  0  0
 11 12  1  0  0  0  0
 11 13  1  0  0  0  0
 11 14  1  0  0  0  0
  9 10  1  0  0  0  0
  9 11  1  0  0  0  0
  9 20  1  0  0  0  0
  7  8  1  0  0  0  0
  7  9  1  0  0  0  0
 24 25  1  0  0  0  0
 24 26  1  0  0  0  0
 24 27  1  0  0  0  0
 22 23  1  0  0  0  0
 22 24  1  0  0  0  0
M  CHG  1  18  -1
M  END
$$$$
default_name
  -OEChem-02102213163D

 27 26  0     1  0  0  0  0  0999 V2000
   -3.2406   -3.5400    1.2326 H   0  0  0  0  0  0  0  0  0  0  0  0
   -3.1436   -2.6190    0.6606 C   0  0  0  0  0  0  0  0  0  0  0  0
   -3.8786   -1.8920    0.9996 H   0  0  0  0  0  0  0  0  0  0  0  0
   -3.2846   -2.8280   -0.3984 H   0  0  0  0  0  0  0  0  0  0  0  0
   -1.7586   -2.0580    0.8686 C   0  0  0  0  0  0  0  0  0  0  0  0
   -0.9666   -2.6340    1.6026 O   0  0  0  0  0  0  0  0  0  0  0  0
   -1.4866   -0.9220    0.2366 N   0  0  0  0  0  0  0  0  0  0  0  0
   -2.2166   -0.4790   -0.2994 H   0  0  0  0  0  0  0  0  0  0  0  0
   -0.1956   -0.2250    0.2596 C   0  0  1  0  0  0  0  0  0  0  0  0
    0.3927   -0.6026    1.0964 H   0  0  0  0  0  0  0  0  0  0  0  0
    0.5767   -0.5489   -1.0351 C   0  0  0  0  0  0  0  0  0  0  0  0
    0.7658    0.3902   -1.5576 H   0  0  0  0  0  0  0  0  0  0  0  0
    1.5365   -0.9999   -0.7788 H   0  0  0  0  0  0  0  0  0  0  0  0
   -0.1855   -1.4896   -1.9835 C   0  0  0  0  0  0  0  0  0  0  0  0
   -0.0930   -1.1173   -3.0066 H   0  0  0  0  0  0  0  0  0  0  0  0
    0.2848   -2.4755   -1.9398 H   0  0  0  0  0  0  0  0  0  0  0  0
   -1.6767   -1.6242   -1.6412 C   0  0  0  0  0  0  0  0  0  0  0  0
   -2.0947   -1.0927   -0.5880 O   0  5  0  0  0  0  0  0  0  0  0  0
   -2.3872   -2.2445   -2.4632 O   0  0  0  0  0  0  0  0  0  0  0  0
   -0.3954    1.2887    0.4814 C   0  0  0  0  0  0  0  0  0  0  0  0
   -1.2761    1.9015   -0.1256 O   0  0  0  0  0  0  0  0  0  0  0  0
    0.4051    1.8919    1.3699 N   0  0  0  0  0  0  0  0  0  0  0  0
    1.1380    1.3380    1.7875 H   0  0  0  0  0  0  0  0  0  0  0  0
    0.3573    3.3183    1.6807 C   0  0  0  0  0  0  0  0  0  0  0  0
   -0.6670    3.6090    1.9198 H   0  0  0  0  0  0  0  0  0  0  0  0
    1.0066    3.5397    2.5289 H   0  0  0  0  0  0  0  0  0  0  0  0
    0.6896    3.8897    0.8118 H   0  0  0  0  0  0  0  0  0  0  0  0
  5  6  2  0  0  0  0
  5  7  1  0  0  0  0
  2  3  1  0  0  0  0
  2  4  1  0  0  0  0
  2  5  1  0  0  0  0
  1  2  1  0  0  0  0
 20 21  2  0  0  0  0
 20 22  1  0  0  0  0
 17 18  1  0  0  0  0
 17 19  2  0  0  0  0
 14 15  1  0  0  0  0
 14 16  1  0  0  0  0
 14 17  1  0  0  0  0
 11 12  1  0  0  0  0
 11 13  1  0  0  0  0
 11 14  1  0  0  0  0
  9 10  1  0  0  0  0
  9 11  1  0  0  0  0
  9 20  1  0  0  0  0
  7  8  1  0  0  0  0
  7  9  1  0  0  0  0
 24 25  1  0  0  0  0
 24 26  1  0  0  0  0
 24 27  1  0  0  0  0
 22 23  1  0  0  0  0
 22 24  1  0  0  0  0
M  CHG  1  18  -1
M  END
$$$$
default_name
  -OEChem-02102213163D

 27 26  0     1  0  0  0  0  0999 V2000
   -3.2406   -3.5400    1.2326 H   0  0  0  0  0  0  0  0  0  0  0  0
   -3.1436   -2.6190    0.6606 C   0  0  0  0  0  0  0  0  0  0  0  0
   -3.8786   -1.8920    0.9996 H   0  0  0  0  0  0  0  0  0  0  0  0
   -3.2846   -2.8280   -0.3984 H   0  0  0  0  0  0  0  0  0  0  0  0
   -1.7586   -2.0580    0.8686 C   0  0  0  0  0  0  0  0  0  0  0  0
   -0.9666   -2.6340    1.6026 O   0  0  0  0  0  0  0  0  0  0  0  0
   -1.4866   -0.9220    0.2366 N   0  0  0  0  0  0  0  0  0  0  0  0
   -2.2166   -0.4790   -0.2994 H   0  0  0  0  0  0  0  0  0  0  0  0
   -0.1956   -0.2250    0.2596 C   0  0  1  0  0  0  0  0  0  0  0  0
    0.3927   -0.6026    1.0964 H   0  0  0  0  0  0  0  0  0  0  0  0
    0.5767   -0.5489   -1.0351 C   0  0  0  0  0  0  0  0  0  0  0  0
    0.7658    0.3902   -1.5576 H   0  0  0  0  0  0  0  0  0  0  0  0
    1.5365   -0.9999   -0.7788 H   0  0  0  0  0  0  0  0  0  0  0  0
   -0.1855   -1.4896   -1.9835 C   0  0  0  0  0  0  0  0  0  0  0  0
    0.1192   -1.2834   -3.0124 H   0  0  0  0  0  0  0  0  0  0  0  0
    0.0987   -2.5185   -1.7476 H   0  0  0  0  0  0  0  0  0  0  0  0
   -1.7119   -1.3504   -1.8845 C   0  0  0  0  0  0  0  0  0  0  0  0
   -2.1846   -0.6192   -0.9854 O   0  5  0  0  0  0  0  0  0  0  0  0
   -2.3880   -1.9674   -2.7374 O   0  0  0  0  0  0  0  0  0  0  0  0
   -0.3954    1.2887    0.4814 C   0  0  0  0  0  0  0  0  0  0  0  0
   -1.2761    1.9015   -0.1256 O   0  0  0  0  0  0  0  0  0  0  0  0
    0.4051    1.8919    1.3699 N   0  0  0  0  0  0  0  0  0  0  0  0
    1.1380    1.3380    1.7875 H   0  0  0  0  0  0  0  0  0  0  0  0
    0.3573    3.3183    1.6807 C   0  0  0  0  0  0  0  0  0  0  0  0
   -0.6670    3.6090    1.9198 H   0  0  0  0  0  0  0  0  0  0  0  0
    1.0066    3.5397    2.5289 H   0  0  0  0  0  0  0  0  0  0  0  0
    0.6896    3.8897    0.8118 H   0  0  0  0  0  0  0  0  0  0  0  0
  5  6  2  0  0  0  0
  5  7  1  0  0  0  0
  2  3  1  0  0  0  0
  2  4  1  0  0  0  0
  2  5  1  0  0  0  0
  1  2  1  0  0  0  0
 20 21  2  0  0  0  0
 20 22  1  0  0  0  0
 17 18  1  0  0  0  0
 17 19  2  0  0  0  0
 14 15  1  0  0  0  0
 14 16  1  0  0  0  0
 14 17  1  0  0  0  0
 11 12  1  0  0  0  0
 11 13  1  0  0  0  0
 11 14  1  0  0  0  0
  9 10  1  0  0  0  0
  9 11  1  0  0  0  0
  9 20  1  0  0  0  0
  7  8  1  0  0  0  0
  7  9  1  0  0  0  0
 24 25  1  0  0  0  0
 24 26  1  0  0  0  0
 24 27  1  0  0  0  0
 22 23  1  0  0  0  0
 22 24  1  0  0  0  0
M  CHG  1  18  -1
M  END
$$$$
default_name
  -OEChem-02102213163D

 27 26  0     1  0  0  0  0  0999 V2000
   -3.2406   -3.5400    1.2326 H   0  0  0  0  0  0  0  0  0  0  0  0
   -3.1436   -2.6190    0.6606 C   0  0  0  0  0  0  0  0  0  0  0  0
   -3.8786   -1.8920    0.9996 H   0  0  0  0  0  0  0  0  0  0  0  0
   -3.2846   -2.8280   -0.3984 H   0  0  0  0  0  0  0  0  0  0  0  0
   -1.7586   -2.0580    0.8686 C   0  0  0  0  0  0  0  0  0  0  0  0
   -0.9666   -2.6340    1.6026 O   0  0  0  0  0  0  0  0  0  0  0  0
   -1.4866   -0.9220    0.2366 N   0  0  0  0  0  0  0  0  0  0  0  0
   -2.2166   -0.4790   -0.2994 H   0  0  0  0  0  0  0  0  0  0  0  0
   -0.1956   -0.2250    0.2596 C   0  0  1  0  0  0  0  0  0  0  0  0
    0.3927   -0.6026    1.0964 H   0  0  0  0  0  0  0  0  0  0  0  0
    0.5767   -0.5489   -1.0351 C   0  0  0  0  0  0  0  0  0  0  0  0
    0.7658    0.3902   -1.5576 H   0  0  0  0  0  0  0  0  0  0  0  0
    1.5365   -0.9999   -0.7788 H   0  0  0  0  0  0  0  0  0  0  0  0
   -0.1855   -1.4896   -1.9835 C   0  0  0  0  0  0  0  0  0  0  0  0
    0.2986   -1.4785   -2.9630 H   0  0  0  0  0  0  0  0  0  0  0  0
   -0.1183   -2.5057   -1.5859 H   0  0  0  0  0  0  0  0  0  0  0  0
   -1.6636   -1.1116   -2.1601 C   0  0  0  0  0  0  0  0  0  0  0  0
   -2.1329   -0.1985   -1.4442 O   0  5  0  0  0  0  0  0  0  0  0  0
   -2.3011   -1.7349   -3.0379 O   0  0  0  0  0  0  0  0  0  0  0  0
   -0.3954    1.2887    0.4814 C   0  0  0  0  0  0  0  0  0  0  0  0
   -1.2761    1.9015   -0.1256 O   0  0  0  0  0  0  0  0  0  0  0  0
    0.4051    1.8919    1.3699 N   0  0  0  0  0  0  0  0  0  0  0  0
    1.1380    1.3380    1.7875 H   0  0  0  0  0  0  0  0  0  0  0  0
    0.3573    3.3183    1.6807 C   0  0  0  0  0  0  0  0  0  0  0  0
   -0.6670    3.6090    1.9198 H   0  0  0  0  0  0  0  0  0  0  0  0
    1.0066    3.5397    2.5289 H   0  0  0  0  0  0  0  0  0  0  0  0
    0.6896    3.8897    0.8118 H   0  0  0  0  0  0  0  0  0  0  0  0
  5  6  2  0  0  0  0
  5  7  1  0  0  0  0
  2  3  1  0  0  0  0
  2  4  1  0  0  0  0
  2  5  1  0  0  0  0
  1  2  1  0  0  0  0
 20 21  2  0  0  0  0
 20 22  1  0  0  0  0
 17 18  1  0  0  0  0
 17 19  2  0  0  0  0
 14 15  1  0  0  0  0
 14 16  1  0  0  0  0
 14 17  1  0  0  0  0
 11 12  1  0  0  0  0
 11 13  1  0  0  0  0
 11 14  1  0  0  0  0
  9 10  1  0  0  0  0
  9 11  1  0  0  0  0
  9 20  1  0  0  0  0
  7  8  1  0  0  0  0
  7  9  1  0  0  0  0
 24 25  1  0  0  0  0
 24 26  1  0  0  0  0
 24 27  1  0  0  0  0
 22 23  1  0  0  0  0
 22 24  1  0  0  0  0
M  CHG  1  18  -1
M  END
$$$$
default_name
  -OEChem-02102213163D

 27 26  0     1  0  0  0  0  0999 V2000
   -3.2406   -3.5400    1.2326 H   0  0  0  0  0  0  0  0  0  0  0  0
   -3.1436   -2.6190    0.6606 C   0  0  0  0  0  0  0  0  0  0  0  0
   -3.8786   -1.8920    0.9996 H   0  0  0  0  0  0  0  0  0  0  0  0
   -3.2846   -2.8280   -0.3984 H   0  0  0  0  0  0  0  0  0  0  0  0
   -1.7586   -2.0580    0.8686 C   0  0  0  0  0  0  0  0  0  0  0  0
   -0.9666   -2.6340    1.6026 O   0  0  0  0  0  0  0  0  0  0  0  0
   -1.4866   -0.9220    0.2366 N   0  0  0  0  0  0  0  0  0  0  0  0
   -2.2166   -0.4790   -0.2994 H   0  0  0  0  0  0  0  0  0  0  0  0
   -0.1956   -0.2250    0.2596 C   0  0  1  0  0  0  0  0  0  0  0  0
    0.3927   -0.6026    1.0964 H   0  0  0  0  0  0  0  0  0  0  0  0
    0.5767   -0.5489   -1.0351 C   0  0  0  0  0  0  0  0  0  0  0  0
    0.7658    0.3902   -1.5576 H   0  0  0  0  0  0  0  0  0  0  0  0
    1.5365   -0.9999   -0.7788 H   0  0  0  0  0  0  0  0  0  0  0  0
   -0.1855   -1.4896   -1.9835 C   0  0  0  0  0  0  0  0  0  0  0  0
    0.4329   -1.6892   -2.8620 H   0  0  0  0  0  0  0  0  0  0  0  0
   -0.3515   -2.4380   -1.4657 H   0  0  0  0  0  0  0  0  0  0  0  0
   -1.5353   -0.9239   -2.4494 C   0  0  0  0  0  0  0  0  0  0  0  0
   -1.9432    0.1407   -1.9332 O   0  5  0  0  0  0  0  0  0  0  0  0
   -2.1324   -1.5627   -3.3443 O   0  0  0  0  0  0  0  0  0  0  0  0
   -0.3954    1.2887    0.4814 C   0  0  0  0  0  0  0  0  0  0  0  0
   -1.2761    1.9015   -0.1256 O   0  0  0  0  0  0  0  0  0  0  0  0
    0.4051    1.8919    1.3699 N   0  0  0  0  0  0  0  0  0  0  0  0
    1.1380    1.3380    1.7875 H   0  0  0  0  0  0  0  0  0  0  0  0
    0.3573    3.3183    1.6807 C   0  0  0  0  0  0  0  0  0  0  0  0
   -0.6670    3.6090    1.9198 H   0  0  0  0  0  0  0  0  0  0  0  0
    1.0066    3.5397    2.5289 H   0  0  0  0  0  0  0  0  0  0  0  0
    0.6896    3.8897    0.8118 H   0  0  0  0  0  0  0  0  0  0  0  0
  5  6  2  0  0  0  0
  5  7  1  0  0  0  0
  2  3  1  0  0  0  0
  2  4  1  0  0  0  0
  2  5  1  0  0  0  0
  1  2  1  0  0  0  0
 20 21  2  0  0  0  0
 20 22  1  0  0  0  0
 17 18  1  0  0  0  0
 17 19  2  0  0  0  0
 14 15  1  0  0  0  0
 14 16  1  0  0  0  0
 14 17  1  0  0  0  0
 11 12  1  0  0  0  0
 11 13  1  0  0  0  0
 11 14  1  0  0  0  0
  9 10  1  0  0  0  0
  9 11  1  0  0  0  0
  9 20  1  0  0  0  0
  7  8  1  0  0  0  0
  7  9  1  0  0  0  0
 24 25  1  0  0  0  0
 24 26  1  0  0  0  0
 24 27  1  0  0  0  0
 22 23  1  0  0  0  0
 22 24  1  0  0  0  0
M  CHG  1  18  -1
M  END
$$$$
default_name
  -OEChem-02102213163D

 27 26  0     1  0  0  0  0  0999 V2000
   -3.2406   -3.5400    1.2326 H   0  0  0  0  0  0  0  0  0  0  0  0
   -3.1436   -2.6190    0.6606 C   0  0  0  0  0  0  0  0  0  0  0  0
   -3.8786   -1.8920    0.9996 H   0  0  0  0  0  0  0  0  0  0  0  0
   -3.2846   -2.8280   -0.3984 H   0  0  0  0  0  0  0  0  0  0  0  0
   -1.7586   -2.0580    0.8686 C   0  0  0  0  0  0  0  0  0  0  0  0
   -0.9666   -2.6340    1.6026 O   0  0  0  0  0  0  0  0  0  0  0  0
   -1.4866   -0.9220    0.2366 N   0  0  0  0  0  0  0  0  0  0  0  0
   -2.2166   -0.4790   -0.2994 H   0  0  0  0  0  0  0  0  0  0  0  0
   -0.1956   -0.2250    0.2596 C   0  0  1  0  0  0  0  0  0  0  0  0
    0.3927   -0.6026    1.0964 H   0  0  0  0  0  0  0  0  0  0  0  0
    0.5767   -0.5489   -1.0351 C   0  0  0  0  0  0  0  0  0  0  0  0
    0.7658    0.3902   -1.5576 H   0  0  0  0  0  0  0  0  0  0  0  0
    1.5365   -0.9999   -0.7788 H   0  0  0  0  0  0  0  0  0  0  0  0
   -0.1855   -1.4896   -1.9835 C   0  0  0  0  0  0  0  0  0  0  0  0
    0.5130   -1.9012   -2.7160 H   0  0  0  0  0  0  0  0  0  0  0  0
   -0.5850   -2.3199   -1.3952 H   0  0  0  0  0  0  0  0  0  0  0  0
   -1.3356   -0.8003   -2.7326 C   0  0  0  0  0  0  0  0  0  0  0  0
   -1.6285    0.3755   -2.4190 O   0  5  0  0  0  0  0  0  0  0  0  0
   -1.8936   -1.4625   -3.6356 O   0  0  0  0  0  0  0  0  0  0  0  0
   -0.3954    1.2887    0.4814 C   0  0  0  0  0  0  0  0  0  0  0  0
   -1.2761    1.9015   -0.1256 O   0  0  0  0  0  0  0  0  0  0  0  0
    0.4051    1.8919    1.3699 N   0  0  0  0  0  0  0  0  0  0  0  0
    1.1380    1.3380    1.7875 H   0  0  0  0  0  0  0  0  0  0  0  0
    0.3573    3.3183    1.6807 C   0  0  0  0  0  0  0  0  0  0  0  0
   -0.6670    3.6090    1.9198 H   0  0  0  0  0  0  0  0  0  0  0  0
    1.0066    3.5397    2.5289 H   0  0  0  0  0  0  0  0  0  0  0  0
    0.6896    3.8897    0.8118 H   0  0  0  0  0  0  0  0  0  0  0  0
  5  6  2  0  0  0  0
  5  7  1  0  0  0  0
  2  3  1  0  0  0  0
  2  4  1  0  0  0  0
  2  5  1  0  0  0  0
  1  2  1  0  0  0  0
 20 21  2  0  0  0  0
 20 22  1  0  0  0  0
 17 18  1  0  0  0  0
 17 19  2  0  0  0  0
 14 15  1  0  0  0  0
 14 16  1  0  0  0  0
 14 17  1  0  0  0  0
 11 12  1  0  0  0  0
 11 13  1  0  0  0  0
 11 14  1  0  0  0  0
  9 10  1  0  0  0  0
  9 11  1  0  0  0  0
  9 20  1  0  0  0  0
  7  8  1  0  0  0  0
  7  9  1  0  0  0  0
 24 25  1  0  0  0  0
 24 26  1  0  0  0  0
 24 27  1  0  0  0  0
 22 23  1  0  0  0  0
 22 24  1  0  0  0  0
M  CHG  1  18  -1
M  END
$$$$
default_name
  -OEChem-02102213163D

 27 26  0     1  0  0  0  0  0999 V2000
   -3.2406   -3.5400    1.2326 H   0  0  0  0  0  0  0  0  0  0  0  0
   -3.1436   -2.6190    0.6606 C   0  0  0  0  0  0  0  0  0  0  0  0
   -3.8786   -1.8920    0.9996 H   0  0  0  0  0  0  0  0  0  0  0  0
   -3.2846   -2.8280   -0.3984 H   0  0  0  0  0  0  0  0  0  0  0  0
   -1.7586   -2.0580    0.8686 C   0  0  0  0  0  0  0  0  0  0  0  0
   -0.9666   -2.6340    1.6026 O   0  0  0  0  0  0  0  0  0  0  0  0
   -1.4866   -0.9220    0.2366 N   0  0  0  0  0  0  0  0  0  0  0  0
   -2.2166   -0.4790   -0.2994 H   0  0  0  0  0  0  0  0  0  0  0  0
   -0.1956   -0.2250    0.2596 C   0  0  1  0  0  0  0  0  0  0  0  0
    0.3927   -0.6026    1.0964 H   0  0  0  0  0  0  0  0  0  0  0  0
    0.5767   -0.5489   -1.0351 C   0  0  0  0  0  0  0  0  0  0  0  0
    0.7658    0.3902   -1.5576 H   0  0  0  0  0  0  0  0  0  0  0  0
    1.5365   -0.9999   -0.7788 H   0  0  0  0  0  0  0  0  0  0  0  0
   -0.1855   -1.4896   -1.9835 C   0  0  0  0  0  0  0  0  0  0  0  0
    0.5334   -2.1001   -2.5352 H   0  0  0  0  0  0  0  0  0  0  0  0
   -0.8029   -2.1595   -1.3792 H   0  0  0  0  0  0  0  0  0  0  0  0
   -1.0781   -0.7490   -2.9904 C   0  0  0  0  0  0  0  0  0  0  0  0
   -1.2101    0.4896   -2.8685 O   0  5  0  0  0  0  0  0  0  0  0  0
   -1.6007   -1.4413   -3.8920 O   0  0  0  0  0  0  0  0  0  0  0  0
   -0.3954    1.2887    0.4814 C   0  0  0  0  0  0  0  0  0  0  0  0
   -1.2761    1.9015   -0.1256 O   0  0  0  0  0  0  0  0  0  0  0  0
    0.4051    1.8919    1.3699 N   0  0  0  0  0  0  0  0  0  0  0  0
    1.1380    1.3380    1.7875 H   0  0  0  0  0  0  0  0  0  0  0  0
    0.3573    3.3183    1.6807 C   0  0  0  0  0  0  0  0  0  0  0  0
   -0.6670    3.6090    1.9198 H   0  0  0  0  0  0  0  0  0  0  0  0
    1.0066    3.5397    2.5289 H   0  0  0  0  0  0  0  0  0  0  0  0
    0.6896    3.8897    0.8118 H   0  0  0  0  0  0  0  0  0  0  0  0
  5  6  2  0  0  0  0
  5  7  1  0  0  0  0
  2  3  1  0  0  0  0
  2  4  1  0  0  0  0
  2  5  1  0  0  0  0
  1  2  1  0  0  0  0
 20 21  2  0  0  0  0
 20 22  1  0  0  0  0
 17 18  1  0  0  0  0
 17 19  2  0  0  0  0
 14 15  1  0  0  0  0
 14 16  1  0  0  0  0
 14 17  1  0  0  0  0
 11 12  1  0  0  0  0
 11 13  1  0  0  0  0
 11 14  1  0  0  0  0
  9 10  1  0  0  0  0
  9 11  1  0  0  0  0
  9 20  1  0  0  0  0
  7  8  1  0  0  0  0
  7  9  1  0  0  0  0
 24 25  1  0  0  0  0
 24 26  1  0  0  0  0
 24 27  1  0  0  0  0
 22 23  1  0  0  0  0
 22 24  1  0  0  0  0
M  CHG  1  18  -1
M  END
$$$$
default_name
  -OEChem-02102213163D

 27 26  0     1  0  0  0  0  0999 V2000
   -3.2406   -3.5400    1.2326 H   0  0  0  0  0  0  0  0  0  0  0  0
   -3.1436   -2.6190    0.6606 C   0  0  0  0  0  0  0  0  0  0  0  0
   -3.8786   -1.8920    0.9996 H   0  0  0  0  0  0  0  0  0  0  0  0
   -3.2846   -2.8280   -0.3984 H   0  0  0  0  0  0  0  0  0  0  0  0
   -1.7586   -2.0580    0.8686 C   0  0  0  0  0  0  0  0  0  0  0  0
   -0.9666   -2.6340    1.6026 O   0  0  0  0  0  0  0  0  0  0  0  0
   -1.4866   -0.9220    0.2366 N   0  0  0  0  0  0  0  0  0  0  0  0
   -2.2166   -0.4790   -0.2994 H   0  0  0  0  0  0  0  0  0  0  0  0
   -0.1956   -0.2250    0.2596 C   0  0  1  0  0  0  0  0  0  0  0  0
    0.3927   -0.6026    1.0964 H   0  0  0  0  0  0  0  0  0  0  0  0
    0.5767   -0.5489   -1.0351 C   0  0  0  0  0  0  0  0  0  0  0  0
    0.7658    0.3902   -1.5576 H   0  0  0  0  0  0  0  0  0  0  0  0
    1.5365   -0.9999   -0.7788 H   0  0  0  0  0  0  0  0  0  0  0  0
   -0.1855   -1.4896   -1.9835 C   0  0  0  0  0  0  0  0  0  0  0  0
    0.4928   -2.2722   -2.3318 H   0  0  0  0  0  0  0  0  0  0  0  0
   -0.9902   -1.9678   -1.4188 H   0  0  0  0  0  0  0  0  0  0  0  0
   -0.7804   -0.7737   -3.2052 C   0  0  0  0  0  0  0  0  0  0  0  0
   -0.7165    0.4755   -3.2511 O   0  5  0  0  0  0  0  0  0  0  0  0
   -1.2739   -1.5004   -4.0961 O   0  0  0  0  0  0  0  0  0  0  0  0
   -0.3954    1.2887    0.4814 C   0  0  0  0  0  0  0  0  0  0  0  0
   -1.2761    1.9015   -0.1256 O   0  0  0  0  0  0  0  0  0  0  0  0
    0.4051    1.8919    1.3699 N   0  0  0  0  0  0  0  0  0  0  0  0
    1.1380    1.3380    1.7875 H   0  0  0  0  0  0  0  0  0  0  0  0
    0.3573    3.3183    1.6807 C   0  0  0  0  0  0  0  0  0  0  0  0
   -0.6670    3.6090    1.9198 H   0  0  0  0  0  0  0  0  0  0  0  0
    1.0066    3.5397    2.5289 H   0  0  0  0  0  0  0  0  0  0  0  0
    0.6896    3.8897    0.8118 H   0  0  0  0  0  0  0  0  0  0  0  0
  5  6  2  0  0  0  0
  5  7  1  0  0  0  0
  2  3  1  0  0  0  0
  2  4  1  0  0  0  0
  2  5  1  0  0  0  0
  1  2  1  0  0  0  0
 20 21  2  0  0  0  0
 20 22  1  0  0  0  0
 17 18  1  0  0  0  0
 17 19  2  0  0  0  0
 14 15  1  0  0  0  0
 14 16  1  0  0  0  0
 14 17  1  0  0  0  0
 11 12  1  0  0  0  0
 11 13  1  0  0  0  0
 11 14  1  0  0  0  0
  9 10  1  0  0  0  0
  9 11  1  0  0  0  0
  9 20  1  0  0  0  0
  7  8  1  0  0  0  0
  7  9  1  0  0  0  0
 24 25  1  0  0  0  0
 24 26  1  0  0  0  0
 24 27  1  0  0  0  0
 22 23  1  0  0  0  0
 22 24  1  0  0  0  0
M  CHG  1  18  -1
M  END
$$$$
default_name
  -OEChem-02102213163D

 27 26  0     1  0  0  0  0  0999 V2000
   -3.2406   -3.5400    1.2326 H   0  0  0  0  0  0  0  0  0  0  0  0
   -3.1436   -2.6190    0.6606 C   0  0  0  0  0  0  0  0  0  0  0  0
   -3.8786   -1.8920    0.9996 H   0  0  0  0  0  0  0  0  0  0  0  0
   -3.2846   -2.8280   -0.3984 H   0  0  0  0  0  0  0  0  0  0  0  0
   -1.7586   -2.0580    0.8686 C   0  0  0  0  0  0  0  0  0  0  0  0
   -0.9666   -2.6340    1.6026 O   0  0  0  0  0  0  0  0  0  0  0  0
   -1.4866   -0.9220    0.2366 N   0  0  0  0  0  0  0  0  0  0  0  0
   -2.2166   -0.4790   -0.2994 H   0  0  0  0  0  0  0  0  0  0  0  0
   -0.1956   -0.2250    0.2596 C   0  0  1  0  0  0  0  0  0  0  0  0
    0.3927   -0.6026    1.0964 H   0  0  0  0  0  0  0  0  0  0  0  0
    0.5767   -0.5489   -1.0351 C   0  0  0  0  0  0  0  0  0  0  0  0
    0.7658    0.3902   -1.5576 H   0  0  0  0  0  0  0  0  0  0  0  0
    1.5365   -0.9999   -0.7788 H   0  0  0  0  0  0  0  0  0  0  0  0
   -0.1855   -1.4896   -1.9835 C   0  0  0  0  0  0  0  0  0  0  0  0
    0.3939   -2.4059   -2.1197 H   0  0  0  0  0  0  0  0  0  0  0  0
   -1.1343   -1.7577   -1.5113 H   0  0  0  0  0  0  0  0  0  0  0  0
   -0.4627   -0.8725   -3.3624 C   0  0  0  0  0  0  0  0  0  0  0  0
   -0.1815    0.3339   -3.5407 O   0  5  0  0  0  0  0  0  0  0  0  0
   -0.9353   -1.6358   -4.2339 O   0  0  0  0  0  0  0  0  0  0  0  0
   -0.3954    1.2887    0.4814 C   0  0  0  0  0  0  0  0  0  0  0  0
   -1.2761    1.9015   -0.1256 O   0  0  0  0  0  0  0  0  0  0  0  0
    0.4051    1.8919    1.3699 N   0  0  0  0  0  0  0  0  0  0  0  0
    1.1380    1.3380    1.7875 H   0  0  0  0  0  0  0  0  0  0  0  0
    0.3573    3.3183    1.6807 C   0  0  0  0  0  0  0  0  0  0  0  0
   -0.6670    3.6090    1.9198 H   0  0  0  0  0  0  0  0  0  0  0  0
    1.0066    3.5397    2.5289 H   0  0  0  0  0  0  0  0  0  0  0  0
    0.6896    3.8897    0.8118 H   0  0  0  0  0  0  0  0  0  0  0  0
  5  6  2  0  0  0  0
  5  7  1  0  0  0  0
  2  3  1  0  0  0  0
  2  4  1  0  0  0  0
  2  5  1  0  0  0  0
  1  2  1  0  0  0  0
 20 21  2  0  0  0  0
 20 22  1  0  0  0  0
 17 18  1  0  0  0  0
 17 19  2  0  0  0  0
 14 15  1  0  0  0  0
 14 16  1  0  0  0  0
 14 17  1  0  0  0  0
 11 12  1  0  0  0  0
 11 13  1  0  0  0  0
 11 14  1  0  0  0  0
  9 10  1  0  0  0  0
  9 11  1  0  0  0  0
  9 20  1  0  0  0  0
  7  8  1  0  0  0  0
  7  9  1  0  0  0  0
 24 25  1  0  0  0  0
 24 26  1  0  0  0  0
 24 27  1  0  0  0  0
 22 23  1  0  0  0  0
 22 24  1  0  0  0  0
M  CHG  1  18  -1
M  END
$$$$
default_name
  -OEChem-02102213163D

 27 26  0     1  0  0  0  0  0999 V2000
   -3.2406   -3.5400    1.2326 H   0  0  0  0  0  0  0  0  0  0  0  0
   -3.1436   -2.6190    0.6606 C   0  0  0  0  0  0  0  0  0  0  0  0
   -3.8786   -1.8920    0.9996 H   0  0  0  0  0  0  0  0  0  0  0  0
   -3.2846   -2.8280   -0.3984 H   0  0  0  0  0  0  0  0  0  0  0  0
   -1.7586   -2.0580    0.8686 C   0  0  0  0  0  0  0  0  0  0  0  0
   -0.9666   -2.6340    1.6026 O   0  0  0  0  0  0  0  0  0  0  0  0
   -1.4866   -0.9220    0.2366 N   0  0  0  0  0  0  0  0  0  0  0  0
   -2.2166   -0.4790   -0.2994 H   0  0  0  0  0  0  0  0  0  0  0  0
   -0.1956   -0.2250    0.2596 C   0  0  1  0  0  0  0  0  0  0  0  0
    0.3927   -0.6026    1.0964 H   0  0  0  0  0  0  0  0  0  0  0  0
    0.5767   -0.5489   -1.0351 C   0  0  0  0  0  0  0  0  0  0  0  0
    0.7658    0.3902   -1.5576 H   0  0  0  0  0  0  0  0  0  0  0  0
    1.5365   -0.9999   -0.7788 H   0  0  0  0  0  0  0  0  0  0  0  0
   -0.1855   -1.4896   -1.9835 C   0  0  0  0  0  0  0  0  0  0  0  0
    0.2434   -2.4921   -1.9133 H   0  0  0  0  0  0  0  0  0  0  0  0
   -1.2253   -1.5438   -1.6504 H   0  0  0  0  0  0  0  0  0  0  0  0
   -0.1468   -1.0389   -3.4513 C   0  0  0  0  0  0  0  0  0  0  0  0
    0.3586    0.0747   -3.7176 O   0  5  0  0  0  0  0  0  0  0  0  0
   -0.6080   -1.8384   -4.2960 O   0  0  0  0  0  0  0  0  0  0  0  0
   -0.3954    1.2887    0.4814 C   0  0  0  0  0  0  0  0  0  0  0  0
   -1.2761    1.9015   -0.1256 O   0  0  0  0  0  0  0  0  0  0  0  0
    0.4051    1.8919    1.3699 N   0  0  0  0  0  0  0  0  0  0  0  0
    1.1380    1.3380    1.7875 H   0  0  0  0  0  0  0  0  0  0  0  0
    0.3573    3.3183    1.6807 C   0  0  0  0  0  0  0  0  0  0  0  0
   -0.6670    3.6090    1.9198 H   0  0  0  0  0  0  0  0  0  0  0  0
    1.0066    3.5397    2.5289 H   0  0  0  0  0  0  0  0  0  0  0  0
    0.6896    3.8897    0.8118 H   0  0  0  0  0  0  0  0  0  0  0  0
  5  6  2  0  0  0  0
  5  7  1  0  0  0  0
  2  3  1  0  0  0  0
  2  4  1  0  0  0  0
  2  5  1  0  0  0  0
  1  2  1  0  0  0  0
 20 21  2  0  0  0  0
 20 22  1  0  0  0  0
 17 18  1  0  0  0  0
 17 19  2  0  0  0  0
 14 15  1  0  0  0  0
 14 16  1  0  0  0  0
 14 17  1  0  0  0  0
 11 12  1  0  0  0  0
 11 13  1  0  0  0  0
 11 14  1  0  0  0  0
  9 10  1  0  0  0  0
  9 11  1  0  0  0  0
  9 20  1  0  0  0  0
  7  8  1  0  0  0  0
  7  9  1  0  0  0  0
 24 25  1  0  0  0  0
 24 26  1  0  0  0  0
 24 27  1  0  0  0  0
 22 23  1  0  0  0  0
 22 24  1  0  0  0  0
M  CHG  1  18  -1
M  END
$$$$
default_name
  -OEChem-02102213163D

 27 26  0     1  0  0  0  0  0999 V2000
   -3.2406   -3.5400    1.2326 H   0  0  0  0  0  0  0  0  0  0  0  0
   -3.1436   -2.6190    0.6606 C   0  0  0  0  0  0  0  0  0  0  0  0
   -3.8786   -1.8920    0.9996 H   0  0  0  0  0  0  0  0  0  0  0  0
   -3.2846   -2.8280   -0.3984 H   0  0  0  0  0  0  0  0  0  0  0  0
   -1.7586   -2.0580    0.8686 C   0  0  0  0  0  0  0  0  0  0  0  0
   -0.9666   -2.6340    1.6026 O   0  0  0  0  0  0  0  0  0  0  0  0
   -1.4866   -0.9220    0.2366 N   0  0  0  0  0  0  0  0  0  0  0  0
   -2.2166   -0.4790   -0.2994 H   0  0  0  0  0  0  0  0  0  0  0  0
   -0.1956   -0.2250    0.2596 C   0  0  1  0  0  0  0  0  0  0  0  0
    0.3927   -0.6026    1.0964 H   0  0  0  0  0  0  0  0  0  0  0  0
    0.5767   -0.5489   -1.0351 C   0  0  0  0  0  0  0  0  0  0  0  0
    0.7658    0.3902   -1.5576 H   0  0  0  0  0  0  0  0  0  0  0  0
    1.5365   -0.9999   -0.7788 H   0  0  0  0  0  0  0  0  0  0  0  0
   -0.1855   -1.4896   -1.9835 C   0  0  0  0  0  0  0  0  0  0  0  0
    0.0516   -2.5248   -1.7267 H   0  0  0  0  0  0  0  0  0  0  0  0
   -1.2571   -1.3404   -1.8266 H   0  0  0  0  0  0  0  0  0  0  0  0
    0.1458   -1.2614   -3.4658 C   0  0  0  0  0  0  0  0  0  0  0  0
    0.8669   -0.2846   -3.7698 O   0  5  0  0  0  0  0  0  0  0  0  0
   -0.3144   -2.0942   -4.2782 O   0  0  0  0  0  0  0  0  0  0  0  0
   -0.3954    1.2887    0.4814 C   0  0  0  0  0  0  0  0  0  0  0  0
   -1.2761    1.9015   -0.1256 O   0  0  0  0  0  0  0  0  0  0  0  0
    0.4051    1.8919    1.3699 N   0  0  0  0  0  0  0  0  0  0  0  0
    1.1380    1.3380    1.7875 H   0  0  0  0  0  0  0  0  0  0  0  0
    0.3573    3.3183    1.6807 C   0  0  0  0  0  0  0  0  0  0  0  0
   -0.6670    3.6090    1.9198 H   0  0  0  0  0  0  0  0  0  0  0  0
    1.0066    3.5397    2.5289 H   0  0  0  0  0  0  0  0  0  0  0  0
    0.6896    3.8897    0.8118 H   0  0  0  0  0  0  0  0  0  0  0  0
  5  6  2  0  0  0  0
  5  7  1  0  0  0  0
  2  3  1  0  0  0  0
  2  4  1  0  0  0  0
  2  5  1  0  0  0  0
  1  2  1  0  0  0  0
 20 21  2  0  0  0  0
 20 22  1  0  0  0  0
 17 18  1  0  0  0  0
 17 19  2  0  0  0  0
 14 15  1  0  0  0  0
 14 16  1  0  0  0  0
 14 17  1  0  0  0  0
 11 12  1  0  0  0  0
 11 13  1  0  0  0  0
 11 14  1  0  0  0  0
  9 10  1  0  0  0  0
  9 11  1  0  0  0  0
  9 20  1  0  0  0  0
  7  8  1  0  0  0  0
  7  9  1  0  0  0  0
 24 25  1  0  0  0  0
 24 26  1  0  0  0  0
 24 27  1  0  0  0  0
 22 23  1  0  0  0  0
 22 24  1  0  0  0  0
M  CHG  1  18  -1
M  END
$$$$
default_name
  -OEChem-02102213163D

 27 26  0     1  0  0  0  0  0999 V2000
   -3.2406   -3.5400    1.2326 H   0  0  0  0  0  0  0  0  0  0  0  0
   -3.1436   -2.6190    0.6606 C   0  0  0  0  0  0  0  0  0  0  0  0
   -3.8786   -1.8920    0.9996 H   0  0  0  0  0  0  0  0  0  0  0  0
   -3.2846   -2.8280   -0.3984 H   0  0  0  0  0  0  0  0  0  0  0  0
   -1.7586   -2.0580    0.8686 C   0  0  0  0  0  0  0  0  0  0  0  0
   -0.9666   -2.6340    1.6026 O   0  0  0  0  0  0  0  0  0  0  0  0
   -1.4866   -0.9220    0.2366 N   0  0  0  0  0  0  0  0  0  0  0  0
   -2.2166   -0.4790   -0.2994 H   0  0  0  0  0  0  0  0  0  0  0  0
   -0.1956   -0.2250    0.2596 C   0  0  1  0  0  0  0  0  0  0  0  0
    0.3927   -0.6026    1.0964 H   0  0  0  0  0  0  0  0  0  0  0  0
    0.5767   -0.5489   -1.0351 C   0  0  0  0  0  0  0  0  0  0  0  0
    0.7658    0.3902   -1.5576 H   0  0  0  0  0  0  0  0  0  0  0  0
    1.5365   -0.9999   -0.7788 H   0  0  0  0  0  0  0  0  0  0  0  0
   -0.1855   -1.4896   -1.9835 C   0  0  0  0  0  0  0  0  0  0  0  0
   -0.1684   -2.5019   -1.5726 H   0  0  0  0  0  0  0  0  0  0  0  0
   -1.2274   -1.1615   -2.0280 H   0  0  0  0  0  0  0  0  0  0  0  0
    0.3953   -1.5249   -3.4049 C   0  0  0  0  0  0  0  0  0  0  0  0
    1.3088   -0.7195   -3.6936 O   0  5  0  0  0  0  0  0  0  0  0  0
   -0.0745   -2.3859   -4.1817 O   0  0  0  0  0  0  0  0  0  0  0  0
   -0.3954    1.2887    0.4814 C   0  0  0  0  0  0  0  0  0  0  0  0
   -1.2761    1.9015   -0.1256 O   0  0  0  0  0  0  0  0  0  0  0  0
    0.4051    1.8919    1.3699 N   0  0  0  0  0  0  0  0  0  0  0  0
    1.1380    1.3380    1.7875 H   0  0  0  0  0  0  0  0  0  0  0  0
    0.3573    3.3183    1.6807 C   0  0  0  0  0  0  0  0  0  0  0  0
   -0.6670    3.6090    1.9198 H   0  0  0  0  0  0  0  0  0  0  0  0
    1.0066    3.5397    2.5289 H   0  0  0  0  0  0  0  0  0  0  0  0
    0.6896    3.8897    0.8118 H   0  0  0  0  0  0  0  0  0  0  0  0
  5  6  2  0  0  0  0
  5  7  1  0  0  0  0
  2  3  1  0  0  0  0
  2  4  1  0  0  0  0
  2  5  1  0  0  0  0
  1  2  1  0  0  0  0
 20 21  2  0  0  0  0
 20 22  1  0  0  0  0
 17 18  1  0  0  0  0
 17 19  2  0  0  0  0
 14 15  1  0  0  0  0
 14 16  1  0  0  0  0
 14 17  1  0  0  0  0
 11 12  1  0  0  0  0
 11 13  1  0  0  0  0
 11 14  1  0  0  0  0
  9 10  1  0  0  0  0
  9 11  1  0  0  0  0
  9 20  1  0  0  0  0
  7  8  1  0  0  0  0
  7  9  1  0  0  0  0
 24 25  1  0  0  0  0
 24 26  1  0  0  0  0
 24 27  1  0  0  0  0
 22 23  1  0  0  0  0
 22 24  1  0  0  0  0
M  CHG  1  18  -1
M  END
$$$$
default_name
  -OEChem-02102213163D

 27 26  0     1  0  0  0  0  0999 V2000
   -3.2406   -3.5400    1.2326 H   0  0  0  0  0  0  0  0  0  0  0  0
   -3.1436   -2.6190    0.6606 C   0  0  0  0  0  0  0  0  0  0  0  0
   -3.8786   -1.8920    0.9996 H   0  0  0  0  0  0  0  0  0  0  0  0
   -3.2846   -2.8280   -0.3984 H   0  0  0  0  0  0  0  0  0  0  0  0
   -1.7586   -2.0580    0.8686 C   0  0  0  0  0  0  0  0  0  0  0  0
   -0.9666   -2.6340    1.6026 O   0  0  0  0  0  0  0  0  0  0  0  0
   -1.4866   -0.9220    0.2366 N   0  0  0  0  0  0  0  0  0  0  0  0
   -2.2166   -0.4790   -0.2994 H   0  0  0  0  0  0  0  0  0  0  0  0
   -0.1956   -0.2250    0.2596 C   0  0  1  0  0  0  0  0  0  0  0  0
    0.3927   -0.6026    1.0964 H   0  0  0  0  0  0  0  0  0  0  0  0
    0.5767   -0.5489   -1.0351 C   0  0  0  0  0  0  0  0  0  0  0  0
    0.9975    0.3824   -1.4175 H   0  0  0  0  0  0  0  0  0  0  0  0
    1.3980   -1.2289   -0.8041 H   0  0  0  0  0  0  0  0  0  0  0  0
   -0.3020   -1.1733   -2.1321 C   0  0  0  0  0  0  0  0  0  0  0  0
   -0.7483   -2.0949   -1.7509 H   0  0  0  0  0  0  0  0  0  0  0  0
   -1.1122   -0.4760   -2.3610 H   0  0  0  0  0  0  0  0  0  0  0  0
    0.4682   -1.4955   -3.4213 C   0  0  0  0  0  0  0  0  0  0  0  0
    1.6563   -1.1131   -3.5147 O   0  5  0  0  0  0  0  0  0  0  0  0
   -0.1461   -2.1492   -4.2933 O   0  0  0  0  0  0  0  0  0  0  0  0
   -0.3954    1.2887    0.4814 C   0  0  0  0  0  0  0  0  0  0  0  0
   -1.2761    1.9015   -0.1256 O   0  0  0  0  0  0  0  0  0  0  0  0
    0.4051    1.8919    1.3699 N   0  0  0  0  0  0  0  0  0  0  0  0
    1.1380    1.3380    1.7875 H   0  0  0  0  0  0  0  0  0  0  0  0
    0.3573    3.3183    1.6807 C   0  0  0  0  0  0  0  0  0  0  0  0
   -0.6670    3.6090    1.9198 H   0  0  0  0  0  0  0  0  0  0  0  0
    1.0066    3.5397    2.5289 H   0  0  0  0  0  0  0  0  0  0  0  0
    0.6896    3.8897    0.8118 H   0  0  0  0  0  0  0  0  0  0  0  0
  5  6  2  0  0  0  0
  5  7  1  0  0  0  0
  2  3  1  0  0  0  0
  2  4  1  0  0  0  0
  2  5  1  0  0  0  0
  1  2  1  0  0  0  0
 20 21  2  0  0  0  0
 20 22  1  0  0  0  0
 17 18  1  0  0  0  0
 17 19  2  0  0  0  0
 14 15  1  0  0  0  0
 14 16  1  0  0  0  0
 14 17  1  0  0  0  0
 11 12  1  0  0  0  0
 11 13  1  0  0  0  0
 11 14  1  0  0  0  0
  9 10  1  0  0  0  0
  9 11  1  0  0  0  0
  9 20  1  0  0  0  0
  7  8  1  0  0  0  0
  7  9  1  0  0  0  0
 24 25  1  0  0  0  0
 24 26  1  0  0  0  0
 24 27  1  0  0  0  0
 22 23  1  0  0  0  0
 22 24  1  0  0  0  0
M  CHG  1  18  -1
M  END
$$$$
default_name
  -OEChem-02102213163D

 27 26  0     1  0  0  0  0  0999 V2000
   -3.2406   -3.5400    1.2326 H   0  0  0  0  0  0  0  0  0  0  0  0
   -3.1436   -2.6190    0.6606 C   0  0  0  0  0  0  0  0  0  0  0  0
   -3.8786   -1.8920    0.9996 H   0  0  0  0  0  0  0  0  0  0  0  0
   -3.2846   -2.8280   -0.3984 H   0  0  0  0  0  0  0  0  0  0  0  0
   -1.7586   -2.0580    0.8686 C   0  0  0  0  0  0  0  0  0  0  0  0
   -0.9666   -2.6340    1.6026 O   0  0  0  0  0  0  0  0  0  0  0  0
   -1.4866   -0.9220    0.2366 N   0  0  0  0  0  0  0  0  0  0  0  0
   -2.2166   -0.4790   -0.2994 H   0  0  0  0  0  0  0  0  0  0  0  0
   -0.1956   -0.2250    0.2596 C   0  0  1  0  0  0  0  0  0  0  0  0
    0.3927   -0.6026    1.0964 H   0  0  0  0  0  0  0  0  0  0  0  0
    0.5767   -0.5489   -1.0351 C   0  0  0  0  0  0  0  0  0  0  0  0
    0.9975    0.3824   -1.4175 H   0  0  0  0  0  0  0  0  0  0  0  0
    1.3980   -1.2289   -0.8041 H   0  0  0  0  0  0  0  0  0  0  0  0
   -0.3020   -1.1733   -2.1321 C   0  0  0  0  0  0  0  0  0  0  0  0
   -0.9503   -1.9297   -1.6832 H   0  0  0  0  0  0  0  0  0  0  0  0
   -0.9385   -0.3888   -2.5498 H   0  0  0  0  0  0  0  0  0  0  0  0
    0.5061   -1.8258   -3.2636 C   0  0  0  0  0  0  0  0  0  0  0  0
    1.7491   -1.6789   -3.2669 O   0  5  0  0  0  0  0  0  0  0  0  0
   -0.1405   -2.4899   -4.1039 O   0  0  0  0  0  0  0  0  0  0  0  0
   -0.3954    1.2887    0.4814 C   0  0  0  0  0  0  0  0  0  0  0  0
   -1.2761    1.9015   -0.1256 O   0  0  0  0  0  0  0  0  0  0  0  0
    0.4051    1.8919    1.3699 N   0  0  0  0  0  0  0  0  0  0  0  0
    1.1380    1.3380    1.7875 H   0  0  0  0  0  0  0  0  0  0  0  0
    0.3573    3.3183    1.6807 C   0  0  0  0  0  0  0  0  0  0  0  0
   -0.6670    3.6090    1.9198 H   0  0  0  0  0  0  0  0  0  0  0  0
    1.0066    3.5397    2.5289 H   0  0  0  0  0  0  0  0  0  0  0  0
    0.6896    3.8897    0.8118 H   0  0  0  0  0  0  0  0  0  0  0  0
  5  6  2  0  0  0  0
  5  7  1  0  0  0  0
  2  3  1  0  0  0  0
  2  4  1  0  0  0  0
  2  5  1  0  0  0  0
  1  2  1  0  0  0  0
 20 21  2  0  0  0  0
 20 22  1  0  0  0  0
 17 18  1  0  0  0  0
 17 19  2  0  0  0  0
 14 15  1  0  0  0  0
 14 16  1  0  0  0  0
 14 17  1  0  0  0  0
 11 12  1  0  0  0  0
 11 13  1  0  0  0  0
 11 14  1  0  0  0  0
  9 10  1  0  0  0  0
  9 11  1  0  0  0  0
  9 20  1  0  0  0  0
  7  8  1  0  0  0  0
  7  9  1  0  0  0  0
 24 25  1  0  0  0  0
 24 26  1  0  0  0  0
 24 27  1  0  0  0  0
 22 23  1  0  0  0  0
 22 24  1  0  0  0  0
M  CHG  1  18  -1
M  END
$$$$
default_name
  -OEChem-02102213163D

 27 26  0     1  0  0  0  0  0999 V2000
   -3.2406   -3.5400    1.2326 H   0  0  0  0  0  0  0  0  0  0  0  0
   -3.1436   -2.6190    0.6606 C   0  0  0  0  0  0  0  0  0  0  0  0
   -3.8786   -1.8920    0.9996 H   0  0  0  0  0  0  0  0  0  0  0  0
   -3.2846   -2.8280   -0.3984 H   0  0  0  0  0  0  0  0  0  0  0  0
   -1.7586   -2.0580    0.8686 C   0  0  0  0  0  0  0  0  0  0  0  0
   -0.9666   -2.6340    1.6026 O   0  0  0  0  0  0  0  0  0  0  0  0
   -1.4866   -0.9220    0.2366 N   0  0  0  0  0  0  0  0  0  0  0  0
   -2.2166   -0.4790   -0.2994 H   0  0  0  0  0  0  0  0  0  0  0  0
   -0.1956   -0.2250    0.2596 C   0  0  1  0  0  0  0  0  0  0  0  0
    0.3927   -0.6026    1.0964 H   0  0  0  0  0  0  0  0  0  0  0  0
    0.5767   -0.5489   -1.0351 C   0  0  0  0  0  0  0  0  0  0  0  0
    0.9975    0.3824   -1.4175 H   0  0  0  0  0  0  0  0  0  0  0  0
    1.3980   -1.2289   -0.8041 H   0  0  0  0  0  0  0  0  0  0  0  0
   -0.3020   -1.1733   -2.1321 C   0  0  0  0  0  0  0  0  0  0  0  0
   -1.1219   -1.7228   -1.6634 H   0  0  0  0  0  0  0  0  0  0  0  0
   -0.7348   -0.3645   -2.7268 H   0  0  0  0  0  0  0  0  0  0  0  0
    0.4652   -2.1285   -3.0585 C   0  0  0  0  0  0  0  0  0  0  0  0
    1.7082   -2.2059   -2.9341 O   0  5  0  0  0  0  0  0  0  0  0  0
   -0.2178   -2.7920   -3.8700 O   0  0  0  0  0  0  0  0  0  0  0  0
   -0.3954    1.2887    0.4814 C   0  0  0  0  0  0  0  0  0  0  0  0
   -1.2761    1.9015   -0.1256 O   0  0  0  0  0  0  0  0  0  0  0  0
    0.4051    1.8919    1.3699 N   0  0  0  0  0  0  0  0  0  0  0  0
    1.1380    1.3380    1.7875 H   0  0  0  0  0  0  0  0  0  0  0  0
    0.3573    3.3183    1.6807 C   0  0  0  0  0  0  0  0  0  0  0  0
   -0.6670    3.6090    1.9198 H   0  0  0  0  0  0  0  0  0  0  0  0
    1.0066    3.5397    2.5289 H   0  0  0  0  0  0  0  0  0  0  0  0
    0.6896    3.8897    0.8118 H   0  0  0  0  0  0  0  0  0  0  0  0
  5  6  2  0  0  0  0
  5  7  1  0  0  0  0
  2  3  1  0  0  0  0
  2  4  1  0  0  0  0
  2  5  1  0  0  0  0
  1  2  1  0  0  0  0
 20 21  2  0  0  0  0
 20 22  1  0  0  0  0
 17 18  1  0  0  0  0
 17 19  2  0  0  0  0
 14 15  1  0  0  0  0
 14 16  1  0  0  0  0
 14 17  1  0  0  0  0
 11 12  1  0  0  0  0
 11 13  1  0  0  0  0
 11 14  1  0  0  0  0
  9 10  1  0  0  0  0
  9 11  1  0  0  0  0
  9 20  1  0  0  0  0
  7  8  1  0  0  0  0
  7  9  1  0  0  0  0
 24 25  1  0  0  0  0
 24 26  1  0  0  0  0
 24 27  1  0  0  0  0
 22 23  1  0  0  0  0
 22 24  1  0  0  0  0
M  CHG  1  18  -1
M  END
$$$$
default_name
  -OEChem-02102213163D

 27 26  0     1  0  0  0  0  0999 V2000
   -3.2406   -3.5400    1.2326 H   0  0  0  0  0  0  0  0  0  0  0  0
   -3.1436   -2.6190    0.6606 C   0  0  0  0  0  0  0  0  0  0  0  0
   -3.8786   -1.8920    0.9996 H   0  0  0  0  0  0  0  0  0  0  0  0
   -3.2846   -2.8280   -0.3984 H   0  0  0  0  0  0  0  0  0  0  0  0
   -1.7586   -2.0580    0.8686 C   0  0  0  0  0  0  0  0  0  0  0  0
   -0.9666   -2.6340    1.6026 O   0  0  0  0  0  0  0  0  0  0  0  0
   -1.4866   -0.9220    0.2366 N   0  0  0  0  0  0  0  0  0  0  0  0
   -2.2166   -0.4790   -0.2994 H   0  0  0  0  0  0  0  0  0  0  0  0
   -0.1956   -0.2250    0.2596 C   0  0  1  0  0  0  0  0  0  0  0  0
    0.3927   -0.6026    1.0964 H   0  0  0  0  0  0  0  0  0  0  0  0
    0.5767   -0.5489   -1.0351 C   0  0  0  0  0  0  0  0  0  0  0  0
    0.9975    0.3824   -1.4175 H   0  0  0  0  0  0  0  0  0  0  0  0
    1.3980   -1.2289   -0.8041 H   0  0  0  0  0  0  0  0  0  0  0  0
   -0.3020   -1.1733   -2.1321 C   0  0  0  0  0  0  0  0  0  0  0  0
   -1.2516   -1.4884   -1.6930 H   0  0  0  0  0  0  0  0  0  0  0  0
   -0.5149   -0.4049   -2.8800 H   0  0  0  0  0  0  0  0  0  0  0  0
    0.3482   -2.3830   -2.8199 C   0  0  0  0  0  0  0  0  0  0  0  0
    1.5364   -2.6583   -2.5391 O   0  5  0  0  0  0  0  0  0  0  0  0
   -0.3728   -3.0350   -3.6075 O   0  0  0  0  0  0  0  0  0  0  0  0
   -0.3954    1.2887    0.4814 C   0  0  0  0  0  0  0  0  0  0  0  0
   -1.2761    1.9015   -0.1256 O   0  0  0  0  0  0  0  0  0  0  0  0
    0.4051    1.8919    1.3699 N   0  0  0  0  0  0  0  0  0  0  0  0
    1.1380    1.3380    1.7875 H   0  0  0  0  0  0  0  0  0  0  0  0
    0.3573    3.3183    1.6807 C   0  0  0  0  0  0  0  0  0  0  0  0
   -0.6670    3.6090    1.9198 H   0  0  0  0  0  0  0  0  0  0  0  0
    1.0066    3.5397    2.5289 H   0  0  0  0  0  0  0  0  0  0  0  0
    0.6896    3.8897    0.8118 H   0  0  0  0  0  0  0  0  0  0  0  0
  5  6  2  0  0  0  0
  5  7  1  0  0  0  0
  2  3  1  0  0  0  0
  2  4  1  0  0  0  0
  2  5  1  0  0  0  0
  1  2  1  0  0  0  0
 20 21  2  0  0  0  0
 20 22  1  0  0  0  0
 17 18  1  0  0  0  0
 17 19  2  0  0  0  0
 14 15  1  0  0  0  0
 14 16  1  0  0  0  0
 14 17  1  0  0  0  0
 11 12  1  0  0  0  0
 11 13  1  0  0  0  0
 11 14  1  0  0  0  0
  9 10  1  0  0  0  0
  9 11  1  0  0  0  0
  9 20  1  0  0  0  0
  7  8  1  0  0  0  0
  7  9  1  0  0  0  0
 24 25  1  0  0  0  0
 24 26  1  0  0  0  0
 24 27  1  0  0  0  0
 22 23  1  0  0  0  0
 22 24  1  0  0  0  0
M  CHG  1  18  -1
M  END
$$$$
default_name
  -OEChem-02102213163D

 27 26  0     1  0  0  0  0  0999 V2000
   -3.2406   -3.5400    1.2326 H   0  0  0  0  0  0  0  0  0  0  0  0
   -3.1436   -2.6190    0.6606 C   0  0  0  0  0  0  0  0  0  0  0  0
   -3.8786   -1.8920    0.9996 H   0  0  0  0  0  0  0  0  0  0  0  0
   -3.2846   -2.8280   -0.3984 H   0  0  0  0  0  0  0  0  0  0  0  0
   -1.7586   -2.0580    0.8686 C   0  0  0  0  0  0  0  0  0  0  0  0
   -0.9666   -2.6340    1.6026 O   0  0  0  0  0  0  0  0  0  0  0  0
   -1.4866   -0.9220    0.2366 N   0  0  0  0  0  0  0  0  0  0  0  0
   -2.2166   -0.4790   -0.2994 H   0  0  0  0  0  0  0  0  0  0  0  0
   -0.1956   -0.2250    0.2596 C   0  0  1  0  0  0  0  0  0  0  0  0
    0.3927   -0.6026    1.0964 H   0  0  0  0  0  0  0  0  0  0  0  0
    0.5767   -0.5489   -1.0351 C   0  0  0  0  0  0  0  0  0  0  0  0
    0.9975    0.3824   -1.4175 H   0  0  0  0  0  0  0  0  0  0  0  0
    1.3980   -1.2289   -0.8041 H   0  0  0  0  0  0  0  0  0  0  0  0
   -0.3020   -1.1733   -2.1321 C   0  0  0  0  0  0  0  0  0  0  0  0
   -1.3305   -1.2423   -1.7698 H   0  0  0  0  0  0  0  0  0  0  0  0
   -0.2939   -0.5071   -2.9988 H   0  0  0  0  0  0  0  0  0  0  0  0
    0.1631   -2.5719   -2.5641 C   0  0  0  0  0  0  0  0  0  0  0  0
    1.2454   -3.0050   -2.1086 O   0  5  0  0  0  0  0  0  0  0  0  0
   -0.5950   -3.2022   -3.3343 O   0  0  0  0  0  0  0  0  0  0  0  0
   -0.3954    1.2887    0.4814 C   0  0  0  0  0  0  0  0  0  0  0  0
   -1.2761    1.9015   -0.1256 O   0  0  0  0  0  0  0  0  0  0  0  0
    0.4051    1.8919    1.3699 N   0  0  0  0  0  0  0  0  0  0  0  0
    1.1380    1.3380    1.7875 H   0  0  0  0  0  0  0  0  0  0  0  0
    0.3573    3.3183    1.6807 C   0  0  0  0  0  0  0  0  0  0  0  0
   -0.6670    3.6090    1.9198 H   0  0  0  0  0  0  0  0  0  0  0  0
    1.0066    3.5397    2.5289 H   0  0  0  0  0  0  0  0  0  0  0  0
    0.6896    3.8897    0.8118 H   0  0  0  0  0  0  0  0  0  0  0  0
  5  6  2  0  0  0  0
  5  7  1  0  0  0  0
  2  3  1  0  0  0  0
  2  4  1  0  0  0  0
  2  5  1  0  0  0  0
  1  2  1  0  0  0  0
 20 21  2  0  0  0  0
 20 22  1  0  0  0  0
 17 18  1  0  0  0  0
 17 19  2  0  0  0  0
 14 15  1  0  0  0  0
 14 16  1  0  0  0  0
 14 17  1  0  0  0  0
 11 12  1  0  0  0  0
 11 13  1  0  0  0  0
 11 14  1  0  0  0  0
  9 10  1  0  0  0  0
  9 11  1  0  0  0  0
  9 20  1  0  0  0  0
  7  8  1  0  0  0  0
  7  9  1  0  0  0  0
 24 25  1  0  0  0  0
 24 26  1  0  0  0  0
 24 27  1  0  0  0  0
 22 23  1  0  0  0  0
 22 24  1  0  0  0  0
M  CHG  1  18  -1
M  END
$$$$
default_name
  -OEChem-02102213163D

 27 26  0     1  0  0  0  0  0999 V2000
   -3.2406   -3.5400    1.2326 H   0  0  0  0  0  0  0  0  0  0  0  0
   -3.1436   -2.6190    0.6606 C   0  0  0  0  0  0  0  0  0  0  0  0
   -3.8786   -1.8920    0.9996 H   0  0  0  0  0  0  0  0  0  0  0  0
   -3.2846   -2.8280   -0.3984 H   0  0  0  0  0  0  0  0  0  0  0  0
   -1.7586   -2.0580    0.8686 C   0  0  0  0  0  0  0  0  0  0  0  0
   -0.9666   -2.6340    1.6026 O   0  0  0  0  0  0  0  0  0  0  0  0
   -1.4866   -0.9220    0.2366 N   0  0  0  0  0  0  0  0  0  0  0  0
   -2.2166   -0.4790   -0.2994 H   0  0  0  0  0  0  0  0  0  0  0  0
   -0.1956   -0.2250    0.2596 C   0  0  1  0  0  0  0  0  0  0  0  0
    0.3927   -0.6026    1.0964 H   0  0  0  0  0  0  0  0  0  0  0  0
    0.5767   -0.5489   -1.0351 C   0  0  0  0  0  0  0  0  0  0  0  0
    0.9975    0.3824   -1.4175 H   0  0  0  0  0  0  0  0  0  0  0  0
    1.3980   -1.2289   -0.8041 H   0  0  0  0  0  0  0  0  0  0  0  0
   -0.3020   -1.1733   -2.1321 C   0  0  0  0  0  0  0  0  0  0  0  0
   -1.3533   -1.0015   -1.8888 H   0  0  0  0  0  0  0  0  0  0  0  0
   -0.0868   -0.6642   -3.0753 H   0  0  0  0  0  0  0  0  0  0  0  0
   -0.0774   -2.6824   -2.3085 C   0  0  0  0  0  0  0  0  0  0  0  0
    0.8552   -3.2226   -1.6721 O   0  5  0  0  0  0  0  0  0  0  0  0
   -0.8692   -3.2823   -3.0691 O   0  0  0  0  0  0  0  0  0  0  0  0
   -0.3954    1.2887    0.4814 C   0  0  0  0  0  0  0  0  0  0  0  0
   -1.2761    1.9015   -0.1256 O   0  0  0  0  0  0  0  0  0  0  0  0
    0.4051    1.8919    1.3699 N   0  0  0  0  0  0  0  0  0  0  0  0
    1.1380    1.3380    1.7875 H   0  0  0  0  0  0  0  0  0  0  0  0
    0.3573    3.3183    1.6807 C   0  0  0  0  0  0  0  0  0  0  0  0
   -0.6670    3.6090    1.9198 H   0  0  0  0  0  0  0  0  0  0  0  0
    1.0066    3.5397    2.5289 H   0  0  0  0  0  0  0  0  0  0  0  0
    0.6896    3.8897    0.8118 H   0  0  0  0  0  0  0  0  0  0  0  0
  5  6  2  0  0  0  0
  5  7  1  0  0  0  0
  2  3  1  0  0  0  0
  2  4  1  0  0  0  0
  2  5  1  0  0  0  0
  1  2  1  0  0  0  0
 20 21  2  0  0  0  0
 20 22  1  0  0  0  0
 17 18  1  0  0  0  0
 17 19  2  0  0  0  0
 14 15  1  0  0  0  0
 14 16  1  0  0  0  0
 14 17  1  0  0  0  0
 11 12  1  0  0  0  0
 11 13  1  0  0  0  0
 11 14  1  0  0  0  0
  9 10  1  0  0  0  0
  9 11  1  0  0  0  0
  9 20  1  0  0  0  0
  7  8  1  0  0  0  0
  7  9  1  0  0  0  0
 24 25  1  0  0  0  0
 24 26  1  0  0  0  0
 24 27  1  0  0  0  0
 22 23  1  0  0  0  0
 22 24  1  0  0  0  0
M  CHG  1  18  -1
M  END
$$$$
default_name
  -OEChem-02102213163D

 27 26  0     1  0  0  0  0  0999 V2000
   -3.2406   -3.5400    1.2326 H   0  0  0  0  0  0  0  0  0  0  0  0
   -3.1436   -2.6190    0.6606 C   0  0  0  0  0  0  0  0  0  0  0  0
   -3.8786   -1.8920    0.9996 H   0  0  0  0  0  0  0  0  0  0  0  0
   -3.2846   -2.8280   -0.3984 H   0  0  0  0  0  0  0  0  0  0  0  0
   -1.7586   -2.0580    0.8686 C   0  0  0  0  0  0  0  0  0  0  0  0
   -0.9666   -2.6340    1.6026 O   0  0  0  0  0  0  0  0  0  0  0  0
   -1.4866   -0.9220    0.2366 N   0  0  0  0  0  0  0  0  0  0  0  0
   -2.2166   -0.4790   -0.2994 H   0  0  0  0  0  0  0  0  0  0  0  0
   -0.1956   -0.2250    0.2596 C   0  0  1  0  0  0  0  0  0  0  0  0
    0.3927   -0.6026    1.0964 H   0  0  0  0  0  0  0  0  0  0  0  0
    0.5767   -0.5489   -1.0351 C   0  0  0  0  0  0  0  0  0  0  0  0
    0.9975    0.3824   -1.4175 H   0  0  0  0  0  0  0  0  0  0  0  0
    1.3980   -1.2289   -0.8041 H   0  0  0  0  0  0  0  0  0  0  0  0
   -0.3020   -1.1733   -2.1321 C   0  0  0  0  0  0  0  0  0  0  0  0
   -1.3182   -0.7822   -2.0416 H   0  0  0  0  0  0  0  0  0  0  0  0
    0.0923   -0.8655   -3.1042 H   0  0  0  0  0  0  0  0  0  0  0  0
   -0.3570   -2.7070   -2.0706 C   0  0  0  0  0  0  0  0  0  0  0  0
    0.3922   -3.2962   -1.2593 O   0  5  0  0  0  0  0  0  0  0  0  0
   -1.1767   -3.2699   -2.8298 O   0  0  0  0  0  0  0  0  0  0  0  0
   -0.3954    1.2887    0.4814 C   0  0  0  0  0  0  0  0  0  0  0  0
   -1.2761    1.9015   -0.1256 O   0  0  0  0  0  0  0  0  0  0  0  0
    0.4051    1.8919    1.3699 N   0  0  0  0  0  0  0  0  0  0  0  0
    1.1380    1.3380    1.7875 H   0  0  0  0  0  0  0  0  0  0  0  0
    0.3573    3.3183    1.6807 C   0  0  0  0  0  0  0  0  0  0  0  0
   -0.6670    3.6090    1.9198 H   0  0  0  0  0  0  0  0  0  0  0  0
    1.0066    3.5397    2.5289 H   0  0  0  0  0  0  0  0  0  0  0  0
    0.6896    3.8897    0.8118 H   0  0  0  0  0  0  0  0  0  0  0  0
  5  6  2  0  0  0  0
  5  7  1  0  0  0  0
  2  3  1  0  0  0  0
  2  4  1  0  0  0  0
  2  5  1  0  0  0  0
  1  2  1  0  0  0  0
 20 21  2  0  0  0  0
 20 22  1  0  0  0  0
 17 18  1  0  0  0  0
 17 19  2  0  0  0  0
 14 15  1  0  0  0  0
 14 16  1  0  0  0  0
 14 17  1  0  0  0  0
 11 12  1  0  0  0  0
 11 13  1  0  0  0  0
 11 14  1  0  0  0  0
  9 10  1  0  0  0  0
  9 11  1  0  0  0  0
  9 20  1  0  0  0  0
  7  8  1  0  0  0  0
  7  9  1  0  0  0  0
 24 25  1  0  0  0  0
 24 26  1  0  0  0  0
 24 27  1  0  0  0  0
 22 23  1  0  0  0  0
 22 24  1  0  0  0  0
M  CHG  1  18  -1
M  END
$$$$
default_name
  -OEChem-02102213163D

 27 26  0     1  0  0  0  0  0999 V2000
   -3.2406   -3.5400    1.2326 H   0  0  0  0  0  0  0  0  0  0  0  0
   -3.1436   -2.6190    0.6606 C   0  0  0  0  0  0  0  0  0  0  0  0
   -3.8786   -1.8920    0.9996 H   0  0  0  0  0  0  0  0  0  0  0  0
   -3.2846   -2.8280   -0.3984 H   0  0  0  0  0  0  0  0  0  0  0  0
   -1.7586   -2.0580    0.8686 C   0  0  0  0  0  0  0  0  0  0  0  0
   -0.9666   -2.6340    1.6026 O   0  0  0  0  0  0  0  0  0  0  0  0
   -1.4866   -0.9220    0.2366 N   0  0  0  0  0  0  0  0  0  0  0  0
   -2.2166   -0.4790   -0.2994 H   0  0  0  0  0  0  0  0  0  0  0  0
   -0.1956   -0.2250    0.2596 C   0  0  1  0  0  0  0  0  0  0  0  0
    0.3927   -0.6026    1.0964 H   0  0  0  0  0  0  0  0  0  0  0  0
    0.5767   -0.5489   -1.0351 C   0  0  0  0  0  0  0  0  0  0  0  0
    0.9975    0.3824   -1.4175 H   0  0  0  0  0  0  0  0  0  0  0  0
    1.3980   -1.2289   -0.8041 H   0  0  0  0  0  0  0  0  0  0  0  0
   -0.3020   -1.1733   -2.1321 C   0  0  0  0  0  0  0  0  0  0  0  0
   -1.2279   -0.5995   -2.2180 H   0  0  0  0  0  0  0  0  0  0  0  0
    0.2312   -1.0973   -3.0835 H   0  0  0  0  0  0  0  0  0  0  0  0
   -0.6566   -2.6439   -1.8665 C   0  0  0  0  0  0  0  0  0  0  0  0
   -0.1120   -3.2208   -0.8984 O   0  5  0  0  0  0  0  0  0  0  0  0
   -1.4966   -3.1657   -2.6329 O   0  0  0  0  0  0  0  0  0  0  0  0
   -0.3954    1.2887    0.4814 C   0  0  0  0  0  0  0  0  0  0  0  0
   -1.2761    1.9015   -0.1256 O   0  0  0  0  0  0  0  0  0  0  0  0
    0.4051    1.8919    1.3699 N   0  0  0  0  0  0  0  0  0  0  0  0
    1.1380    1.3380    1.7875 H   0  0  0  0  0  0  0  0  0  0  0  0
    0.3573    3.3183    1.6807 C   0  0  0  0  0  0  0  0  0  0  0  0
   -0.6670    3.6090    1.9198 H   0  0  0  0  0  0  0  0  0  0  0  0
    1.0066    3.5397    2.5289 H   0  0  0  0  0  0  0  0  0  0  0  0
    0.6896    3.8897    0.8118 H   0  0  0  0  0  0  0  0  0  0  0  0
  5  6  2  0  0  0  0
  5  7  1  0  0  0  0
  2  3  1  0  0  0  0
  2  4  1  0  0  0  0
  2  5  1  0  0  0  0
  1  2  1  0  0  0  0
 20 21  2  0  0  0  0
 20 22  1  0  0  0  0
 17 18  1  0  0  0  0
 17 19  2  0  0  0  0
 14 15  1  0  0  0  0
 14 16  1  0  0  0  0
 14 17  1  0  0  0  0
 11 12  1  0  0  0  0
 11 13  1  0  0  0  0
 11 14  1  0  0  0  0
  9 10  1  0  0  0  0
  9 11  1  0  0  0  0
  9 20  1  0  0  0  0
  7  8  1  0  0  0  0
  7  9  1  0  0  0  0
 24 25  1  0  0  0  0
 24 26  1  0  0  0  0
 24 27  1  0  0  0  0
 22 23  1  0  0  0  0
 22 24  1  0  0  0  0
M  CHG  1  18  -1
M  END
$$$$
default_name
  -OEChem-02102213163D

 27 26  0     1  0  0  0  0  0999 V2000
   -3.2406   -3.5400    1.2326 H   0  0  0  0  0  0  0  0  0  0  0  0
   -3.1436   -2.6190    0.6606 C   0  0  0  0  0  0  0  0  0  0  0  0
   -3.8786   -1.8920    0.9996 H   0  0  0  0  0  0  0  0  0  0  0  0
   -3.2846   -2.8280   -0.3984 H   0  0  0  0  0  0  0  0  0  0  0  0
   -1.7586   -2.0580    0.8686 C   0  0  0  0  0  0  0  0  0  0  0  0
   -0.9666   -2.6340    1.6026 O   0  0  0  0  0  0  0  0  0  0  0  0
   -1.4866   -0.9220    0.2366 N   0  0  0  0  0  0  0  0  0  0  0  0
   -2.2166   -0.4790   -0.2994 H   0  0  0  0  0  0  0  0  0  0  0  0
   -0.1956   -0.2250    0.2596 C   0  0  1  0  0  0  0  0  0  0  0  0
    0.3927   -0.6026    1.0964 H   0  0  0  0  0  0  0  0  0  0  0  0
    0.5767   -0.5489   -1.0351 C   0  0  0  0  0  0  0  0  0  0  0  0
    0.9975    0.3824   -1.4175 H   0  0  0  0  0  0  0  0  0  0  0  0
    1.3980   -1.2289   -0.8041 H   0  0  0  0  0  0  0  0  0  0  0  0
   -0.3020   -1.1733   -2.1321 C   0  0  0  0  0  0  0  0  0  0  0  0
   -1.0883   -0.4658   -2.4059 H   0  0  0  0  0  0  0  0  0  0  0  0
    0.3204   -1.3437   -3.0146 H   0  0  0  0  0  0  0  0  0  0  0  0
   -0.9557   -2.4975   -1.7102 C   0  0  0  0  0  0  0  0  0  0  0  0
   -0.6231   -3.0015   -0.6139 O   0  5  0  0  0  0  0  0  0  0  0  0
   -1.8071   -2.9769   -2.4917 O   0  0  0  0  0  0  0  0  0  0  0  0
   -0.3954    1.2887    0.4814 C   0  0  0  0  0  0  0  0  0  0  0  0
   -1.2761    1.9015   -0.1256 O   0  0  0  0  0  0  0  0  0  0  0  0
    0.4051    1.8919    1.3699 N   0  0  0  0  0  0  0  0  0  0  0  0
    1.1380    1.3380    1.7875 H   0  0  0  0  0  0  0  0  0  0  0  0
    0.3573    3.3183    1.6807 C   0  0  0  0  0  0  0  0  0  0  0  0
   -0.6670    3.6090    1.9198 H   0  0  0  0  0  0  0  0  0  0  0  0
    1.0066    3.5397    2.5289 H   0  0  0  0  0  0  0  0  0  0  0  0
    0.6896    3.8897    0.8118 H   0  0  0  0  0  0  0  0  0  0  0  0
  5  6  2  0  0  0  0
  5  7  1  0  0  0  0
  2  3  1  0  0  0  0
  2  4  1  0  0  0  0
  2  5  1  0  0  0  0
  1  2  1  0  0  0  0
 20 21  2  0  0  0  0
 20 22  1  0  0  0  0
 17 18  1  0  0  0  0
 17 19  2  0  0  0  0
 14 15  1  0  0  0  0
 14 16  1  0  0  0  0
 14 17  1  0  0  0  0
 11 12  1  0  0  0  0
 11 13  1  0  0  0  0
 11 14  1  0  0  0  0
  9 10  1  0  0  0  0
  9 11  1  0  0  0  0
  9 20  1  0  0  0  0
  7  8  1  0  0  0  0
  7  9  1  0  0  0  0
 24 25  1  0  0  0  0
 24 26  1  0  0  0  0
 24 27  1  0  0  0  0
 22 23  1  0  0  0  0
 22 24  1  0  0  0  0
M  CHG  1  18  -1
M  END
$$$$
default_name
  -OEChem-02102213163D

 27 26  0     1  0  0  0  0  0999 V2000
   -3.2406   -3.5400    1.2326 H   0  0  0  0  0  0  0  0  0  0  0  0
   -3.1436   -2.6190    0.6606 C   0  0  0  0  0  0  0  0  0  0  0  0
   -3.8786   -1.8920    0.9996 H   0  0  0  0  0  0  0  0  0  0  0  0
   -3.2846   -2.8280   -0.3984 H   0  0  0  0  0  0  0  0  0  0  0  0
   -1.7586   -2.0580    0.8686 C   0  0  0  0  0  0  0  0  0  0  0  0
   -0.9666   -2.6340    1.6026 O   0  0  0  0  0  0  0  0  0  0  0  0
   -1.4866   -0.9220    0.2366 N   0  0  0  0  0  0  0  0  0  0  0  0
   -2.2166   -0.4790   -0.2994 H   0  0  0  0  0  0  0  0  0  0  0  0
   -0.1956   -0.2250    0.2596 C   0  0  1  0  0  0  0  0  0  0  0  0
    0.3927   -0.6026    1.0964 H   0  0  0  0  0  0  0  0  0  0  0  0
    0.5767   -0.5489   -1.0351 C   0  0  0  0  0  0  0  0  0  0  0  0
    0.9975    0.3824   -1.4175 H   0  0  0  0  0  0  0  0  0  0  0  0
    1.3980   -1.2289   -0.8041 H   0  0  0  0  0  0  0  0  0  0  0  0
   -0.3020   -1.1733   -2.1321 C   0  0  0  0  0  0  0  0  0  0  0  0
   -0.9091   -0.3902   -2.5925 H   0  0  0  0  0  0  0  0  0  0  0  0
    0.3538   -1.5880   -2.9023 H   0  0  0  0  0  0  0  0  0  0  0  0
   -1.2341   -2.2778   -1.6123 C   0  0  0  0  0  0  0  0  0  0  0  0
   -1.1061   -2.6532   -0.4252 O   0  5  0  0  0  0  0  0  0  0  0  0
   -2.0869   -2.7164   -2.4158 O   0  0  0  0  0  0  0  0  0  0  0  0
   -0.3954    1.2887    0.4814 C   0  0  0  0  0  0  0  0  0  0  0  0
   -1.2761    1.9015   -0.1256 O   0  0  0  0  0  0  0  0  0  0  0  0
    0.4051    1.8919    1.3699 N   0  0  0  0  0  0  0  0  0  0  0  0
    1.1380    1.3380    1.7875 H   0  0  0  0  0  0  0  0  0  0  0  0
    0.3573    3.3183    1.6807 C   0  0  0  0  0  0  0  0  0  0  0  0
   -0.6670    3.6090    1.9198 H   0  0  0  0  0  0  0  0  0  0  0  0
    1.0066    3.5397    2.5289 H   0  0  0  0  0  0  0  0  0  0  0  0
    0.6896    3.8897    0.8118 H   0  0  0  0  0  0  0  0  0  0  0  0
  5  6  2  0  0  0  0
  5  7  1  0  0  0  0
  2  3  1  0  0  0  0
  2  4  1  0  0  0  0
  2  5  1  0  0  0  0
  1  2  1  0  0  0  0
 20 21  2  0  0  0  0
 20 22  1  0  0  0  0
 17 18  1  0  0  0  0
 17 19  2  0  0  0  0
 14 15  1  0  0  0  0
 14 16  1  0  0  0  0
 14 17  1  0  0  0  0
 11 12  1  0  0  0  0
 11 13  1  0  0  0  0
 11 14  1  0  0  0  0
  9 10  1  0  0  0  0
  9 11  1  0  0  0  0
  9 20  1  0  0  0  0
  7  8  1  0  0  0  0
  7  9  1  0  0  0  0
 24 25  1  0  0  0  0
 24 26  1  0  0  0  0
 24 27  1  0  0  0  0
 22 23  1  0  0  0  0
 22 24  1  0  0  0  0
M  CHG  1  18  -1
M  END
$$$$
default_name
  -OEChem-02102213163D

 27 26  0     1  0  0  0  0  0999 V2000
   -3.2406   -3.5400    1.2326 H   0  0  0  0  0  0  0  0  0  0  0  0
   -3.1436   -2.6190    0.6606 C   0  0  0  0  0  0  0  0  0  0  0  0
   -3.8786   -1.8920    0.9996 H   0  0  0  0  0  0  0  0  0  0  0  0
   -3.2846   -2.8280   -0.3984 H   0  0  0  0  0  0  0  0  0  0  0  0
   -1.7586   -2.0580    0.8686 C   0  0  0  0  0  0  0  0  0  0  0  0
   -0.9666   -2.6340    1.6026 O   0  0  0  0  0  0  0  0  0  0  0  0
   -1.4866   -0.9220    0.2366 N   0  0  0  0  0  0  0  0  0  0  0  0
   -2.2166   -0.4790   -0.2994 H   0  0  0  0  0  0  0  0  0  0  0  0
   -0.1956   -0.2250    0.2596 C   0  0  1  0  0  0  0  0  0  0  0  0
    0.3927   -0.6026    1.0964 H   0  0  0  0  0  0  0  0  0  0  0  0
    0.5767   -0.5489   -1.0351 C   0  0  0  0  0  0  0  0  0  0  0  0
    0.9975    0.3824   -1.4175 H   0  0  0  0  0  0  0  0  0  0  0  0
    1.3980   -1.2289   -0.8041 H   0  0  0  0  0  0  0  0  0  0  0  0
   -0.3020   -1.1733   -2.1321 C   0  0  0  0  0  0  0  0  0  0  0  0
   -0.7024   -0.3778   -2.7651 H   0  0  0  0  0  0  0  0  0  0  0  0
    0.3291   -1.8136   -2.7541 H   0  0  0  0  0  0  0  0  0  0  0  0
   -1.4728   -1.9997   -1.5795 C   0  0  0  0  0  0  0  0  0  0  0  0
   -1.5282   -2.1998   -0.3452 O   0  5  0  0  0  0  0  0  0  0  0  0
   -2.3171   -2.4018   -2.4105 O   0  0  0  0  0  0  0  0  0  0  0  0
   -0.3954    1.2887    0.4814 C   0  0  0  0  0  0  0  0  0  0  0  0
   -1.2761    1.9015   -0.1256 O   0  0  0  0  0  0  0  0  0  0  0  0
    0.4051    1.8919    1.3699 N   0  0  0  0  0  0  0  0  0  0  0  0
    1.1380    1.3380    1.7875 H   0  0  0  0  0  0  0  0  0  0  0  0
    0.3573    3.3183    1.6807 C   0  0  0  0  0  0  0  0  0  0  0  0
   -0.6670    3.6090    1.9198 H   0  0  0  0  0  0  0  0  0  0  0  0
    1.0066    3.5397    2.5289 H   0  0  0  0  0  0  0  0  0  0  0  0
    0.6896    3.8897    0.8118 H   0  0  0  0  0  0  0  0  0  0  0  0
  5  6  2  0  0  0  0
  5  7  1  0  0  0  0
  2  3  1  0  0  0  0
  2  4  1  0  0  0  0
  2  5  1  0  0  0  0
  1  2  1  0  0  0  0
 20 21  2  0  0  0  0
 20 22  1  0  0  0  0
 17 18  1  0  0  0  0
 17 19  2  0  0  0  0
 14 15  1  0  0  0  0
 14 16  1  0  0  0  0
 14 17  1  0  0  0  0
 11 12  1  0  0  0  0
 11 13  1  0  0  0  0
 11 14  1  0  0  0  0
  9 10  1  0  0  0  0
  9 11  1  0  0  0  0
  9 20  1  0  0  0  0
  7  8  1  0  0  0  0
  7  9  1  0  0  0  0
 24 25  1  0  0  0  0
 24 26  1  0  0  0  0
 24 27  1  0  0  0  0
 22 23  1  0  0  0  0
 22 24  1  0  0  0  0
M  CHG  1  18  -1
M  END
$$$$
default_name
  -OEChem-02102213163D

 27 26  0     1  0  0  0  0  0999 V2000
   -3.2406   -3.5400    1.2326 H   0  0  0  0  0  0  0  0  0  0  0  0
   -3.1436   -2.6190    0.6606 C   0  0  0  0  0  0  0  0  0  0  0  0
   -3.8786   -1.8920    0.9996 H   0  0  0  0  0  0  0  0  0  0  0  0
   -3.2846   -2.8280   -0.3984 H   0  0  0  0  0  0  0  0  0  0  0  0
   -1.7586   -2.0580    0.8686 C   0  0  0  0  0  0  0  0  0  0  0  0
   -0.9666   -2.6340    1.6026 O   0  0  0  0  0  0  0  0  0  0  0  0
   -1.4866   -0.9220    0.2366 N   0  0  0  0  0  0  0  0  0  0  0  0
   -2.2166   -0.4790   -0.2994 H   0  0  0  0  0  0  0  0  0  0  0  0
   -0.1956   -0.2250    0.2596 C   0  0  1  0  0  0  0  0  0  0  0  0
    0.3927   -0.6026    1.0964 H   0  0  0  0  0  0  0  0  0  0  0  0
    0.5767   -0.5489   -1.0351 C   0  0  0  0  0  0  0  0  0  0  0  0
    0.9975    0.3824   -1.4175 H   0  0  0  0  0  0  0  0  0  0  0  0
    1.3980   -1.2289   -0.8041 H   0  0  0  0  0  0  0  0  0  0  0  0
   -0.3020   -1.1733   -2.1321 C   0  0  0  0  0  0  0  0  0  0  0  0
   -0.4823   -0.4296   -2.9120 H   0  0  0  0  0  0  0  0  0  0  0  0
    0.2481   -2.0050   -2.5803 H   0  0  0  0  0  0  0  0  0  0  0  0
   -1.6554   -1.6821   -1.6140 C   0  0  0  0  0  0  0  0  0  0  0  0
   -1.8606   -1.6721   -0.3794 O   0  5  0  0  0  0  0  0  0  0  0  0
   -2.4820   -2.0547   -2.4761 O   0  0  0  0  0  0  0  0  0  0  0  0
   -0.3954    1.2887    0.4814 C   0  0  0  0  0  0  0  0  0  0  0  0
   -1.2761    1.9015   -0.1256 O   0  0  0  0  0  0  0  0  0  0  0  0
    0.4051    1.8919    1.3699 N   0  0  0  0  0  0  0  0  0  0  0  0
    1.1380    1.3380    1.7875 H   0  0  0  0  0  0  0  0  0  0  0  0
    0.3573    3.3183    1.6807 C   0  0  0  0  0  0  0  0  0  0  0  0
   -0.6670    3.6090    1.9198 H   0  0  0  0  0  0  0  0  0  0  0  0
    1.0066    3.5397    2.5289 H   0  0  0  0  0  0  0  0  0  0  0  0
    0.6896    3.8897    0.8118 H   0  0  0  0  0  0  0  0  0  0  0  0
  5  6  2  0  0  0  0
  5  7  1  0  0  0  0
  2  3  1  0  0  0  0
  2  4  1  0  0  0  0
  2  5  1  0  0  0  0
  1  2  1  0  0  0  0
 20 21  2  0  0  0  0
 20 22  1  0  0  0  0
 17 18  1  0  0  0  0
 17 19  2  0  0  0  0
 14 15  1  0  0  0  0
 14 16  1  0  0  0  0
 14 17  1  0  0  0  0
 11 12  1  0  0  0  0
 11 13  1  0  0  0  0
 11 14  1  0  0  0  0
  9 10  1  0  0  0  0
  9 11  1  0  0  0  0
  9 20  1  0  0  0  0
  7  8  1  0  0  0  0
  7  9  1  0  0  0  0
 24 25  1  0  0  0  0
 24 26  1  0  0  0  0
 24 27  1  0  0  0  0
 22 23  1  0  0  0  0
 22 24  1  0  0  0  0
M  CHG  1  18  -1
M  END
$$$$
default_name
  -OEChem-02102213163D

 27 26  0     1  0  0  0  0  0999 V2000
   -3.2406   -3.5400    1.2326 H   0  0  0  0  0  0  0  0  0  0  0  0
   -3.1436   -2.6190    0.6606 C   0  0  0  0  0  0  0  0  0  0  0  0
   -3.8786   -1.8920    0.9996 H   0  0  0  0  0  0  0  0  0  0  0  0
   -3.2846   -2.8280   -0.3984 H   0  0  0  0  0  0  0  0  0  0  0  0
   -1.7586   -2.0580    0.8686 C   0  0  0  0  0  0  0  0  0  0  0  0
   -0.9666   -2.6340    1.6026 O   0  0  0  0  0  0  0  0  0  0  0  0
   -1.4866   -0.9220    0.2366 N   0  0  0  0  0  0  0  0  0  0  0  0
   -2.2166   -0.4790   -0.2994 H   0  0  0  0  0  0  0  0  0  0  0  0
   -0.1956   -0.2250    0.2596 C   0  0  1  0  0  0  0  0  0  0  0  0
    0.3927   -0.6026    1.0964 H   0  0  0  0  0  0  0  0  0  0  0  0
    0.5767   -0.5489   -1.0351 C   0  0  0  0  0  0  0  0  0  0  0  0
    0.9975    0.3824   -1.4175 H   0  0  0  0  0  0  0  0  0  0  0  0
    1.3980   -1.2289   -0.8041 H   0  0  0  0  0  0  0  0  0  0  0  0
   -0.3020   -1.1733   -2.1321 C   0  0  0  0  0  0  0  0  0  0  0  0
   -0.2639   -0.5419   -3.0230 H   0  0  0  0  0  0  0  0  0  0  0  0
    0.1163   -2.1492   -2.3925 H   0  0  0  0  0  0  0  0  0  0  0  0
   -1.7695   -1.3468   -1.7135 C   0  0  0  0  0  0  0  0  0  0  0  0
   -2.0807   -1.1060   -0.5253 O   0  5  0  0  0  0  0  0  0  0  0  0
   -2.5702   -1.6987   -2.6080 O   0  0  0  0  0  0  0  0  0  0  0  0
   -0.3954    1.2887    0.4814 C   0  0  0  0  0  0  0  0  0  0  0  0
   -1.2761    1.9015   -0.1256 O   0  0  0  0  0  0  0  0  0  0  0  0
    0.4051    1.8919    1.3699 N   0  0  0  0  0  0  0  0  0  0  0  0
    1.1380    1.3380    1.7875 H   0  0  0  0  0  0  0  0  0  0  0  0
    0.3573    3.3183    1.6807 C   0  0  0  0  0  0  0  0  0  0  0  0
   -0.6670    3.6090    1.9198 H   0  0  0  0  0  0  0  0  0  0  0  0
    1.0066    3.5397    2.5289 H   0  0  0  0  0  0  0  0  0  0  0  0
    0.6896    3.8897    0.8118 H   0  0  0  0  0  0  0  0  0  0  0  0
  5  6  2  0  0  0  0
  5  7  1  0  0  0  0
  2  3  1  0  0  0  0
  2  4  1  0  0  0  0
  2  5  1  0  0  0  0
  1  2  1  0  0  0  0
 20 21  2  0  0  0  0
 20 22  1  0  0  0  0
 17 18  1  0  0  0  0
 17 19  2  0  0  0  0
 14 15  1  0  0  0  0
 14 16  1  0  0  0  0
 14 17  1  0  0  0  0
 11 12  1  0  0  0  0
 11 13  1  0  0  0  0
 11 14  1  0  0  0  0
  9 10  1  0  0  0  0
  9 11  1  0  0  0  0
  9 20  1  0  0  0  0
  7  8  1  0  0  0  0
  7  9  1  0  0  0  0
 24 25  1  0  0  0  0
 24 26  1  0  0  0  0
 24 27  1  0  0  0  0
 22 23  1  0  0  0  0
 22 24  1  0  0  0  0
M  CHG  1  18  -1
M  END
$$$$
default_name
  -OEChem-02102213163D

 27 26  0     1  0  0  0  0  0999 V2000
   -3.2406   -3.5400    1.2326 H   0  0  0  0  0  0  0  0  0  0  0  0
   -3.1436   -2.6190    0.6606 C   0  0  0  0  0  0  0  0  0  0  0  0
   -3.8786   -1.8920    0.9996 H   0  0  0  0  0  0  0  0  0  0  0  0
   -3.2846   -2.8280   -0.3984 H   0  0  0  0  0  0  0  0  0  0  0  0
   -1.7586   -2.0580    0.8686 C   0  0  0  0  0  0  0  0  0  0  0  0
   -0.9666   -2.6340    1.6026 O   0  0  0  0  0  0  0  0  0  0  0  0
   -1.4866   -0.9220    0.2366 N   0  0  0  0  0  0  0  0  0  0  0  0
   -2.2166   -0.4790   -0.2994 H   0  0  0  0  0  0  0  0  0  0  0  0
   -0.1956   -0.2250    0.2596 C   0  0  1  0  0  0  0  0  0  0  0  0
    0.3927   -0.6026    1.0964 H   0  0  0  0  0  0  0  0  0  0  0  0
    0.5767   -0.5489   -1.0351 C   0  0  0  0  0  0  0  0  0  0  0  0
    0.9975    0.3824   -1.4175 H   0  0  0  0  0  0  0  0  0  0  0  0
    1.3980   -1.2289   -0.8041 H   0  0  0  0  0  0  0  0  0  0  0  0
   -0.3020   -1.1733   -2.1321 C   0  0  0  0  0  0  0  0  0  0  0  0
   -0.0620   -0.7071   -3.0907 H   0  0  0  0  0  0  0  0  0  0  0  0
   -0.0574   -2.2364   -2.2038 H   0  0  0  0  0  0  0  0  0  0  0  0
   -1.8074   -1.0165   -1.8711 C   0  0  0  0  0  0  0  0  0  0  0  0
   -2.1735   -0.5401   -0.7731 O   0  5  0  0  0  0  0  0  0  0  0  0
   -2.5759   -1.3580   -2.7974 O   0  0  0  0  0  0  0  0  0  0  0  0
   -0.3954    1.2887    0.4814 C   0  0  0  0  0  0  0  0  0  0  0  0
   -1.2761    1.9015   -0.1256 O   0  0  0  0  0  0  0  0  0  0  0  0
    0.4051    1.8919    1.3699 N   0  0  0  0  0  0  0  0  0  0  0  0
    1.1380    1.3380    1.7875 H   0  0  0  0  0  0  0  0  0  0  0  0
    0.3573    3.3183    1.6807 C   0  0  0  0  0  0  0  0  0  0  0  0
   -0.6670    3.6090    1.9198 H   0  0  0  0  0  0  0  0  0  0  0  0
    1.0066    3.5397    2.5289 H   0  0  0  0  0  0  0  0  0  0  0  0
    0.6896    3.8897    0.8118 H   0  0  0  0  0  0  0  0  0  0  0  0
  5  6  2  0  0  0  0
  5  7  1  0  0  0  0
  2  3  1  0  0  0  0
  2  4  1  0  0  0  0
  2  5  1  0  0  0  0
  1  2  1  0  0  0  0
 20 21  2  0  0  0  0
 20 22  1  0  0  0  0
 17 18  1  0  0  0  0
 17 19  2  0  0  0  0
 14 15  1  0  0  0  0
 14 16  1  0  0  0  0
 14 17  1  0  0  0  0
 11 12  1  0  0  0  0
 11 13  1  0  0  0  0
 11 14  1  0  0  0  0
  9 10  1  0  0  0  0
  9 11  1  0  0  0  0
  9 20  1  0  0  0  0
  7  8  1  0  0  0  0
  7  9  1  0  0  0  0
 24 25  1  0  0  0  0
 24 26  1  0  0  0  0
 24 27  1  0  0  0  0
 22 23  1  0  0  0  0
 22 24  1  0  0  0  0
M  CHG  1  18  -1
M  END
$$$$
default_name
  -OEChem-02102213163D

 27 26  0     1  0  0  0  0  0999 V2000
   -3.2406   -3.5400    1.2326 H   0  0  0  0  0  0  0  0  0  0  0  0
   -3.1436   -2.6190    0.6606 C   0  0  0  0  0  0  0  0  0  0  0  0
   -3.8786   -1.8920    0.9996 H   0  0  0  0  0  0  0  0  0  0  0  0
   -3.2846   -2.8280   -0.3984 H   0  0  0  0  0  0  0  0  0  0  0  0
   -1.7586   -2.0580    0.8686 C   0  0  0  0  0  0  0  0  0  0  0  0
   -0.9666   -2.6340    1.6026 O   0  0  0  0  0  0  0  0  0  0  0  0
   -1.4866   -0.9220    0.2366 N   0  0  0  0  0  0  0  0  0  0  0  0
   -2.2166   -0.4790   -0.2994 H   0  0  0  0  0  0  0  0  0  0  0  0
   -0.1956   -0.2250    0.2596 C   0  0  1  0  0  0  0  0  0  0  0  0
    0.3927   -0.6026    1.0964 H   0  0  0  0  0  0  0  0  0  0  0  0
    0.5767   -0.5489   -1.0351 C   0  0  0  0  0  0  0  0  0  0  0  0
    0.9975    0.3824   -1.4175 H   0  0  0  0  0  0  0  0  0  0  0  0
    1.3980   -1.2289   -0.8041 H   0  0  0  0  0  0  0  0  0  0  0  0
   -0.3020   -1.1733   -2.1321 C   0  0  0  0  0  0  0  0  0  0  0  0
    0.1097   -0.9140   -3.1105 H   0  0  0  0  0  0  0  0  0  0  0  0
   -0.2612   -2.2607   -2.0267 H   0  0  0  0  0  0  0  0  0  0  0  0
   -1.7664   -0.7138   -2.0762 C   0  0  0  0  0  0  0  0  0  0  0  0
   -2.1326   -0.0131   -1.1059 O   0  5  0  0  0  0  0  0  0  0  0  0
   -2.4986   -1.0559   -3.0313 O   0  0  0  0  0  0  0  0  0  0  0  0
   -0.3954    1.2887    0.4814 C   0  0  0  0  0  0  0  0  0  0  0  0
   -1.2761    1.9015   -0.1256 O   0  0  0  0  0  0  0  0  0  0  0  0
    0.4051    1.8919    1.3699 N   0  0  0  0  0  0  0  0  0  0  0  0
    1.1380    1.3380    1.7875 H   0  0  0  0  0  0  0  0  0  0  0  0
    0.3573    3.3183    1.6807 C   0  0  0  0  0  0  0  0  0  0  0  0
   -0.6670    3.6090    1.9198 H   0  0  0  0  0  0  0  0  0  0  0  0
    1.0066    3.5397    2.5289 H   0  0  0  0  0  0  0  0  0  0  0  0
    0.6896    3.8897    0.8118 H   0  0  0  0  0  0  0  0  0  0  0  0
  5  6  2  0  0  0  0
  5  7  1  0  0  0  0
  2  3  1  0  0  0  0
  2  4  1  0  0  0  0
  2  5  1  0  0  0  0
  1  2  1  0  0  0  0
 20 21  2  0  0  0  0
 20 22  1  0  0  0  0
 17 18  1  0  0  0  0
 17 19  2  0  0  0  0
 14 15  1  0  0  0  0
 14 16  1  0  0  0  0
 14 17  1  0  0  0  0
 11 12  1  0  0  0  0
 11 13  1  0  0  0  0
 11 14  1  0  0  0  0
  9 10  1  0  0  0  0
  9 11  1  0  0  0  0
  9 20  1  0  0  0  0
  7  8  1  0  0  0  0
  7  9  1  0  0  0  0
 24 25  1  0  0  0  0
 24 26  1  0  0  0  0
 24 27  1  0  0  0  0
 22 23  1  0  0  0  0
 22 24  1  0  0  0  0
M  CHG  1  18  -1
M  END
$$$$
default_name
  -OEChem-02102213163D

 27 26  0     1  0  0  0  0  0999 V2000
   -3.2406   -3.5400    1.2326 H   0  0  0  0  0  0  0  0  0  0  0  0
   -3.1436   -2.6190    0.6606 C   0  0  0  0  0  0  0  0  0  0  0  0
   -3.8786   -1.8920    0.9996 H   0  0  0  0  0  0  0  0  0  0  0  0
   -3.2846   -2.8280   -0.3984 H   0  0  0  0  0  0  0  0  0  0  0  0
   -1.7586   -2.0580    0.8686 C   0  0  0  0  0  0  0  0  0  0  0  0
   -0.9666   -2.6340    1.6026 O   0  0  0  0  0  0  0  0  0  0  0  0
   -1.4866   -0.9220    0.2366 N   0  0  0  0  0  0  0  0  0  0  0  0
   -2.2166   -0.4790   -0.2994 H   0  0  0  0  0  0  0  0  0  0  0  0
   -0.1956   -0.2250    0.2596 C   0  0  1  0  0  0  0  0  0  0  0  0
    0.3927   -0.6026    1.0964 H   0  0  0  0  0  0  0  0  0  0  0  0
    0.5767   -0.5489   -1.0351 C   0  0  0  0  0  0  0  0  0  0  0  0
    0.9975    0.3824   -1.4175 H   0  0  0  0  0  0  0  0  0  0  0  0
    1.3980   -1.2289   -0.8041 H   0  0  0  0  0  0  0  0  0  0  0  0
   -0.3020   -1.1733   -2.1321 C   0  0  0  0  0  0  0  0  0  0  0  0
    0.2394   -1.1484   -3.0809 H   0  0  0  0  0  0  0  0  0  0  0  0
   -0.4810   -2.2204   -1.8736 H   0  0  0  0  0  0  0  0  0  0  0  0
   -1.6495   -0.4593   -2.3148 C   0  0  0  0  0  0  0  0  0  0  0  0
   -1.9608    0.4392   -1.5010 O   0  5  0  0  0  0  0  0  0  0  0  0
   -2.3435   -0.8129   -3.2938 O   0  0  0  0  0  0  0  0  0  0  0  0
   -0.3954    1.2887    0.4814 C   0  0  0  0  0  0  0  0  0  0  0  0
   -1.2761    1.9015   -0.1256 O   0  0  0  0  0  0  0  0  0  0  0  0
    0.4051    1.8919    1.3699 N   0  0  0  0  0  0  0  0  0  0  0  0
    1.1380    1.3380    1.7875 H   0  0  0  0  0  0  0  0  0  0  0  0
    0.3573    3.3183    1.6807 C   0  0  0  0  0  0  0  0  0  0  0  0
   -0.6670    3.6090    1.9198 H   0  0  0  0  0  0  0  0  0  0  0  0
    1.0066    3.5397    2.5289 H   0  0  0  0  0  0  0  0  0  0  0  0
    0.6896    3.8897    0.8118 H   0  0  0  0  0  0  0  0  0  0  0  0
  5  6  2  0  0  0  0
  5  7  1  0  0  0  0
  2  3  1  0  0  0  0
  2  4  1  0  0  0  0
  2  5  1  0  0  0  0
  1  2  1  0  0  0  0
 20 21  2  0  0  0  0
 20 22  1  0  0  0  0
 17 18  1  0  0  0  0
 17 19  2  0  0  0  0
 14 15  1  0  0  0  0
 14 16  1  0  0  0  0
 14 17  1  0  0  0  0
 11 12  1  0  0  0  0
 11 13  1  0  0  0  0
 11 14  1  0  0  0  0
  9 10  1  0  0  0  0
  9 11  1  0  0  0  0
  9 20  1  0  0  0  0
  7  8  1  0  0  0  0
  7  9  1  0  0  0  0
 24 25  1  0  0  0  0
 24 26  1  0  0  0  0
 24 27  1  0  0  0  0
 22 23  1  0  0  0  0
 22 24  1  0  0  0  0
M  CHG  1  18  -1
M  END
$$$$
default_name
  -OEChem-02102213163D

 27 26  0     1  0  0  0  0  0999 V2000
   -3.2406   -3.5400    1.2326 H   0  0  0  0  0  0  0  0  0  0  0  0
   -3.1436   -2.6190    0.6606 C   0  0  0  0  0  0  0  0  0  0  0  0
   -3.8786   -1.8920    0.9996 H   0  0  0  0  0  0  0  0  0  0  0  0
   -3.2846   -2.8280   -0.3984 H   0  0  0  0  0  0  0  0  0  0  0  0
   -1.7586   -2.0580    0.8686 C   0  0  0  0  0  0  0  0  0  0  0  0
   -0.9666   -2.6340    1.6026 O   0  0  0  0  0  0  0  0  0  0  0  0
   -1.4866   -0.9220    0.2366 N   0  0  0  0  0  0  0  0  0  0  0  0
   -2.2166   -0.4790   -0.2994 H   0  0  0  0  0  0  0  0  0  0  0  0
   -0.1956   -0.2250    0.2596 C   0  0  1  0  0  0  0  0  0  0  0  0
    0.3927   -0.6026    1.0964 H   0  0  0  0  0  0  0  0  0  0  0  0
    0.5767   -0.5489   -1.0351 C   0  0  0  0  0  0  0  0  0  0  0  0
    0.9975    0.3824   -1.4175 H   0  0  0  0  0  0  0  0  0  0  0  0
    1.3980   -1.2289   -0.8041 H   0  0  0  0  0  0  0  0  0  0  0  0
   -0.3020   -1.1733   -2.1321 C   0  0  0  0  0  0  0  0  0  0  0  0
    0.3183   -1.3945   -3.0040 H   0  0  0  0  0  0  0  0  0  0  0  0
   -0.7021   -2.1181   -1.7547 H   0  0  0  0  0  0  0  0  0  0  0  0
   -1.4644   -0.2703   -2.5706 C   0  0  0  0  0  0  0  0  0  0  0  0
   -1.6698    0.7860   -1.9315 O   0  5  0  0  0  0  0  0  0  0  0  0
   -2.1214   -0.6457   -3.5670 O   0  0  0  0  0  0  0  0  0  0  0  0
   -0.3954    1.2887    0.4814 C   0  0  0  0  0  0  0  0  0  0  0  0
   -1.2761    1.9015   -0.1256 O   0  0  0  0  0  0  0  0  0  0  0  0
    0.4051    1.8919    1.3699 N   0  0  0  0  0  0  0  0  0  0  0  0
    1.1380    1.3380    1.7875 H   0  0  0  0  0  0  0  0  0  0  0  0
    0.3573    3.3183    1.6807 C   0  0  0  0  0  0  0  0  0  0  0  0
   -0.6670    3.6090    1.9198 H   0  0  0  0  0  0  0  0  0  0  0  0
    1.0066    3.5397    2.5289 H   0  0  0  0  0  0  0  0  0  0  0  0
    0.6896    3.8897    0.8118 H   0  0  0  0  0  0  0  0  0  0  0  0
  5  6  2  0  0  0  0
  5  7  1  0  0  0  0
  2  3  1  0  0  0  0
  2  4  1  0  0  0  0
  2  5  1  0  0  0  0
  1  2  1  0  0  0  0
 20 21  2  0  0  0  0
 20 22  1  0  0  0  0
 17 18  1  0  0  0  0
 17 19  2  0  0  0  0
 14 15  1  0  0  0  0
 14 16  1  0  0  0  0
 14 17  1  0  0  0  0
 11 12  1  0  0  0  0
 11 13  1  0  0  0  0
 11 14  1  0  0  0  0
  9 10  1  0  0  0  0
  9 11  1  0  0  0  0
  9 20  1  0  0  0  0
  7  8  1  0  0  0  0
  7  9  1  0  0  0  0
 24 25  1  0  0  0  0
 24 26  1  0  0  0  0
 24 27  1  0  0  0  0
 22 23  1  0  0  0  0
 22 24  1  0  0  0  0
M  CHG  1  18  -1
M  END
$$$$
default_name
  -OEChem-02102213163D

 27 26  0     1  0  0  0  0  0999 V2000
   -3.2406   -3.5400    1.2326 H   0  0  0  0  0  0  0  0  0  0  0  0
   -3.1436   -2.6190    0.6606 C   0  0  0  0  0  0  0  0  0  0  0  0
   -3.8786   -1.8920    0.9996 H   0  0  0  0  0  0  0  0  0  0  0  0
   -3.2846   -2.8280   -0.3984 H   0  0  0  0  0  0  0  0  0  0  0  0
   -1.7586   -2.0580    0.8686 C   0  0  0  0  0  0  0  0  0  0  0  0
   -0.9666   -2.6340    1.6026 O   0  0  0  0  0  0  0  0  0  0  0  0
   -1.4866   -0.9220    0.2366 N   0  0  0  0  0  0  0  0  0  0  0  0
   -2.2166   -0.4790   -0.2994 H   0  0  0  0  0  0  0  0  0  0  0  0
   -0.1956   -0.2250    0.2596 C   0  0  1  0  0  0  0  0  0  0  0  0
    0.3927   -0.6026    1.0964 H   0  0  0  0  0  0  0  0  0  0  0  0
    0.5767   -0.5489   -1.0351 C   0  0  0  0  0  0  0  0  0  0  0  0
    0.9975    0.3824   -1.4175 H   0  0  0  0  0  0  0  0  0  0  0  0
    1.3980   -1.2289   -0.8041 H   0  0  0  0  0  0  0  0  0  0  0  0
   -0.3020   -1.1733   -2.1321 C   0  0  0  0  0  0  0  0  0  0  0  0
    0.3410   -1.6353   -2.8851 H   0  0  0  0  0  0  0  0  0  0  0  0
   -0.9092   -1.9610   -1.6783 H   0  0  0  0  0  0  0  0  0  0  0  0
   -1.2239   -0.1598   -2.8262 C   0  0  0  0  0  0  0  0  0  0  0  0
   -1.2796    1.0036   -2.3679 O   0  5  0  0  0  0  0  0  0  0  0  0
   -1.8472   -0.5656   -3.8323 O   0  0  0  0  0  0  0  0  0  0  0  0
   -0.3954    1.2887    0.4814 C   0  0  0  0  0  0  0  0  0  0  0  0
   -1.2761    1.9015   -0.1256 O   0  0  0  0  0  0  0  0  0  0  0  0
    0.4051    1.8919    1.3699 N   0  0  0  0  0  0  0  0  0  0  0  0
    1.1380    1.3380    1.7875 H   0  0  0  0  0  0  0  0  0  0  0  0
    0.3573    3.3183    1.6807 C   0  0  0  0  0  0  0  0  0  0  0  0
   -0.6670    3.6090    1.9198 H   0  0  0  0  0  0  0  0  0  0  0  0
    1.0066    3.5397    2.5289 H   0  0  0  0  0  0  0  0  0  0  0  0
    0.6896    3.8897    0.8118 H   0  0  0  0  0  0  0  0  0  0  0  0
  5  6  2  0  0  0  0
  5  7  1  0  0  0  0
  2  3  1  0  0  0  0
  2  4  1  0  0  0  0
  2  5  1  0  0  0  0
  1  2  1  0  0  0  0
 20 21  2  0  0  0  0
 20 22  1  0  0  0  0
 17 18  1  0  0  0  0
 17 19  2  0  0  0  0
 14 15  1  0  0  0  0
 14 16  1  0  0  0  0
 14 17  1  0  0  0  0
 11 12  1  0  0  0  0
 11 13  1  0  0  0  0
 11 14  1  0  0  0  0
  9 10  1  0  0  0  0
  9 11  1  0  0  0  0
  9 20  1  0  0  0  0
  7  8  1  0  0  0  0
  7  9  1  0  0  0  0
 24 25  1  0  0  0  0
 24 26  1  0  0  0  0
 24 27  1  0  0  0  0
 22 23  1  0  0  0  0
 22 24  1  0  0  0  0
M  CHG  1  18  -1
M  END
$$$$
default_name
  -OEChem-02102213163D

 27 26  0     1  0  0  0  0  0999 V2000
   -3.2406   -3.5400    1.2326 H   0  0  0  0  0  0  0  0  0  0  0  0
   -3.1436   -2.6190    0.6606 C   0  0  0  0  0  0  0  0  0  0  0  0
   -3.8786   -1.8920    0.9996 H   0  0  0  0  0  0  0  0  0  0  0  0
   -3.2846   -2.8280   -0.3984 H   0  0  0  0  0  0  0  0  0  0  0  0
   -1.7586   -2.0580    0.8686 C   0  0  0  0  0  0  0  0  0  0  0  0
   -0.9666   -2.6340    1.6026 O   0  0  0  0  0  0  0  0  0  0  0  0
   -1.4866   -0.9220    0.2366 N   0  0  0  0  0  0  0  0  0  0  0  0
   -2.2166   -0.4790   -0.2994 H   0  0  0  0  0  0  0  0  0  0  0  0
   -0.1956   -0.2250    0.2596 C   0  0  1  0  0  0  0  0  0  0  0  0
    0.3927   -0.6026    1.0964 H   0  0  0  0  0  0  0  0  0  0  0  0
    0.5767   -0.5489   -1.0351 C   0  0  0  0  0  0  0  0  0  0  0  0
    0.9975    0.3824   -1.4175 H   0  0  0  0  0  0  0  0  0  0  0  0
    1.3980   -1.2289   -0.8041 H   0  0  0  0  0  0  0  0  0  0  0  0
   -0.3020   -1.1733   -2.1321 C   0  0  0  0  0  0  0  0  0  0  0  0
    0.3060   -1.8546   -2.7323 H   0  0  0  0  0  0  0  0  0  0  0  0
   -1.0883   -1.7597   -1.6494 H   0  0  0  0  0  0  0  0  0  0  0  0
   -0.9443   -0.1352   -3.0641 C   0  0  0  0  0  0  0  0  0  0  0  0
   -0.8166    1.0771   -2.7807 O   0  5  0  0  0  0  0  0  0  0  0  0
   -1.5396   -0.5780   -4.0715 O   0  0  0  0  0  0  0  0  0  0  0  0
   -0.3954    1.2887    0.4814 C   0  0  0  0  0  0  0  0  0  0  0  0
   -1.2761    1.9015   -0.1256 O   0  0  0  0  0  0  0  0  0  0  0  0
    0.4051    1.8919    1.3699 N   0  0  0  0  0  0  0  0  0  0  0  0
    1.1380    1.3380    1.7875 H   0  0  0  0  0  0  0  0  0  0  0  0
    0.3573    3.3183    1.6807 C   0  0  0  0  0  0  0  0  0  0  0  0
   -0.6670    3.6090    1.9198 H   0  0  0  0  0  0  0  0  0  0  0  0
    1.0066    3.5397    2.5289 H   0  0  0  0  0  0  0  0  0  0  0  0
    0.6896    3.8897    0.8118 H   0  0  0  0  0  0  0  0  0  0  0  0
  5  6  2  0  0  0  0
  5  7  1  0  0  0  0
  2  3  1  0  0  0  0
  2  4  1  0  0  0  0
  2  5  1  0  0  0  0
  1  2  1  0  0  0  0
 20 21  2  0  0  0  0
 20 22  1  0  0  0  0
 17 18  1  0  0  0  0
 17 19  2  0  0  0  0
 14 15  1  0  0  0  0
 14 16  1  0  0  0  0
 14 17  1  0  0  0  0
 11 12  1  0  0  0  0
 11 13  1  0  0  0  0
 11 14  1  0  0  0  0
  9 10  1  0  0  0  0
  9 11  1  0  0  0  0
  9 20  1  0  0  0  0
  7  8  1  0  0  0  0
  7  9  1  0  0  0  0
 24 25  1  0  0  0  0
 24 26  1  0  0  0  0
 24 27  1  0  0  0  0
 22 23  1  0  0  0  0
 22 24  1  0  0  0  0
M  CHG  1  18  -1
M  END
$$$$
default_name
  -OEChem-02102213163D

 27 26  0     1  0  0  0  0  0999 V2000
   -3.2406   -3.5400    1.2326 H   0  0  0  0  0  0  0  0  0  0  0  0
   -3.1436   -2.6190    0.6606 C   0  0  0  0  0  0  0  0  0  0  0  0
   -3.8786   -1.8920    0.9996 H   0  0  0  0  0  0  0  0  0  0  0  0
   -3.2846   -2.8280   -0.3984 H   0  0  0  0  0  0  0  0  0  0  0  0
   -1.7586   -2.0580    0.8686 C   0  0  0  0  0  0  0  0  0  0  0  0
   -0.9666   -2.6340    1.6026 O   0  0  0  0  0  0  0  0  0  0  0  0
   -1.4866   -0.9220    0.2366 N   0  0  0  0  0  0  0  0  0  0  0  0
   -2.2166   -0.4790   -0.2994 H   0  0  0  0  0  0  0  0  0  0  0  0
   -0.1956   -0.2250    0.2596 C   0  0  1  0  0  0  0  0  0  0  0  0
    0.3927   -0.6026    1.0964 H   0  0  0  0  0  0  0  0  0  0  0  0
    0.5767   -0.5489   -1.0351 C   0  0  0  0  0  0  0  0  0  0  0  0
    0.9975    0.3824   -1.4175 H   0  0  0  0  0  0  0  0  0  0  0  0
    1.3980   -1.2289   -0.8041 H   0  0  0  0  0  0  0  0  0  0  0  0
   -0.3020   -1.1733   -2.1321 C   0  0  0  0  0  0  0  0  0  0  0  0
    0.2157   -2.0373   -2.5559 H   0  0  0  0  0  0  0  0  0  0  0  0
   -1.2271   -1.5280   -1.6701 H   0  0  0  0  0  0  0  0  0  0  0  0
   -0.6447   -0.1983   -3.2682 C   0  0  0  0  0  0  0  0  0  0  0  0
   -0.3124    1.0017   -3.1417 O   0  5  0  0  0  0  0  0  0  0  0  0
   -1.2198   -0.6822   -4.2684 O   0  0  0  0  0  0  0  0  0  0  0  0
   -0.3954    1.2887    0.4814 C   0  0  0  0  0  0  0  0  0  0  0  0
   -1.2761    1.9015   -0.1256 O   0  0  0  0  0  0  0  0  0  0  0  0
    0.4051    1.8919    1.3699 N   0  0  0  0  0  0  0  0  0  0  0  0
    1.1380    1.3380    1.7875 H   0  0  0  0  0  0  0  0  0  0  0  0
    0.3573    3.3183    1.6807 C   0  0  0  0  0  0  0  0  0  0  0  0
   -0.6670    3.6090    1.9198 H   0  0  0  0  0  0  0  0  0  0  0  0
    1.0066    3.5397    2.5289 H   0  0  0  0  0  0  0  0  0  0  0  0
    0.6896    3.8897    0.8118 H   0  0  0  0  0  0  0  0  0  0  0  0
  5  6  2  0  0  0  0
  5  7  1  0  0  0  0
  2  3  1  0  0  0  0
  2  4  1  0  0  0  0
  2  5  1  0  0  0  0
  1  2  1  0  0  0  0
 20 21  2  0  0  0  0
 20 22  1  0  0  0  0
 17 18  1  0  0  0  0
 17 19  2  0  0  0  0
 14 15  1  0  0  0  0
 14 16  1  0  0  0  0
 14 17  1  0  0  0  0
 11 12  1  0  0  0  0
 11 13  1  0  0  0  0
 11 14  1  0  0  0  0
  9 10  1  0  0  0  0
  9 11  1  0  0  0  0
  9 20  1  0  0  0  0
  7  8  1  0  0  0  0
  7  9  1  0  0  0  0
 24 25  1  0  0  0  0
 24 26  1  0  0  0  0
 24 27  1  0  0  0  0
 22 23  1  0  0  0  0
 22 24  1  0  0  0  0
M  CHG  1  18  -1
M  END
$$$$
default_name
  -OEChem-02102213163D

 27 26  0     1  0  0  0  0  0999 V2000
   -3.2406   -3.5400    1.2326 H   0  0  0  0  0  0  0  0  0  0  0  0
   -3.1436   -2.6190    0.6606 C   0  0  0  0  0  0  0  0  0  0  0  0
   -3.8786   -1.8920    0.9996 H   0  0  0  0  0  0  0  0  0  0  0  0
   -3.2846   -2.8280   -0.3984 H   0  0  0  0  0  0  0  0  0  0  0  0
   -1.7586   -2.0580    0.8686 C   0  0  0  0  0  0  0  0  0  0  0  0
   -0.9666   -2.6340    1.6026 O   0  0  0  0  0  0  0  0  0  0  0  0
   -1.4866   -0.9220    0.2366 N   0  0  0  0  0  0  0  0  0  0  0  0
   -2.2166   -0.4790   -0.2994 H   0  0  0  0  0  0  0  0  0  0  0  0
   -0.1956   -0.2250    0.2596 C   0  0  1  0  0  0  0  0  0  0  0  0
    0.3927   -0.6026    1.0964 H   0  0  0  0  0  0  0  0  0  0  0  0
    0.5767   -0.5489   -1.0351 C   0  0  0  0  0  0  0  0  0  0  0  0
    0.9975    0.3824   -1.4175 H   0  0  0  0  0  0  0  0  0  0  0  0
    1.3980   -1.2289   -0.8041 H   0  0  0  0  0  0  0  0  0  0  0  0
   -0.3020   -1.1733   -2.1321 C   0  0  0  0  0  0  0  0  0  0  0  0
    0.0761   -2.1710   -2.3680 H   0  0  0  0  0  0  0  0  0  0  0  0
   -1.3163   -1.2815   -1.7390 H   0  0  0  0  0  0  0  0  0  0  0  0
   -0.3455   -0.3447   -3.4245 C   0  0  0  0  0  0  0  0  0  0  0  0
    0.1987    0.7824   -3.4262 O   0  5  0  0  0  0  0  0  0  0  0  0
   -0.9093   -0.8710   -4.4097 O   0  0  0  0  0  0  0  0  0  0  0  0
   -0.3954    1.2887    0.4814 C   0  0  0  0  0  0  0  0  0  0  0  0
   -1.2761    1.9015   -0.1256 O   0  0  0  0  0  0  0  0  0  0  0  0
    0.4051    1.8919    1.3699 N   0  0  0  0  0  0  0  0  0  0  0  0
    1.1380    1.3380    1.7875 H   0  0  0  0  0  0  0  0  0  0  0  0
    0.3573    3.3183    1.6807 C   0  0  0  0  0  0  0  0  0  0  0  0
   -0.6670    3.6090    1.9198 H   0  0  0  0  0  0  0  0  0  0  0  0
    1.0066    3.5397    2.5289 H   0  0  0  0  0  0  0  0  0  0  0  0
    0.6896    3.8897    0.8118 H   0  0  0  0  0  0  0  0  0  0  0  0
  5  6  2  0  0  0  0
  5  7  1  0  0  0  0
  2  3  1  0  0  0  0
  2  4  1  0  0  0  0
  2  5  1  0  0  0  0
  1  2  1  0  0  0  0
 20 21  2  0  0  0  0
 20 22  1  0  0  0  0
 17 18  1  0  0  0  0
 17 19  2  0  0  0  0
 14 15  1  0  0  0  0
 14 16  1  0  0  0  0
 14 17  1  0  0  0  0
 11 12  1  0  0  0  0
 11 13  1  0  0  0  0
 11 14  1  0  0  0  0
  9 10  1  0  0  0  0
  9 11  1  0  0  0  0
  9 20  1  0  0  0  0
  7  8  1  0  0  0  0
  7  9  1  0  0  0  0
 24 25  1  0  0  0  0
 24 26  1  0  0  0  0
 24 27  1  0  0  0  0
 22 23  1  0  0  0  0
 22 24  1  0  0  0  0
M  CHG  1  18  -1
M  END
$$$$
default_name
  -OEChem-02102213163D

 27 26  0     1  0  0  0  0  0999 V2000
   -3.2406   -3.5400    1.2326 H   0  0  0  0  0  0  0  0  0  0  0  0
   -3.1436   -2.6190    0.6606 C   0  0  0  0  0  0  0  0  0  0  0  0
   -3.8786   -1.8920    0.9996 H   0  0  0  0  0  0  0  0  0  0  0  0
   -3.2846   -2.8280   -0.3984 H   0  0  0  0  0  0  0  0  0  0  0  0
   -1.7586   -2.0580    0.8686 C   0  0  0  0  0  0  0  0  0  0  0  0
   -0.9666   -2.6340    1.6026 O   0  0  0  0  0  0  0  0  0  0  0  0
   -1.4866   -0.9220    0.2366 N   0  0  0  0  0  0  0  0  0  0  0  0
   -2.2166   -0.4790   -0.2994 H   0  0  0  0  0  0  0  0  0  0  0  0
   -0.1956   -0.2250    0.2596 C   0  0  1  0  0  0  0  0  0  0  0  0
    0.3927   -0.6026    1.0964 H   0  0  0  0  0  0  0  0  0  0  0  0
    0.5767   -0.5489   -1.0351 C   0  0  0  0  0  0  0  0  0  0  0  0
    0.9975    0.3824   -1.4175 H   0  0  0  0  0  0  0  0  0  0  0  0
    1.3980   -1.2289   -0.8041 H   0  0  0  0  0  0  0  0  0  0  0  0
   -0.3020   -1.1733   -2.1321 C   0  0  0  0  0  0  0  0  0  0  0  0
   -0.1031   -2.2466   -2.1813 H   0  0  0  0  0  0  0  0  0  0  0  0
   -1.3497   -1.0372   -1.8513 H   0  0  0  0  0  0  0  0  0  0  0  0
   -0.0671   -0.5644   -3.5224 C   0  0  0  0  0  0  0  0  0  0  0  0
    0.6817    0.4342   -3.6148 O   0  5  0  0  0  0  0  0  0  0  0  0
   -0.6295   -1.1315   -4.4855 O   0  0  0  0  0  0  0  0  0  0  0  0
   -0.3954    1.2887    0.4814 C   0  0  0  0  0  0  0  0  0  0  0  0
   -1.2761    1.9015   -0.1256 O   0  0  0  0  0  0  0  0  0  0  0  0
    0.4051    1.8919    1.3699 N   0  0  0  0  0  0  0  0  0  0  0  0
    1.1380    1.3380    1.7875 H   0  0  0  0  0  0  0  0  0  0  0  0
    0.3573    3.3183    1.6807 C   0  0  0  0  0  0  0  0  0  0  0  0
   -0.6670    3.6090    1.9198 H   0  0  0  0  0  0  0  0  0  0  0  0
    1.0066    3.5397    2.5289 H   0  0  0  0  0  0  0  0  0  0  0  0
    0.6896    3.8897    0.8118 H   0  0  0  0  0  0  0  0  0  0  0  0
  5  6  2  0  0  0  0
  5  7  1  0  0  0  0
  2  3  1  0  0  0  0
  2  4  1  0  0  0  0
  2  5  1  0  0  0  0
  1  2  1  0  0  0  0
 20 21  2  0  0  0  0
 20 22  1  0  0  0  0
 17 18  1  0  0  0  0
 17 19  2  0  0  0  0
 14 15  1  0  0  0  0
 14 16  1  0  0  0  0
 14 17  1  0  0  0  0
 11 12  1  0  0  0  0
 11 13  1  0  0  0  0
 11 14  1  0  0  0  0
  9 10  1  0  0  0  0
  9 11  1  0  0  0  0
  9 20  1  0  0  0  0
  7  8  1  0  0  0  0
  7  9  1  0  0  0  0
 24 25  1  0  0  0  0
 24 26  1  0  0  0  0
 24 27  1  0  0  0  0
 22 23  1  0  0  0  0
 22 24  1  0  0  0  0
M  CHG  1  18  -1
M  END
$$$$
default_name
  -OEChem-02102213163D

 27 26  0     1  0  0  0  0  0999 V2000
   -3.2406   -3.5400    1.2326 H   0  0  0  0  0  0  0  0  0  0  0  0
   -3.1436   -2.6190    0.6606 C   0  0  0  0  0  0  0  0  0  0  0  0
   -3.8786   -1.8920    0.9996 H   0  0  0  0  0  0  0  0  0  0  0  0
   -3.2846   -2.8280   -0.3984 H   0  0  0  0  0  0  0  0  0  0  0  0
   -1.7586   -2.0580    0.8686 C   0  0  0  0  0  0  0  0  0  0  0  0
   -0.9666   -2.6340    1.6026 O   0  0  0  0  0  0  0  0  0  0  0  0
   -1.4866   -0.9220    0.2366 N   0  0  0  0  0  0  0  0  0  0  0  0
   -2.2166   -0.4790   -0.2994 H   0  0  0  0  0  0  0  0  0  0  0  0
   -0.1956   -0.2250    0.2596 C   0  0  1  0  0  0  0  0  0  0  0  0
    0.3927   -0.6026    1.0964 H   0  0  0  0  0  0  0  0  0  0  0  0
    0.5767   -0.5489   -1.0351 C   0  0  0  0  0  0  0  0  0  0  0  0
    0.9975    0.3824   -1.4175 H   0  0  0  0  0  0  0  0  0  0  0  0
    1.3980   -1.2289   -0.8041 H   0  0  0  0  0  0  0  0  0  0  0  0
   -0.3020   -1.1733   -2.1321 C   0  0  0  0  0  0  0  0  0  0  0  0
   -0.3098   -2.2590   -2.0087 H   0  0  0  0  0  0  0  0  0  0  0  0
   -1.3251   -0.8117   -1.9994 H   0  0  0  0  0  0  0  0  0  0  0  0
    0.1715   -0.8426   -3.5553 C   0  0  0  0  0  0  0  0  0  0  0  0
    1.1038   -0.0193   -3.6948 O   0  5  0  0  0  0  0  0  0  0  0  0
   -0.3993   -1.4461   -4.4908 O   0  0  0  0  0  0  0  0  0  0  0  0
   -0.3954    1.2887    0.4814 C   0  0  0  0  0  0  0  0  0  0  0  0
   -1.2761    1.9015   -0.1256 O   0  0  0  0  0  0  0  0  0  0  0  0
    0.4051    1.8919    1.3699 N   0  0  0  0  0  0  0  0  0  0  0  0
    1.1380    1.3380    1.7875 H   0  0  0  0  0  0  0  0  0  0  0  0
    0.3573    3.3183    1.6807 C   0  0  0  0  0  0  0  0  0  0  0  0
   -0.6670    3.6090    1.9198 H   0  0  0  0  0  0  0  0  0  0  0  0
    1.0066    3.5397    2.5289 H   0  0  0  0  0  0  0  0  0  0  0  0
    0.6896    3.8897    0.8118 H   0  0  0  0  0  0  0  0  0  0  0  0
  5  6  2  0  0  0  0
  5  7  1  0  0  0  0
  2  3  1  0  0  0  0
  2  4  1  0  0  0  0
  2  5  1  0  0  0  0
  1  2  1  0  0  0  0
 20 21  2  0  0  0  0
 20 22  1  0  0  0  0
 17 18  1  0  0  0  0
 17 19  2  0  0  0  0
 14 15  1  0  0  0  0
 14 16  1  0  0  0  0
 14 17  1  0  0  0  0
 11 12  1  0  0  0  0
 11 13  1  0  0  0  0
 11 14  1  0  0  0  0
  9 10  1  0  0  0  0
  9 11  1  0  0  0  0
  9 20  1  0  0  0  0
  7  8  1  0  0  0  0
  7  9  1  0  0  0  0
 24 25  1  0  0  0  0
 24 26  1  0  0  0  0
 24 27  1  0  0  0  0
 22 23  1  0  0  0  0
 22 24  1  0  0  0  0
M  CHG  1  18  -1
M  END
$$$$
default_name
  -OEChem-02102213163D

 27 26  0     1  0  0  0  0  0999 V2000
   -3.2406   -3.5400    1.2326 H   0  0  0  0  0  0  0  0  0  0  0  0
   -3.1436   -2.6190    0.6606 C   0  0  0  0  0  0  0  0  0  0  0  0
   -3.8786   -1.8920    0.9996 H   0  0  0  0  0  0  0  0  0  0  0  0
   -3.2846   -2.8280   -0.3984 H   0  0  0  0  0  0  0  0  0  0  0  0
   -1.7586   -2.0580    0.8686 C   0  0  0  0  0  0  0  0  0  0  0  0
   -0.9666   -2.6340    1.6026 O   0  0  0  0  0  0  0  0  0  0  0  0
   -1.4866   -0.9220    0.2366 N   0  0  0  0  0  0  0  0  0  0  0  0
   -2.2166   -0.4790   -0.2994 H   0  0  0  0  0  0  0  0  0  0  0  0
   -0.1956   -0.2250    0.2596 C   0  0  1  0  0  0  0  0  0  0  0  0
    0.3927   -0.6026    1.0964 H   0  0  0  0  0  0  0  0  0  0  0  0
    0.5767   -0.5489   -1.0351 C   0  0  0  0  0  0  0  0  0  0  0  0
    0.9975    0.3824   -1.4175 H   0  0  0  0  0  0  0  0  0  0  0  0
    1.3980   -1.2289   -0.8041 H   0  0  0  0  0  0  0  0  0  0  0  0
   -0.3020   -1.1733   -2.1321 C   0  0  0  0  0  0  0  0  0  0  0  0
   -0.5299   -2.2072   -1.8619 H   0  0  0  0  0  0  0  0  0  0  0  0
   -1.2441   -0.6202   -2.1733 H   0  0  0  0  0  0  0  0  0  0  0  0
    0.3541   -1.1601   -3.5208 C   0  0  0  0  0  0  0  0  0  0  0  0
    1.4362   -0.5470   -3.6607 O   0  5  0  0  0  0  0  0  0  0  0  0
   -0.2344   -1.7932   -4.4253 O   0  0  0  0  0  0  0  0  0  0  0  0
   -0.3954    1.2887    0.4814 C   0  0  0  0  0  0  0  0  0  0  0  0
   -1.2761    1.9015   -0.1256 O   0  0  0  0  0  0  0  0  0  0  0  0
    0.4051    1.8919    1.3699 N   0  0  0  0  0  0  0  0  0  0  0  0
    1.1380    1.3380    1.7875 H   0  0  0  0  0  0  0  0  0  0  0  0
    0.3573    3.3183    1.6807 C   0  0  0  0  0  0  0  0  0  0  0  0
   -0.6670    3.6090    1.9198 H   0  0  0  0  0  0  0  0  0  0  0  0
    1.0066    3.5397    2.5289 H   0  0  0  0  0  0  0  0  0  0  0  0
    0.6896    3.8897    0.8118 H   0  0  0  0  0  0  0  0  0  0  0  0
  5  6  2  0  0  0  0
  5  7  1  0  0  0  0
  2  3  1  0  0  0  0
  2  4  1  0  0  0  0
  2  5  1  0  0  0  0
  1  2  1  0  0  0  0
 20 21  2  0  0  0  0
 20 22  1  0  0  0  0
 17 18  1  0  0  0  0
 17 19  2  0  0  0  0
 14 15  1  0  0  0  0
 14 16  1  0  0  0  0
 14 17  1  0  0  0  0
 11 12  1  0  0  0  0
 11 13  1  0  0  0  0
 11 14  1  0  0  0  0
  9 10  1  0  0  0  0
  9 11  1  0  0  0  0
  9 20  1  0  0  0  0
  7  8  1  0  0  0  0
  7  9  1  0  0  0  0
 24 25  1  0  0  0  0
 24 26  1  0  0  0  0
 24 27  1  0  0  0  0
 22 23  1  0  0  0  0
 22 24  1  0  0  0  0
M  CHG  1  18  -1
M  END
$$$$
default_name
  -OEChem-02102213163D

 27 26  0     1  0  0  0  0  0999 V2000
   -3.2406   -3.5400    1.2326 H   0  0  0  0  0  0  0  0  0  0  0  0
   -3.1436   -2.6190    0.6606 C   0  0  0  0  0  0  0  0  0  0  0  0
   -3.8786   -1.8920    0.9996 H   0  0  0  0  0  0  0  0  0  0  0  0
   -3.2846   -2.8280   -0.3984 H   0  0  0  0  0  0  0  0  0  0  0  0
   -1.7586   -2.0580    0.8686 C   0  0  0  0  0  0  0  0  0  0  0  0
   -0.9666   -2.6340    1.6026 O   0  0  0  0  0  0  0  0  0  0  0  0
   -1.4866   -0.9220    0.2366 N   0  0  0  0  0  0  0  0  0  0  0  0
   -2.2166   -0.4790   -0.2994 H   0  0  0  0  0  0  0  0  0  0  0  0
   -0.1956   -0.2250    0.2596 C   0  0  1  0  0  0  0  0  0  0  0  0
    0.3927   -0.6026    1.0964 H   0  0  0  0  0  0  0  0  0  0  0  0
    0.5767   -0.5489   -1.0351 C   0  0  0  0  0  0  0  0  0  0  0  0
    1.2121    0.3064   -1.2705 H   0  0  0  0  0  0  0  0  0  0  0  0
    1.2158   -1.4167   -0.8658 H   0  0  0  0  0  0  0  0  0  0  0  0
   -0.3377   -0.8233   -2.2410 C   0  0  0  0  0  0  0  0  0  0  0  0
   -0.9958   -1.6634   -2.0064 H   0  0  0  0  0  0  0  0  0  0  0  0
   -0.9625    0.0586   -2.4054 H   0  0  0  0  0  0  0  0  0  0  0  0
    0.4325   -1.1457   -3.5300 C   0  0  0  0  0  0  0  0  0  0  0  0
    1.6785   -1.0267   -3.5231 O   0  5  0  0  0  0  0  0  0  0  0  0
   -0.2460   -1.5347   -4.5066 O   0  0  0  0  0  0  0  0  0  0  0  0
   -0.3954    1.2887    0.4814 C   0  0  0  0  0  0  0  0  0  0  0  0
   -1.2761    1.9015   -0.1256 O   0  0  0  0  0  0  0  0  0  0  0  0
    0.4051    1.8919    1.3699 N   0  0  0  0  0  0  0  0  0  0  0  0
    1.1380    1.3380    1.7875 H   0  0  0  0  0  0  0  0  0  0  0  0
    0.3573    3.3183    1.6807 C   0  0  0  0  0  0  0  0  0  0  0  0
   -0.6670    3.6090    1.9198 H   0  0  0  0  0  0  0  0  0  0  0  0
    1.0066    3.5397    2.5289 H   0  0  0  0  0  0  0  0  0  0  0  0
    0.6896    3.8897    0.8118 H   0  0  0  0  0  0  0  0  0  0  0  0
  5  6  2  0  0  0  0
  5  7  1  0  0  0  0
  2  3  1  0  0  0  0
  2  4  1  0  0  0  0
  2  5  1  0  0  0  0
  1  2  1  0  0  0  0
 20 21  2  0  0  0  0
 20 22  1  0  0  0  0
 17 18  1  0  0  0  0
 17 19  2  0  0  0  0
 14 15  1  0  0  0  0
 14 16  1  0  0  0  0
 14 17  1  0  0  0  0
 11 12  1  0  0  0  0
 11 13  1  0  0  0  0
 11 14  1  0  0  0  0
  9 10  1  0  0  0  0
  9 11  1  0  0  0  0
  9 20  1  0  0  0  0
  7  8  1  0  0  0  0
  7  9  1  0  0  0  0
 24 25  1  0  0  0  0
 24 26  1  0  0  0  0
 24 27  1  0  0  0  0
 22 23  1  0  0  0  0
 22 24  1  0  0  0  0
M  CHG  1  18  -1
M  END
$$$$
default_name
  -OEChem-02102213163D

 27 26  0     1  0  0  0  0  0999 V2000
   -3.2406   -3.5400    1.2326 H   0  0  0  0  0  0  0  0  0  0  0  0
   -3.1436   -2.6190    0.6606 C   0  0  0  0  0  0  0  0  0  0  0  0
   -3.8786   -1.8920    0.9996 H   0  0  0  0  0  0  0  0  0  0  0  0
   -3.2846   -2.8280   -0.3984 H   0  0  0  0  0  0  0  0  0  0  0  0
   -1.7586   -2.0580    0.8686 C   0  0  0  0  0  0  0  0  0  0  0  0
   -0.9666   -2.6340    1.6026 O   0  0  0  0  0  0  0  0  0  0  0  0
   -1.4866   -0.9220    0.2366 N   0  0  0  0  0  0  0  0  0  0  0  0
   -2.2166   -0.4790   -0.2994 H   0  0  0  0  0  0  0  0  0  0  0  0
   -0.1956   -0.2250    0.2596 C   0  0  1  0  0  0  0  0  0  0  0  0
    0.3927   -0.6026    1.0964 H   0  0  0  0  0  0  0  0  0  0  0  0
    0.5767   -0.5489   -1.0351 C   0  0  0  0  0  0  0  0  0  0  0  0
    1.2121    0.3064   -1.2705 H   0  0  0  0  0  0  0  0  0  0  0  0
    1.2158   -1.4167   -0.8658 H   0  0  0  0  0  0  0  0  0  0  0  0
   -0.3377   -0.8233   -2.2410 C   0  0  0  0  0  0  0  0  0  0  0  0
   -1.1619   -1.4673   -1.9251 H   0  0  0  0  0  0  0  0  0  0  0  0
   -0.7616    0.1280   -2.5735 H   0  0  0  0  0  0  0  0  0  0  0  0
    0.3880   -1.4931   -3.4172 C   0  0  0  0  0  0  0  0  0  0  0  0
    1.6309   -1.6252   -3.3508 O   0  5  0  0  0  0  0  0  0  0  0  0
   -0.3263   -1.8889   -4.3651 O   0  0  0  0  0  0  0  0  0  0  0  0
   -0.3954    1.2887    0.4814 C   0  0  0  0  0  0  0  0  0  0  0  0
   -1.2761    1.9015   -0.1256 O   0  0  0  0  0  0  0  0  0  0  0  0
    0.4051    1.8919    1.3699 N   0  0  0  0  0  0  0  0  0  0  0  0
    1.1380    1.3380    1.7875 H   0  0  0  0  0  0  0  0  0  0  0  0
    0.3573    3.3183    1.6807 C   0  0  0  0  0  0  0  0  0  0  0  0
   -0.6670    3.6090    1.9198 H   0  0  0  0  0  0  0  0  0  0  0  0
    1.0066    3.5397    2.5289 H   0  0  0  0  0  0  0  0  0  0  0  0
    0.6896    3.8897    0.8118 H   0  0  0  0  0  0  0  0  0  0  0  0
  5  6  2  0  0  0  0
  5  7  1  0  0  0  0
  2  3  1  0  0  0  0
  2  4  1  0  0  0  0
  2  5  1  0  0  0  0
  1  2  1  0  0  0  0
 20 21  2  0  0  0  0
 20 22  1  0  0  0  0
 17 18  1  0  0  0  0
 17 19  2  0  0  0  0
 14 15  1  0  0  0  0
 14 16  1  0  0  0  0
 14 17  1  0  0  0  0
 11 12  1  0  0  0  0
 11 13  1  0  0  0  0
 11 14  1  0  0  0  0
  9 10  1  0  0  0  0
  9 11  1  0  0  0  0
  9 20  1  0  0  0  0
  7  8  1  0  0  0  0
  7  9  1  0  0  0  0
 24 25  1  0  0  0  0
 24 26  1  0  0  0  0
 24 27  1  0  0  0  0
 22 23  1  0  0  0  0
 22 24  1  0  0  0  0
M  CHG  1  18  -1
M  END
$$$$
default_name
  -OEChem-02102213163D

 27 26  0     1  0  0  0  0  0999 V2000
   -3.2406   -3.5400    1.2326 H   0  0  0  0  0  0  0  0  0  0  0  0
   -3.1436   -2.6190    0.6606 C   0  0  0  0  0  0  0  0  0  0  0  0
   -3.8786   -1.8920    0.9996 H   0  0  0  0  0  0  0  0  0  0  0  0
   -3.2846   -2.8280   -0.3984 H   0  0  0  0  0  0  0  0  0  0  0  0
   -1.7586   -2.0580    0.8686 C   0  0  0  0  0  0  0  0  0  0  0  0
   -0.9666   -2.6340    1.6026 O   0  0  0  0  0  0  0  0  0  0  0  0
   -1.4866   -0.9220    0.2366 N   0  0  0  0  0  0  0  0  0  0  0  0
   -2.2166   -0.4790   -0.2994 H   0  0  0  0  0  0  0  0  0  0  0  0
   -0.1956   -0.2250    0.2596 C   0  0  1  0  0  0  0  0  0  0  0  0
    0.3927   -0.6026    1.0964 H   0  0  0  0  0  0  0  0  0  0  0  0
    0.5767   -0.5489   -1.0351 C   0  0  0  0  0  0  0  0  0  0  0  0
    1.2121    0.3064   -1.2705 H   0  0  0  0  0  0  0  0  0  0  0  0
    1.2158   -1.4167   -0.8658 H   0  0  0  0  0  0  0  0  0  0  0  0
   -0.3377   -0.8233   -2.2410 C   0  0  0  0  0  0  0  0  0  0  0  0
   -1.2863   -1.2317   -1.8843 H   0  0  0  0  0  0  0  0  0  0  0  0
   -0.5457    0.1283   -2.7373 H   0  0  0  0  0  0  0  0  0  0  0  0
    0.2694   -1.8022   -3.2569 C   0  0  0  0  0  0  0  0  0  0  0  0
    1.4555   -2.1672   -3.0945 O   0  5  0  0  0  0  0  0  0  0  0  0
   -0.4823   -2.1930   -4.1776 O   0  0  0  0  0  0  0  0  0  0  0  0
   -0.3954    1.2887    0.4814 C   0  0  0  0  0  0  0  0  0  0  0  0
   -1.2761    1.9015   -0.1256 O   0  0  0  0  0  0  0  0  0  0  0  0
    0.4051    1.8919    1.3699 N   0  0  0  0  0  0  0  0  0  0  0  0
    1.1380    1.3380    1.7875 H   0  0  0  0  0  0  0  0  0  0  0  0
    0.3573    3.3183    1.6807 C   0  0  0  0  0  0  0  0  0  0  0  0
   -0.6670    3.6090    1.9198 H   0  0  0  0  0  0  0  0  0  0  0  0
    1.0066    3.5397    2.5289 H   0  0  0  0  0  0  0  0  0  0  0  0
    0.6896    3.8897    0.8118 H   0  0  0  0  0  0  0  0  0  0  0  0
  5  6  2  0  0  0  0
  5  7  1  0  0  0  0
  2  3  1  0  0  0  0
  2  4  1  0  0  0  0
  2  5  1  0  0  0  0
  1  2  1  0  0  0  0
 20 21  2  0  0  0  0
 20 22  1  0  0  0  0
 17 18  1  0  0  0  0
 17 19  2  0  0  0  0
 14 15  1  0  0  0  0
 14 16  1  0  0  0  0
 14 17  1  0  0  0  0
 11 12  1  0  0  0  0
 11 13  1  0  0  0  0
 11 14  1  0  0  0  0
  9 10  1  0  0  0  0
  9 11  1  0  0  0  0
  9 20  1  0  0  0  0
  7  8  1  0  0  0  0
  7  9  1  0  0  0  0
 24 25  1  0  0  0  0
 24 26  1  0  0  0  0
 24 27  1  0  0  0  0
 22 23  1  0  0  0  0
 22 24  1  0  0  0  0
M  CHG  1  18  -1
M  END
$$$$
default_name
  -OEChem-02102213163D

 27 26  0     1  0  0  0  0  0999 V2000
   -3.2406   -3.5400    1.2326 H   0  0  0  0  0  0  0  0  0  0  0  0
   -3.1436   -2.6190    0.6606 C   0  0  0  0  0  0  0  0  0  0  0  0
   -3.8786   -1.8920    0.9996 H   0  0  0  0  0  0  0  0  0  0  0  0
   -3.2846   -2.8280   -0.3984 H   0  0  0  0  0  0  0  0  0  0  0  0
   -1.7586   -2.0580    0.8686 C   0  0  0  0  0  0  0  0  0  0  0  0
   -0.9666   -2.6340    1.6026 O   0  0  0  0  0  0  0  0  0  0  0  0
   -1.4866   -0.9220    0.2366 N   0  0  0  0  0  0  0  0  0  0  0  0
   -2.2166   -0.4790   -0.2994 H   0  0  0  0  0  0  0  0  0  0  0  0
   -0.1956   -0.2250    0.2596 C   0  0  1  0  0  0  0  0  0  0  0  0
    0.3927   -0.6026    1.0964 H   0  0  0  0  0  0  0  0  0  0  0  0
    0.5767   -0.5489   -1.0351 C   0  0  0  0  0  0  0  0  0  0  0  0
    1.2121    0.3064   -1.2705 H   0  0  0  0  0  0  0  0  0  0  0  0
    1.2158   -1.4167   -0.8658 H   0  0  0  0  0  0  0  0  0  0  0  0
   -0.3377   -0.8233   -2.2410 C   0  0  0  0  0  0  0  0  0  0  0  0
   -1.3606   -0.9725   -1.8870 H   0  0  0  0  0  0  0  0  0  0  0  0
   -0.3295    0.0596   -2.8856 H   0  0  0  0  0  0  0  0  0  0  0  0
    0.0846   -2.0521   -3.0599 C   0  0  0  0  0  0  0  0  0  0  0  0
    1.1643   -2.6156   -2.7716 O   0  5  0  0  0  0  0  0  0  0  0  0
   -0.7033   -2.4262   -3.9569 O   0  0  0  0  0  0  0  0  0  0  0  0
   -0.3954    1.2887    0.4814 C   0  0  0  0  0  0  0  0  0  0  0  0
   -1.2761    1.9015   -0.1256 O   0  0  0  0  0  0  0  0  0  0  0  0
    0.4051    1.8919    1.3699 N   0  0  0  0  0  0  0  0  0  0  0  0
    1.1380    1.3380    1.7875 H   0  0  0  0  0  0  0  0  0  0  0  0
    0.3573    3.3183    1.6807 C   0  0  0  0  0  0  0  0  0  0  0  0
   -0.6670    3.6090    1.9198 H   0  0  0  0  0  0  0  0  0  0  0  0
    1.0066    3.5397    2.5289 H   0  0  0  0  0  0  0  0  0  0  0  0
    0.6896    3.8897    0.8118 H   0  0  0  0  0  0  0  0  0  0  0  0
  5  6  2  0  0  0  0
  5  7  1  0  0  0  0
  2  3  1  0  0  0  0
  2  4  1  0  0  0  0
  2  5  1  0  0  0  0
  1  2  1  0  0  0  0
 20 21  2  0  0  0  0
 20 22  1  0  0  0  0
 17 18  1  0  0  0  0
 17 19  2  0  0  0  0
 14 15  1  0  0  0  0
 14 16  1  0  0  0  0
 14 17  1  0  0  0  0
 11 12  1  0  0  0  0
 11 13  1  0  0  0  0
 11 14  1  0  0  0  0
  9 10  1  0  0  0  0
  9 11  1  0  0  0  0
  9 20  1  0  0  0  0
  7  8  1  0  0  0  0
  7  9  1  0  0  0  0
 24 25  1  0  0  0  0
 24 26  1  0  0  0  0
 24 27  1  0  0  0  0
 22 23  1  0  0  0  0
 22 24  1  0  0  0  0
M  CHG  1  18  -1
M  END
$$$$
default_name
  -OEChem-02102213163D

 27 26  0     1  0  0  0  0  0999 V2000
   -3.2406   -3.5400    1.2326 H   0  0  0  0  0  0  0  0  0  0  0  0
   -3.1436   -2.6190    0.6606 C   0  0  0  0  0  0  0  0  0  0  0  0
   -3.8786   -1.8920    0.9996 H   0  0  0  0  0  0  0  0  0  0  0  0
   -3.2846   -2.8280   -0.3984 H   0  0  0  0  0  0  0  0  0  0  0  0
   -1.7586   -2.0580    0.8686 C   0  0  0  0  0  0  0  0  0  0  0  0
   -0.9666   -2.6340    1.6026 O   0  0  0  0  0  0  0  0  0  0  0  0
   -1.4866   -0.9220    0.2366 N   0  0  0  0  0  0  0  0  0  0  0  0
   -2.2166   -0.4790   -0.2994 H   0  0  0  0  0  0  0  0  0  0  0  0
   -0.1956   -0.2250    0.2596 C   0  0  1  0  0  0  0  0  0  0  0  0
    0.3927   -0.6026    1.0964 H   0  0  0  0  0  0  0  0  0  0  0  0
    0.5767   -0.5489   -1.0351 C   0  0  0  0  0  0  0  0  0  0  0  0
    1.2121    0.3064   -1.2705 H   0  0  0  0  0  0  0  0  0  0  0  0
    1.2158   -1.4167   -0.8658 H   0  0  0  0  0  0  0  0  0  0  0  0
   -0.3377   -0.8233   -2.2410 C   0  0  0  0  0  0  0  0  0  0  0  0
   -1.3796   -0.7076   -1.9329 H   0  0  0  0  0  0  0  0  0  0  0  0
   -0.1278   -0.0734   -3.0083 H   0  0  0  0  0  0  0  0  0  0  0  0
   -0.1537   -2.2256   -2.8397 C   0  0  0  0  0  0  0  0  0  0  0  0
    0.7771   -2.9401   -2.4042 O   0  5  0  0  0  0  0  0  0  0  0  0
   -0.9743   -2.5727   -3.7180 O   0  0  0  0  0  0  0  0  0  0  0  0
   -0.3954    1.2887    0.4814 C   0  0  0  0  0  0  0  0  0  0  0  0
   -1.2761    1.9015   -0.1256 O   0  0  0  0  0  0  0  0  0  0  0  0
    0.4051    1.8919    1.3699 N   0  0  0  0  0  0  0  0  0  0  0  0
    1.1380    1.3380    1.7875 H   0  0  0  0  0  0  0  0  0  0  0  0
    0.3573    3.3183    1.6807 C   0  0  0  0  0  0  0  0  0  0  0  0
   -0.6670    3.6090    1.9198 H   0  0  0  0  0  0  0  0  0  0  0  0
    1.0066    3.5397    2.5289 H   0  0  0  0  0  0  0  0  0  0  0  0
    0.6896    3.8897    0.8118 H   0  0  0  0  0  0  0  0  0  0  0  0
  5  6  2  0  0  0  0
  5  7  1  0  0  0  0
  2  3  1  0  0  0  0
  2  4  1  0  0  0  0
  2  5  1  0  0  0  0
  1  2  1  0  0  0  0
 20 21  2  0  0  0  0
 20 22  1  0  0  0  0
 17 18  1  0  0  0  0
 17 19  2  0  0  0  0
 14 15  1  0  0  0  0
 14 16  1  0  0  0  0
 14 17  1  0  0  0  0
 11 12  1  0  0  0  0
 11 13  1  0  0  0  0
 11 14  1  0  0  0  0
  9 10  1  0  0  0  0
  9 11  1  0  0  0  0
  9 20  1  0  0  0  0
  7  8  1  0  0  0  0
  7  9  1  0  0  0  0
 24 25  1  0  0  0  0
 24 26  1  0  0  0  0
 24 27  1  0  0  0  0
 22 23  1  0  0  0  0
 22 24  1  0  0  0  0
M  CHG  1  18  -1
M  END
$$$$
default_name
  -OEChem-02102213163D

 27 26  0     1  0  0  0  0  0999 V2000
   -3.2406   -3.5400    1.2326 H   0  0  0  0  0  0  0  0  0  0  0  0
   -3.1436   -2.6190    0.6606 C   0  0  0  0  0  0  0  0  0  0  0  0
   -3.8786   -1.8920    0.9996 H   0  0  0  0  0  0  0  0  0  0  0  0
   -3.2846   -2.8280   -0.3984 H   0  0  0  0  0  0  0  0  0  0  0  0
   -1.7586   -2.0580    0.8686 C   0  0  0  0  0  0  0  0  0  0  0  0
   -0.9666   -2.6340    1.6026 O   0  0  0  0  0  0  0  0  0  0  0  0
   -1.4866   -0.9220    0.2366 N   0  0  0  0  0  0  0  0  0  0  0  0
   -2.2166   -0.4790   -0.2994 H   0  0  0  0  0  0  0  0  0  0  0  0
   -0.1956   -0.2250    0.2596 C   0  0  1  0  0  0  0  0  0  0  0  0
    0.3927   -0.6026    1.0964 H   0  0  0  0  0  0  0  0  0  0  0  0
    0.5767   -0.5489   -1.0351 C   0  0  0  0  0  0  0  0  0  0  0  0
    1.2121    0.3064   -1.2705 H   0  0  0  0  0  0  0  0  0  0  0  0
    1.2158   -1.4167   -0.8658 H   0  0  0  0  0  0  0  0  0  0  0  0
   -0.3377   -0.8233   -2.2410 C   0  0  0  0  0  0  0  0  0  0  0  0
   -1.3421   -0.4549   -2.0188 H   0  0  0  0  0  0  0  0  0  0  0  0
    0.0457   -0.2617   -3.0970 H   0  0  0  0  0  0  0  0  0  0  0  0
   -0.4293   -2.3110   -2.6113 C   0  0  0  0  0  0  0  0  0  0  0  0
    0.3203   -3.1183   -2.0172 O   0  5  0  0  0  0  0  0  0  0  0  0
   -1.2769   -2.6224   -3.4773 O   0  0  0  0  0  0  0  0  0  0  0  0
   -0.3954    1.2887    0.4814 C   0  0  0  0  0  0  0  0  0  0  0  0
   -1.2761    1.9015   -0.1256 O   0  0  0  0  0  0  0  0  0  0  0  0
    0.4051    1.8919    1.3699 N   0  0  0  0  0  0  0  0  0  0  0  0
    1.1380    1.3380    1.7875 H   0  0  0  0  0  0  0  0  0  0  0  0
    0.3573    3.3183    1.6807 C   0  0  0  0  0  0  0  0  0  0  0  0
   -0.6670    3.6090    1.9198 H   0  0  0  0  0  0  0  0  0  0  0  0
    1.0066    3.5397    2.5289 H   0  0  0  0  0  0  0  0  0  0  0  0
    0.6896    3.8897    0.8118 H   0  0  0  0  0  0  0  0  0  0  0  0
  5  6  2  0  0  0  0
  5  7  1  0  0  0  0
  2  3  1  0  0  0  0
  2  4  1  0  0  0  0
  2  5  1  0  0  0  0
  1  2  1  0  0  0  0
 20 21  2  0  0  0  0
 20 22  1  0  0  0  0
 17 18  1  0  0  0  0
 17 19  2  0  0  0  0
 14 15  1  0  0  0  0
 14 16  1  0  0  0  0
 14 17  1  0  0  0  0
 11 12  1  0  0  0  0
 11 13  1  0  0  0  0
 11 14  1  0  0  0  0
  9 10  1  0  0  0  0
  9 11  1  0  0  0  0
  9 20  1  0  0  0  0
  7  8  1  0  0  0  0
  7  9  1  0  0  0  0
 24 25  1  0  0  0  0
 24 26  1  0  0  0  0
 24 27  1  0  0  0  0
 22 23  1  0  0  0  0
 22 24  1  0  0  0  0
M  CHG  1  18  -1
M  END
$$$$
default_name
  -OEChem-02102213163D

 27 26  0     1  0  0  0  0  0999 V2000
   -3.2406   -3.5400    1.2326 H   0  0  0  0  0  0  0  0  0  0  0  0
   -3.1436   -2.6190    0.6606 C   0  0  0  0  0  0  0  0  0  0  0  0
   -3.8786   -1.8920    0.9996 H   0  0  0  0  0  0  0  0  0  0  0  0
   -3.2846   -2.8280   -0.3984 H   0  0  0  0  0  0  0  0  0  0  0  0
   -1.7586   -2.0580    0.8686 C   0  0  0  0  0  0  0  0  0  0  0  0
   -0.9666   -2.6340    1.6026 O   0  0  0  0  0  0  0  0  0  0  0  0
   -1.4866   -0.9220    0.2366 N   0  0  0  0  0  0  0  0  0  0  0  0
   -2.2166   -0.4790   -0.2994 H   0  0  0  0  0  0  0  0  0  0  0  0
   -0.1956   -0.2250    0.2596 C   0  0  1  0  0  0  0  0  0  0  0  0
    0.3927   -0.6026    1.0964 H   0  0  0  0  0  0  0  0  0  0  0  0
    0.5767   -0.5489   -1.0351 C   0  0  0  0  0  0  0  0  0  0  0  0
    1.2121    0.3064   -1.2705 H   0  0  0  0  0  0  0  0  0  0  0  0
    1.2158   -1.4167   -0.8658 H   0  0  0  0  0  0  0  0  0  0  0  0
   -0.3377   -0.8233   -2.2410 C   0  0  0  0  0  0  0  0  0  0  0  0
   -1.2506   -0.2316   -2.1390 H   0  0  0  0  0  0  0  0  0  0  0  0
    0.1791   -0.4924   -3.1457 H   0  0  0  0  0  0  0  0  0  0  0  0
   -0.7233   -2.3025   -2.3903 C   0  0  0  0  0  0  0  0  0  0  0  0
   -0.1750   -3.1382   -1.6371 O   0  5  0  0  0  0  0  0  0  0  0  0
   -1.5903   -2.5720   -3.2510 O   0  0  0  0  0  0  0  0  0  0  0  0
   -0.3954    1.2887    0.4814 C   0  0  0  0  0  0  0  0  0  0  0  0
   -1.2761    1.9015   -0.1256 O   0  0  0  0  0  0  0  0  0  0  0  0
    0.4051    1.8919    1.3699 N   0  0  0  0  0  0  0  0  0  0  0  0
    1.1380    1.3380    1.7875 H   0  0  0  0  0  0  0  0  0  0  0  0
    0.3573    3.3183    1.6807 C   0  0  0  0  0  0  0  0  0  0  0  0
   -0.6670    3.6090    1.9198 H   0  0  0  0  0  0  0  0  0  0  0  0
    1.0066    3.5397    2.5289 H   0  0  0  0  0  0  0  0  0  0  0  0
    0.6896    3.8897    0.8118 H   0  0  0  0  0  0  0  0  0  0  0  0
  5  6  2  0  0  0  0
  5  7  1  0  0  0  0
  2  3  1  0  0  0  0
  2  4  1  0  0  0  0
  2  5  1  0  0  0  0
  1  2  1  0  0  0  0
 20 21  2  0  0  0  0
 20 22  1  0  0  0  0
 17 18  1  0  0  0  0
 17 19  2  0  0  0  0
 14 15  1  0  0  0  0
 14 16  1  0  0  0  0
 14 17  1  0  0  0  0
 11 12  1  0  0  0  0
 11 13  1  0  0  0  0
 11 14  1  0  0  0  0
  9 10  1  0  0  0  0
  9 11  1  0  0  0  0
  9 20  1  0  0  0  0
  7  8  1  0  0  0  0
  7  9  1  0  0  0  0
 24 25  1  0  0  0  0
 24 26  1  0  0  0  0
 24 27  1  0  0  0  0
 22 23  1  0  0  0  0
 22 24  1  0  0  0  0
M  CHG  1  18  -1
M  END
$$$$
default_name
  -OEChem-02102213163D

 27 26  0     1  0  0  0  0  0999 V2000
   -3.2406   -3.5400    1.2326 H   0  0  0  0  0  0  0  0  0  0  0  0
   -3.1436   -2.6190    0.6606 C   0  0  0  0  0  0  0  0  0  0  0  0
   -3.8786   -1.8920    0.9996 H   0  0  0  0  0  0  0  0  0  0  0  0
   -3.2846   -2.8280   -0.3984 H   0  0  0  0  0  0  0  0  0  0  0  0
   -1.7586   -2.0580    0.8686 C   0  0  0  0  0  0  0  0  0  0  0  0
   -0.9666   -2.6340    1.6026 O   0  0  0  0  0  0  0  0  0  0  0  0
   -1.4866   -0.9220    0.2366 N   0  0  0  0  0  0  0  0  0  0  0  0
   -2.2166   -0.4790   -0.2994 H   0  0  0  0  0  0  0  0  0  0  0  0
   -0.1956   -0.2250    0.2596 C   0  0  1  0  0  0  0  0  0  0  0  0
    0.3927   -0.6026    1.0964 H   0  0  0  0  0  0  0  0  0  0  0  0
    0.5767   -0.5489   -1.0351 C   0  0  0  0  0  0  0  0  0  0  0  0
    1.2121    0.3064   -1.2705 H   0  0  0  0  0  0  0  0  0  0  0  0
    1.2158   -1.4167   -0.8658 H   0  0  0  0  0  0  0  0  0  0  0  0
   -0.3377   -0.8233   -2.2410 C   0  0  0  0  0  0  0  0  0  0  0  0
   -1.1114   -0.0530   -2.2852 H   0  0  0  0  0  0  0  0  0  0  0  0
    0.2635   -0.7499   -3.1511 H   0  0  0  0  0  0  0  0  0  0  0  0
   -1.0158   -2.2005   -2.1917 C   0  0  0  0  0  0  0  0  0  0  0  0
   -0.6749   -2.9985   -1.2897 O   0  5  0  0  0  0  0  0  0  0  0  0
   -1.8933   -2.4249   -3.0548 O   0  0  0  0  0  0  0  0  0  0  0  0
   -0.3954    1.2887    0.4814 C   0  0  0  0  0  0  0  0  0  0  0  0
   -1.2761    1.9015   -0.1256 O   0  0  0  0  0  0  0  0  0  0  0  0
    0.4051    1.8919    1.3699 N   0  0  0  0  0  0  0  0  0  0  0  0
    1.1380    1.3380    1.7875 H   0  0  0  0  0  0  0  0  0  0  0  0
    0.3573    3.3183    1.6807 C   0  0  0  0  0  0  0  0  0  0  0  0
   -0.6670    3.6090    1.9198 H   0  0  0  0  0  0  0  0  0  0  0  0
    1.0066    3.5397    2.5289 H   0  0  0  0  0  0  0  0  0  0  0  0
    0.6896    3.8897    0.8118 H   0  0  0  0  0  0  0  0  0  0  0  0
  5  6  2  0  0  0  0
  5  7  1  0  0  0  0
  2  3  1  0  0  0  0
  2  4  1  0  0  0  0
  2  5  1  0  0  0  0
  1  2  1  0  0  0  0
 20 21  2  0  0  0  0
 20 22  1  0  0  0  0
 17 18  1  0  0  0  0
 17 19  2  0  0  0  0
 14 15  1  0  0  0  0
 14 16  1  0  0  0  0
 14 17  1  0  0  0  0
 11 12  1  0  0  0  0
 11 13  1  0  0  0  0
 11 14  1  0  0  0  0
  9 10  1  0  0  0  0
  9 11  1  0  0  0  0
  9 20  1  0  0  0  0
  7  8  1  0  0  0  0
  7  9  1  0  0  0  0
 24 25  1  0  0  0  0
 24 26  1  0  0  0  0
 24 27  1  0  0  0  0
 22 23  1  0  0  0  0
 22 24  1  0  0  0  0
M  CHG  1  18  -1
M  END
$$$$
default_name
  -OEChem-02102213163D

 27 26  0     1  0  0  0  0  0999 V2000
   -3.2406   -3.5400    1.2326 H   0  0  0  0  0  0  0  0  0  0  0  0
   -3.1436   -2.6190    0.6606 C   0  0  0  0  0  0  0  0  0  0  0  0
   -3.8786   -1.8920    0.9996 H   0  0  0  0  0  0  0  0  0  0  0  0
   -3.2846   -2.8280   -0.3984 H   0  0  0  0  0  0  0  0  0  0  0  0
   -1.7586   -2.0580    0.8686 C   0  0  0  0  0  0  0  0  0  0  0  0
   -0.9666   -2.6340    1.6026 O   0  0  0  0  0  0  0  0  0  0  0  0
   -1.4866   -0.9220    0.2366 N   0  0  0  0  0  0  0  0  0  0  0  0
   -2.2166   -0.4790   -0.2994 H   0  0  0  0  0  0  0  0  0  0  0  0
   -0.1956   -0.2250    0.2596 C   0  0  1  0  0  0  0  0  0  0  0  0
    0.3927   -0.6026    1.0964 H   0  0  0  0  0  0  0  0  0  0  0  0
    0.5767   -0.5489   -1.0351 C   0  0  0  0  0  0  0  0  0  0  0  0
    1.2121    0.3064   -1.2705 H   0  0  0  0  0  0  0  0  0  0  0  0
    1.2158   -1.4167   -0.8658 H   0  0  0  0  0  0  0  0  0  0  0  0
   -0.3377   -0.8233   -2.2410 C   0  0  0  0  0  0  0  0  0  0  0  0
   -0.9339    0.0688   -2.4475 H   0  0  0  0  0  0  0  0  0  0  0  0
    0.2930   -1.0165   -3.1128 H   0  0  0  0  0  0  0  0  0  0  0  0
   -1.2868   -2.0121   -2.0291 C   0  0  0  0  0  0  0  0  0  0  0  0
   -1.1456   -2.7086   -0.9988 O   0  5  0  0  0  0  0  0  0  0  0  0
   -2.1652   -2.1912   -2.9018 O   0  0  0  0  0  0  0  0  0  0  0  0
   -0.3954    1.2887    0.4814 C   0  0  0  0  0  0  0  0  0  0  0  0
   -1.2761    1.9015   -0.1256 O   0  0  0  0  0  0  0  0  0  0  0  0
    0.4051    1.8919    1.3699 N   0  0  0  0  0  0  0  0  0  0  0  0
    1.1380    1.3380    1.7875 H   0  0  0  0  0  0  0  0  0  0  0  0
    0.3573    3.3183    1.6807 C   0  0  0  0  0  0  0  0  0  0  0  0
   -0.6670    3.6090    1.9198 H   0  0  0  0  0  0  0  0  0  0  0  0
    1.0066    3.5397    2.5289 H   0  0  0  0  0  0  0  0  0  0  0  0
    0.6896    3.8897    0.8118 H   0  0  0  0  0  0  0  0  0  0  0  0
  5  6  2  0  0  0  0
  5  7  1  0  0  0  0
  2  3  1  0  0  0  0
  2  4  1  0  0  0  0
  2  5  1  0  0  0  0
  1  2  1  0  0  0  0
 20 21  2  0  0  0  0
 20 22  1  0  0  0  0
 17 18  1  0  0  0  0
 17 19  2  0  0  0  0
 14 15  1  0  0  0  0
 14 16  1  0  0  0  0
 14 17  1  0  0  0  0
 11 12  1  0  0  0  0
 11 13  1  0  0  0  0
 11 14  1  0  0  0  0
  9 10  1  0  0  0  0
  9 11  1  0  0  0  0
  9 20  1  0  0  0  0
  7  8  1  0  0  0  0
  7  9  1  0  0  0  0
 24 25  1  0  0  0  0
 24 26  1  0  0  0  0
 24 27  1  0  0  0  0
 22 23  1  0  0  0  0
 22 24  1  0  0  0  0
M  CHG  1  18  -1
M  END
$$$$
default_name
  -OEChem-02102213163D

 27 26  0     1  0  0  0  0  0999 V2000
   -3.2406   -3.5400    1.2326 H   0  0  0  0  0  0  0  0  0  0  0  0
   -3.1436   -2.6190    0.6606 C   0  0  0  0  0  0  0  0  0  0  0  0
   -3.8786   -1.8920    0.9996 H   0  0  0  0  0  0  0  0  0  0  0  0
   -3.2846   -2.8280   -0.3984 H   0  0  0  0  0  0  0  0  0  0  0  0
   -1.7586   -2.0580    0.8686 C   0  0  0  0  0  0  0  0  0  0  0  0
   -0.9666   -2.6340    1.6026 O   0  0  0  0  0  0  0  0  0  0  0  0
   -1.4866   -0.9220    0.2366 N   0  0  0  0  0  0  0  0  0  0  0  0
   -2.2166   -0.4790   -0.2994 H   0  0  0  0  0  0  0  0  0  0  0  0
   -0.1956   -0.2250    0.2596 C   0  0  1  0  0  0  0  0  0  0  0  0
    0.3927   -0.6026    1.0964 H   0  0  0  0  0  0  0  0  0  0  0  0
    0.5767   -0.5489   -1.0351 C   0  0  0  0  0  0  0  0  0  0  0  0
    1.2121    0.3064   -1.2705 H   0  0  0  0  0  0  0  0  0  0  0  0
    1.2158   -1.4167   -0.8658 H   0  0  0  0  0  0  0  0  0  0  0  0
   -0.3377   -0.8233   -2.2410 C   0  0  0  0  0  0  0  0  0  0  0  0
   -0.7303    0.1254   -2.6148 H   0  0  0  0  0  0  0  0  0  0  0  0
    0.2656   -1.2741   -3.0334 H   0  0  0  0  0  0  0  0  0  0  0  0
   -1.5178   -1.7501   -1.9135 C   0  0  0  0  0  0  0  0  0  0  0  0
   -1.5548   -2.2883   -0.7841 O   0  5  0  0  0  0  0  0  0  0  0  0
   -2.3874   -1.8867   -2.8026 O   0  0  0  0  0  0  0  0  0  0  0  0
   -0.3954    1.2887    0.4814 C   0  0  0  0  0  0  0  0  0  0  0  0
   -1.2761    1.9015   -0.1256 O   0  0  0  0  0  0  0  0  0  0  0  0
    0.4051    1.8919    1.3699 N   0  0  0  0  0  0  0  0  0  0  0  0
    1.1380    1.3380    1.7875 H   0  0  0  0  0  0  0  0  0  0  0  0
    0.3573    3.3183    1.6807 C   0  0  0  0  0  0  0  0  0  0  0  0
   -0.6670    3.6090    1.9198 H   0  0  0  0  0  0  0  0  0  0  0  0
    1.0066    3.5397    2.5289 H   0  0  0  0  0  0  0  0  0  0  0  0
    0.6896    3.8897    0.8118 H   0  0  0  0  0  0  0  0  0  0  0  0
  5  6  2  0  0  0  0
  5  7  1  0  0  0  0
  2  3  1  0  0  0  0
  2  4  1  0  0  0  0
  2  5  1  0  0  0  0
  1  2  1  0  0  0  0
 20 21  2  0  0  0  0
 20 22  1  0  0  0  0
 17 18  1  0  0  0  0
 17 19  2  0  0  0  0
 14 15  1  0  0  0  0
 14 16  1  0  0  0  0
 14 17  1  0  0  0  0
 11 12  1  0  0  0  0
 11 13  1  0  0  0  0
 11 14  1  0  0  0  0
  9 10  1  0  0  0  0
  9 11  1  0  0  0  0
  9 20  1  0  0  0  0
  7  8  1  0  0  0  0
  7  9  1  0  0  0  0
 24 25  1  0  0  0  0
 24 26  1  0  0  0  0
 24 27  1  0  0  0  0
 22 23  1  0  0  0  0
 22 24  1  0  0  0  0
M  CHG  1  18  -1
M  END
$$$$
default_name
  -OEChem-02102213163D

 27 26  0     1  0  0  0  0  0999 V2000
   -3.2406   -3.5400    1.2326 H   0  0  0  0  0  0  0  0  0  0  0  0
   -3.1436   -2.6190    0.6606 C   0  0  0  0  0  0  0  0  0  0  0  0
   -3.8786   -1.8920    0.9996 H   0  0  0  0  0  0  0  0  0  0  0  0
   -3.2846   -2.8280   -0.3984 H   0  0  0  0  0  0  0  0  0  0  0  0
   -1.7586   -2.0580    0.8686 C   0  0  0  0  0  0  0  0  0  0  0  0
   -0.9666   -2.6340    1.6026 O   0  0  0  0  0  0  0  0  0  0  0  0
   -1.4866   -0.9220    0.2366 N   0  0  0  0  0  0  0  0  0  0  0  0
   -2.2166   -0.4790   -0.2994 H   0  0  0  0  0  0  0  0  0  0  0  0
   -0.1956   -0.2250    0.2596 C   0  0  1  0  0  0  0  0  0  0  0  0
    0.3927   -0.6026    1.0964 H   0  0  0  0  0  0  0  0  0  0  0  0
    0.5767   -0.5489   -1.0351 C   0  0  0  0  0  0  0  0  0  0  0  0
    1.2121    0.3064   -1.2705 H   0  0  0  0  0  0  0  0  0  0  0  0
    1.2158   -1.4167   -0.8658 H   0  0  0  0  0  0  0  0  0  0  0  0
   -0.3377   -0.8233   -2.2410 C   0  0  0  0  0  0  0  0  0  0  0  0
   -0.5144    0.1130   -2.7757 H   0  0  0  0  0  0  0  0  0  0  0  0
    0.1832   -1.5052   -2.9183 H   0  0  0  0  0  0  0  0  0  0  0  0
   -1.6932   -1.4324   -1.8528 C   0  0  0  0  0  0  0  0  0  0  0  0
   -1.8747   -1.7663   -0.6603 O   0  5  0  0  0  0  0  0  0  0  0  0
   -2.5448   -1.5322   -2.7638 O   0  0  0  0  0  0  0  0  0  0  0  0
   -0.3954    1.2887    0.4814 C   0  0  0  0  0  0  0  0  0  0  0  0
   -1.2761    1.9015   -0.1256 O   0  0  0  0  0  0  0  0  0  0  0  0
    0.4051    1.8919    1.3699 N   0  0  0  0  0  0  0  0  0  0  0  0
    1.1380    1.3380    1.7875 H   0  0  0  0  0  0  0  0  0  0  0  0
    0.3573    3.3183    1.6807 C   0  0  0  0  0  0  0  0  0  0  0  0
   -0.6670    3.6090    1.9198 H   0  0  0  0  0  0  0  0  0  0  0  0
    1.0066    3.5397    2.5289 H   0  0  0  0  0  0  0  0  0  0  0  0
    0.6896    3.8897    0.8118 H   0  0  0  0  0  0  0  0  0  0  0  0
  5  6  2  0  0  0  0
  5  7  1  0  0  0  0
  2  3  1  0  0  0  0
  2  4  1  0  0  0  0
  2  5  1  0  0  0  0
  1  2  1  0  0  0  0
 20 21  2  0  0  0  0
 20 22  1  0  0  0  0
 17 18  1  0  0  0  0
 17 19  2  0  0  0  0
 14 15  1  0  0  0  0
 14 16  1  0  0  0  0
 14 17  1  0  0  0  0
 11 12  1  0  0  0  0
 11 13  1  0  0  0  0
 11 14  1  0  0  0  0
  9 10  1  0  0  0  0
  9 11  1  0  0  0  0
  9 20  1  0  0  0  0
  7  8  1  0  0  0  0
  7  9  1  0  0  0  0
 24 25  1  0  0  0  0
 24 26  1  0  0  0  0
 24 27  1  0  0  0  0
 22 23  1  0  0  0  0
 22 24  1  0  0  0  0
M  CHG  1  18  -1
M  END
$$$$
default_name
  -OEChem-02102213163D

 27 26  0     1  0  0  0  0  0999 V2000
   -3.2406   -3.5400    1.2326 H   0  0  0  0  0  0  0  0  0  0  0  0
   -3.1436   -2.6190    0.6606 C   0  0  0  0  0  0  0  0  0  0  0  0
   -3.8786   -1.8920    0.9996 H   0  0  0  0  0  0  0  0  0  0  0  0
   -3.2846   -2.8280   -0.3984 H   0  0  0  0  0  0  0  0  0  0  0  0
   -1.7586   -2.0580    0.8686 C   0  0  0  0  0  0  0  0  0  0  0  0
   -0.9666   -2.6340    1.6026 O   0  0  0  0  0  0  0  0  0  0  0  0
   -1.4866   -0.9220    0.2366 N   0  0  0  0  0  0  0  0  0  0  0  0
   -2.2166   -0.4790   -0.2994 H   0  0  0  0  0  0  0  0  0  0  0  0
   -0.1956   -0.2250    0.2596 C   0  0  1  0  0  0  0  0  0  0  0  0
    0.3927   -0.6026    1.0964 H   0  0  0  0  0  0  0  0  0  0  0  0
    0.5767   -0.5489   -1.0351 C   0  0  0  0  0  0  0  0  0  0  0  0
    1.2121    0.3064   -1.2705 H   0  0  0  0  0  0  0  0  0  0  0  0
    1.2158   -1.4167   -0.8658 H   0  0  0  0  0  0  0  0  0  0  0  0
   -0.3377   -0.8233   -2.2410 C   0  0  0  0  0  0  0  0  0  0  0  0
   -0.3009    0.0325   -2.9193 H   0  0  0  0  0  0  0  0  0  0  0  0
    0.0514   -1.6940   -2.7754 H   0  0  0  0  0  0  0  0  0  0  0  0
   -1.8008   -1.0805   -1.8512 C   0  0  0  0  0  0  0  0  0  0  0  0
   -2.0835   -1.1781   -0.6359 O   0  5  0  0  0  0  0  0  0  0  0  0
   -2.6268   -1.1518   -2.7882 O   0  0  0  0  0  0  0  0  0  0  0  0
   -0.3954    1.2887    0.4814 C   0  0  0  0  0  0  0  0  0  0  0  0
   -1.2761    1.9015   -0.1256 O   0  0  0  0  0  0  0  0  0  0  0  0
    0.4051    1.8919    1.3699 N   0  0  0  0  0  0  0  0  0  0  0  0
    1.1380    1.3380    1.7875 H   0  0  0  0  0  0  0  0  0  0  0  0
    0.3573    3.3183    1.6807 C   0  0  0  0  0  0  0  0  0  0  0  0
   -0.6670    3.6090    1.9198 H   0  0  0  0  0  0  0  0  0  0  0  0
    1.0066    3.5397    2.5289 H   0  0  0  0  0  0  0  0  0  0  0  0
    0.6896    3.8897    0.8118 H   0  0  0  0  0  0  0  0  0  0  0  0
  5  6  2  0  0  0  0
  5  7  1  0  0  0  0
  2  3  1  0  0  0  0
  2  4  1  0  0  0  0
  2  5  1  0  0  0  0
  1  2  1  0  0  0  0
 20 21  2  0  0  0  0
 20 22  1  0  0  0  0
 17 18  1  0  0  0  0
 17 19  2  0  0  0  0
 14 15  1  0  0  0  0
 14 16  1  0  0  0  0
 14 17  1  0  0  0  0
 11 12  1  0  0  0  0
 11 13  1  0  0  0  0
 11 14  1  0  0  0  0
  9 10  1  0  0  0  0
  9 11  1  0  0  0  0
  9 20  1  0  0  0  0
  7  8  1  0  0  0  0
  7  9  1  0  0  0  0
 24 25  1  0  0  0  0
 24 26  1  0  0  0  0
 24 27  1  0  0  0  0
 22 23  1  0  0  0  0
 22 24  1  0  0  0  0
M  CHG  1  18  -1
M  END
$$$$
default_name
  -OEChem-02102213163D

 27 26  0     1  0  0  0  0  0999 V2000
   -3.2406   -3.5400    1.2326 H   0  0  0  0  0  0  0  0  0  0  0  0
   -3.1436   -2.6190    0.6606 C   0  0  0  0  0  0  0  0  0  0  0  0
   -3.8786   -1.8920    0.9996 H   0  0  0  0  0  0  0  0  0  0  0  0
   -3.2846   -2.8280   -0.3984 H   0  0  0  0  0  0  0  0  0  0  0  0
   -1.7586   -2.0580    0.8686 C   0  0  0  0  0  0  0  0  0  0  0  0
   -0.9666   -2.6340    1.6026 O   0  0  0  0  0  0  0  0  0  0  0  0
   -1.4866   -0.9220    0.2366 N   0  0  0  0  0  0  0  0  0  0  0  0
   -2.2166   -0.4790   -0.2994 H   0  0  0  0  0  0  0  0  0  0  0  0
   -0.1956   -0.2250    0.2596 C   0  0  1  0  0  0  0  0  0  0  0  0
    0.3927   -0.6026    1.0964 H   0  0  0  0  0  0  0  0  0  0  0  0
    0.5767   -0.5489   -1.0351 C   0  0  0  0  0  0  0  0  0  0  0  0
    1.2121    0.3064   -1.2705 H   0  0  0  0  0  0  0  0  0  0  0  0
    1.2158   -1.4167   -0.8658 H   0  0  0  0  0  0  0  0  0  0  0  0
   -0.3377   -0.8233   -2.2410 C   0  0  0  0  0  0  0  0  0  0  0  0
   -0.1044   -0.1107   -3.0357 H   0  0  0  0  0  0  0  0  0  0  0  0
   -0.1208   -1.8276   -2.6144 H   0  0  0  0  0  0  0  0  0  0  0  0
   -1.8336   -0.7186   -1.9088 C   0  0  0  0  0  0  0  0  0  0  0  0
   -2.1670   -0.5638   -0.7124 O   0  5  0  0  0  0  0  0  0  0  0  0
   -2.6276   -0.7716   -2.8741 O   0  0  0  0  0  0  0  0  0  0  0  0
   -0.3954    1.2887    0.4814 C   0  0  0  0  0  0  0  0  0  0  0  0
   -1.2761    1.9015   -0.1256 O   0  0  0  0  0  0  0  0  0  0  0  0
    0.4051    1.8919    1.3699 N   0  0  0  0  0  0  0  0  0  0  0  0
    1.1380    1.3380    1.7875 H   0  0  0  0  0  0  0  0  0  0  0  0
    0.3573    3.3183    1.6807 C   0  0  0  0  0  0  0  0  0  0  0  0
   -0.6670    3.6090    1.9198 H   0  0  0  0  0  0  0  0  0  0  0  0
    1.0066    3.5397    2.5289 H   0  0  0  0  0  0  0  0  0  0  0  0
    0.6896    3.8897    0.8118 H   0  0  0  0  0  0  0  0  0  0  0  0
  5  6  2  0  0  0  0
  5  7  1  0  0  0  0
  2  3  1  0  0  0  0
  2  4  1  0  0  0  0
  2  5  1  0  0  0  0
  1  2  1  0  0  0  0
 20 21  2  0  0  0  0
 20 22  1  0  0  0  0
 17 18  1  0  0  0  0
 17 19  2  0  0  0  0
 14 15  1  0  0  0  0
 14 16  1  0  0  0  0
 14 17  1  0  0  0  0
 11 12  1  0  0  0  0
 11 13  1  0  0  0  0
 11 14  1  0  0  0  0
  9 10  1  0  0  0  0
  9 11  1  0  0  0  0
  9 20  1  0  0  0  0
  7  8  1  0  0  0  0
  7  9  1  0  0  0  0
 24 25  1  0  0  0  0
 24 26  1  0  0  0  0
 24 27  1  0  0  0  0
 22 23  1  0  0  0  0
 22 24  1  0  0  0  0
M  CHG  1  18  -1
M  END
$$$$
default_name
  -OEChem-02102213163D

 27 26  0     1  0  0  0  0  0999 V2000
   -3.2406   -3.5400    1.2326 H   0  0  0  0  0  0  0  0  0  0  0  0
   -3.1436   -2.6190    0.6606 C   0  0  0  0  0  0  0  0  0  0  0  0
   -3.8786   -1.8920    0.9996 H   0  0  0  0  0  0  0  0  0  0  0  0
   -3.2846   -2.8280   -0.3984 H   0  0  0  0  0  0  0  0  0  0  0  0
   -1.7586   -2.0580    0.8686 C   0  0  0  0  0  0  0  0  0  0  0  0
   -0.9666   -2.6340    1.6026 O   0  0  0  0  0  0  0  0  0  0  0  0
   -1.4866   -0.9220    0.2366 N   0  0  0  0  0  0  0  0  0  0  0  0
   -2.2166   -0.4790   -0.2994 H   0  0  0  0  0  0  0  0  0  0  0  0
   -0.1956   -0.2250    0.2596 C   0  0  1  0  0  0  0  0  0  0  0  0
    0.3927   -0.6026    1.0964 H   0  0  0  0  0  0  0  0  0  0  0  0
    0.5767   -0.5489   -1.0351 C   0  0  0  0  0  0  0  0  0  0  0  0
    1.2121    0.3064   -1.2705 H   0  0  0  0  0  0  0  0  0  0  0  0
    1.2158   -1.4167   -0.8658 H   0  0  0  0  0  0  0  0  0  0  0  0
   -0.3377   -0.8233   -2.2410 C   0  0  0  0  0  0  0  0  0  0  0  0
    0.0617   -0.3067   -3.1171 H   0  0  0  0  0  0  0  0  0  0  0  0
   -0.3217   -1.8969   -2.4463 H   0  0  0  0  0  0  0  0  0  0  0  0
   -1.7891   -0.3712   -2.0216 C   0  0  0  0  0  0  0  0  0  0  0  0
   -2.1194    0.0347   -0.8847 O   0  5  0  0  0  0  0  0  0  0  0  0
   -2.5473   -0.4174   -3.0156 O   0  0  0  0  0  0  0  0  0  0  0  0
   -0.3954    1.2887    0.4814 C   0  0  0  0  0  0  0  0  0  0  0  0
   -1.2761    1.9015   -0.1256 O   0  0  0  0  0  0  0  0  0  0  0  0
    0.4051    1.8919    1.3699 N   0  0  0  0  0  0  0  0  0  0  0  0
    1.1380    1.3380    1.7875 H   0  0  0  0  0  0  0  0  0  0  0  0
    0.3573    3.3183    1.6807 C   0  0  0  0  0  0  0  0  0  0  0  0
   -0.6670    3.6090    1.9198 H   0  0  0  0  0  0  0  0  0  0  0  0
    1.0066    3.5397    2.5289 H   0  0  0  0  0  0  0  0  0  0  0  0
    0.6896    3.8897    0.8118 H   0  0  0  0  0  0  0  0  0  0  0  0
  5  6  2  0  0  0  0
  5  7  1  0  0  0  0
  2  3  1  0  0  0  0
  2  4  1  0  0  0  0
  2  5  1  0  0  0  0
  1  2  1  0  0  0  0
 20 21  2  0  0  0  0
 20 22  1  0  0  0  0
 17 18  1  0  0  0  0
 17 19  2  0  0  0  0
 14 15  1  0  0  0  0
 14 16  1  0  0  0  0
 14 17  1  0  0  0  0
 11 12  1  0  0  0  0
 11 13  1  0  0  0  0
 11 14  1  0  0  0  0
  9 10  1  0  0  0  0
  9 11  1  0  0  0  0
  9 20  1  0  0  0  0
  7  8  1  0  0  0  0
  7  9  1  0  0  0  0
 24 25  1  0  0  0  0
 24 26  1  0  0  0  0
 24 27  1  0  0  0  0
 22 23  1  0  0  0  0
 22 24  1  0  0  0  0
M  CHG  1  18  -1
M  END
$$$$
default_name
  -OEChem-02102213163D

 27 26  0     1  0  0  0  0  0999 V2000
   -3.2406   -3.5400    1.2326 H   0  0  0  0  0  0  0  0  0  0  0  0
   -3.1436   -2.6190    0.6606 C   0  0  0  0  0  0  0  0  0  0  0  0
   -3.8786   -1.8920    0.9996 H   0  0  0  0  0  0  0  0  0  0  0  0
   -3.2846   -2.8280   -0.3984 H   0  0  0  0  0  0  0  0  0  0  0  0
   -1.7586   -2.0580    0.8686 C   0  0  0  0  0  0  0  0  0  0  0  0
   -0.9666   -2.6340    1.6026 O   0  0  0  0  0  0  0  0  0  0  0  0
   -1.4866   -0.9220    0.2366 N   0  0  0  0  0  0  0  0  0  0  0  0
   -2.2166   -0.4790   -0.2994 H   0  0  0  0  0  0  0  0  0  0  0  0
   -0.1956   -0.2250    0.2596 C   0  0  1  0  0  0  0  0  0  0  0  0
    0.3927   -0.6026    1.0964 H   0  0  0  0  0  0  0  0  0  0  0  0
    0.5767   -0.5489   -1.0351 C   0  0  0  0  0  0  0  0  0  0  0  0
    1.2121    0.3064   -1.2705 H   0  0  0  0  0  0  0  0  0  0  0  0
    1.2158   -1.4167   -0.8658 H   0  0  0  0  0  0  0  0  0  0  0  0
   -0.3377   -0.8233   -2.2410 C   0  0  0  0  0  0  0  0  0  0  0  0
    0.1861   -0.5424   -3.1578 H   0  0  0  0  0  0  0  0  0  0  0  0
   -0.5376   -1.8973   -2.2825 H   0  0  0  0  0  0  0  0  0  0  0  0
   -1.6704   -0.0621   -2.1819 C   0  0  0  0  0  0  0  0  0  0  0  0
   -1.9440    0.5767   -1.1410 O   0  5  0  0  0  0  0  0  0  0  0  0
   -2.3913   -0.1133   -3.2031 O   0  0  0  0  0  0  0  0  0  0  0  0
   -0.3954    1.2887    0.4814 C   0  0  0  0  0  0  0  0  0  0  0  0
   -1.2761    1.9015   -0.1256 O   0  0  0  0  0  0  0  0  0  0  0  0
    0.4051    1.8919    1.3699 N   0  0  0  0  0  0  0  0  0  0  0  0
    1.1380    1.3380    1.7875 H   0  0  0  0  0  0  0  0  0  0  0  0
    0.3573    3.3183    1.6807 C   0  0  0  0  0  0  0  0  0  0  0  0
   -0.6670    3.6090    1.9198 H   0  0  0  0  0  0  0  0  0  0  0  0
    1.0066    3.5397    2.5289 H   0  0  0  0  0  0  0  0  0  0  0  0
    0.6896    3.8897    0.8118 H   0  0  0  0  0  0  0  0  0  0  0  0
  5  6  2  0  0  0  0
  5  7  1  0  0  0  0
  2  3  1  0  0  0  0
  2  4  1  0  0  0  0
  2  5  1  0  0  0  0
  1  2  1  0  0  0  0
 20 21  2  0  0  0  0
 20 22  1  0  0  0  0
 17 18  1  0  0  0  0
 17 19  2  0  0  0  0
 14 15  1  0  0  0  0
 14 16  1  0  0  0  0
 14 17  1  0  0  0  0
 11 12  1  0  0  0  0
 11 13  1  0  0  0  0
 11 14  1  0  0  0  0
  9 10  1  0  0  0  0
  9 11  1  0  0  0  0
  9 20  1  0  0  0  0
  7  8  1  0  0  0  0
  7  9  1  0  0  0  0
 24 25  1  0  0  0  0
 24 26  1  0  0  0  0
 24 27  1  0  0  0  0
 22 23  1  0  0  0  0
 22 24  1  0  0  0  0
M  CHG  1  18  -1
M  END
$$$$
default_name
  -OEChem-02102213163D

 27 26  0     1  0  0  0  0  0999 V2000
   -3.2406   -3.5400    1.2326 H   0  0  0  0  0  0  0  0  0  0  0  0
   -3.1436   -2.6190    0.6606 C   0  0  0  0  0  0  0  0  0  0  0  0
   -3.8786   -1.8920    0.9996 H   0  0  0  0  0  0  0  0  0  0  0  0
   -3.2846   -2.8280   -0.3984 H   0  0  0  0  0  0  0  0  0  0  0  0
   -1.7586   -2.0580    0.8686 C   0  0  0  0  0  0  0  0  0  0  0  0
   -0.9666   -2.6340    1.6026 O   0  0  0  0  0  0  0  0  0  0  0  0
   -1.4866   -0.9220    0.2366 N   0  0  0  0  0  0  0  0  0  0  0  0
   -2.2166   -0.4790   -0.2994 H   0  0  0  0  0  0  0  0  0  0  0  0
   -0.1956   -0.2250    0.2596 C   0  0  1  0  0  0  0  0  0  0  0  0
    0.3927   -0.6026    1.0964 H   0  0  0  0  0  0  0  0  0  0  0  0
    0.5767   -0.5489   -1.0351 C   0  0  0  0  0  0  0  0  0  0  0  0
    1.2121    0.3064   -1.2705 H   0  0  0  0  0  0  0  0  0  0  0  0
    1.2158   -1.4167   -0.8658 H   0  0  0  0  0  0  0  0  0  0  0  0
   -0.3377   -0.8233   -2.2410 C   0  0  0  0  0  0  0  0  0  0  0  0
    0.2604   -0.8015   -3.1552 H   0  0  0  0  0  0  0  0  0  0  0  0
   -0.7537   -1.8286   -2.1342 H   0  0  0  0  0  0  0  0  0  0  0  0
   -1.4856    0.1878   -2.3789 C   0  0  0  0  0  0  0  0  0  0  0  0
   -1.6528    1.0252   -1.4639 O   0  5  0  0  0  0  0  0  0  0  0  0
   -2.1703    0.1200   -3.4238 O   0  0  0  0  0  0  0  0  0  0  0  0
   -0.3954    1.2887    0.4814 C   0  0  0  0  0  0  0  0  0  0  0  0
   -1.2761    1.9015   -0.1256 O   0  0  0  0  0  0  0  0  0  0  0  0
    0.4051    1.8919    1.3699 N   0  0  0  0  0  0  0  0  0  0  0  0
    1.1380    1.3380    1.7875 H   0  0  0  0  0  0  0  0  0  0  0  0
    0.3573    3.3183    1.6807 C   0  0  0  0  0  0  0  0  0  0  0  0
   -0.6670    3.6090    1.9198 H   0  0  0  0  0  0  0  0  0  0  0  0
    1.0066    3.5397    2.5289 H   0  0  0  0  0  0  0  0  0  0  0  0
    0.6896    3.8897    0.8118 H   0  0  0  0  0  0  0  0  0  0  0  0
  5  6  2  0  0  0  0
  5  7  1  0  0  0  0
  2  3  1  0  0  0  0
  2  4  1  0  0  0  0
  2  5  1  0  0  0  0
  1  2  1  0  0  0  0
 20 21  2  0  0  0  0
 20 22  1  0  0  0  0
 17 18  1  0  0  0  0
 17 19  2  0  0  0  0
 14 15  1  0  0  0  0
 14 16  1  0  0  0  0
 14 17  1  0  0  0  0
 11 12  1  0  0  0  0
 11 13  1  0  0  0  0
 11 14  1  0  0  0  0
  9 10  1  0  0  0  0
  9 11  1  0  0  0  0
  9 20  1  0  0  0  0
  7  8  1  0  0  0  0
  7  9  1  0  0  0  0
 24 25  1  0  0  0  0
 24 26  1  0  0  0  0
 24 27  1  0  0  0  0
 22 23  1  0  0  0  0
 22 24  1  0  0  0  0
M  CHG  1  18  -1
M  END
$$$$
default_name
  -OEChem-02102213163D

 27 26  0     1  0  0  0  0  0999 V2000
   -3.2406   -3.5400    1.2326 H   0  0  0  0  0  0  0  0  0  0  0  0
   -3.1436   -2.6190    0.6606 C   0  0  0  0  0  0  0  0  0  0  0  0
   -3.8786   -1.8920    0.9996 H   0  0  0  0  0  0  0  0  0  0  0  0
   -3.2846   -2.8280   -0.3984 H   0  0  0  0  0  0  0  0  0  0  0  0
   -1.7586   -2.0580    0.8686 C   0  0  0  0  0  0  0  0  0  0  0  0
   -0.9666   -2.6340    1.6026 O   0  0  0  0  0  0  0  0  0  0  0  0
   -1.4866   -0.9220    0.2366 N   0  0  0  0  0  0  0  0  0  0  0  0
   -2.2166   -0.4790   -0.2994 H   0  0  0  0  0  0  0  0  0  0  0  0
   -0.1956   -0.2250    0.2596 C   0  0  1  0  0  0  0  0  0  0  0  0
    0.3927   -0.6026    1.0964 H   0  0  0  0  0  0  0  0  0  0  0  0
    0.5767   -0.5489   -1.0351 C   0  0  0  0  0  0  0  0  0  0  0  0
    1.2121    0.3064   -1.2705 H   0  0  0  0  0  0  0  0  0  0  0  0
    1.2158   -1.4167   -0.8658 H   0  0  0  0  0  0  0  0  0  0  0  0
   -0.3377   -0.8233   -2.2410 C   0  0  0  0  0  0  0  0  0  0  0  0
    0.2794   -1.0665   -3.1093 H   0  0  0  0  0  0  0  0  0  0  0  0
   -0.9554   -1.6956   -2.0115 H   0  0  0  0  0  0  0  0  0  0  0  0
   -1.2473    0.3613   -2.5991 C   0  0  0  0  0  0  0  0  0  0  0  0
   -1.2656    1.3496   -1.8313 O   0  5  0  0  0  0  0  0  0  0  0  0
   -1.8993    0.2665   -3.6627 O   0  0  0  0  0  0  0  0  0  0  0  0
   -0.3954    1.2887    0.4814 C   0  0  0  0  0  0  0  0  0  0  0  0
   -1.2761    1.9015   -0.1256 O   0  0  0  0  0  0  0  0  0  0  0  0
    0.4051    1.8919    1.3699 N   0  0  0  0  0  0  0  0  0  0  0  0
    1.1380    1.3380    1.7875 H   0  0  0  0  0  0  0  0  0  0  0  0
    0.3573    3.3183    1.6807 C   0  0  0  0  0  0  0  0  0  0  0  0
   -0.6670    3.6090    1.9198 H   0  0  0  0  0  0  0  0  0  0  0  0
    1.0066    3.5397    2.5289 H   0  0  0  0  0  0  0  0  0  0  0  0
    0.6896    3.8897    0.8118 H   0  0  0  0  0  0  0  0  0  0  0  0
  5  6  2  0  0  0  0
  5  7  1  0  0  0  0
  2  3  1  0  0  0  0
  2  4  1  0  0  0  0
  2  5  1  0  0  0  0
  1  2  1  0  0  0  0
 20 21  2  0  0  0  0
 20 22  1  0  0  0  0
 17 18  1  0  0  0  0
 17 19  2  0  0  0  0
 14 15  1  0  0  0  0
 14 16  1  0  0  0  0
 14 17  1  0  0  0  0
 11 12  1  0  0  0  0
 11 13  1  0  0  0  0
 11 14  1  0  0  0  0
  9 10  1  0  0  0  0
  9 11  1  0  0  0  0
  9 20  1  0  0  0  0
  7  8  1  0  0  0  0
  7  9  1  0  0  0  0
 24 25  1  0  0  0  0
 24 26  1  0  0  0  0
 24 27  1  0  0  0  0
 22 23  1  0  0  0  0
 22 24  1  0  0  0  0
M  CHG  1  18  -1
M  END
$$$$
default_name
  -OEChem-02102213163D

 27 26  0     1  0  0  0  0  0999 V2000
   -3.2406   -3.5400    1.2326 H   0  0  0  0  0  0  0  0  0  0  0  0
   -3.1436   -2.6190    0.6606 C   0  0  0  0  0  0  0  0  0  0  0  0
   -3.8786   -1.8920    0.9996 H   0  0  0  0  0  0  0  0  0  0  0  0
   -3.2846   -2.8280   -0.3984 H   0  0  0  0  0  0  0  0  0  0  0  0
   -1.7586   -2.0580    0.8686 C   0  0  0  0  0  0  0  0  0  0  0  0
   -0.9666   -2.6340    1.6026 O   0  0  0  0  0  0  0  0  0  0  0  0
   -1.4866   -0.9220    0.2366 N   0  0  0  0  0  0  0  0  0  0  0  0
   -2.2166   -0.4790   -0.2994 H   0  0  0  0  0  0  0  0  0  0  0  0
   -0.1956   -0.2250    0.2596 C   0  0  1  0  0  0  0  0  0  0  0  0
    0.3927   -0.6026    1.0964 H   0  0  0  0  0  0  0  0  0  0  0  0
    0.5767   -0.5489   -1.0351 C   0  0  0  0  0  0  0  0  0  0  0  0
    1.2121    0.3064   -1.2705 H   0  0  0  0  0  0  0  0  0  0  0  0
    1.2158   -1.4167   -0.8658 H   0  0  0  0  0  0  0  0  0  0  0  0
   -0.3377   -0.8233   -2.2410 C   0  0  0  0  0  0  0  0  0  0  0  0
    0.2419   -1.3192   -3.0233 H   0  0  0  0  0  0  0  0  0  0  0  0
   -1.1289   -1.5073   -1.9228 H   0  0  0  0  0  0  0  0  0  0  0  0
   -0.9717    0.4467   -2.8275 C   0  0  0  0  0  0  0  0  0  0  0  0
   -0.8088    1.5278   -2.2183 O   0  5  0  0  0  0  0  0  0  0  0  0
   -1.5967    0.3162   -3.9034 O   0  0  0  0  0  0  0  0  0  0  0  0
   -0.3954    1.2887    0.4814 C   0  0  0  0  0  0  0  0  0  0  0  0
   -1.2761    1.9015   -0.1256 O   0  0  0  0  0  0  0  0  0  0  0  0
    0.4051    1.8919    1.3699 N   0  0  0  0  0  0  0  0  0  0  0  0
    1.1380    1.3380    1.7875 H   0  0  0  0  0  0  0  0  0  0  0  0
    0.3573    3.3183    1.6807 C   0  0  0  0  0  0  0  0  0  0  0  0
   -0.6670    3.6090    1.9198 H   0  0  0  0  0  0  0  0  0  0  0  0
    1.0066    3.5397    2.5289 H   0  0  0  0  0  0  0  0  0  0  0  0
    0.6896    3.8897    0.8118 H   0  0  0  0  0  0  0  0  0  0  0  0
  5  6  2  0  0  0  0
  5  7  1  0  0  0  0
  2  3  1  0  0  0  0
  2  4  1  0  0  0  0
  2  5  1  0  0  0  0
  1  2  1  0  0  0  0
 20 21  2  0  0  0  0
 20 22  1  0  0  0  0
 17 18  1  0  0  0  0
 17 19  2  0  0  0  0
 14 15  1  0  0  0  0
 14 16  1  0  0  0  0
 14 17  1  0  0  0  0
 11 12  1  0  0  0  0
 11 13  1  0  0  0  0
 11 14  1  0  0  0  0
  9 10  1  0  0  0  0
  9 11  1  0  0  0  0
  9 20  1  0  0  0  0
  7  8  1  0  0  0  0
  7  9  1  0  0  0  0
 24 25  1  0  0  0  0
 24 26  1  0  0  0  0
 24 27  1  0  0  0  0
 22 23  1  0  0  0  0
 22 24  1  0  0  0  0
M  CHG  1  18  -1
M  END
$$$$
default_name
  -OEChem-02102213163D

 27 26  0     1  0  0  0  0  0999 V2000
   -3.2406   -3.5400    1.2326 H   0  0  0  0  0  0  0  0  0  0  0  0
   -3.1436   -2.6190    0.6606 C   0  0  0  0  0  0  0  0  0  0  0  0
   -3.8786   -1.8920    0.9996 H   0  0  0  0  0  0  0  0  0  0  0  0
   -3.2846   -2.8280   -0.3984 H   0  0  0  0  0  0  0  0  0  0  0  0
   -1.7586   -2.0580    0.8686 C   0  0  0  0  0  0  0  0  0  0  0  0
   -0.9666   -2.6340    1.6026 O   0  0  0  0  0  0  0  0  0  0  0  0
   -1.4866   -0.9220    0.2366 N   0  0  0  0  0  0  0  0  0  0  0  0
   -2.2166   -0.4790   -0.2994 H   0  0  0  0  0  0  0  0  0  0  0  0
   -0.1956   -0.2250    0.2596 C   0  0  1  0  0  0  0  0  0  0  0  0
    0.3927   -0.6026    1.0964 H   0  0  0  0  0  0  0  0  0  0  0  0
    0.5767   -0.5489   -1.0351 C   0  0  0  0  0  0  0  0  0  0  0  0
    1.2121    0.3064   -1.2705 H   0  0  0  0  0  0  0  0  0  0  0  0
    1.2158   -1.4167   -0.8658 H   0  0  0  0  0  0  0  0  0  0  0  0
   -0.3377   -0.8233   -2.2410 C   0  0  0  0  0  0  0  0  0  0  0  0
    0.1504   -1.5424   -2.9031 H   0  0  0  0  0  0  0  0  0  0  0  0
   -1.2624   -1.2766   -1.8741 H   0  0  0  0  0  0  0  0  0  0  0  0
   -0.6777    0.4381   -3.0485 C   0  0  0  0  0  0  0  0  0  0  0  0
   -0.3136    1.5478   -2.5984 O   0  5  0  0  0  0  0  0  0  0  0  0
   -1.2833    0.2658   -4.1297 O   0  0  0  0  0  0  0  0  0  0  0  0
   -0.3954    1.2887    0.4814 C   0  0  0  0  0  0  0  0  0  0  0  0
   -1.2761    1.9015   -0.1256 O   0  0  0  0  0  0  0  0  0  0  0  0
    0.4051    1.8919    1.3699 N   0  0  0  0  0  0  0  0  0  0  0  0
    1.1380    1.3380    1.7875 H   0  0  0  0  0  0  0  0  0  0  0  0
    0.3573    3.3183    1.6807 C   0  0  0  0  0  0  0  0  0  0  0  0
   -0.6670    3.6090    1.9198 H   0  0  0  0  0  0  0  0  0  0  0  0
    1.0066    3.5397    2.5289 H   0  0  0  0  0  0  0  0  0  0  0  0
    0.6896    3.8897    0.8118 H   0  0  0  0  0  0  0  0  0  0  0  0
  5  6  2  0  0  0  0
  5  7  1  0  0  0  0
  2  3  1  0  0  0  0
  2  4  1  0  0  0  0
  2  5  1  0  0  0  0
  1  2  1  0  0  0  0
 20 21  2  0  0  0  0
 20 22  1  0  0  0  0
 17 18  1  0  0  0  0
 17 19  2  0  0  0  0
 14 15  1  0  0  0  0
 14 16  1  0  0  0  0
 14 17  1  0  0  0  0
 11 12  1  0  0  0  0
 11 13  1  0  0  0  0
 11 14  1  0  0  0  0
  9 10  1  0  0  0  0
  9 11  1  0  0  0  0
  9 20  1  0  0  0  0
  7  8  1  0  0  0  0
  7  9  1  0  0  0  0
 24 25  1  0  0  0  0
 24 26  1  0  0  0  0
 24 27  1  0  0  0  0
 22 23  1  0  0  0  0
 22 24  1  0  0  0  0
M  CHG  1  18  -1
M  END
$$$$
default_name
  -OEChem-02102213163D

 27 26  0     1  0  0  0  0  0999 V2000
   -3.2406   -3.5400    1.2326 H   0  0  0  0  0  0  0  0  0  0  0  0
   -3.1436   -2.6190    0.6606 C   0  0  0  0  0  0  0  0  0  0  0  0
   -3.8786   -1.8920    0.9996 H   0  0  0  0  0  0  0  0  0  0  0  0
   -3.2846   -2.8280   -0.3984 H   0  0  0  0  0  0  0  0  0  0  0  0
   -1.7586   -2.0580    0.8686 C   0  0  0  0  0  0  0  0  0  0  0  0
   -0.9666   -2.6340    1.6026 O   0  0  0  0  0  0  0  0  0  0  0  0
   -1.4866   -0.9220    0.2366 N   0  0  0  0  0  0  0  0  0  0  0  0
   -2.2166   -0.4790   -0.2994 H   0  0  0  0  0  0  0  0  0  0  0  0
   -0.1956   -0.2250    0.2596 C   0  0  1  0  0  0  0  0  0  0  0  0
    0.3927   -0.6026    1.0964 H   0  0  0  0  0  0  0  0  0  0  0  0
    0.5767   -0.5489   -1.0351 C   0  0  0  0  0  0  0  0  0  0  0  0
    1.2121    0.3064   -1.2705 H   0  0  0  0  0  0  0  0  0  0  0  0
    1.2158   -1.4167   -0.8658 H   0  0  0  0  0  0  0  0  0  0  0  0
   -0.3377   -0.8233   -2.2410 C   0  0  0  0  0  0  0  0  0  0  0  0
    0.0112   -1.7211   -2.7569 H   0  0  0  0  0  0  0  0  0  0  0  0
   -1.3467   -1.0191   -1.8687 H   0  0  0  0  0  0  0  0  0  0  0  0
   -0.3852    0.3362   -3.2471 C   0  0  0  0  0  0  0  0  0  0  0  0
    0.1864    1.4080   -2.9458 O   0  5  0  0  0  0  0  0  0  0  0  0
   -0.9803    0.1187   -4.3259 O   0  0  0  0  0  0  0  0  0  0  0  0
   -0.3954    1.2887    0.4814 C   0  0  0  0  0  0  0  0  0  0  0  0
   -1.2761    1.9015   -0.1256 O   0  0  0  0  0  0  0  0  0  0  0  0
    0.4051    1.8919    1.3699 N   0  0  0  0  0  0  0  0  0  0  0  0
    1.1380    1.3380    1.7875 H   0  0  0  0  0  0  0  0  0  0  0  0
    0.3573    3.3183    1.6807 C   0  0  0  0  0  0  0  0  0  0  0  0
   -0.6670    3.6090    1.9198 H   0  0  0  0  0  0  0  0  0  0  0  0
    1.0066    3.5397    2.5289 H   0  0  0  0  0  0  0  0  0  0  0  0
    0.6896    3.8897    0.8118 H   0  0  0  0  0  0  0  0  0  0  0  0
  5  6  2  0  0  0  0
  5  7  1  0  0  0  0
  2  3  1  0  0  0  0
  2  4  1  0  0  0  0
  2  5  1  0  0  0  0
  1  2  1  0  0  0  0
 20 21  2  0  0  0  0
 20 22  1  0  0  0  0
 17 18  1  0  0  0  0
 17 19  2  0  0  0  0
 14 15  1  0  0  0  0
 14 16  1  0  0  0  0
 14 17  1  0  0  0  0
 11 12  1  0  0  0  0
 11 13  1  0  0  0  0
 11 14  1  0  0  0  0
  9 10  1  0  0  0  0
  9 11  1  0  0  0  0
  9 20  1  0  0  0  0
  7  8  1  0  0  0  0
  7  9  1  0  0  0  0
 24 25  1  0  0  0  0
 24 26  1  0  0  0  0
 24 27  1  0  0  0  0
 22 23  1  0  0  0  0
 22 24  1  0  0  0  0
M  CHG  1  18  -1
M  END
$$$$
default_name
  -OEChem-02102213163D

 27 26  0     1  0  0  0  0  0999 V2000
   -3.2406   -3.5400    1.2326 H   0  0  0  0  0  0  0  0  0  0  0  0
   -3.1436   -2.6190    0.6606 C   0  0  0  0  0  0  0  0  0  0  0  0
   -3.8786   -1.8920    0.9996 H   0  0  0  0  0  0  0  0  0  0  0  0
   -3.2846   -2.8280   -0.3984 H   0  0  0  0  0  0  0  0  0  0  0  0
   -1.7586   -2.0580    0.8686 C   0  0  0  0  0  0  0  0  0  0  0  0
   -0.9666   -2.6340    1.6026 O   0  0  0  0  0  0  0  0  0  0  0  0
   -1.4866   -0.9220    0.2366 N   0  0  0  0  0  0  0  0  0  0  0  0
   -2.2166   -0.4790   -0.2994 H   0  0  0  0  0  0  0  0  0  0  0  0
   -0.1956   -0.2250    0.2596 C   0  0  1  0  0  0  0  0  0  0  0  0
    0.3927   -0.6026    1.0964 H   0  0  0  0  0  0  0  0  0  0  0  0
    0.5767   -0.5489   -1.0351 C   0  0  0  0  0  0  0  0  0  0  0  0
    1.2121    0.3064   -1.2705 H   0  0  0  0  0  0  0  0  0  0  0  0
    1.2158   -1.4167   -0.8658 H   0  0  0  0  0  0  0  0  0  0  0  0
   -0.3377   -0.8233   -2.2410 C   0  0  0  0  0  0  0  0  0  0  0  0
   -0.1663   -1.8428   -2.5946 H   0  0  0  0  0  0  0  0  0  0  0  0
   -1.3762   -0.7525   -1.9070 H   0  0  0  0  0  0  0  0  0  0  0  0
   -0.1142    0.1478   -3.4097 C   0  0  0  0  0  0  0  0  0  0  0  0
    0.6571    1.1181   -3.2367 O   0  5  0  0  0  0  0  0  0  0  0  0
   -0.7085   -0.1151   -4.4789 O   0  0  0  0  0  0  0  0  0  0  0  0
   -0.3954    1.2887    0.4814 C   0  0  0  0  0  0  0  0  0  0  0  0
   -1.2761    1.9015   -0.1256 O   0  0  0  0  0  0  0  0  0  0  0  0
    0.4051    1.8919    1.3699 N   0  0  0  0  0  0  0  0  0  0  0  0
    1.1380    1.3380    1.7875 H   0  0  0  0  0  0  0  0  0  0  0  0
    0.3573    3.3183    1.6807 C   0  0  0  0  0  0  0  0  0  0  0  0
   -0.6670    3.6090    1.9198 H   0  0  0  0  0  0  0  0  0  0  0  0
    1.0066    3.5397    2.5289 H   0  0  0  0  0  0  0  0  0  0  0  0
    0.6896    3.8897    0.8118 H   0  0  0  0  0  0  0  0  0  0  0  0
  5  6  2  0  0  0  0
  5  7  1  0  0  0  0
  2  3  1  0  0  0  0
  2  4  1  0  0  0  0
  2  5  1  0  0  0  0
  1  2  1  0  0  0  0
 20 21  2  0  0  0  0
 20 22  1  0  0  0  0
 17 18  1  0  0  0  0
 17 19  2  0  0  0  0
 14 15  1  0  0  0  0
 14 16  1  0  0  0  0
 14 17  1  0  0  0  0
 11 12  1  0  0  0  0
 11 13  1  0  0  0  0
 11 14  1  0  0  0  0
  9 10  1  0  0  0  0
  9 11  1  0  0  0  0
  9 20  1  0  0  0  0
  7  8  1  0  0  0  0
  7  9  1  0  0  0  0
 24 25  1  0  0  0  0
 24 26  1  0  0  0  0
 24 27  1  0  0  0  0
 22 23  1  0  0  0  0
 22 24  1  0  0  0  0
M  CHG  1  18  -1
M  END
$$$$
default_name
  -OEChem-02102213163D

 27 26  0     1  0  0  0  0  0999 V2000
   -3.2406   -3.5400    1.2326 H   0  0  0  0  0  0  0  0  0  0  0  0
   -3.1436   -2.6190    0.6606 C   0  0  0  0  0  0  0  0  0  0  0  0
   -3.8786   -1.8920    0.9996 H   0  0  0  0  0  0  0  0  0  0  0  0
   -3.2846   -2.8280   -0.3984 H   0  0  0  0  0  0  0  0  0  0  0  0
   -1.7586   -2.0580    0.8686 C   0  0  0  0  0  0  0  0  0  0  0  0
   -0.9666   -2.6340    1.6026 O   0  0  0  0  0  0  0  0  0  0  0  0
   -1.4866   -0.9220    0.2366 N   0  0  0  0  0  0  0  0  0  0  0  0
   -2.2166   -0.4790   -0.2994 H   0  0  0  0  0  0  0  0  0  0  0  0
   -0.1956   -0.2250    0.2596 C   0  0  1  0  0  0  0  0  0  0  0  0
    0.3927   -0.6026    1.0964 H   0  0  0  0  0  0  0  0  0  0  0  0
    0.5767   -0.5489   -1.0351 C   0  0  0  0  0  0  0  0  0  0  0  0
    1.2121    0.3064   -1.2705 H   0  0  0  0  0  0  0  0  0  0  0  0
    1.2158   -1.4167   -0.8658 H   0  0  0  0  0  0  0  0  0  0  0  0
   -0.3377   -0.8233   -2.2410 C   0  0  0  0  0  0  0  0  0  0  0  0
   -0.3699   -1.8995   -2.4273 H   0  0  0  0  0  0  0  0  0  0  0  0
   -1.3489   -0.4948   -1.9864 H   0  0  0  0  0  0  0  0  0  0  0  0
    0.1168   -0.1142   -3.5253 C   0  0  0  0  0  0  0  0  0  0  0  0
    1.0663    0.6979   -3.4514 O   0  5  0  0  0  0  0  0  0  0  0  0
   -0.4862   -0.4196   -4.5781 O   0  0  0  0  0  0  0  0  0  0  0  0
   -0.3954    1.2887    0.4814 C   0  0  0  0  0  0  0  0  0  0  0  0
   -1.2761    1.9015   -0.1256 O   0  0  0  0  0  0  0  0  0  0  0  0
    0.4051    1.8919    1.3699 N   0  0  0  0  0  0  0  0  0  0  0  0
    1.1380    1.3380    1.7875 H   0  0  0  0  0  0  0  0  0  0  0  0
    0.3573    3.3183    1.6807 C   0  0  0  0  0  0  0  0  0  0  0  0
   -0.6670    3.6090    1.9198 H   0  0  0  0  0  0  0  0  0  0  0  0
    1.0066    3.5397    2.5289 H   0  0  0  0  0  0  0  0  0  0  0  0
    0.6896    3.8897    0.8118 H   0  0  0  0  0  0  0  0  0  0  0  0
  5  6  2  0  0  0  0
  5  7  1  0  0  0  0
  2  3  1  0  0  0  0
  2  4  1  0  0  0  0
  2  5  1  0  0  0  0
  1  2  1  0  0  0  0
 20 21  2  0  0  0  0
 20 22  1  0  0  0  0
 17 18  1  0  0  0  0
 17 19  2  0  0  0  0
 14 15  1  0  0  0  0
 14 16  1  0  0  0  0
 14 17  1  0  0  0  0
 11 12  1  0  0  0  0
 11 13  1  0  0  0  0
 11 14  1  0  0  0  0
  9 10  1  0  0  0  0
  9 11  1  0  0  0  0
  9 20  1  0  0  0  0
  7  8  1  0  0  0  0
  7  9  1  0  0  0  0
 24 25  1  0  0  0  0
 24 26  1  0  0  0  0
 24 27  1  0  0  0  0
 22 23  1  0  0  0  0
 22 24  1  0  0  0  0
M  CHG  1  18  -1
M  END
$$$$
default_name
  -OEChem-02102213163D

 27 26  0     1  0  0  0  0  0999 V2000
   -3.2406   -3.5400    1.2326 H   0  0  0  0  0  0  0  0  0  0  0  0
   -3.1436   -2.6190    0.6606 C   0  0  0  0  0  0  0  0  0  0  0  0
   -3.8786   -1.8920    0.9996 H   0  0  0  0  0  0  0  0  0  0  0  0
   -3.2846   -2.8280   -0.3984 H   0  0  0  0  0  0  0  0  0  0  0  0
   -1.7586   -2.0580    0.8686 C   0  0  0  0  0  0  0  0  0  0  0  0
   -0.9666   -2.6340    1.6026 O   0  0  0  0  0  0  0  0  0  0  0  0
   -1.4866   -0.9220    0.2366 N   0  0  0  0  0  0  0  0  0  0  0  0
   -2.2166   -0.4790   -0.2994 H   0  0  0  0  0  0  0  0  0  0  0  0
   -0.1956   -0.2250    0.2596 C   0  0  1  0  0  0  0  0  0  0  0  0
    0.3927   -0.6026    1.0964 H   0  0  0  0  0  0  0  0  0  0  0  0
    0.5767   -0.5489   -1.0351 C   0  0  0  0  0  0  0  0  0  0  0  0
    1.2121    0.3064   -1.2705 H   0  0  0  0  0  0  0  0  0  0  0  0
    1.2158   -1.4167   -0.8658 H   0  0  0  0  0  0  0  0  0  0  0  0
   -0.3377   -0.8233   -2.2410 C   0  0  0  0  0  0  0  0  0  0  0  0
   -0.5858   -1.8871   -2.2664 H   0  0  0  0  0  0  0  0  0  0  0  0
   -1.2665   -0.2638   -2.1015 H   0  0  0  0  0  0  0  0  0  0  0  0
    0.2921   -0.4320   -3.5860 C   0  0  0  0  0  0  0  0  0  0  0  0
    1.3862    0.1758   -3.5752 O   0  5  0  0  0  0  0  0  0  0  0  0
   -0.3288   -0.7741   -4.6169 O   0  0  0  0  0  0  0  0  0  0  0  0
   -0.3954    1.2887    0.4814 C   0  0  0  0  0  0  0  0  0  0  0  0
   -1.2761    1.9015   -0.1256 O   0  0  0  0  0  0  0  0  0  0  0  0
    0.4051    1.8919    1.3699 N   0  0  0  0  0  0  0  0  0  0  0  0
    1.1380    1.3380    1.7875 H   0  0  0  0  0  0  0  0  0  0  0  0
    0.3573    3.3183    1.6807 C   0  0  0  0  0  0  0  0  0  0  0  0
   -0.6670    3.6090    1.9198 H   0  0  0  0  0  0  0  0  0  0  0  0
    1.0066    3.5397    2.5289 H   0  0  0  0  0  0  0  0  0  0  0  0
    0.6896    3.8897    0.8118 H   0  0  0  0  0  0  0  0  0  0  0  0
  5  6  2  0  0  0  0
  5  7  1  0  0  0  0
  2  3  1  0  0  0  0
  2  4  1  0  0  0  0
  2  5  1  0  0  0  0
  1  2  1  0  0  0  0
 20 21  2  0  0  0  0
 20 22  1  0  0  0  0
 17 18  1  0  0  0  0
 17 19  2  0  0  0  0
 14 15  1  0  0  0  0
 14 16  1  0  0  0  0
 14 17  1  0  0  0  0
 11 12  1  0  0  0  0
 11 13  1  0  0  0  0
 11 14  1  0  0  0  0
  9 10  1  0  0  0  0
  9 11  1  0  0  0  0
  9 20  1  0  0  0  0
  7  8  1  0  0  0  0
  7  9  1  0  0  0  0
 24 25  1  0  0  0  0
 24 26  1  0  0  0  0
 24 27  1  0  0  0  0
 22 23  1  0  0  0  0
 22 24  1  0  0  0  0
M  CHG  1  18  -1
M  END
$$$$
default_name
  -OEChem-02102213163D

 27 26  0     1  0  0  0  0  0999 V2000
   -3.2406   -3.5400    1.2326 H   0  0  0  0  0  0  0  0  0  0  0  0
   -3.1436   -2.6190    0.6606 C   0  0  0  0  0  0  0  0  0  0  0  0
   -3.8786   -1.8920    0.9996 H   0  0  0  0  0  0  0  0  0  0  0  0
   -3.2846   -2.8280   -0.3984 H   0  0  0  0  0  0  0  0  0  0  0  0
   -1.7586   -2.0580    0.8686 C   0  0  0  0  0  0  0  0  0  0  0  0
   -0.9666   -2.6340    1.6026 O   0  0  0  0  0  0  0  0  0  0  0  0
   -1.4866   -0.9220    0.2366 N   0  0  0  0  0  0  0  0  0  0  0  0
   -2.2166   -0.4790   -0.2994 H   0  0  0  0  0  0  0  0  0  0  0  0
   -0.1956   -0.2250    0.2596 C   0  0  1  0  0  0  0  0  0  0  0  0
    0.3927   -0.6026    1.0964 H   0  0  0  0  0  0  0  0  0  0  0  0
    0.5767   -0.5489   -1.0351 C   0  0  0  0  0  0  0  0  0  0  0  0
    1.2121    0.3064   -1.2705 H   0  0  0  0  0  0  0  0  0  0  0  0
    1.2158   -1.4167   -0.8658 H   0  0  0  0  0  0  0  0  0  0  0  0
   -0.3377   -0.8233   -2.2410 C   0  0  0  0  0  0  0  0  0  0  0  0
   -0.7993   -1.8066   -2.1228 H   0  0  0  0  0  0  0  0  0  0  0  0
   -1.1347   -0.0750   -2.2444 H   0  0  0  0  0  0  0  0  0  0  0  0
    0.3998   -0.7838   -3.5876 C   0  0  0  0  0  0  0  0  0  0  0  0
    1.5950   -0.4124   -3.5996 O   0  5  0  0  0  0  0  0  0  0  0  0
   -0.2468   -1.1544   -4.5925 O   0  0  0  0  0  0  0  0  0  0  0  0
   -0.3954    1.2887    0.4814 C   0  0  0  0  0  0  0  0  0  0  0  0
   -1.2761    1.9015   -0.1256 O   0  0  0  0  0  0  0  0  0  0  0  0
    0.4051    1.8919    1.3699 N   0  0  0  0  0  0  0  0  0  0  0  0
    1.1380    1.3380    1.7875 H   0  0  0  0  0  0  0  0  0  0  0  0
    0.3573    3.3183    1.6807 C   0  0  0  0  0  0  0  0  0  0  0  0
   -0.6670    3.6090    1.9198 H   0  0  0  0  0  0  0  0  0  0  0  0
    1.0066    3.5397    2.5289 H   0  0  0  0  0  0  0  0  0  0  0  0
    0.6896    3.8897    0.8118 H   0  0  0  0  0  0  0  0  0  0  0  0
  5  6  2  0  0  0  0
  5  7  1  0  0  0  0
  2  3  1  0  0  0  0
  2  4  1  0  0  0  0
  2  5  1  0  0  0  0
  1  2  1  0  0  0  0
 20 21  2  0  0  0  0
 20 22  1  0  0  0  0
 17 18  1  0  0  0  0
 17 19  2  0  0  0  0
 14 15  1  0  0  0  0
 14 16  1  0  0  0  0
 14 17  1  0  0  0  0
 11 12  1  0  0  0  0
 11 13  1  0  0  0  0
 11 14  1  0  0  0  0
  9 10  1  0  0  0  0
  9 11  1  0  0  0  0
  9 20  1  0  0  0  0
  7  8  1  0  0  0  0
  7  9  1  0  0  0  0
 24 25  1  0  0  0  0
 24 26  1  0  0  0  0
 24 27  1  0  0  0  0
 22 23  1  0  0  0  0
 22 24  1  0  0  0  0
M  CHG  1  18  -1
M  END
$$$$
default_name
  -OEChem-02102213163D

 27 26  0     1  0  0  0  0  0999 V2000
   -3.2406   -3.5400    1.2326 H   0  0  0  0  0  0  0  0  0  0  0  0
   -3.1436   -2.6190    0.6606 C   0  0  0  0  0  0  0  0  0  0  0  0
   -3.8786   -1.8920    0.9996 H   0  0  0  0  0  0  0  0  0  0  0  0
   -3.2846   -2.8280   -0.3984 H   0  0  0  0  0  0  0  0  0  0  0  0
   -1.7586   -2.0580    0.8686 C   0  0  0  0  0  0  0  0  0  0  0  0
   -0.9666   -2.6340    1.6026 O   0  0  0  0  0  0  0  0  0  0  0  0
   -1.4866   -0.9220    0.2366 N   0  0  0  0  0  0  0  0  0  0  0  0
   -2.2166   -0.4790   -0.2994 H   0  0  0  0  0  0  0  0  0  0  0  0
   -0.1956   -0.2250    0.2596 C   0  0  1  0  0  0  0  0  0  0  0  0
    0.3927   -0.6026    1.0964 H   0  0  0  0  0  0  0  0  0  0  0  0
    0.5767   -0.5489   -1.0351 C   0  0  0  0  0  0  0  0  0  0  0  0
    1.3949    0.1673   -1.1267 H   0  0  0  0  0  0  0  0  0  0  0  0
    1.0023   -1.5506   -0.9596 H   0  0  0  0  0  0  0  0  0  0  0  0
   -0.2902   -0.4633   -2.3027 C   0  0  0  0  0  0  0  0  0  0  0  0
   -1.1272   -1.1596   -2.2107 H   0  0  0  0  0  0  0  0  0  0  0  0
   -0.6992    0.5482   -2.3708 H   0  0  0  0  0  0  0  0  0  0  0  0
    0.4800   -0.7860   -3.5917 C   0  0  0  0  0  0  0  0  0  0  0  0
    1.7191   -0.9469   -3.5188 O   0  5  0  0  0  0  0  0  0  0  0  0
   -0.1972   -0.8917   -4.6383 O   0  0  0  0  0  0  0  0  0  0  0  0
   -0.3954    1.2887    0.4814 C   0  0  0  0  0  0  0  0  0  0  0  0
   -1.2761    1.9015   -0.1256 O   0  0  0  0  0  0  0  0  0  0  0  0
    0.4051    1.8919    1.3699 N   0  0  0  0  0  0  0  0  0  0  0  0
    1.1380    1.3380    1.7875 H   0  0  0  0  0  0  0  0  0  0  0  0
    0.3573    3.3183    1.6807 C   0  0  0  0  0  0  0  0  0  0  0  0
   -0.6670    3.6090    1.9198 H   0  0  0  0  0  0  0  0  0  0  0  0
    1.0066    3.5397    2.5289 H   0  0  0  0  0  0  0  0  0  0  0  0
    0.6896    3.8897    0.8118 H   0  0  0  0  0  0  0  0  0  0  0  0
  5  6  2  0  0  0  0
  5  7  1  0  0  0  0
  2  3  1  0  0  0  0
  2  4  1  0  0  0  0
  2  5  1  0  0  0  0
  1  2  1  0  0  0  0
 20 21  2  0  0  0  0
 20 22  1  0  0  0  0
 17 18  1  0  0  0  0
 17 19  2  0  0  0  0
 14 15  1  0  0  0  0
 14 16  1  0  0  0  0
 14 17  1  0  0  0  0
 11 12  1  0  0  0  0
 11 13  1  0  0  0  0
 11 14  1  0  0  0  0
  9 10  1  0  0  0  0
  9 11  1  0  0  0  0
  9 20  1  0  0  0  0
  7  8  1  0  0  0  0
  7  9  1  0  0  0  0
 24 25  1  0  0  0  0
 24 26  1  0  0  0  0
 24 27  1  0  0  0  0
 22 23  1  0  0  0  0
 22 24  1  0  0  0  0
M  CHG  1  18  -1
M  END
$$$$
default_name
  -OEChem-02102213163D

 27 26  0     1  0  0  0  0  0999 V2000
   -3.2406   -3.5400    1.2326 H   0  0  0  0  0  0  0  0  0  0  0  0
   -3.1436   -2.6190    0.6606 C   0  0  0  0  0  0  0  0  0  0  0  0
   -3.8786   -1.8920    0.9996 H   0  0  0  0  0  0  0  0  0  0  0  0
   -3.2846   -2.8280   -0.3984 H   0  0  0  0  0  0  0  0  0  0  0  0
   -1.7586   -2.0580    0.8686 C   0  0  0  0  0  0  0  0  0  0  0  0
   -0.9666   -2.6340    1.6026 O   0  0  0  0  0  0  0  0  0  0  0  0
   -1.4866   -0.9220    0.2366 N   0  0  0  0  0  0  0  0  0  0  0  0
   -2.2166   -0.4790   -0.2994 H   0  0  0  0  0  0  0  0  0  0  0  0
   -0.1956   -0.2250    0.2596 C   0  0  1  0  0  0  0  0  0  0  0  0
    0.3927   -0.6026    1.0964 H   0  0  0  0  0  0  0  0  0  0  0  0
    0.5767   -0.5489   -1.0351 C   0  0  0  0  0  0  0  0  0  0  0  0
    1.3949    0.1673   -1.1267 H   0  0  0  0  0  0  0  0  0  0  0  0
    1.0023   -1.5506   -0.9596 H   0  0  0  0  0  0  0  0  0  0  0  0
   -0.2902   -0.4633   -2.3027 C   0  0  0  0  0  0  0  0  0  0  0  0
   -1.2527   -0.9433   -2.1103 H   0  0  0  0  0  0  0  0  0  0  0  0
   -0.4771    0.5917   -2.5198 H   0  0  0  0  0  0  0  0  0  0  0  0
    0.3546   -1.1262   -3.5289 C   0  0  0  0  0  0  0  0  0  0  0  0
    1.5330   -1.5368   -3.4314 O   0  5  0  0  0  0  0  0  0  0  0  0
   -0.3609   -1.2341   -4.5495 O   0  0  0  0  0  0  0  0  0  0  0  0
   -0.3954    1.2887    0.4814 C   0  0  0  0  0  0  0  0  0  0  0  0
   -1.2761    1.9015   -0.1256 O   0  0  0  0  0  0  0  0  0  0  0  0
    0.4051    1.8919    1.3699 N   0  0  0  0  0  0  0  0  0  0  0  0
    1.1380    1.3380    1.7875 H   0  0  0  0  0  0  0  0  0  0  0  0
    0.3573    3.3183    1.6807 C   0  0  0  0  0  0  0  0  0  0  0  0
   -0.6670    3.6090    1.9198 H   0  0  0  0  0  0  0  0  0  0  0  0
    1.0066    3.5397    2.5289 H   0  0  0  0  0  0  0  0  0  0  0  0
    0.6896    3.8897    0.8118 H   0  0  0  0  0  0  0  0  0  0  0  0
  5  6  2  0  0  0  0
  5  7  1  0  0  0  0
  2  3  1  0  0  0  0
  2  4  1  0  0  0  0
  2  5  1  0  0  0  0
  1  2  1  0  0  0  0
 20 21  2  0  0  0  0
 20 22  1  0  0  0  0
 17 18  1  0  0  0  0
 17 19  2  0  0  0  0
 14 15  1  0  0  0  0
 14 16  1  0  0  0  0
 14 17  1  0  0  0  0
 11 12  1  0  0  0  0
 11 13  1  0  0  0  0
 11 14  1  0  0  0  0
  9 10  1  0  0  0  0
  9 11  1  0  0  0  0
  9 20  1  0  0  0  0
  7  8  1  0  0  0  0
  7  9  1  0  0  0  0
 24 25  1  0  0  0  0
 24 26  1  0  0  0  0
 24 27  1  0  0  0  0
 22 23  1  0  0  0  0
 22 24  1  0  0  0  0
M  CHG  1  18  -1
M  END
$$$$
default_name
  -OEChem-02102213163D

 27 26  0     1  0  0  0  0  0999 V2000
   -3.2406   -3.5400    1.2326 H   0  0  0  0  0  0  0  0  0  0  0  0
   -3.1436   -2.6190    0.6606 C   0  0  0  0  0  0  0  0  0  0  0  0
   -3.8786   -1.8920    0.9996 H   0  0  0  0  0  0  0  0  0  0  0  0
   -3.2846   -2.8280   -0.3984 H   0  0  0  0  0  0  0  0  0  0  0  0
   -1.7586   -2.0580    0.8686 C   0  0  0  0  0  0  0  0  0  0  0  0
   -0.9666   -2.6340    1.6026 O   0  0  0  0  0  0  0  0  0  0  0  0
   -1.4866   -0.9220    0.2366 N   0  0  0  0  0  0  0  0  0  0  0  0
   -2.2166   -0.4790   -0.2994 H   0  0  0  0  0  0  0  0  0  0  0  0
   -0.1956   -0.2250    0.2596 C   0  0  1  0  0  0  0  0  0  0  0  0
    0.3927   -0.6026    1.0964 H   0  0  0  0  0  0  0  0  0  0  0  0
    0.5767   -0.5489   -1.0351 C   0  0  0  0  0  0  0  0  0  0  0  0
    1.3949    0.1673   -1.1267 H   0  0  0  0  0  0  0  0  0  0  0  0
    1.0023   -1.5506   -0.9596 H   0  0  0  0  0  0  0  0  0  0  0  0
   -0.2902   -0.4633   -2.3027 C   0  0  0  0  0  0  0  0  0  0  0  0
   -1.3264   -0.6929   -2.0430 H   0  0  0  0  0  0  0  0  0  0  0  0
   -0.2554    0.5646   -2.6733 H   0  0  0  0  0  0  0  0  0  0  0  0
    0.1619   -1.4189   -3.4168 C   0  0  0  0  0  0  0  0  0  0  0  0
    1.2286   -2.0540   -3.2581 O   0  5  0  0  0  0  0  0  0  0  0  0
   -0.5908   -1.5171   -4.4114 O   0  0  0  0  0  0  0  0  0  0  0  0
   -0.3954    1.2887    0.4814 C   0  0  0  0  0  0  0  0  0  0  0  0
   -1.2761    1.9015   -0.1256 O   0  0  0  0  0  0  0  0  0  0  0  0
    0.4051    1.8919    1.3699 N   0  0  0  0  0  0  0  0  0  0  0  0
    1.1380    1.3380    1.7875 H   0  0  0  0  0  0  0  0  0  0  0  0
    0.3573    3.3183    1.6807 C   0  0  0  0  0  0  0  0  0  0  0  0
   -0.6670    3.6090    1.9198 H   0  0  0  0  0  0  0  0  0  0  0  0
    1.0066    3.5397    2.5289 H   0  0  0  0  0  0  0  0  0  0  0  0
    0.6896    3.8897    0.8118 H   0  0  0  0  0  0  0  0  0  0  0  0
  5  6  2  0  0  0  0
  5  7  1  0  0  0  0
  2  3  1  0  0  0  0
  2  4  1  0  0  0  0
  2  5  1  0  0  0  0
  1  2  1  0  0  0  0
 20 21  2  0  0  0  0
 20 22  1  0  0  0  0
 17 18  1  0  0  0  0
 17 19  2  0  0  0  0
 14 15  1  0  0  0  0
 14 16  1  0  0  0  0
 14 17  1  0  0  0  0
 11 12  1  0  0  0  0
 11 13  1  0  0  0  0
 11 14  1  0  0  0  0
  9 10  1  0  0  0  0
  9 11  1  0  0  0  0
  9 20  1  0  0  0  0
  7  8  1  0  0  0  0
  7  9  1  0  0  0  0
 24 25  1  0  0  0  0
 24 26  1  0  0  0  0
 24 27  1  0  0  0  0
 22 23  1  0  0  0  0
 22 24  1  0  0  0  0
M  CHG  1  18  -1
M  END
$$$$
default_name
  -OEChem-02102213163D

 27 26  0     1  0  0  0  0  0999 V2000
   -3.2406   -3.5400    1.2326 H   0  0  0  0  0  0  0  0  0  0  0  0
   -3.1436   -2.6190    0.6606 C   0  0  0  0  0  0  0  0  0  0  0  0
   -3.8786   -1.8920    0.9996 H   0  0  0  0  0  0  0  0  0  0  0  0
   -3.2846   -2.8280   -0.3984 H   0  0  0  0  0  0  0  0  0  0  0  0
   -1.7586   -2.0580    0.8686 C   0  0  0  0  0  0  0  0  0  0  0  0
   -0.9666   -2.6340    1.6026 O   0  0  0  0  0  0  0  0  0  0  0  0
   -1.4866   -0.9220    0.2366 N   0  0  0  0  0  0  0  0  0  0  0  0
   -2.2166   -0.4790   -0.2994 H   0  0  0  0  0  0  0  0  0  0  0  0
   -0.1956   -0.2250    0.2596 C   0  0  1  0  0  0  0  0  0  0  0  0
    0.3927   -0.6026    1.0964 H   0  0  0  0  0  0  0  0  0  0  0  0
    0.5767   -0.5489   -1.0351 C   0  0  0  0  0  0  0  0  0  0  0  0
    1.3949    0.1673   -1.1267 H   0  0  0  0  0  0  0  0  0  0  0  0
    1.0023   -1.5506   -0.9596 H   0  0  0  0  0  0  0  0  0  0  0  0
   -0.2902   -0.4633   -2.3027 C   0  0  0  0  0  0  0  0  0  0  0  0
   -1.3432   -0.4255   -2.0134 H   0  0  0  0  0  0  0  0  0  0  0  0
   -0.0493    0.4688   -2.8207 H   0  0  0  0  0  0  0  0  0  0  0  0
   -0.0851   -1.6441   -3.2631 C   0  0  0  0  0  0  0  0  0  0  0  0
    0.8268   -2.4635   -3.0110 O   0  5  0  0  0  0  0  0  0  0  0  0
   -0.8712   -1.7211   -4.2334 O   0  0  0  0  0  0  0  0  0  0  0  0
   -0.3954    1.2887    0.4814 C   0  0  0  0  0  0  0  0  0  0  0  0
   -1.2761    1.9015   -0.1256 O   0  0  0  0  0  0  0  0  0  0  0  0
    0.4051    1.8919    1.3699 N   0  0  0  0  0  0  0  0  0  0  0  0
    1.1380    1.3380    1.7875 H   0  0  0  0  0  0  0  0  0  0  0  0
    0.3573    3.3183    1.6807 C   0  0  0  0  0  0  0  0  0  0  0  0
   -0.6670    3.6090    1.9198 H   0  0  0  0  0  0  0  0  0  0  0  0
    1.0066    3.5397    2.5289 H   0  0  0  0  0  0  0  0  0  0  0  0
    0.6896    3.8897    0.8118 H   0  0  0  0  0  0  0  0  0  0  0  0
  5  6  2  0  0  0  0
  5  7  1  0  0  0  0
  2  3  1  0  0  0  0
  2  4  1  0  0  0  0
  2  5  1  0  0  0  0
  1  2  1  0  0  0  0
 20 21  2  0  0  0  0
 20 22  1  0  0  0  0
 17 18  1  0  0  0  0
 17 19  2  0  0  0  0
 14 15  1  0  0  0  0
 14 16  1  0  0  0  0
 14 17  1  0  0  0  0
 11 12  1  0  0  0  0
 11 13  1  0  0  0  0
 11 14  1  0  0  0  0
  9 10  1  0  0  0  0
  9 11  1  0  0  0  0
  9 20  1  0  0  0  0
  7  8  1  0  0  0  0
  7  9  1  0  0  0  0
 24 25  1  0  0  0  0
 24 26  1  0  0  0  0
 24 27  1  0  0  0  0
 22 23  1  0  0  0  0
 22 24  1  0  0  0  0
M  CHG  1  18  -1
M  END
$$$$
default_name
  -OEChem-02102213163D

 27 26  0     1  0  0  0  0  0999 V2000
   -3.2406   -3.5400    1.2326 H   0  0  0  0  0  0  0  0  0  0  0  0
   -3.1436   -2.6190    0.6606 C   0  0  0  0  0  0  0  0  0  0  0  0
   -3.8786   -1.8920    0.9996 H   0  0  0  0  0  0  0  0  0  0  0  0
   -3.2846   -2.8280   -0.3984 H   0  0  0  0  0  0  0  0  0  0  0  0
   -1.7586   -2.0580    0.8686 C   0  0  0  0  0  0  0  0  0  0  0  0
   -0.9666   -2.6340    1.6026 O   0  0  0  0  0  0  0  0  0  0  0  0
   -1.4866   -0.9220    0.2366 N   0  0  0  0  0  0  0  0  0  0  0  0
   -2.2166   -0.4790   -0.2994 H   0  0  0  0  0  0  0  0  0  0  0  0
   -0.1956   -0.2250    0.2596 C   0  0  1  0  0  0  0  0  0  0  0  0
    0.3927   -0.6026    1.0964 H   0  0  0  0  0  0  0  0  0  0  0  0
    0.5767   -0.5489   -1.0351 C   0  0  0  0  0  0  0  0  0  0  0  0
    1.3949    0.1673   -1.1267 H   0  0  0  0  0  0  0  0  0  0  0  0
    1.0023   -1.5506   -0.9596 H   0  0  0  0  0  0  0  0  0  0  0  0
   -0.2902   -0.4633   -2.3027 C   0  0  0  0  0  0  0  0  0  0  0  0
   -1.3019   -0.1593   -2.0237 H   0  0  0  0  0  0  0  0  0  0  0  0
    0.1273    0.3107   -2.9521 H   0  0  0  0  0  0  0  0  0  0  0  0
   -0.3695   -1.7866   -3.0782 C   0  0  0  0  0  0  0  0  0  0  0  0
    0.3549   -2.7372   -2.7067 O   0  5  0  0  0  0  0  0  0  0  0  0
   -1.1830   -1.8325   -4.0276 O   0  0  0  0  0  0  0  0  0  0  0  0
   -0.3954    1.2887    0.4814 C   0  0  0  0  0  0  0  0  0  0  0  0
   -1.2761    1.9015   -0.1256 O   0  0  0  0  0  0  0  0  0  0  0  0
    0.4051    1.8919    1.3699 N   0  0  0  0  0  0  0  0  0  0  0  0
    1.1380    1.3380    1.7875 H   0  0  0  0  0  0  0  0  0  0  0  0
    0.3573    3.3183    1.6807 C   0  0  0  0  0  0  0  0  0  0  0  0
   -0.6670    3.6090    1.9198 H   0  0  0  0  0  0  0  0  0  0  0  0
    1.0066    3.5397    2.5289 H   0  0  0  0  0  0  0  0  0  0  0  0
    0.6896    3.8897    0.8118 H   0  0  0  0  0  0  0  0  0  0  0  0
  5  6  2  0  0  0  0
  5  7  1  0  0  0  0
  2  3  1  0  0  0  0
  2  4  1  0  0  0  0
  2  5  1  0  0  0  0
  1  2  1  0  0  0  0
 20 21  2  0  0  0  0
 20 22  1  0  0  0  0
 17 18  1  0  0  0  0
 17 19  2  0  0  0  0
 14 15  1  0  0  0  0
 14 16  1  0  0  0  0
 14 17  1  0  0  0  0
 11 12  1  0  0  0  0
 11 13  1  0  0  0  0
 11 14  1  0  0  0  0
  9 10  1  0  0  0  0
  9 11  1  0  0  0  0
  9 20  1  0  0  0  0
  7  8  1  0  0  0  0
  7  9  1  0  0  0  0
 24 25  1  0  0  0  0
 24 26  1  0  0  0  0
 24 27  1  0  0  0  0
 22 23  1  0  0  0  0
 22 24  1  0  0  0  0
M  CHG  1  18  -1
M  END
$$$$
default_name
  -OEChem-02102213163D

 27 26  0     1  0  0  0  0  0999 V2000
   -3.2406   -3.5400    1.2326 H   0  0  0  0  0  0  0  0  0  0  0  0
   -3.1436   -2.6190    0.6606 C   0  0  0  0  0  0  0  0  0  0  0  0
   -3.8786   -1.8920    0.9996 H   0  0  0  0  0  0  0  0  0  0  0  0
   -3.2846   -2.8280   -0.3984 H   0  0  0  0  0  0  0  0  0  0  0  0
   -1.7586   -2.0580    0.8686 C   0  0  0  0  0  0  0  0  0  0  0  0
   -0.9666   -2.6340    1.6026 O   0  0  0  0  0  0  0  0  0  0  0  0
   -1.4866   -0.9220    0.2366 N   0  0  0  0  0  0  0  0  0  0  0  0
   -2.2166   -0.4790   -0.2994 H   0  0  0  0  0  0  0  0  0  0  0  0
   -0.1956   -0.2250    0.2596 C   0  0  1  0  0  0  0  0  0  0  0  0
    0.3927   -0.6026    1.0964 H   0  0  0  0  0  0  0  0  0  0  0  0
    0.5767   -0.5489   -1.0351 C   0  0  0  0  0  0  0  0  0  0  0  0
    1.3949    0.1673   -1.1267 H   0  0  0  0  0  0  0  0  0  0  0  0
    1.0023   -1.5506   -0.9596 H   0  0  0  0  0  0  0  0  0  0  0  0
   -0.2902   -0.4633   -2.3027 C   0  0  0  0  0  0  0  0  0  0  0  0
   -1.2055    0.0875   -2.0730 H   0  0  0  0  0  0  0  0  0  0  0  0
    0.2622    0.1012   -3.0586 H   0  0  0  0  0  0  0  0  0  0  0  0
   -0.6720   -1.8366   -2.8747 C   0  0  0  0  0  0  0  0  0  0  0  0
   -0.1549   -2.8566   -2.3661 O   0  5  0  0  0  0  0  0  0  0  0  0
   -1.5050   -1.8435   -3.8082 O   0  0  0  0  0  0  0  0  0  0  0  0
   -0.3954    1.2887    0.4814 C   0  0  0  0  0  0  0  0  0  0  0  0
   -1.2761    1.9015   -0.1256 O   0  0  0  0  0  0  0  0  0  0  0  0
    0.4051    1.8919    1.3699 N   0  0  0  0  0  0  0  0  0  0  0  0
    1.1380    1.3380    1.7875 H   0  0  0  0  0  0  0  0  0  0  0  0
    0.3573    3.3183    1.6807 C   0  0  0  0  0  0  0  0  0  0  0  0
   -0.6670    3.6090    1.9198 H   0  0  0  0  0  0  0  0  0  0  0  0
    1.0066    3.5397    2.5289 H   0  0  0  0  0  0  0  0  0  0  0  0
    0.6896    3.8897    0.8118 H   0  0  0  0  0  0  0  0  0  0  0  0
  5  6  2  0  0  0  0
  5  7  1  0  0  0  0
  2  3  1  0  0  0  0
  2  4  1  0  0  0  0
  2  5  1  0  0  0  0
  1  2  1  0  0  0  0
 20 21  2  0  0  0  0
 20 22  1  0  0  0  0
 17 18  1  0  0  0  0
 17 19  2  0  0  0  0
 14 15  1  0  0  0  0
 14 16  1  0  0  0  0
 14 17  1  0  0  0  0
 11 12  1  0  0  0  0
 11 13  1  0  0  0  0
 11 14  1  0  0  0  0
  9 10  1  0  0  0  0
  9 11  1  0  0  0  0
  9 20  1  0  0  0  0
  7  8  1  0  0  0  0
  7  9  1  0  0  0  0
 24 25  1  0  0  0  0
 24 26  1  0  0  0  0
 24 27  1  0  0  0  0
 22 23  1  0  0  0  0
 22 24  1  0  0  0  0
M  CHG  1  18  -1
M  END
$$$$
default_name
  -OEChem-02102213163D

 27 26  0     1  0  0  0  0  0999 V2000
   -3.2406   -3.5400    1.2326 H   0  0  0  0  0  0  0  0  0  0  0  0
   -3.1436   -2.6190    0.6606 C   0  0  0  0  0  0  0  0  0  0  0  0
   -3.8786   -1.8920    0.9996 H   0  0  0  0  0  0  0  0  0  0  0  0
   -3.2846   -2.8280   -0.3984 H   0  0  0  0  0  0  0  0  0  0  0  0
   -1.7586   -2.0580    0.8686 C   0  0  0  0  0  0  0  0  0  0  0  0
   -0.9666   -2.6340    1.6026 O   0  0  0  0  0  0  0  0  0  0  0  0
   -1.4866   -0.9220    0.2366 N   0  0  0  0  0  0  0  0  0  0  0  0
   -2.2166   -0.4790   -0.2994 H   0  0  0  0  0  0  0  0  0  0  0  0
   -0.1956   -0.2250    0.2596 C   0  0  1  0  0  0  0  0  0  0  0  0
    0.3927   -0.6026    1.0964 H   0  0  0  0  0  0  0  0  0  0  0  0
    0.5767   -0.5489   -1.0351 C   0  0  0  0  0  0  0  0  0  0  0  0
    1.3949    0.1673   -1.1267 H   0  0  0  0  0  0  0  0  0  0  0  0
    1.0023   -1.5506   -0.9596 H   0  0  0  0  0  0  0  0  0  0  0  0
   -0.2902   -0.4633   -2.3027 C   0  0  0  0  0  0  0  0  0  0  0  0
   -1.0603    0.2982   -2.1580 H   0  0  0  0  0  0  0  0  0  0  0  0
    0.3463   -0.1455   -3.1327 H   0  0  0  0  0  0  0  0  0  0  0  0
   -0.9718   -1.7906   -2.6665 C   0  0  0  0  0  0  0  0  0  0  0  0
   -0.6679   -2.8134   -2.0123 O   0  5  0  0  0  0  0  0  0  0  0  0
   -1.8152   -1.7535   -3.5899 O   0  0  0  0  0  0  0  0  0  0  0  0
   -0.3954    1.2887    0.4814 C   0  0  0  0  0  0  0  0  0  0  0  0
   -1.2761    1.9015   -0.1256 O   0  0  0  0  0  0  0  0  0  0  0  0
    0.4051    1.8919    1.3699 N   0  0  0  0  0  0  0  0  0  0  0  0
    1.1380    1.3380    1.7875 H   0  0  0  0  0  0  0  0  0  0  0  0
    0.3573    3.3183    1.6807 C   0  0  0  0  0  0  0  0  0  0  0  0
   -0.6670    3.6090    1.9198 H   0  0  0  0  0  0  0  0  0  0  0  0
    1.0066    3.5397    2.5289 H   0  0  0  0  0  0  0  0  0  0  0  0
    0.6896    3.8897    0.8118 H   0  0  0  0  0  0  0  0  0  0  0  0
  5  6  2  0  0  0  0
  5  7  1  0  0  0  0
  2  3  1  0  0  0  0
  2  4  1  0  0  0  0
  2  5  1  0  0  0  0
  1  2  1  0  0  0  0
 20 21  2  0  0  0  0
 20 22  1  0  0  0  0
 17 18  1  0  0  0  0
 17 19  2  0  0  0  0
 14 15  1  0  0  0  0
 14 16  1  0  0  0  0
 14 17  1  0  0  0  0
 11 12  1  0  0  0  0
 11 13  1  0  0  0  0
 11 14  1  0  0  0  0
  9 10  1  0  0  0  0
  9 11  1  0  0  0  0
  9 20  1  0  0  0  0
  7  8  1  0  0  0  0
  7  9  1  0  0  0  0
 24 25  1  0  0  0  0
 24 26  1  0  0  0  0
 24 27  1  0  0  0  0
 22 23  1  0  0  0  0
 22 24  1  0  0  0  0
M  CHG  1  18  -1
M  END
$$$$
default_name
  -OEChem-02102213163D

 27 26  0     1  0  0  0  0  0999 V2000
   -3.2406   -3.5400    1.2326 H   0  0  0  0  0  0  0  0  0  0  0  0
   -3.1436   -2.6190    0.6606 C   0  0  0  0  0  0  0  0  0  0  0  0
   -3.8786   -1.8920    0.9996 H   0  0  0  0  0  0  0  0  0  0  0  0
   -3.2846   -2.8280   -0.3984 H   0  0  0  0  0  0  0  0  0  0  0  0
   -1.7586   -2.0580    0.8686 C   0  0  0  0  0  0  0  0  0  0  0  0
   -0.9666   -2.6340    1.6026 O   0  0  0  0  0  0  0  0  0  0  0  0
   -1.4866   -0.9220    0.2366 N   0  0  0  0  0  0  0  0  0  0  0  0
   -2.2166   -0.4790   -0.2994 H   0  0  0  0  0  0  0  0  0  0  0  0
   -0.1956   -0.2250    0.2596 C   0  0  1  0  0  0  0  0  0  0  0  0
    0.3927   -0.6026    1.0964 H   0  0  0  0  0  0  0  0  0  0  0  0
    0.5767   -0.5489   -1.0351 C   0  0  0  0  0  0  0  0  0  0  0  0
    1.3949    0.1673   -1.1267 H   0  0  0  0  0  0  0  0  0  0  0  0
    1.0023   -1.5506   -0.9596 H   0  0  0  0  0  0  0  0  0  0  0  0
   -0.2902   -0.4633   -2.3027 C   0  0  0  0  0  0  0  0  0  0  0  0
   -0.8765    0.4583   -2.2730 H   0  0  0  0  0  0  0  0  0  0  0  0
    0.3739   -0.4126   -3.1696 H   0  0  0  0  0  0  0  0  0  0  0  0
   -1.2487   -1.6519   -2.4678 C   0  0  0  0  0  0  0  0  0  0  0  0
   -1.1491   -2.6107   -1.6695 O   0  5  0  0  0  0  0  0  0  0  0  0
   -2.0925   -1.5685   -3.3878 O   0  0  0  0  0  0  0  0  0  0  0  0
   -0.3954    1.2887    0.4814 C   0  0  0  0  0  0  0  0  0  0  0  0
   -1.2761    1.9015   -0.1256 O   0  0  0  0  0  0  0  0  0  0  0  0
    0.4051    1.8919    1.3699 N   0  0  0  0  0  0  0  0  0  0  0  0
    1.1380    1.3380    1.7875 H   0  0  0  0  0  0  0  0  0  0  0  0
    0.3573    3.3183    1.6807 C   0  0  0  0  0  0  0  0  0  0  0  0
   -0.6670    3.6090    1.9198 H   0  0  0  0  0  0  0  0  0  0  0  0
    1.0066    3.5397    2.5289 H   0  0  0  0  0  0  0  0  0  0  0  0
    0.6896    3.8897    0.8118 H   0  0  0  0  0  0  0  0  0  0  0  0
  5  6  2  0  0  0  0
  5  7  1  0  0  0  0
  2  3  1  0  0  0  0
  2  4  1  0  0  0  0
  2  5  1  0  0  0  0
  1  2  1  0  0  0  0
 20 21  2  0  0  0  0
 20 22  1  0  0  0  0
 17 18  1  0  0  0  0
 17 19  2  0  0  0  0
 14 15  1  0  0  0  0
 14 16  1  0  0  0  0
 14 17  1  0  0  0  0
 11 12  1  0  0  0  0
 11 13  1  0  0  0  0
 11 14  1  0  0  0  0
  9 10  1  0  0  0  0
  9 11  1  0  0  0  0
  9 20  1  0  0  0  0
  7  8  1  0  0  0  0
  7  9  1  0  0  0  0
 24 25  1  0  0  0  0
 24 26  1  0  0  0  0
 24 27  1  0  0  0  0
 22 23  1  0  0  0  0
 22 24  1  0  0  0  0
M  CHG  1  18  -1
M  END
$$$$
default_name
  -OEChem-02102213163D

 27 26  0     1  0  0  0  0  0999 V2000
   -3.2406   -3.5400    1.2326 H   0  0  0  0  0  0  0  0  0  0  0  0
   -3.1436   -2.6190    0.6606 C   0  0  0  0  0  0  0  0  0  0  0  0
   -3.8786   -1.8920    0.9996 H   0  0  0  0  0  0  0  0  0  0  0  0
   -3.2846   -2.8280   -0.3984 H   0  0  0  0  0  0  0  0  0  0  0  0
   -1.7586   -2.0580    0.8686 C   0  0  0  0  0  0  0  0  0  0  0  0
   -0.9666   -2.6340    1.6026 O   0  0  0  0  0  0  0  0  0  0  0  0
   -1.4866   -0.9220    0.2366 N   0  0  0  0  0  0  0  0  0  0  0  0
   -2.2166   -0.4790   -0.2994 H   0  0  0  0  0  0  0  0  0  0  0  0
   -0.1956   -0.2250    0.2596 C   0  0  1  0  0  0  0  0  0  0  0  0
    0.3927   -0.6026    1.0964 H   0  0  0  0  0  0  0  0  0  0  0  0
    0.5767   -0.5489   -1.0351 C   0  0  0  0  0  0  0  0  0  0  0  0
    1.3949    0.1673   -1.1267 H   0  0  0  0  0  0  0  0  0  0  0  0
    1.0023   -1.5506   -0.9596 H   0  0  0  0  0  0  0  0  0  0  0  0
   -0.2902   -0.4633   -2.3027 C   0  0  0  0  0  0  0  0  0  0  0  0
   -0.6663    0.5570   -2.4100 H   0  0  0  0  0  0  0  0  0  0  0  0
    0.3430   -0.6818   -3.1667 H   0  0  0  0  0  0  0  0  0  0  0  0
   -1.4837   -1.4299   -2.2921 C   0  0  0  0  0  0  0  0  0  0  0  0
   -1.5657   -2.2623   -1.3610 O   0  5  0  0  0  0  0  0  0  0  0  0
   -2.3180   -1.3012   -3.2155 O   0  0  0  0  0  0  0  0  0  0  0  0
   -0.3954    1.2887    0.4814 C   0  0  0  0  0  0  0  0  0  0  0  0
   -1.2761    1.9015   -0.1256 O   0  0  0  0  0  0  0  0  0  0  0  0
    0.4051    1.8919    1.3699 N   0  0  0  0  0  0  0  0  0  0  0  0
    1.1380    1.3380    1.7875 H   0  0  0  0  0  0  0  0  0  0  0  0
    0.3573    3.3183    1.6807 C   0  0  0  0  0  0  0  0  0  0  0  0
   -0.6670    3.6090    1.9198 H   0  0  0  0  0  0  0  0  0  0  0  0
    1.0066    3.5397    2.5289 H   0  0  0  0  0  0  0  0  0  0  0  0
    0.6896    3.8897    0.8118 H   0  0  0  0  0  0  0  0  0  0  0  0
  5  6  2  0  0  0  0
  5  7  1  0  0  0  0
  2  3  1  0  0  0  0
  2  4  1  0  0  0  0
  2  5  1  0  0  0  0
  1  2  1  0  0  0  0
 20 21  2  0  0  0  0
 20 22  1  0  0  0  0
 17 18  1  0  0  0  0
 17 19  2  0  0  0  0
 14 15  1  0  0  0  0
 14 16  1  0  0  0  0
 14 17  1  0  0  0  0
 11 12  1  0  0  0  0
 11 13  1  0  0  0  0
 11 14  1  0  0  0  0
  9 10  1  0  0  0  0
  9 11  1  0  0  0  0
  9 20  1  0  0  0  0
  7  8  1  0  0  0  0
  7  9  1  0  0  0  0
 24 25  1  0  0  0  0
 24 26  1  0  0  0  0
 24 27  1  0  0  0  0
 22 23  1  0  0  0  0
 22 24  1  0  0  0  0
M  CHG  1  18  -1
M  END
$$$$
default_name
  -OEChem-02102213163D

 27 26  0     1  0  0  0  0  0999 V2000
   -3.2406   -3.5400    1.2326 H   0  0  0  0  0  0  0  0  0  0  0  0
   -3.1436   -2.6190    0.6606 C   0  0  0  0  0  0  0  0  0  0  0  0
   -3.8786   -1.8920    0.9996 H   0  0  0  0  0  0  0  0  0  0  0  0
   -3.2846   -2.8280   -0.3984 H   0  0  0  0  0  0  0  0  0  0  0  0
   -1.7586   -2.0580    0.8686 C   0  0  0  0  0  0  0  0  0  0  0  0
   -0.9666   -2.6340    1.6026 O   0  0  0  0  0  0  0  0  0  0  0  0
   -1.4866   -0.9220    0.2366 N   0  0  0  0  0  0  0  0  0  0  0  0
   -2.2166   -0.4790   -0.2994 H   0  0  0  0  0  0  0  0  0  0  0  0
   -0.1956   -0.2250    0.2596 C   0  0  1  0  0  0  0  0  0  0  0  0
    0.3927   -0.6026    1.0964 H   0  0  0  0  0  0  0  0  0  0  0  0
    0.5767   -0.5489   -1.0351 C   0  0  0  0  0  0  0  0  0  0  0  0
    1.3949    0.1673   -1.1267 H   0  0  0  0  0  0  0  0  0  0  0  0
    1.0023   -1.5506   -0.9596 H   0  0  0  0  0  0  0  0  0  0  0  0
   -0.2902   -0.4633   -2.3027 C   0  0  0  0  0  0  0  0  0  0  0  0
   -0.4443    0.5874   -2.5598 H   0  0  0  0  0  0  0  0  0  0  0  0
    0.2558   -0.9348   -3.1241 H   0  0  0  0  0  0  0  0  0  0  0  0
   -1.6608   -1.1397   -2.1514 C   0  0  0  0  0  0  0  0  0  0  0  0
   -1.8894   -1.7918   -1.1079 O   0  5  0  0  0  0  0  0  0  0  0  0
   -2.4763   -0.9698   -3.0849 O   0  0  0  0  0  0  0  0  0  0  0  0
   -0.3954    1.2887    0.4814 C   0  0  0  0  0  0  0  0  0  0  0  0
   -1.2761    1.9015   -0.1256 O   0  0  0  0  0  0  0  0  0  0  0  0
    0.4051    1.8919    1.3699 N   0  0  0  0  0  0  0  0  0  0  0  0
    1.1380    1.3380    1.7875 H   0  0  0  0  0  0  0  0  0  0  0  0
    0.3573    3.3183    1.6807 C   0  0  0  0  0  0  0  0  0  0  0  0
   -0.6670    3.6090    1.9198 H   0  0  0  0  0  0  0  0  0  0  0  0
    1.0066    3.5397    2.5289 H   0  0  0  0  0  0  0  0  0  0  0  0
    0.6896    3.8897    0.8118 H   0  0  0  0  0  0  0  0  0  0  0  0
  5  6  2  0  0  0  0
  5  7  1  0  0  0  0
  2  3  1  0  0  0  0
  2  4  1  0  0  0  0
  2  5  1  0  0  0  0
  1  2  1  0  0  0  0
 20 21  2  0  0  0  0
 20 22  1  0  0  0  0
 17 18  1  0  0  0  0
 17 19  2  0  0  0  0
 14 15  1  0  0  0  0
 14 16  1  0  0  0  0
 14 17  1  0  0  0  0
 11 12  1  0  0  0  0
 11 13  1  0  0  0  0
 11 14  1  0  0  0  0
  9 10  1  0  0  0  0
  9 11  1  0  0  0  0
  9 20  1  0  0  0  0
  7  8  1  0  0  0  0
  7  9  1  0  0  0  0
 24 25  1  0  0  0  0
 24 26  1  0  0  0  0
 24 27  1  0  0  0  0
 22 23  1  0  0  0  0
 22 24  1  0  0  0  0
M  CHG  1  18  -1
M  END
$$$$
default_name
  -OEChem-02102213163D

 27 26  0     1  0  0  0  0  0999 V2000
   -3.2406   -3.5400    1.2326 H   0  0  0  0  0  0  0  0  0  0  0  0
   -3.1436   -2.6190    0.6606 C   0  0  0  0  0  0  0  0  0  0  0  0
   -3.8786   -1.8920    0.9996 H   0  0  0  0  0  0  0  0  0  0  0  0
   -3.2846   -2.8280   -0.3984 H   0  0  0  0  0  0  0  0  0  0  0  0
   -1.7586   -2.0580    0.8686 C   0  0  0  0  0  0  0  0  0  0  0  0
   -0.9666   -2.6340    1.6026 O   0  0  0  0  0  0  0  0  0  0  0  0
   -1.4866   -0.9220    0.2366 N   0  0  0  0  0  0  0  0  0  0  0  0
   -2.2166   -0.4790   -0.2994 H   0  0  0  0  0  0  0  0  0  0  0  0
   -0.1956   -0.2250    0.2596 C   0  0  1  0  0  0  0  0  0  0  0  0
    0.3927   -0.6026    1.0964 H   0  0  0  0  0  0  0  0  0  0  0  0
    0.5767   -0.5489   -1.0351 C   0  0  0  0  0  0  0  0  0  0  0  0
    1.3949    0.1673   -1.1267 H   0  0  0  0  0  0  0  0  0  0  0  0
    1.0023   -1.5506   -0.9596 H   0  0  0  0  0  0  0  0  0  0  0  0
   -0.2902   -0.4633   -2.3027 C   0  0  0  0  0  0  0  0  0  0  0  0
   -0.2255    0.5477   -2.7121 H   0  0  0  0  0  0  0  0  0  0  0  0
    0.1182   -1.1543   -3.0448 H   0  0  0  0  0  0  0  0  0  0  0  0
   -1.7679   -0.8011   -2.0553 C   0  0  0  0  0  0  0  0  0  0  0  0
   -2.0981   -1.2314   -0.9273 O   0  5  0  0  0  0  0  0  0  0  0  0
   -2.5566   -0.5969   -3.0048 O   0  0  0  0  0  0  0  0  0  0  0  0
   -0.3954    1.2887    0.4814 C   0  0  0  0  0  0  0  0  0  0  0  0
   -1.2761    1.9015   -0.1256 O   0  0  0  0  0  0  0  0  0  0  0  0
    0.4051    1.8919    1.3699 N   0  0  0  0  0  0  0  0  0  0  0  0
    1.1380    1.3380    1.7875 H   0  0  0  0  0  0  0  0  0  0  0  0
    0.3573    3.3183    1.6807 C   0  0  0  0  0  0  0  0  0  0  0  0
   -0.6670    3.6090    1.9198 H   0  0  0  0  0  0  0  0  0  0  0  0
    1.0066    3.5397    2.5289 H   0  0  0  0  0  0  0  0  0  0  0  0
    0.6896    3.8897    0.8118 H   0  0  0  0  0  0  0  0  0  0  0  0
  5  6  2  0  0  0  0
  5  7  1  0  0  0  0
  2  3  1  0  0  0  0
  2  4  1  0  0  0  0
  2  5  1  0  0  0  0
  1  2  1  0  0  0  0
 20 21  2  0  0  0  0
 20 22  1  0  0  0  0
 17 18  1  0  0  0  0
 17 19  2  0  0  0  0
 14 15  1  0  0  0  0
 14 16  1  0  0  0  0
 14 17  1  0  0  0  0
 11 12  1  0  0  0  0
 11 13  1  0  0  0  0
 11 14  1  0  0  0  0
  9 10  1  0  0  0  0
  9 11  1  0  0  0  0
  9 20  1  0  0  0  0
  7  8  1  0  0  0  0
  7  9  1  0  0  0  0
 24 25  1  0  0  0  0
 24 26  1  0  0  0  0
 24 27  1  0  0  0  0
 22 23  1  0  0  0  0
 22 24  1  0  0  0  0
M  CHG  1  18  -1
M  END
$$$$
default_name
  -OEChem-02102213163D

 27 26  0     1  0  0  0  0  0999 V2000
   -3.2406   -3.5400    1.2326 H   0  0  0  0  0  0  0  0  0  0  0  0
   -3.1436   -2.6190    0.6606 C   0  0  0  0  0  0  0  0  0  0  0  0
   -3.8786   -1.8920    0.9996 H   0  0  0  0  0  0  0  0  0  0  0  0
   -3.2846   -2.8280   -0.3984 H   0  0  0  0  0  0  0  0  0  0  0  0
   -1.7586   -2.0580    0.8686 C   0  0  0  0  0  0  0  0  0  0  0  0
   -0.9666   -2.6340    1.6026 O   0  0  0  0  0  0  0  0  0  0  0  0
   -1.4866   -0.9220    0.2366 N   0  0  0  0  0  0  0  0  0  0  0  0
   -2.2166   -0.4790   -0.2994 H   0  0  0  0  0  0  0  0  0  0  0  0
   -0.1956   -0.2250    0.2596 C   0  0  1  0  0  0  0  0  0  0  0  0
    0.3927   -0.6026    1.0964 H   0  0  0  0  0  0  0  0  0  0  0  0
    0.5767   -0.5489   -1.0351 C   0  0  0  0  0  0  0  0  0  0  0  0
    1.3949    0.1673   -1.1267 H   0  0  0  0  0  0  0  0  0  0  0  0
    1.0023   -1.5506   -0.9596 H   0  0  0  0  0  0  0  0  0  0  0  0
   -0.2902   -0.4633   -2.3027 C   0  0  0  0  0  0  0  0  0  0  0  0
   -0.0248    0.4404   -2.8566 H   0  0  0  0  0  0  0  0  0  0  0  0
   -0.0604   -1.3255   -2.9342 H   0  0  0  0  0  0  0  0  0  0  0  0
   -1.7977   -0.4371   -2.0103 C   0  0  0  0  0  0  0  0  0  0  0  0
   -2.1775   -0.6193   -0.8317 O   0  5  0  0  0  0  0  0  0  0  0  0
   -2.5535   -0.2078   -2.9806 O   0  0  0  0  0  0  0  0  0  0  0  0
   -0.3954    1.2887    0.4814 C   0  0  0  0  0  0  0  0  0  0  0  0
   -1.2761    1.9015   -0.1256 O   0  0  0  0  0  0  0  0  0  0  0  0
    0.4051    1.8919    1.3699 N   0  0  0  0  0  0  0  0  0  0  0  0
    1.1380    1.3380    1.7875 H   0  0  0  0  0  0  0  0  0  0  0  0
    0.3573    3.3183    1.6807 C   0  0  0  0  0  0  0  0  0  0  0  0
   -0.6670    3.6090    1.9198 H   0  0  0  0  0  0  0  0  0  0  0  0
    1.0066    3.5397    2.5289 H   0  0  0  0  0  0  0  0  0  0  0  0
    0.6896    3.8897    0.8118 H   0  0  0  0  0  0  0  0  0  0  0  0
  5  6  2  0  0  0  0
  5  7  1  0  0  0  0
  2  3  1  0  0  0  0
  2  4  1  0  0  0  0
  2  5  1  0  0  0  0
  1  2  1  0  0  0  0
 20 21  2  0  0  0  0
 20 22  1  0  0  0  0
 17 18  1  0  0  0  0
 17 19  2  0  0  0  0
 14 15  1  0  0  0  0
 14 16  1  0  0  0  0
 14 17  1  0  0  0  0
 11 12  1  0  0  0  0
 11 13  1  0  0  0  0
 11 14  1  0  0  0  0
  9 10  1  0  0  0  0
  9 11  1  0  0  0  0
  9 20  1  0  0  0  0
  7  8  1  0  0  0  0
  7  9  1  0  0  0  0
 24 25  1  0  0  0  0
 24 26  1  0  0  0  0
 24 27  1  0  0  0  0
 22 23  1  0  0  0  0
 22 24  1  0  0  0  0
M  CHG  1  18  -1
M  END
$$$$
default_name
  -OEChem-02102213163D

 27 26  0     1  0  0  0  0  0999 V2000
   -3.2406   -3.5400    1.2326 H   0  0  0  0  0  0  0  0  0  0  0  0
   -3.1436   -2.6190    0.6606 C   0  0  0  0  0  0  0  0  0  0  0  0
   -3.8786   -1.8920    0.9996 H   0  0  0  0  0  0  0  0  0  0  0  0
   -3.2846   -2.8280   -0.3984 H   0  0  0  0  0  0  0  0  0  0  0  0
   -1.7586   -2.0580    0.8686 C   0  0  0  0  0  0  0  0  0  0  0  0
   -0.9666   -2.6340    1.6026 O   0  0  0  0  0  0  0  0  0  0  0  0
   -1.4866   -0.9220    0.2366 N   0  0  0  0  0  0  0  0  0  0  0  0
   -2.2166   -0.4790   -0.2994 H   0  0  0  0  0  0  0  0  0  0  0  0
   -0.1956   -0.2250    0.2596 C   0  0  1  0  0  0  0  0  0  0  0  0
    0.3927   -0.6026    1.0964 H   0  0  0  0  0  0  0  0  0  0  0  0
    0.5767   -0.5489   -1.0351 C   0  0  0  0  0  0  0  0  0  0  0  0
    1.3949    0.1673   -1.1267 H   0  0  0  0  0  0  0  0  0  0  0  0
    1.0023   -1.5506   -0.9596 H   0  0  0  0  0  0  0  0  0  0  0  0
   -0.2902   -0.4633   -2.3027 C   0  0  0  0  0  0  0  0  0  0  0  0
    0.1441    0.2728   -2.9835 H   0  0  0  0  0  0  0  0  0  0  0  0
   -0.2678   -1.4366   -2.7999 H   0  0  0  0  0  0  0  0  0  0  0  0
   -1.7483   -0.0726   -2.0195 C   0  0  0  0  0  0  0  0  0  0  0  0
   -2.1223    0.0029   -0.8275 O   0  5  0  0  0  0  0  0  0  0  0  0
   -2.4671    0.1709   -3.0141 O   0  0  0  0  0  0  0  0  0  0  0  0
   -0.3954    1.2887    0.4814 C   0  0  0  0  0  0  0  0  0  0  0  0
   -1.2761    1.9015   -0.1256 O   0  0  0  0  0  0  0  0  0  0  0  0
    0.4051    1.8919    1.3699 N   0  0  0  0  0  0  0  0  0  0  0  0
    1.1380    1.3380    1.7875 H   0  0  0  0  0  0  0  0  0  0  0  0
    0.3573    3.3183    1.6807 C   0  0  0  0  0  0  0  0  0  0  0  0
   -0.6670    3.6090    1.9198 H   0  0  0  0  0  0  0  0  0  0  0  0
    1.0066    3.5397    2.5289 H   0  0  0  0  0  0  0  0  0  0  0  0
    0.6896    3.8897    0.8118 H   0  0  0  0  0  0  0  0  0  0  0  0
  5  6  2  0  0  0  0
  5  7  1  0  0  0  0
  2  3  1  0  0  0  0
  2  4  1  0  0  0  0
  2  5  1  0  0  0  0
  1  2  1  0  0  0  0
 20 21  2  0  0  0  0
 20 22  1  0  0  0  0
 17 18  1  0  0  0  0
 17 19  2  0  0  0  0
 14 15  1  0  0  0  0
 14 16  1  0  0  0  0
 14 17  1  0  0  0  0
 11 12  1  0  0  0  0
 11 13  1  0  0  0  0
 11 14  1  0  0  0  0
  9 10  1  0  0  0  0
  9 11  1  0  0  0  0
  9 20  1  0  0  0  0
  7  8  1  0  0  0  0
  7  9  1  0  0  0  0
 24 25  1  0  0  0  0
 24 26  1  0  0  0  0
 24 27  1  0  0  0  0
 22 23  1  0  0  0  0
 22 24  1  0  0  0  0
M  CHG  1  18  -1
M  END
$$$$
default_name
  -OEChem-02102213163D

 27 26  0     1  0  0  0  0  0999 V2000
   -3.2406   -3.5400    1.2326 H   0  0  0  0  0  0  0  0  0  0  0  0
   -3.1436   -2.6190    0.6606 C   0  0  0  0  0  0  0  0  0  0  0  0
   -3.8786   -1.8920    0.9996 H   0  0  0  0  0  0  0  0  0  0  0  0
   -3.2846   -2.8280   -0.3984 H   0  0  0  0  0  0  0  0  0  0  0  0
   -1.7586   -2.0580    0.8686 C   0  0  0  0  0  0  0  0  0  0  0  0
   -0.9666   -2.6340    1.6026 O   0  0  0  0  0  0  0  0  0  0  0  0
   -1.4866   -0.9220    0.2366 N   0  0  0  0  0  0  0  0  0  0  0  0
   -2.2166   -0.4790   -0.2994 H   0  0  0  0  0  0  0  0  0  0  0  0
   -0.1956   -0.2250    0.2596 C   0  0  1  0  0  0  0  0  0  0  0  0
    0.3927   -0.6026    1.0964 H   0  0  0  0  0  0  0  0  0  0  0  0
    0.5767   -0.5489   -1.0351 C   0  0  0  0  0  0  0  0  0  0  0  0
    1.3949    0.1673   -1.1267 H   0  0  0  0  0  0  0  0  0  0  0  0
    1.0023   -1.5506   -0.9596 H   0  0  0  0  0  0  0  0  0  0  0  0
   -0.2902   -0.4633   -2.3027 C   0  0  0  0  0  0  0  0  0  0  0  0
    0.2696    0.0565   -3.0839 H   0  0  0  0  0  0  0  0  0  0  0  0
   -0.4900   -1.4801   -2.6509 H   0  0  0  0  0  0  0  0  0  0  0  0
   -1.6229    0.2675   -2.0823 C   0  0  0  0  0  0  0  0  0  0  0  0
   -1.9362    0.5927   -0.9149 O   0  5  0  0  0  0  0  0  0  0  0  0
   -2.3034    0.5133   -3.1029 O   0  0  0  0  0  0  0  0  0  0  0  0
   -0.3954    1.2887    0.4814 C   0  0  0  0  0  0  0  0  0  0  0  0
   -1.2761    1.9015   -0.1256 O   0  0  0  0  0  0  0  0  0  0  0  0
    0.4051    1.8919    1.3699 N   0  0  0  0  0  0  0  0  0  0  0  0
    1.1380    1.3380    1.7875 H   0  0  0  0  0  0  0  0  0  0  0  0
    0.3573    3.3183    1.6807 C   0  0  0  0  0  0  0  0  0  0  0  0
   -0.6670    3.6090    1.9198 H   0  0  0  0  0  0  0  0  0  0  0  0
    1.0066    3.5397    2.5289 H   0  0  0  0  0  0  0  0  0  0  0  0
    0.6896    3.8897    0.8118 H   0  0  0  0  0  0  0  0  0  0  0  0
  5  6  2  0  0  0  0
  5  7  1  0  0  0  0
  2  3  1  0  0  0  0
  2  4  1  0  0  0  0
  2  5  1  0  0  0  0
  1  2  1  0  0  0  0
 20 21  2  0  0  0  0
 20 22  1  0  0  0  0
 17 18  1  0  0  0  0
 17 19  2  0  0  0  0
 14 15  1  0  0  0  0
 14 16  1  0  0  0  0
 14 17  1  0  0  0  0
 11 12  1  0  0  0  0
 11 13  1  0  0  0  0
 11 14  1  0  0  0  0
  9 10  1  0  0  0  0
  9 11  1  0  0  0  0
  9 20  1  0  0  0  0
  7  8  1  0  0  0  0
  7  9  1  0  0  0  0
 24 25  1  0  0  0  0
 24 26  1  0  0  0  0
 24 27  1  0  0  0  0
 22 23  1  0  0  0  0
 22 24  1  0  0  0  0
M  CHG  1  18  -1
M  END
$$$$
default_name
  -OEChem-02102213163D

 27 26  0     1  0  0  0  0  0999 V2000
   -3.2406   -3.5400    1.2326 H   0  0  0  0  0  0  0  0  0  0  0  0
   -3.1436   -2.6190    0.6606 C   0  0  0  0  0  0  0  0  0  0  0  0
   -3.8786   -1.8920    0.9996 H   0  0  0  0  0  0  0  0  0  0  0  0
   -3.2846   -2.8280   -0.3984 H   0  0  0  0  0  0  0  0  0  0  0  0
   -1.7586   -2.0580    0.8686 C   0  0  0  0  0  0  0  0  0  0  0  0
   -0.9666   -2.6340    1.6026 O   0  0  0  0  0  0  0  0  0  0  0  0
   -1.4866   -0.9220    0.2366 N   0  0  0  0  0  0  0  0  0  0  0  0
   -2.2166   -0.4790   -0.2994 H   0  0  0  0  0  0  0  0  0  0  0  0
   -0.1956   -0.2250    0.2596 C   0  0  1  0  0  0  0  0  0  0  0  0
    0.3927   -0.6026    1.0964 H   0  0  0  0  0  0  0  0  0  0  0  0
    0.5767   -0.5489   -1.0351 C   0  0  0  0  0  0  0  0  0  0  0  0
    1.3949    0.1673   -1.1267 H   0  0  0  0  0  0  0  0  0  0  0  0
    1.0023   -1.5506   -0.9596 H   0  0  0  0  0  0  0  0  0  0  0  0
   -0.2902   -0.4633   -2.3027 C   0  0  0  0  0  0  0  0  0  0  0  0
    0.3433   -0.1939   -3.1512 H   0  0  0  0  0  0  0  0  0  0  0  0
   -0.7116   -1.4530   -2.4974 H   0  0  0  0  0  0  0  0  0  0  0  0
   -1.4302    0.5602   -2.1943 C   0  0  0  0  0  0  0  0  0  0  0  0
   -1.6318    1.1100   -1.0881 O   0  5  0  0  0  0  0  0  0  0  0  0
   -2.0736    0.7962   -3.2411 O   0  0  0  0  0  0  0  0  0  0  0  0
   -0.3954    1.2887    0.4814 C   0  0  0  0  0  0  0  0  0  0  0  0
   -1.2761    1.9015   -0.1256 O   0  0  0  0  0  0  0  0  0  0  0  0
    0.4051    1.8919    1.3699 N   0  0  0  0  0  0  0  0  0  0  0  0
    1.1380    1.3380    1.7875 H   0  0  0  0  0  0  0  0  0  0  0  0
    0.3573    3.3183    1.6807 C   0  0  0  0  0  0  0  0  0  0  0  0
   -0.6670    3.6090    1.9198 H   0  0  0  0  0  0  0  0  0  0  0  0
    1.0066    3.5397    2.5289 H   0  0  0  0  0  0  0  0  0  0  0  0
    0.6896    3.8897    0.8118 H   0  0  0  0  0  0  0  0  0  0  0  0
  5  6  2  0  0  0  0
  5  7  1  0  0  0  0
  2  3  1  0  0  0  0
  2  4  1  0  0  0  0
  2  5  1  0  0  0  0
  1  2  1  0  0  0  0
 20 21  2  0  0  0  0
 20 22  1  0  0  0  0
 17 18  1  0  0  0  0
 17 19  2  0  0  0  0
 14 15  1  0  0  0  0
 14 16  1  0  0  0  0
 14 17  1  0  0  0  0
 11 12  1  0  0  0  0
 11 13  1  0  0  0  0
 11 14  1  0  0  0  0
  9 10  1  0  0  0  0
  9 11  1  0  0  0  0
  9 20  1  0  0  0  0
  7  8  1  0  0  0  0
  7  9  1  0  0  0  0
 24 25  1  0  0  0  0
 24 26  1  0  0  0  0
 24 27  1  0  0  0  0
 22 23  1  0  0  0  0
 22 24  1  0  0  0  0
M  CHG  1  18  -1
M  END
$$$$
default_name
  -OEChem-02102213163D

 27 26  0     1  0  0  0  0  0999 V2000
   -3.2406   -3.5400    1.2326 H   0  0  0  0  0  0  0  0  0  0  0  0
   -3.1436   -2.6190    0.6606 C   0  0  0  0  0  0  0  0  0  0  0  0
   -3.8786   -1.8920    0.9996 H   0  0  0  0  0  0  0  0  0  0  0  0
   -3.2846   -2.8280   -0.3984 H   0  0  0  0  0  0  0  0  0  0  0  0
   -1.7586   -2.0580    0.8686 C   0  0  0  0  0  0  0  0  0  0  0  0
   -0.9666   -2.6340    1.6026 O   0  0  0  0  0  0  0  0  0  0  0  0
   -1.4866   -0.9220    0.2366 N   0  0  0  0  0  0  0  0  0  0  0  0
   -2.2166   -0.4790   -0.2994 H   0  0  0  0  0  0  0  0  0  0  0  0
   -0.1956   -0.2250    0.2596 C   0  0  1  0  0  0  0  0  0  0  0  0
    0.3927   -0.6026    1.0964 H   0  0  0  0  0  0  0  0  0  0  0  0
    0.5767   -0.5489   -1.0351 C   0  0  0  0  0  0  0  0  0  0  0  0
    1.3949    0.1673   -1.1267 H   0  0  0  0  0  0  0  0  0  0  0  0
    1.0023   -1.5506   -0.9596 H   0  0  0  0  0  0  0  0  0  0  0  0
   -0.2902   -0.4633   -2.3027 C   0  0  0  0  0  0  0  0  0  0  0  0
    0.3601   -0.4613   -3.1808 H   0  0  0  0  0  0  0  0  0  0  0  0
   -0.9178   -1.3571   -2.3500 H   0  0  0  0  0  0  0  0  0  0  0  0
   -1.1832    0.7855   -2.3481 C   0  0  0  0  0  0  0  0  0  0  0  0
   -1.2300    1.5194   -1.3353 O   0  5  0  0  0  0  0  0  0  0  0  0
   -1.7932    1.0003   -3.4191 O   0  0  0  0  0  0  0  0  0  0  0  0
   -0.3954    1.2887    0.4814 C   0  0  0  0  0  0  0  0  0  0  0  0
   -1.2761    1.9015   -0.1256 O   0  0  0  0  0  0  0  0  0  0  0  0
    0.4051    1.8919    1.3699 N   0  0  0  0  0  0  0  0  0  0  0  0
    1.1380    1.3380    1.7875 H   0  0  0  0  0  0  0  0  0  0  0  0
    0.3573    3.3183    1.6807 C   0  0  0  0  0  0  0  0  0  0  0  0
   -0.6670    3.6090    1.9198 H   0  0  0  0  0  0  0  0  0  0  0  0
    1.0066    3.5397    2.5289 H   0  0  0  0  0  0  0  0  0  0  0  0
    0.6896    3.8897    0.8118 H   0  0  0  0  0  0  0  0  0  0  0  0
  5  6  2  0  0  0  0
  5  7  1  0  0  0  0
  2  3  1  0  0  0  0
  2  4  1  0  0  0  0
  2  5  1  0  0  0  0
  1  2  1  0  0  0  0
 20 21  2  0  0  0  0
 20 22  1  0  0  0  0
 17 18  1  0  0  0  0
 17 19  2  0  0  0  0
 14 15  1  0  0  0  0
 14 16  1  0  0  0  0
 14 17  1  0  0  0  0
 11 12  1  0  0  0  0
 11 13  1  0  0  0  0
 11 14  1  0  0  0  0
  9 10  1  0  0  0  0
  9 11  1  0  0  0  0
  9 20  1  0  0  0  0
  7  8  1  0  0  0  0
  7  9  1  0  0  0  0
 24 25  1  0  0  0  0
 24 26  1  0  0  0  0
 24 27  1  0  0  0  0
 22 23  1  0  0  0  0
 22 24  1  0  0  0  0
M  CHG  1  18  -1
M  END
$$$$
default_name
  -OEChem-02102213163D

 27 26  0     1  0  0  0  0  0999 V2000
   -3.2406   -3.5400    1.2326 H   0  0  0  0  0  0  0  0  0  0  0  0
   -3.1436   -2.6190    0.6606 C   0  0  0  0  0  0  0  0  0  0  0  0
   -3.8786   -1.8920    0.9996 H   0  0  0  0  0  0  0  0  0  0  0  0
   -3.2846   -2.8280   -0.3984 H   0  0  0  0  0  0  0  0  0  0  0  0
   -1.7586   -2.0580    0.8686 C   0  0  0  0  0  0  0  0  0  0  0  0
   -0.9666   -2.6340    1.6026 O   0  0  0  0  0  0  0  0  0  0  0  0
   -1.4866   -0.9220    0.2366 N   0  0  0  0  0  0  0  0  0  0  0  0
   -2.2166   -0.4790   -0.2994 H   0  0  0  0  0  0  0  0  0  0  0  0
   -0.1956   -0.2250    0.2596 C   0  0  1  0  0  0  0  0  0  0  0  0
    0.3927   -0.6026    1.0964 H   0  0  0  0  0  0  0  0  0  0  0  0
    0.5767   -0.5489   -1.0351 C   0  0  0  0  0  0  0  0  0  0  0  0
    1.3949    0.1673   -1.1267 H   0  0  0  0  0  0  0  0  0  0  0  0
    1.0023   -1.5506   -0.9596 H   0  0  0  0  0  0  0  0  0  0  0  0
   -0.2902   -0.4633   -2.3027 C   0  0  0  0  0  0  0  0  0  0  0  0
    0.3188   -0.7275   -3.1705 H   0  0  0  0  0  0  0  0  0  0  0  0
   -1.0943   -1.1991   -2.2186 H   0  0  0  0  0  0  0  0  0  0  0  0
   -0.8988    0.9279   -2.5330 C   0  0  0  0  0  0  0  0  0  0  0  0
   -0.7581    1.7931   -1.6396 O   0  5  0  0  0  0  0  0  0  0  0  0
   -1.4813    1.1117   -3.6248 O   0  0  0  0  0  0  0  0  0  0  0  0
   -0.3954    1.2887    0.4814 C   0  0  0  0  0  0  0  0  0  0  0  0
   -1.2761    1.9015   -0.1256 O   0  0  0  0  0  0  0  0  0  0  0  0
    0.4051    1.8919    1.3699 N   0  0  0  0  0  0  0  0  0  0  0  0
    1.1380    1.3380    1.7875 H   0  0  0  0  0  0  0  0  0  0  0  0
    0.3573    3.3183    1.6807 C   0  0  0  0  0  0  0  0  0  0  0  0
   -0.6670    3.6090    1.9198 H   0  0  0  0  0  0  0  0  0  0  0  0
    1.0066    3.5397    2.5289 H   0  0  0  0  0  0  0  0  0  0  0  0
    0.6896    3.8897    0.8118 H   0  0  0  0  0  0  0  0  0  0  0  0
  5  6  2  0  0  0  0
  5  7  1  0  0  0  0
  2  3  1  0  0  0  0
  2  4  1  0  0  0  0
  2  5  1  0  0  0  0
  1  2  1  0  0  0  0
 20 21  2  0  0  0  0
 20 22  1  0  0  0  0
 17 18  1  0  0  0  0
 17 19  2  0  0  0  0
 14 15  1  0  0  0  0
 14 16  1  0  0  0  0
 14 17  1  0  0  0  0
 11 12  1  0  0  0  0
 11 13  1  0  0  0  0
 11 14  1  0  0  0  0
  9 10  1  0  0  0  0
  9 11  1  0  0  0  0
  9 20  1  0  0  0  0
  7  8  1  0  0  0  0
  7  9  1  0  0  0  0
 24 25  1  0  0  0  0
 24 26  1  0  0  0  0
 24 27  1  0  0  0  0
 22 23  1  0  0  0  0
 22 24  1  0  0  0  0
M  CHG  1  18  -1
M  END
$$$$
default_name
  -OEChem-02102213163D

 27 26  0     1  0  0  0  0  0999 V2000
   -3.2406   -3.5400    1.2326 H   0  0  0  0  0  0  0  0  0  0  0  0
   -3.1436   -2.6190    0.6606 C   0  0  0  0  0  0  0  0  0  0  0  0
   -3.8786   -1.8920    0.9996 H   0  0  0  0  0  0  0  0  0  0  0  0
   -3.2846   -2.8280   -0.3984 H   0  0  0  0  0  0  0  0  0  0  0  0
   -1.7586   -2.0580    0.8686 C   0  0  0  0  0  0  0  0  0  0  0  0
   -0.9666   -2.6340    1.6026 O   0  0  0  0  0  0  0  0  0  0  0  0
   -1.4866   -0.9220    0.2366 N   0  0  0  0  0  0  0  0  0  0  0  0
   -2.2166   -0.4790   -0.2994 H   0  0  0  0  0  0  0  0  0  0  0  0
   -0.1956   -0.2250    0.2596 C   0  0  1  0  0  0  0  0  0  0  0  0
    0.3927   -0.6026    1.0964 H   0  0  0  0  0  0  0  0  0  0  0  0
    0.5767   -0.5489   -1.0351 C   0  0  0  0  0  0  0  0  0  0  0  0
    1.3949    0.1673   -1.1267 H   0  0  0  0  0  0  0  0  0  0  0  0
    1.0023   -1.5506   -0.9596 H   0  0  0  0  0  0  0  0  0  0  0  0
   -0.2902   -0.4633   -2.3027 C   0  0  0  0  0  0  0  0  0  0  0  0
    0.2224   -0.9744   -3.1212 H   0  0  0  0  0  0  0  0  0  0  0  0
   -1.2293   -0.9896   -2.1121 H   0  0  0  0  0  0  0  0  0  0  0  0
   -0.5963    0.9779   -2.7364 C   0  0  0  0  0  0  0  0  0  0  0  0
   -0.2483    1.9125   -1.9802 O   0  5  0  0  0  0  0  0  0  0  0  0
   -1.1594    1.1227   -3.8443 O   0  0  0  0  0  0  0  0  0  0  0  0
   -0.3954    1.2887    0.4814 C   0  0  0  0  0  0  0  0  0  0  0  0
   -1.2761    1.9015   -0.1256 O   0  0  0  0  0  0  0  0  0  0  0  0
    0.4051    1.8919    1.3699 N   0  0  0  0  0  0  0  0  0  0  0  0
    1.1380    1.3380    1.7875 H   0  0  0  0  0  0  0  0  0  0  0  0
    0.3573    3.3183    1.6807 C   0  0  0  0  0  0  0  0  0  0  0  0
   -0.6670    3.6090    1.9198 H   0  0  0  0  0  0  0  0  0  0  0  0
    1.0066    3.5397    2.5289 H   0  0  0  0  0  0  0  0  0  0  0  0
    0.6896    3.8897    0.8118 H   0  0  0  0  0  0  0  0  0  0  0  0
  5  6  2  0  0  0  0
  5  7  1  0  0  0  0
  2  3  1  0  0  0  0
  2  4  1  0  0  0  0
  2  5  1  0  0  0  0
  1  2  1  0  0  0  0
 20 21  2  0  0  0  0
 20 22  1  0  0  0  0
 17 18  1  0  0  0  0
 17 19  2  0  0  0  0
 14 15  1  0  0  0  0
 14 16  1  0  0  0  0
 14 17  1  0  0  0  0
 11 12  1  0  0  0  0
 11 13  1  0  0  0  0
 11 14  1  0  0  0  0
  9 10  1  0  0  0  0
  9 11  1  0  0  0  0
  9 20  1  0  0  0  0
  7  8  1  0  0  0  0
  7  9  1  0  0  0  0
 24 25  1  0  0  0  0
 24 26  1  0  0  0  0
 24 27  1  0  0  0  0
 22 23  1  0  0  0  0
 22 24  1  0  0  0  0
M  CHG  1  18  -1
M  END
$$$$
default_name
  -OEChem-02102213163D

 27 26  0     1  0  0  0  0  0999 V2000
   -3.2406   -3.5400    1.2326 H   0  0  0  0  0  0  0  0  0  0  0  0
   -3.1436   -2.6190    0.6606 C   0  0  0  0  0  0  0  0  0  0  0  0
   -3.8786   -1.8920    0.9996 H   0  0  0  0  0  0  0  0  0  0  0  0
   -3.2846   -2.8280   -0.3984 H   0  0  0  0  0  0  0  0  0  0  0  0
   -1.7586   -2.0580    0.8686 C   0  0  0  0  0  0  0  0  0  0  0  0
   -0.9666   -2.6340    1.6026 O   0  0  0  0  0  0  0  0  0  0  0  0
   -1.4866   -0.9220    0.2366 N   0  0  0  0  0  0  0  0  0  0  0  0
   -2.2166   -0.4790   -0.2994 H   0  0  0  0  0  0  0  0  0  0  0  0
   -0.1956   -0.2250    0.2596 C   0  0  1  0  0  0  0  0  0  0  0  0
    0.3927   -0.6026    1.0964 H   0  0  0  0  0  0  0  0  0  0  0  0
    0.5767   -0.5489   -1.0351 C   0  0  0  0  0  0  0  0  0  0  0  0
    1.3949    0.1673   -1.1267 H   0  0  0  0  0  0  0  0  0  0  0  0
    1.0023   -1.5506   -0.9596 H   0  0  0  0  0  0  0  0  0  0  0  0
   -0.2902   -0.4633   -2.3027 C   0  0  0  0  0  0  0  0  0  0  0  0
    0.0772   -1.1850   -3.0362 H   0  0  0  0  0  0  0  0  0  0  0  0
   -1.3134   -0.7429   -2.0380 H   0  0  0  0  0  0  0  0  0  0  0  0
   -0.2964    0.9320   -2.9446 C   0  0  0  0  0  0  0  0  0  0  0  0
    0.2647    1.8694   -2.3340 O   0  5  0  0  0  0  0  0  0  0  0  0
   -0.8492    1.0327   -4.0625 O   0  0  0  0  0  0  0  0  0  0  0  0
   -0.3954    1.2887    0.4814 C   0  0  0  0  0  0  0  0  0  0  0  0
   -1.2761    1.9015   -0.1256 O   0  0  0  0  0  0  0  0  0  0  0  0
    0.4051    1.8919    1.3699 N   0  0  0  0  0  0  0  0  0  0  0  0
    1.1380    1.3380    1.7875 H   0  0  0  0  0  0  0  0  0  0  0  0
    0.3573    3.3183    1.6807 C   0  0  0  0  0  0  0  0  0  0  0  0
   -0.6670    3.6090    1.9198 H   0  0  0  0  0  0  0  0  0  0  0  0
    1.0066    3.5397    2.5289 H   0  0  0  0  0  0  0  0  0  0  0  0
    0.6896    3.8897    0.8118 H   0  0  0  0  0  0  0  0  0  0  0  0
  5  6  2  0  0  0  0
  5  7  1  0  0  0  0
  2  3  1  0  0  0  0
  2  4  1  0  0  0  0
  2  5  1  0  0  0  0
  1  2  1  0  0  0  0
 20 21  2  0  0  0  0
 20 22  1  0  0  0  0
 17 18  1  0  0  0  0
 17 19  2  0  0  0  0
 14 15  1  0  0  0  0
 14 16  1  0  0  0  0
 14 17  1  0  0  0  0
 11 12  1  0  0  0  0
 11 13  1  0  0  0  0
 11 14  1  0  0  0  0
  9 10  1  0  0  0  0
  9 11  1  0  0  0  0
  9 20  1  0  0  0  0
  7  8  1  0  0  0  0
  7  9  1  0  0  0  0
 24 25  1  0  0  0  0
 24 26  1  0  0  0  0
 24 27  1  0  0  0  0
 22 23  1  0  0  0  0
 22 24  1  0  0  0  0
M  CHG  1  18  -1
M  END
$$$$
default_name
  -OEChem-02102213163D

 27 26  0     1  0  0  0  0  0999 V2000
   -3.2406   -3.5400    1.2326 H   0  0  0  0  0  0  0  0  0  0  0  0
   -3.1436   -2.6190    0.6606 C   0  0  0  0  0  0  0  0  0  0  0  0
   -3.8786   -1.8920    0.9996 H   0  0  0  0  0  0  0  0  0  0  0  0
   -3.2846   -2.8280   -0.3984 H   0  0  0  0  0  0  0  0  0  0  0  0
   -1.7586   -2.0580    0.8686 C   0  0  0  0  0  0  0  0  0  0  0  0
   -0.9666   -2.6340    1.6026 O   0  0  0  0  0  0  0  0  0  0  0  0
   -1.4866   -0.9220    0.2366 N   0  0  0  0  0  0  0  0  0  0  0  0
   -2.2166   -0.4790   -0.2994 H   0  0  0  0  0  0  0  0  0  0  0  0
   -0.1956   -0.2250    0.2596 C   0  0  1  0  0  0  0  0  0  0  0  0
    0.3927   -0.6026    1.0964 H   0  0  0  0  0  0  0  0  0  0  0  0
    0.5767   -0.5489   -1.0351 C   0  0  0  0  0  0  0  0  0  0  0  0
    1.3949    0.1673   -1.1267 H   0  0  0  0  0  0  0  0  0  0  0  0
    1.0023   -1.5506   -0.9596 H   0  0  0  0  0  0  0  0  0  0  0  0
   -0.2902   -0.4633   -2.3027 C   0  0  0  0  0  0  0  0  0  0  0  0
   -0.1067   -1.3451   -2.9212 H   0  0  0  0  0  0  0  0  0  0  0  0
   -1.3409   -0.4758   -2.0011 H   0  0  0  0  0  0  0  0  0  0  0  0
   -0.0196    0.7933   -3.1434 C   0  0  0  0  0  0  0  0  0  0  0  0
    0.7459    1.6667   -2.6768 O   0  5  0  0  0  0  0  0  0  0  0  0
   -0.5719    0.8477   -4.2646 O   0  0  0  0  0  0  0  0  0  0  0  0
   -0.3954    1.2887    0.4814 C   0  0  0  0  0  0  0  0  0  0  0  0
   -1.2761    1.9015   -0.1256 O   0  0  0  0  0  0  0  0  0  0  0  0
    0.4051    1.8919    1.3699 N   0  0  0  0  0  0  0  0  0  0  0  0
    1.1380    1.3380    1.7875 H   0  0  0  0  0  0  0  0  0  0  0  0
    0.3573    3.3183    1.6807 C   0  0  0  0  0  0  0  0  0  0  0  0
   -0.6670    3.6090    1.9198 H   0  0  0  0  0  0  0  0  0  0  0  0
    1.0066    3.5397    2.5289 H   0  0  0  0  0  0  0  0  0  0  0  0
    0.6896    3.8897    0.8118 H   0  0  0  0  0  0  0  0  0  0  0  0
  5  6  2  0  0  0  0
  5  7  1  0  0  0  0
  2  3  1  0  0  0  0
  2  4  1  0  0  0  0
  2  5  1  0  0  0  0
  1  2  1  0  0  0  0
 20 21  2  0  0  0  0
 20 22  1  0  0  0  0
 17 18  1  0  0  0  0
 17 19  2  0  0  0  0
 14 15  1  0  0  0  0
 14 16  1  0  0  0  0
 14 17  1  0  0  0  0
 11 12  1  0  0  0  0
 11 13  1  0  0  0  0
 11 14  1  0  0  0  0
  9 10  1  0  0  0  0
  9 11  1  0  0  0  0
  9 20  1  0  0  0  0
  7  8  1  0  0  0  0
  7  9  1  0  0  0  0
 24 25  1  0  0  0  0
 24 26  1  0  0  0  0
 24 27  1  0  0  0  0
 22 23  1  0  0  0  0
 22 24  1  0  0  0  0
M  CHG  1  18  -1
M  END
$$$$
default_name
  -OEChem-02102213163D

 27 26  0     1  0  0  0  0  0999 V2000
   -3.2406   -3.5400    1.2326 H   0  0  0  0  0  0  0  0  0  0  0  0
   -3.1436   -2.6190    0.6606 C   0  0  0  0  0  0  0  0  0  0  0  0
   -3.8786   -1.8920    0.9996 H   0  0  0  0  0  0  0  0  0  0  0  0
   -3.2846   -2.8280   -0.3984 H   0  0  0  0  0  0  0  0  0  0  0  0
   -1.7586   -2.0580    0.8686 C   0  0  0  0  0  0  0  0  0  0  0  0
   -0.9666   -2.6340    1.6026 O   0  0  0  0  0  0  0  0  0  0  0  0
   -1.4866   -0.9220    0.2366 N   0  0  0  0  0  0  0  0  0  0  0  0
   -2.2166   -0.4790   -0.2994 H   0  0  0  0  0  0  0  0  0  0  0  0
   -0.1956   -0.2250    0.2596 C   0  0  1  0  0  0  0  0  0  0  0  0
    0.3927   -0.6026    1.0964 H   0  0  0  0  0  0  0  0  0  0  0  0
    0.5767   -0.5489   -1.0351 C   0  0  0  0  0  0  0  0  0  0  0  0
    1.3949    0.1673   -1.1267 H   0  0  0  0  0  0  0  0  0  0  0  0
    1.0023   -1.5506   -0.9596 H   0  0  0  0  0  0  0  0  0  0  0  0
   -0.2902   -0.4633   -2.3027 C   0  0  0  0  0  0  0  0  0  0  0  0
   -0.3168   -1.4438   -2.7842 H   0  0  0  0  0  0  0  0  0  0  0  0
   -1.3100   -0.2066   -2.0040 H   0  0  0  0  0  0  0  0  0  0  0  0
    0.2154    0.5713   -3.3191 C   0  0  0  0  0  0  0  0  0  0  0  0
    1.1626    1.3182   -2.9853 O   0  5  0  0  0  0  0  0  0  0  0  0
   -0.3464    0.5804   -4.4369 O   0  0  0  0  0  0  0  0  0  0  0  0
   -0.3954    1.2887    0.4814 C   0  0  0  0  0  0  0  0  0  0  0  0
   -1.2761    1.9015   -0.1256 O   0  0  0  0  0  0  0  0  0  0  0  0
    0.4051    1.8919    1.3699 N   0  0  0  0  0  0  0  0  0  0  0  0
    1.1380    1.3380    1.7875 H   0  0  0  0  0  0  0  0  0  0  0  0
    0.3573    3.3183    1.6807 C   0  0  0  0  0  0  0  0  0  0  0  0
   -0.6670    3.6090    1.9198 H   0  0  0  0  0  0  0  0  0  0  0  0
    1.0066    3.5397    2.5289 H   0  0  0  0  0  0  0  0  0  0  0  0
    0.6896    3.8897    0.8118 H   0  0  0  0  0  0  0  0  0  0  0  0
  5  6  2  0  0  0  0
  5  7  1  0  0  0  0
  2  3  1  0  0  0  0
  2  4  1  0  0  0  0
  2  5  1  0  0  0  0
  1  2  1  0  0  0  0
 20 21  2  0  0  0  0
 20 22  1  0  0  0  0
 17 18  1  0  0  0  0
 17 19  2  0  0  0  0
 14 15  1  0  0  0  0
 14 16  1  0  0  0  0
 14 17  1  0  0  0  0
 11 12  1  0  0  0  0
 11 13  1  0  0  0  0
 11 14  1  0  0  0  0
  9 10  1  0  0  0  0
  9 11  1  0  0  0  0
  9 20  1  0  0  0  0
  7  8  1  0  0  0  0
  7  9  1  0  0  0  0
 24 25  1  0  0  0  0
 24 26  1  0  0  0  0
 24 27  1  0  0  0  0
 22 23  1  0  0  0  0
 22 24  1  0  0  0  0
M  CHG  1  18  -1
M  END
$$$$
default_name
  -OEChem-02102213163D

 27 26  0     1  0  0  0  0  0999 V2000
   -3.2406   -3.5400    1.2326 H   0  0  0  0  0  0  0  0  0  0  0  0
   -3.1436   -2.6190    0.6606 C   0  0  0  0  0  0  0  0  0  0  0  0
   -3.8786   -1.8920    0.9996 H   0  0  0  0  0  0  0  0  0  0  0  0
   -3.2846   -2.8280   -0.3984 H   0  0  0  0  0  0  0  0  0  0  0  0
   -1.7586   -2.0580    0.8686 C   0  0  0  0  0  0  0  0  0  0  0  0
   -0.9666   -2.6340    1.6026 O   0  0  0  0  0  0  0  0  0  0  0  0
   -1.4866   -0.9220    0.2366 N   0  0  0  0  0  0  0  0  0  0  0  0
   -2.2166   -0.4790   -0.2994 H   0  0  0  0  0  0  0  0  0  0  0  0
   -0.1956   -0.2250    0.2596 C   0  0  1  0  0  0  0  0  0  0  0  0
    0.3927   -0.6026    1.0964 H   0  0  0  0  0  0  0  0  0  0  0  0
    0.5767   -0.5489   -1.0351 C   0  0  0  0  0  0  0  0  0  0  0  0
    1.3949    0.1673   -1.1267 H   0  0  0  0  0  0  0  0  0  0  0  0
    1.0023   -1.5506   -0.9596 H   0  0  0  0  0  0  0  0  0  0  0  0
   -0.2902   -0.4633   -2.3027 C   0  0  0  0  0  0  0  0  0  0  0  0
   -0.5388   -1.4743   -2.6344 H   0  0  0  0  0  0  0  0  0  0  0  0
   -1.2228    0.0464   -2.0466 H   0  0  0  0  0  0  0  0  0  0  0  0
    0.3925    0.2810   -3.4598 C   0  0  0  0  0  0  0  0  0  0  0  0
    1.4862    0.8478   -3.2384 O   0  5  0  0  0  0  0  0  0  0  0  0
   -0.1881    0.2490   -4.5675 O   0  0  0  0  0  0  0  0  0  0  0  0
   -0.3954    1.2887    0.4814 C   0  0  0  0  0  0  0  0  0  0  0  0
   -1.2761    1.9015   -0.1256 O   0  0  0  0  0  0  0  0  0  0  0  0
    0.4051    1.8919    1.3699 N   0  0  0  0  0  0  0  0  0  0  0  0
    1.1380    1.3380    1.7875 H   0  0  0  0  0  0  0  0  0  0  0  0
    0.3573    3.3183    1.6807 C   0  0  0  0  0  0  0  0  0  0  0  0
   -0.6670    3.6090    1.9198 H   0  0  0  0  0  0  0  0  0  0  0  0
    1.0066    3.5397    2.5289 H   0  0  0  0  0  0  0  0  0  0  0  0
    0.6896    3.8897    0.8118 H   0  0  0  0  0  0  0  0  0  0  0  0
  5  6  2  0  0  0  0
  5  7  1  0  0  0  0
  2  3  1  0  0  0  0
  2  4  1  0  0  0  0
  2  5  1  0  0  0  0
  1  2  1  0  0  0  0
 20 21  2  0  0  0  0
 20 22  1  0  0  0  0
 17 18  1  0  0  0  0
 17 19  2  0  0  0  0
 14 15  1  0  0  0  0
 14 16  1  0  0  0  0
 14 17  1  0  0  0  0
 11 12  1  0  0  0  0
 11 13  1  0  0  0  0
 11 14  1  0  0  0  0
  9 10  1  0  0  0  0
  9 11  1  0  0  0  0
  9 20  1  0  0  0  0
  7  8  1  0  0  0  0
  7  9  1  0  0  0  0
 24 25  1  0  0  0  0
 24 26  1  0  0  0  0
 24 27  1  0  0  0  0
 22 23  1  0  0  0  0
 22 24  1  0  0  0  0
M  CHG  1  18  -1
M  END
$$$$
default_name
  -OEChem-02102213163D

 27 26  0     1  0  0  0  0  0999 V2000
   -3.2406   -3.5400    1.2326 H   0  0  0  0  0  0  0  0  0  0  0  0
   -3.1436   -2.6190    0.6606 C   0  0  0  0  0  0  0  0  0  0  0  0
   -3.8786   -1.8920    0.9996 H   0  0  0  0  0  0  0  0  0  0  0  0
   -3.2846   -2.8280   -0.3984 H   0  0  0  0  0  0  0  0  0  0  0  0
   -1.7586   -2.0580    0.8686 C   0  0  0  0  0  0  0  0  0  0  0  0
   -0.9666   -2.6340    1.6026 O   0  0  0  0  0  0  0  0  0  0  0  0
   -1.4866   -0.9220    0.2366 N   0  0  0  0  0  0  0  0  0  0  0  0
   -2.2166   -0.4790   -0.2994 H   0  0  0  0  0  0  0  0  0  0  0  0
   -0.1956   -0.2250    0.2596 C   0  0  1  0  0  0  0  0  0  0  0  0
    0.3927   -0.6026    1.0964 H   0  0  0  0  0  0  0  0  0  0  0  0
    0.5767   -0.5489   -1.0351 C   0  0  0  0  0  0  0  0  0  0  0  0
    1.3949    0.1673   -1.1267 H   0  0  0  0  0  0  0  0  0  0  0  0
    1.0023   -1.5506   -0.9596 H   0  0  0  0  0  0  0  0  0  0  0  0
   -0.2902   -0.4633   -2.3027 C   0  0  0  0  0  0  0  0  0  0  0  0
   -0.7576   -1.4345   -2.4821 H   0  0  0  0  0  0  0  0  0  0  0  0
   -1.0852    0.2659   -2.1259 H   0  0  0  0  0  0  0  0  0  0  0  0
    0.4996   -0.0576   -3.5559 C   0  0  0  0  0  0  0  0  0  0  0  0
    1.6949    0.2874   -3.4190 O   0  5  0  0  0  0  0  0  0  0  0  0
   -0.1078   -0.1240   -4.6477 O   0  0  0  0  0  0  0  0  0  0  0  0
   -0.3954    1.2887    0.4814 C   0  0  0  0  0  0  0  0  0  0  0  0
   -1.2761    1.9015   -0.1256 O   0  0  0  0  0  0  0  0  0  0  0  0
    0.4051    1.8919    1.3699 N   0  0  0  0  0  0  0  0  0  0  0  0
    1.1380    1.3380    1.7875 H   0  0  0  0  0  0  0  0  0  0  0  0
    0.3573    3.3183    1.6807 C   0  0  0  0  0  0  0  0  0  0  0  0
   -0.6670    3.6090    1.9198 H   0  0  0  0  0  0  0  0  0  0  0  0
    1.0066    3.5397    2.5289 H   0  0  0  0  0  0  0  0  0  0  0  0
    0.6896    3.8897    0.8118 H   0  0  0  0  0  0  0  0  0  0  0  0
  5  6  2  0  0  0  0
  5  7  1  0  0  0  0
  2  3  1  0  0  0  0
  2  4  1  0  0  0  0
  2  5  1  0  0  0  0
  1  2  1  0  0  0  0
 20 21  2  0  0  0  0
 20 22  1  0  0  0  0
 17 18  1  0  0  0  0
 17 19  2  0  0  0  0
 14 15  1  0  0  0  0
 14 16  1  0  0  0  0
 14 17  1  0  0  0  0
 11 12  1  0  0  0  0
 11 13  1  0  0  0  0
 11 14  1  0  0  0  0
  9 10  1  0  0  0  0
  9 11  1  0  0  0  0
  9 20  1  0  0  0  0
  7  8  1  0  0  0  0
  7  9  1  0  0  0  0
 24 25  1  0  0  0  0
 24 26  1  0  0  0  0
 24 27  1  0  0  0  0
 22 23  1  0  0  0  0
 22 24  1  0  0  0  0
M  CHG  1  18  -1
M  END
$$$$
default_name
  -OEChem-02102213163D

 27 26  0     1  0  0  0  0  0999 V2000
   -3.2406   -3.5400    1.2326 H   0  0  0  0  0  0  0  0  0  0  0  0
   -3.1436   -2.6190    0.6606 C   0  0  0  0  0  0  0  0  0  0  0  0
   -3.8786   -1.8920    0.9996 H   0  0  0  0  0  0  0  0  0  0  0  0
   -3.2846   -2.8280   -0.3984 H   0  0  0  0  0  0  0  0  0  0  0  0
   -1.7586   -2.0580    0.8686 C   0  0  0  0  0  0  0  0  0  0  0  0
   -0.9666   -2.6340    1.6026 O   0  0  0  0  0  0  0  0  0  0  0  0
   -1.4866   -0.9220    0.2366 N   0  0  0  0  0  0  0  0  0  0  0  0
   -2.2166   -0.4790   -0.2994 H   0  0  0  0  0  0  0  0  0  0  0  0
   -0.1956   -0.2250    0.2596 C   0  0  1  0  0  0  0  0  0  0  0  0
    0.3927   -0.6026    1.0964 H   0  0  0  0  0  0  0  0  0  0  0  0
    0.5767   -0.5489   -1.0351 C   0  0  0  0  0  0  0  0  0  0  0  0
    1.3949    0.1673   -1.1267 H   0  0  0  0  0  0  0  0  0  0  0  0
    1.0023   -1.5506   -0.9596 H   0  0  0  0  0  0  0  0  0  0  0  0
   -0.2902   -0.4633   -2.3027 C   0  0  0  0  0  0  0  0  0  0  0  0
   -0.9583   -1.3272   -2.3376 H   0  0  0  0  0  0  0  0  0  0  0  0
   -0.9066    0.4371   -2.2365 H   0  0  0  0  0  0  0  0  0  0  0  0
    0.5295   -0.4215   -3.6009 C   0  0  0  0  0  0  0  0  0  0  0  0
    1.7743   -0.3248   -3.5146 O   0  5  0  0  0  0  0  0  0  0  0  0
   -0.1109   -0.5130   -4.6718 O   0  0  0  0  0  0  0  0  0  0  0  0
   -0.3954    1.2887    0.4814 C   0  0  0  0  0  0  0  0  0  0  0  0
   -1.2761    1.9015   -0.1256 O   0  0  0  0  0  0  0  0  0  0  0  0
    0.4051    1.8919    1.3699 N   0  0  0  0  0  0  0  0  0  0  0  0
    1.1380    1.3380    1.7875 H   0  0  0  0  0  0  0  0  0  0  0  0
    0.3573    3.3183    1.6807 C   0  0  0  0  0  0  0  0  0  0  0  0
   -0.6670    3.6090    1.9198 H   0  0  0  0  0  0  0  0  0  0  0  0
    1.0066    3.5397    2.5289 H   0  0  0  0  0  0  0  0  0  0  0  0
    0.6896    3.8897    0.8118 H   0  0  0  0  0  0  0  0  0  0  0  0
  5  6  2  0  0  0  0
  5  7  1  0  0  0  0
  2  3  1  0  0  0  0
  2  4  1  0  0  0  0
  2  5  1  0  0  0  0
  1  2  1  0  0  0  0
 20 21  2  0  0  0  0
 20 22  1  0  0  0  0
 17 18  1  0  0  0  0
 17 19  2  0  0  0  0
 14 15  1  0  0  0  0
 14 16  1  0  0  0  0
 14 17  1  0  0  0  0
 11 12  1  0  0  0  0
 11 13  1  0  0  0  0
 11 14  1  0  0  0  0
  9 10  1  0  0  0  0
  9 11  1  0  0  0  0
  9 20  1  0  0  0  0
  7  8  1  0  0  0  0
  7  9  1  0  0  0  0
 24 25  1  0  0  0  0
 24 26  1  0  0  0  0
 24 27  1  0  0  0  0
 22 23  1  0  0  0  0
 22 24  1  0  0  0  0
M  CHG  1  18  -1
M  END
$$$$
default_name
  -OEChem-02102213163D

 27 26  0     1  0  0  0  0  0999 V2000
   -3.2406   -3.5400    1.2326 H   0  0  0  0  0  0  0  0  0  0  0  0
   -3.1436   -2.6190    0.6606 C   0  0  0  0  0  0  0  0  0  0  0  0
   -3.8786   -1.8920    0.9996 H   0  0  0  0  0  0  0  0  0  0  0  0
   -3.2846   -2.8280   -0.3984 H   0  0  0  0  0  0  0  0  0  0  0  0
   -1.7586   -2.0580    0.8686 C   0  0  0  0  0  0  0  0  0  0  0  0
   -0.9666   -2.6340    1.6026 O   0  0  0  0  0  0  0  0  0  0  0  0
   -1.4866   -0.9220    0.2366 N   0  0  0  0  0  0  0  0  0  0  0  0
   -2.2166   -0.4790   -0.2994 H   0  0  0  0  0  0  0  0  0  0  0  0
   -0.1956   -0.2250    0.2596 C   0  0  1  0  0  0  0  0  0  0  0  0
    0.3927   -0.6026    1.0964 H   0  0  0  0  0  0  0  0  0  0  0  0
    0.5767   -0.5489   -1.0351 C   0  0  0  0  0  0  0  0  0  0  0  0
    1.5333   -0.0255   -0.9959 H   0  0  0  0  0  0  0  0  0  0  0  0
    0.7722   -1.6213   -1.0792 H   0  0  0  0  0  0  0  0  0  0  0  0
   -0.1627   -0.1179   -2.3130 C   0  0  0  0  0  0  0  0  0  0  0  0
   -1.1335   -0.6180   -2.3500 H   0  0  0  0  0  0  0  0  0  0  0  0
   -0.3404    0.9595   -2.2597 H   0  0  0  0  0  0  0  0  0  0  0  0
    0.6074   -0.4409   -3.6020 C   0  0  0  0  0  0  0  0  0  0  0  0
    1.7754   -0.8793   -3.5022 O   0  5  0  0  0  0  0  0  0  0  0  0
   -0.0033   -0.2641   -4.6796 O   0  0  0  0  0  0  0  0  0  0  0  0
   -0.3954    1.2887    0.4814 C   0  0  0  0  0  0  0  0  0  0  0  0
   -1.2761    1.9015   -0.1256 O   0  0  0  0  0  0  0  0  0  0  0  0
    0.4051    1.8919    1.3699 N   0  0  0  0  0  0  0  0  0  0  0  0
    1.1380    1.3380    1.7875 H   0  0  0  0  0  0  0  0  0  0  0  0
    0.3573    3.3183    1.6807 C   0  0  0  0  0  0  0  0  0  0  0  0
   -0.6670    3.6090    1.9198 H   0  0  0  0  0  0  0  0  0  0  0  0
    1.0066    3.5397    2.5289 H   0  0  0  0  0  0  0  0  0  0  0  0
    0.6896    3.8897    0.8118 H   0  0  0  0  0  0  0  0  0  0  0  0
  5  6  2  0  0  0  0
  5  7  1  0  0  0  0
  2  3  1  0  0  0  0
  2  4  1  0  0  0  0
  2  5  1  0  0  0  0
  1  2  1  0  0  0  0
 20 21  2  0  0  0  0
 20 22  1  0  0  0  0
 17 18  1  0  0  0  0
 17 19  2  0  0  0  0
 14 15  1  0  0  0  0
 14 16  1  0  0  0  0
 14 17  1  0  0  0  0
 11 12  1  0  0  0  0
 11 13  1  0  0  0  0
 11 14  1  0  0  0  0
  9 10  1  0  0  0  0
  9 11  1  0  0  0  0
  9 20  1  0  0  0  0
  7  8  1  0  0  0  0
  7  9  1  0  0  0  0
 24 25  1  0  0  0  0
 24 26  1  0  0  0  0
 24 27  1  0  0  0  0
 22 23  1  0  0  0  0
 22 24  1  0  0  0  0
M  CHG  1  18  -1
M  END
$$$$
default_name
  -OEChem-02102213163D

 27 26  0     1  0  0  0  0  0999 V2000
   -3.2406   -3.5400    1.2326 H   0  0  0  0  0  0  0  0  0  0  0  0
   -3.1436   -2.6190    0.6606 C   0  0  0  0  0  0  0  0  0  0  0  0
   -3.8786   -1.8920    0.9996 H   0  0  0  0  0  0  0  0  0  0  0  0
   -3.2846   -2.8280   -0.3984 H   0  0  0  0  0  0  0  0  0  0  0  0
   -1.7586   -2.0580    0.8686 C   0  0  0  0  0  0  0  0  0  0  0  0
   -0.9666   -2.6340    1.6026 O   0  0  0  0  0  0  0  0  0  0  0  0
   -1.4866   -0.9220    0.2366 N   0  0  0  0  0  0  0  0  0  0  0  0
   -2.2166   -0.4790   -0.2994 H   0  0  0  0  0  0  0  0  0  0  0  0
   -0.1956   -0.2250    0.2596 C   0  0  1  0  0  0  0  0  0  0  0  0
    0.3927   -0.6026    1.0964 H   0  0  0  0  0  0  0  0  0  0  0  0
    0.5767   -0.5489   -1.0351 C   0  0  0  0  0  0  0  0  0  0  0  0
    1.5333   -0.0255   -0.9959 H   0  0  0  0  0  0  0  0  0  0  0  0
    0.7722   -1.6213   -1.0792 H   0  0  0  0  0  0  0  0  0  0  0  0
   -0.1627   -0.1179   -2.3130 C   0  0  0  0  0  0  0  0  0  0  0  0
   -1.2165   -0.3934   -2.2262 H   0  0  0  0  0  0  0  0  0  0  0  0
   -0.1044    0.9709   -2.3924 H   0  0  0  0  0  0  0  0  0  0  0  0
    0.4082   -0.7501   -3.5910 C   0  0  0  0  0  0  0  0  0  0  0  0
    1.4620   -1.4196   -3.5030 O   0  5  0  0  0  0  0  0  0  0  0  0
   -0.2421   -0.5703   -4.6446 O   0  0  0  0  0  0  0  0  0  0  0  0
   -0.3954    1.2887    0.4814 C   0  0  0  0  0  0  0  0  0  0  0  0
   -1.2761    1.9015   -0.1256 O   0  0  0  0  0  0  0  0  0  0  0  0
    0.4051    1.8919    1.3699 N   0  0  0  0  0  0  0  0  0  0  0  0
    1.1380    1.3380    1.7875 H   0  0  0  0  0  0  0  0  0  0  0  0
    0.3573    3.3183    1.6807 C   0  0  0  0  0  0  0  0  0  0  0  0
   -0.6670    3.6090    1.9198 H   0  0  0  0  0  0  0  0  0  0  0  0
    1.0066    3.5397    2.5289 H   0  0  0  0  0  0  0  0  0  0  0  0
    0.6896    3.8897    0.8118 H   0  0  0  0  0  0  0  0  0  0  0  0
  5  6  2  0  0  0  0
  5  7  1  0  0  0  0
  2  3  1  0  0  0  0
  2  4  1  0  0  0  0
  2  5  1  0  0  0  0
  1  2  1  0  0  0  0
 20 21  2  0  0  0  0
 20 22  1  0  0  0  0
 17 18  1  0  0  0  0
 17 19  2  0  0  0  0
 14 15  1  0  0  0  0
 14 16  1  0  0  0  0
 14 17  1  0  0  0  0
 11 12  1  0  0  0  0
 11 13  1  0  0  0  0
 11 14  1  0  0  0  0
  9 10  1  0  0  0  0
  9 11  1  0  0  0  0
  9 20  1  0  0  0  0
  7  8  1  0  0  0  0
  7  9  1  0  0  0  0
 24 25  1  0  0  0  0
 24 26  1  0  0  0  0
 24 27  1  0  0  0  0
 22 23  1  0  0  0  0
 22 24  1  0  0  0  0
M  CHG  1  18  -1
M  END
$$$$
default_name
  -OEChem-02102213163D

 27 26  0     1  0  0  0  0  0999 V2000
   -3.2406   -3.5400    1.2326 H   0  0  0  0  0  0  0  0  0  0  0  0
   -3.1436   -2.6190    0.6606 C   0  0  0  0  0  0  0  0  0  0  0  0
   -3.8786   -1.8920    0.9996 H   0  0  0  0  0  0  0  0  0  0  0  0
   -3.2846   -2.8280   -0.3984 H   0  0  0  0  0  0  0  0  0  0  0  0
   -1.7586   -2.0580    0.8686 C   0  0  0  0  0  0  0  0  0  0  0  0
   -0.9666   -2.6340    1.6026 O   0  0  0  0  0  0  0  0  0  0  0  0
   -1.4866   -0.9220    0.2366 N   0  0  0  0  0  0  0  0  0  0  0  0
   -2.2166   -0.4790   -0.2994 H   0  0  0  0  0  0  0  0  0  0  0  0
   -0.1956   -0.2250    0.2596 C   0  0  1  0  0  0  0  0  0  0  0  0
    0.3927   -0.6026    1.0964 H   0  0  0  0  0  0  0  0  0  0  0  0
    0.5767   -0.5489   -1.0351 C   0  0  0  0  0  0  0  0  0  0  0  0
    1.5333   -0.0255   -0.9959 H   0  0  0  0  0  0  0  0  0  0  0  0
    0.7722   -1.6213   -1.0792 H   0  0  0  0  0  0  0  0  0  0  0  0
   -0.1627   -0.1179   -2.3130 C   0  0  0  0  0  0  0  0  0  0  0  0
   -1.2394   -0.1432   -2.1285 H   0  0  0  0  0  0  0  0  0  0  0  0
    0.1164    0.9147   -2.5391 H   0  0  0  0  0  0  0  0  0  0  0  0
    0.1501   -1.0045   -3.5275 C   0  0  0  0  0  0  0  0  0  0  0  0
    1.0430   -1.8742   -3.4139 O   0  5  0  0  0  0  0  0  0  0  0  0
   -0.5361   -0.8102   -4.5555 O   0  0  0  0  0  0  0  0  0  0  0  0
   -0.3954    1.2887    0.4814 C   0  0  0  0  0  0  0  0  0  0  0  0
   -1.2761    1.9015   -0.1256 O   0  0  0  0  0  0  0  0  0  0  0  0
    0.4051    1.8919    1.3699 N   0  0  0  0  0  0  0  0  0  0  0  0
    1.1380    1.3380    1.7875 H   0  0  0  0  0  0  0  0  0  0  0  0
    0.3573    3.3183    1.6807 C   0  0  0  0  0  0  0  0  0  0  0  0
   -0.6670    3.6090    1.9198 H   0  0  0  0  0  0  0  0  0  0  0  0
    1.0066    3.5397    2.5289 H   0  0  0  0  0  0  0  0  0  0  0  0
    0.6896    3.8897    0.8118 H   0  0  0  0  0  0  0  0  0  0  0  0
  5  6  2  0  0  0  0
  5  7  1  0  0  0  0
  2  3  1  0  0  0  0
  2  4  1  0  0  0  0
  2  5  1  0  0  0  0
  1  2  1  0  0  0  0
 20 21  2  0  0  0  0
 20 22  1  0  0  0  0
 17 18  1  0  0  0  0
 17 19  2  0  0  0  0
 14 15  1  0  0  0  0
 14 16  1  0  0  0  0
 14 17  1  0  0  0  0
 11 12  1  0  0  0  0
 11 13  1  0  0  0  0
 11 14  1  0  0  0  0
  9 10  1  0  0  0  0
  9 11  1  0  0  0  0
  9 20  1  0  0  0  0
  7  8  1  0  0  0  0
  7  9  1  0  0  0  0
 24 25  1  0  0  0  0
 24 26  1  0  0  0  0
 24 27  1  0  0  0  0
 22 23  1  0  0  0  0
 22 24  1  0  0  0  0
M  CHG  1  18  -1
M  END
$$$$
default_name
  -OEChem-02102213163D

 27 26  0     1  0  0  0  0  0999 V2000
   -3.2406   -3.5400    1.2326 H   0  0  0  0  0  0  0  0  0  0  0  0
   -3.1436   -2.6190    0.6606 C   0  0  0  0  0  0  0  0  0  0  0  0
   -3.8786   -1.8920    0.9996 H   0  0  0  0  0  0  0  0  0  0  0  0
   -3.2846   -2.8280   -0.3984 H   0  0  0  0  0  0  0  0  0  0  0  0
   -1.7586   -2.0580    0.8686 C   0  0  0  0  0  0  0  0  0  0  0  0
   -0.9666   -2.6340    1.6026 O   0  0  0  0  0  0  0  0  0  0  0  0
   -1.4866   -0.9220    0.2366 N   0  0  0  0  0  0  0  0  0  0  0  0
   -2.2166   -0.4790   -0.2994 H   0  0  0  0  0  0  0  0  0  0  0  0
   -0.1956   -0.2250    0.2596 C   0  0  1  0  0  0  0  0  0  0  0  0
    0.3927   -0.6026    1.0964 H   0  0  0  0  0  0  0  0  0  0  0  0
    0.5767   -0.5489   -1.0351 C   0  0  0  0  0  0  0  0  0  0  0  0
    1.5333   -0.0255   -0.9959 H   0  0  0  0  0  0  0  0  0  0  0  0
    0.7722   -1.6213   -1.0792 H   0  0  0  0  0  0  0  0  0  0  0  0
   -0.1627   -0.1179   -2.3130 C   0  0  0  0  0  0  0  0  0  0  0  0
   -1.2006    0.1156   -2.0637 H   0  0  0  0  0  0  0  0  0  0  0  0
    0.3069    0.7946   -2.6898 H   0  0  0  0  0  0  0  0  0  0  0  0
   -0.1493   -1.1868   -3.4158 C   0  0  0  0  0  0  0  0  0  0  0  0
    0.5469   -2.2121   -3.2408 O   0  5  0  0  0  0  0  0  0  0  0  0
   -0.8652   -0.9677   -4.4182 O   0  0  0  0  0  0  0  0  0  0  0  0
   -0.3954    1.2887    0.4814 C   0  0  0  0  0  0  0  0  0  0  0  0
   -1.2761    1.9015   -0.1256 O   0  0  0  0  0  0  0  0  0  0  0  0
    0.4051    1.8919    1.3699 N   0  0  0  0  0  0  0  0  0  0  0  0
    1.1380    1.3380    1.7875 H   0  0  0  0  0  0  0  0  0  0  0  0
    0.3573    3.3183    1.6807 C   0  0  0  0  0  0  0  0  0  0  0  0
   -0.6670    3.6090    1.9198 H   0  0  0  0  0  0  0  0  0  0  0  0
    1.0066    3.5397    2.5289 H   0  0  0  0  0  0  0  0  0  0  0  0
    0.6896    3.8897    0.8118 H   0  0  0  0  0  0  0  0  0  0  0  0
  5  6  2  0  0  0  0
  5  7  1  0  0  0  0
  2  3  1  0  0  0  0
  2  4  1  0  0  0  0
  2  5  1  0  0  0  0
  1  2  1  0  0  0  0
 20 21  2  0  0  0  0
 20 22  1  0  0  0  0
 17 18  1  0  0  0  0
 17 19  2  0  0  0  0
 14 15  1  0  0  0  0
 14 16  1  0  0  0  0
 14 17  1  0  0  0  0
 11 12  1  0  0  0  0
 11 13  1  0  0  0  0
 11 14  1  0  0  0  0
  9 10  1  0  0  0  0
  9 11  1  0  0  0  0
  9 20  1  0  0  0  0
  7  8  1  0  0  0  0
  7  9  1  0  0  0  0
 24 25  1  0  0  0  0
 24 26  1  0  0  0  0
 24 27  1  0  0  0  0
 22 23  1  0  0  0  0
 22 24  1  0  0  0  0
M  CHG  1  18  -1
M  END
$$$$
default_name
  -OEChem-02102213163D

 27 26  0     1  0  0  0  0  0999 V2000
   -3.2406   -3.5400    1.2326 H   0  0  0  0  0  0  0  0  0  0  0  0
   -3.1436   -2.6190    0.6606 C   0  0  0  0  0  0  0  0  0  0  0  0
   -3.8786   -1.8920    0.9996 H   0  0  0  0  0  0  0  0  0  0  0  0
   -3.2846   -2.8280   -0.3984 H   0  0  0  0  0  0  0  0  0  0  0  0
   -1.7586   -2.0580    0.8686 C   0  0  0  0  0  0  0  0  0  0  0  0
   -0.9666   -2.6340    1.6026 O   0  0  0  0  0  0  0  0  0  0  0  0
   -1.4866   -0.9220    0.2366 N   0  0  0  0  0  0  0  0  0  0  0  0
   -2.2166   -0.4790   -0.2994 H   0  0  0  0  0  0  0  0  0  0  0  0
   -0.1956   -0.2250    0.2596 C   0  0  1  0  0  0  0  0  0  0  0  0
    0.3927   -0.6026    1.0964 H   0  0  0  0  0  0  0  0  0  0  0  0
    0.5767   -0.5489   -1.0351 C   0  0  0  0  0  0  0  0  0  0  0  0
    1.5333   -0.0255   -0.9959 H   0  0  0  0  0  0  0  0  0  0  0  0
    0.7722   -1.6213   -1.0792 H   0  0  0  0  0  0  0  0  0  0  0  0
   -0.1627   -0.1179   -2.3130 C   0  0  0  0  0  0  0  0  0  0  0  0
   -1.1028    0.3652   -2.0361 H   0  0  0  0  0  0  0  0  0  0  0  0
    0.4541    0.6189   -2.8343 H   0  0  0  0  0  0  0  0  0  0  0  0
   -0.4696   -1.2847   -3.2634 C   0  0  0  0  0  0  0  0  0  0  0  0
    0.0077   -2.4103   -2.9956 O   0  5  0  0  0  0  0  0  0  0  0  0
   -1.2069   -1.0320   -4.2421 O   0  0  0  0  0  0  0  0  0  0  0  0
   -0.3954    1.2887    0.4814 C   0  0  0  0  0  0  0  0  0  0  0  0
   -1.2761    1.9015   -0.1256 O   0  0  0  0  0  0  0  0  0  0  0  0
    0.4051    1.8919    1.3699 N   0  0  0  0  0  0  0  0  0  0  0  0
    1.1380    1.3380    1.7875 H   0  0  0  0  0  0  0  0  0  0  0  0
    0.3573    3.3183    1.6807 C   0  0  0  0  0  0  0  0  0  0  0  0
   -0.6670    3.6090    1.9198 H   0  0  0  0  0  0  0  0  0  0  0  0
    1.0066    3.5397    2.5289 H   0  0  0  0  0  0  0  0  0  0  0  0
    0.6896    3.8897    0.8118 H   0  0  0  0  0  0  0  0  0  0  0  0
  5  6  2  0  0  0  0
  5  7  1  0  0  0  0
  2  3  1  0  0  0  0
  2  4  1  0  0  0  0
  2  5  1  0  0  0  0
  1  2  1  0  0  0  0
 20 21  2  0  0  0  0
 20 22  1  0  0  0  0
 17 18  1  0  0  0  0
 17 19  2  0  0  0  0
 14 15  1  0  0  0  0
 14 16  1  0  0  0  0
 14 17  1  0  0  0  0
 11 12  1  0  0  0  0
 11 13  1  0  0  0  0
 11 14  1  0  0  0  0
  9 10  1  0  0  0  0
  9 11  1  0  0  0  0
  9 20  1  0  0  0  0
  7  8  1  0  0  0  0
  7  9  1  0  0  0  0
 24 25  1  0  0  0  0
 24 26  1  0  0  0  0
 24 27  1  0  0  0  0
 22 23  1  0  0  0  0
 22 24  1  0  0  0  0
M  CHG  1  18  -1
M  END
$$$$
default_name
  -OEChem-02102213163D

 27 26  0     1  0  0  0  0  0999 V2000
   -3.2406   -3.5400    1.2326 H   0  0  0  0  0  0  0  0  0  0  0  0
   -3.1436   -2.6190    0.6606 C   0  0  0  0  0  0  0  0  0  0  0  0
   -3.8786   -1.8920    0.9996 H   0  0  0  0  0  0  0  0  0  0  0  0
   -3.2846   -2.8280   -0.3984 H   0  0  0  0  0  0  0  0  0  0  0  0
   -1.7586   -2.0580    0.8686 C   0  0  0  0  0  0  0  0  0  0  0  0
   -0.9666   -2.6340    1.6026 O   0  0  0  0  0  0  0  0  0  0  0  0
   -1.4866   -0.9220    0.2366 N   0  0  0  0  0  0  0  0  0  0  0  0
   -2.2166   -0.4790   -0.2994 H   0  0  0  0  0  0  0  0  0  0  0  0
   -0.1956   -0.2250    0.2596 C   0  0  1  0  0  0  0  0  0  0  0  0
    0.3927   -0.6026    1.0964 H   0  0  0  0  0  0  0  0  0  0  0  0
    0.5767   -0.5489   -1.0351 C   0  0  0  0  0  0  0  0  0  0  0  0
    1.5333   -0.0255   -0.9959 H   0  0  0  0  0  0  0  0  0  0  0  0
    0.7722   -1.6213   -1.0792 H   0  0  0  0  0  0  0  0  0  0  0  0
   -0.1627   -0.1179   -2.3130 C   0  0  0  0  0  0  0  0  0  0  0  0
   -0.9527    0.5888   -2.0476 H   0  0  0  0  0  0  0  0  0  0  0  0
    0.5482    0.3996   -2.9627 H   0  0  0  0  0  0  0  0  0  0  0  0
   -0.7890   -1.2914   -3.0809 C   0  0  0  0  0  0  0  0  0  0  0  0
   -0.5380   -2.4553   -2.6950 O   0  5  0  0  0  0  0  0  0  0  0  0
   -1.5381   -0.9987   -4.0392 O   0  0  0  0  0  0  0  0  0  0  0  0
   -0.3954    1.2887    0.4814 C   0  0  0  0  0  0  0  0  0  0  0  0
   -1.2761    1.9015   -0.1256 O   0  0  0  0  0  0  0  0  0  0  0  0
    0.4051    1.8919    1.3699 N   0  0  0  0  0  0  0  0  0  0  0  0
    1.1380    1.3380    1.7875 H   0  0  0  0  0  0  0  0  0  0  0  0
    0.3573    3.3183    1.6807 C   0  0  0  0  0  0  0  0  0  0  0  0
   -0.6670    3.6090    1.9198 H   0  0  0  0  0  0  0  0  0  0  0  0
    1.0066    3.5397    2.5289 H   0  0  0  0  0  0  0  0  0  0  0  0
    0.6896    3.8897    0.8118 H   0  0  0  0  0  0  0  0  0  0  0  0
  5  6  2  0  0  0  0
  5  7  1  0  0  0  0
  2  3  1  0  0  0  0
  2  4  1  0  0  0  0
  2  5  1  0  0  0  0
  1  2  1  0  0  0  0
 20 21  2  0  0  0  0
 20 22  1  0  0  0  0
 17 18  1  0  0  0  0
 17 19  2  0  0  0  0
 14 15  1  0  0  0  0
 14 16  1  0  0  0  0
 14 17  1  0  0  0  0
 11 12  1  0  0  0  0
 11 13  1  0  0  0  0
 11 14  1  0  0  0  0
  9 10  1  0  0  0  0
  9 11  1  0  0  0  0
  9 20  1  0  0  0  0
  7  8  1  0  0  0  0
  7  9  1  0  0  0  0
 24 25  1  0  0  0  0
 24 26  1  0  0  0  0
 24 27  1  0  0  0  0
 22 23  1  0  0  0  0
 22 24  1  0  0  0  0
M  CHG  1  18  -1
M  END
$$$$
default_name
  -OEChem-02102213163D

 27 26  0     1  0  0  0  0  0999 V2000
   -3.2406   -3.5400    1.2326 H   0  0  0  0  0  0  0  0  0  0  0  0
   -3.1436   -2.6190    0.6606 C   0  0  0  0  0  0  0  0  0  0  0  0
   -3.8786   -1.8920    0.9996 H   0  0  0  0  0  0  0  0  0  0  0  0
   -3.2846   -2.8280   -0.3984 H   0  0  0  0  0  0  0  0  0  0  0  0
   -1.7586   -2.0580    0.8686 C   0  0  0  0  0  0  0  0  0  0  0  0
   -0.9666   -2.6340    1.6026 O   0  0  0  0  0  0  0  0  0  0  0  0
   -1.4866   -0.9220    0.2366 N   0  0  0  0  0  0  0  0  0  0  0  0
   -2.2166   -0.4790   -0.2994 H   0  0  0  0  0  0  0  0  0  0  0  0
   -0.1956   -0.2250    0.2596 C   0  0  1  0  0  0  0  0  0  0  0  0
    0.3927   -0.6026    1.0964 H   0  0  0  0  0  0  0  0  0  0  0  0
    0.5767   -0.5489   -1.0351 C   0  0  0  0  0  0  0  0  0  0  0  0
    1.5333   -0.0255   -0.9959 H   0  0  0  0  0  0  0  0  0  0  0  0
    0.7722   -1.6213   -1.0792 H   0  0  0  0  0  0  0  0  0  0  0  0
   -0.1627   -0.1179   -2.3130 C   0  0  0  0  0  0  0  0  0  0  0  0
   -0.7604    0.7710   -2.0974 H   0  0  0  0  0  0  0  0  0  0  0  0
    0.5825    0.1515   -3.0662 H   0  0  0  0  0  0  0  0  0  0  0  0
   -1.0857   -1.2064   -2.8805 C   0  0  0  0  0  0  0  0  0  0  0  0
   -1.0530   -2.3439   -2.3595 O   0  5  0  0  0  0  0  0  0  0  0  0
   -1.8362   -0.8701   -3.8234 O   0  0  0  0  0  0  0  0  0  0  0  0
   -0.3954    1.2887    0.4814 C   0  0  0  0  0  0  0  0  0  0  0  0
   -1.2761    1.9015   -0.1256 O   0  0  0  0  0  0  0  0  0  0  0  0
    0.4051    1.8919    1.3699 N   0  0  0  0  0  0  0  0  0  0  0  0
    1.1380    1.3380    1.7875 H   0  0  0  0  0  0  0  0  0  0  0  0
    0.3573    3.3183    1.6807 C   0  0  0  0  0  0  0  0  0  0  0  0
   -0.6670    3.6090    1.9198 H   0  0  0  0  0  0  0  0  0  0  0  0
    1.0066    3.5397    2.5289 H   0  0  0  0  0  0  0  0  0  0  0  0
    0.6896    3.8897    0.8118 H   0  0  0  0  0  0  0  0  0  0  0  0
  5  6  2  0  0  0  0
  5  7  1  0  0  0  0
  2  3  1  0  0  0  0
  2  4  1  0  0  0  0
  2  5  1  0  0  0  0
  1  2  1  0  0  0  0
 20 21  2  0  0  0  0
 20 22  1  0  0  0  0
 17 18  1  0  0  0  0
 17 19  2  0  0  0  0
 14 15  1  0  0  0  0
 14 16  1  0  0  0  0
 14 17  1  0  0  0  0
 11 12  1  0  0  0  0
 11 13  1  0  0  0  0
 11 14  1  0  0  0  0
  9 10  1  0  0  0  0
  9 11  1  0  0  0  0
  9 20  1  0  0  0  0
  7  8  1  0  0  0  0
  7  9  1  0  0  0  0
 24 25  1  0  0  0  0
 24 26  1  0  0  0  0
 24 27  1  0  0  0  0
 22 23  1  0  0  0  0
 22 24  1  0  0  0  0
M  CHG  1  18  -1
M  END
$$$$
default_name
  -OEChem-02102213163D

 27 26  0     1  0  0  0  0  0999 V2000
   -3.2406   -3.5400    1.2326 H   0  0  0  0  0  0  0  0  0  0  0  0
   -3.1436   -2.6190    0.6606 C   0  0  0  0  0  0  0  0  0  0  0  0
   -3.8786   -1.8920    0.9996 H   0  0  0  0  0  0  0  0  0  0  0  0
   -3.2846   -2.8280   -0.3984 H   0  0  0  0  0  0  0  0  0  0  0  0
   -1.7586   -2.0580    0.8686 C   0  0  0  0  0  0  0  0  0  0  0  0
   -0.9666   -2.6340    1.6026 O   0  0  0  0  0  0  0  0  0  0  0  0
   -1.4866   -0.9220    0.2366 N   0  0  0  0  0  0  0  0  0  0  0  0
   -2.2166   -0.4790   -0.2994 H   0  0  0  0  0  0  0  0  0  0  0  0
   -0.1956   -0.2250    0.2596 C   0  0  1  0  0  0  0  0  0  0  0  0
    0.3927   -0.6026    1.0964 H   0  0  0  0  0  0  0  0  0  0  0  0
    0.5767   -0.5489   -1.0351 C   0  0  0  0  0  0  0  0  0  0  0  0
    1.5333   -0.0255   -0.9959 H   0  0  0  0  0  0  0  0  0  0  0  0
    0.7722   -1.6213   -1.0792 H   0  0  0  0  0  0  0  0  0  0  0  0
   -0.1627   -0.1179   -2.3130 C   0  0  0  0  0  0  0  0  0  0  0  0
   -0.5391    0.8995   -2.1821 H   0  0  0  0  0  0  0  0  0  0  0  0
    0.5548   -0.1083   -3.1378 H   0  0  0  0  0  0  0  0  0  0  0  0
   -1.3395   -1.0356   -2.6761 C   0  0  0  0  0  0  0  0  0  0  0  0
   -1.5022   -2.0839   -2.0119 O   0  5  0  0  0  0  0  0  0  0  0  0
   -2.0807   -0.6548   -3.6093 O   0  0  0  0  0  0  0  0  0  0  0  0
   -0.3954    1.2887    0.4814 C   0  0  0  0  0  0  0  0  0  0  0  0
   -1.2761    1.9015   -0.1256 O   0  0  0  0  0  0  0  0  0  0  0  0
    0.4051    1.8919    1.3699 N   0  0  0  0  0  0  0  0  0  0  0  0
    1.1380    1.3380    1.7875 H   0  0  0  0  0  0  0  0  0  0  0  0
    0.3573    3.3183    1.6807 C   0  0  0  0  0  0  0  0  0  0  0  0
   -0.6670    3.6090    1.9198 H   0  0  0  0  0  0  0  0  0  0  0  0
    1.0066    3.5397    2.5289 H   0  0  0  0  0  0  0  0  0  0  0  0
    0.6896    3.8897    0.8118 H   0  0  0  0  0  0  0  0  0  0  0  0
  5  6  2  0  0  0  0
  5  7  1  0  0  0  0
  2  3  1  0  0  0  0
  2  4  1  0  0  0  0
  2  5  1  0  0  0  0
  1  2  1  0  0  0  0
 20 21  2  0  0  0  0
 20 22  1  0  0  0  0
 17 18  1  0  0  0  0
 17 19  2  0  0  0  0
 14 15  1  0  0  0  0
 14 16  1  0  0  0  0
 14 17  1  0  0  0  0
 11 12  1  0  0  0  0
 11 13  1  0  0  0  0
 11 14  1  0  0  0  0
  9 10  1  0  0  0  0
  9 11  1  0  0  0  0
  9 20  1  0  0  0  0
  7  8  1  0  0  0  0
  7  9  1  0  0  0  0
 24 25  1  0  0  0  0
 24 26  1  0  0  0  0
 24 27  1  0  0  0  0
 22 23  1  0  0  0  0
 22 24  1  0  0  0  0
M  CHG  1  18  -1
M  END
$$$$
default_name
  -OEChem-02102213163D

 27 26  0     1  0  0  0  0  0999 V2000
   -3.2406   -3.5400    1.2326 H   0  0  0  0  0  0  0  0  0  0  0  0
   -3.1436   -2.6190    0.6606 C   0  0  0  0  0  0  0  0  0  0  0  0
   -3.8786   -1.8920    0.9996 H   0  0  0  0  0  0  0  0  0  0  0  0
   -3.2846   -2.8280   -0.3984 H   0  0  0  0  0  0  0  0  0  0  0  0
   -1.7586   -2.0580    0.8686 C   0  0  0  0  0  0  0  0  0  0  0  0
   -0.9666   -2.6340    1.6026 O   0  0  0  0  0  0  0  0  0  0  0  0
   -1.4866   -0.9220    0.2366 N   0  0  0  0  0  0  0  0  0  0  0  0
   -2.2166   -0.4790   -0.2994 H   0  0  0  0  0  0  0  0  0  0  0  0
   -0.1956   -0.2250    0.2596 C   0  0  1  0  0  0  0  0  0  0  0  0
    0.3927   -0.6026    1.0964 H   0  0  0  0  0  0  0  0  0  0  0  0
    0.5767   -0.5489   -1.0351 C   0  0  0  0  0  0  0  0  0  0  0  0
    1.5333   -0.0255   -0.9959 H   0  0  0  0  0  0  0  0  0  0  0  0
    0.7722   -1.6213   -1.0792 H   0  0  0  0  0  0  0  0  0  0  0  0
   -0.1627   -0.1179   -2.3130 C   0  0  0  0  0  0  0  0  0  0  0  0
   -0.3038    0.9655   -2.2960 H   0  0  0  0  0  0  0  0  0  0  0  0
    0.4669   -0.3623   -3.1726 H   0  0  0  0  0  0  0  0  0  0  0  0
   -1.5331   -0.7907   -2.4814 C   0  0  0  0  0  0  0  0  0  0  0  0
   -1.8549   -1.6929   -1.6759 O   0  5  0  0  0  0  0  0  0  0  0  0
   -2.2551   -0.3677   -3.4115 O   0  0  0  0  0  0  0  0  0  0  0  0
   -0.3954    1.2887    0.4814 C   0  0  0  0  0  0  0  0  0  0  0  0
   -1.2761    1.9015   -0.1256 O   0  0  0  0  0  0  0  0  0  0  0  0
    0.4051    1.8919    1.3699 N   0  0  0  0  0  0  0  0  0  0  0  0
    1.1380    1.3380    1.7875 H   0  0  0  0  0  0  0  0  0  0  0  0
    0.3573    3.3183    1.6807 C   0  0  0  0  0  0  0  0  0  0  0  0
   -0.6670    3.6090    1.9198 H   0  0  0  0  0  0  0  0  0  0  0  0
    1.0066    3.5397    2.5289 H   0  0  0  0  0  0  0  0  0  0  0  0
    0.6896    3.8897    0.8118 H   0  0  0  0  0  0  0  0  0  0  0  0
  5  6  2  0  0  0  0
  5  7  1  0  0  0  0
  2  3  1  0  0  0  0
  2  4  1  0  0  0  0
  2  5  1  0  0  0  0
  1  2  1  0  0  0  0
 20 21  2  0  0  0  0
 20 22  1  0  0  0  0
 17 18  1  0  0  0  0
 17 19  2  0  0  0  0
 14 15  1  0  0  0  0
 14 16  1  0  0  0  0
 14 17  1  0  0  0  0
 11 12  1  0  0  0  0
 11 13  1  0  0  0  0
 11 14  1  0  0  0  0
  9 10  1  0  0  0  0
  9 11  1  0  0  0  0
  9 20  1  0  0  0  0
  7  8  1  0  0  0  0
  7  9  1  0  0  0  0
 24 25  1  0  0  0  0
 24 26  1  0  0  0  0
 24 27  1  0  0  0  0
 22 23  1  0  0  0  0
 22 24  1  0  0  0  0
M  CHG  1  18  -1
M  END
$$$$
default_name
  -OEChem-02102213163D

 27 26  0     1  0  0  0  0  0999 V2000
   -3.2406   -3.5400    1.2326 H   0  0  0  0  0  0  0  0  0  0  0  0
   -3.1436   -2.6190    0.6606 C   0  0  0  0  0  0  0  0  0  0  0  0
   -3.8786   -1.8920    0.9996 H   0  0  0  0  0  0  0  0  0  0  0  0
   -3.2846   -2.8280   -0.3984 H   0  0  0  0  0  0  0  0  0  0  0  0
   -1.7586   -2.0580    0.8686 C   0  0  0  0  0  0  0  0  0  0  0  0
   -0.9666   -2.6340    1.6026 O   0  0  0  0  0  0  0  0  0  0  0  0
   -1.4866   -0.9220    0.2366 N   0  0  0  0  0  0  0  0  0  0  0  0
   -2.2166   -0.4790   -0.2994 H   0  0  0  0  0  0  0  0  0  0  0  0
   -0.1956   -0.2250    0.2596 C   0  0  1  0  0  0  0  0  0  0  0  0
    0.3927   -0.6026    1.0964 H   0  0  0  0  0  0  0  0  0  0  0  0
    0.5767   -0.5489   -1.0351 C   0  0  0  0  0  0  0  0  0  0  0  0
    1.5333   -0.0255   -0.9959 H   0  0  0  0  0  0  0  0  0  0  0  0
    0.7722   -1.6213   -1.0792 H   0  0  0  0  0  0  0  0  0  0  0  0
   -0.1627   -0.1179   -2.3130 C   0  0  0  0  0  0  0  0  0  0  0  0
   -0.0706    0.9645   -2.4312 H   0  0  0  0  0  0  0  0  0  0  0  0
    0.3250   -0.5931   -3.1683 H   0  0  0  0  0  0  0  0  0  0  0  0
   -1.6533   -0.4882   -2.3099 C   0  0  0  0  0  0  0  0  0  0  0  0
   -2.0872   -1.1976   -1.3745 O   0  5  0  0  0  0  0  0  0  0  0  0
   -2.3475   -0.0283   -3.2436 O   0  0  0  0  0  0  0  0  0  0  0  0
   -0.3954    1.2887    0.4814 C   0  0  0  0  0  0  0  0  0  0  0  0
   -1.2761    1.9015   -0.1256 O   0  0  0  0  0  0  0  0  0  0  0  0
    0.4051    1.8919    1.3699 N   0  0  0  0  0  0  0  0  0  0  0  0
    1.1380    1.3380    1.7875 H   0  0  0  0  0  0  0  0  0  0  0  0
    0.3573    3.3183    1.6807 C   0  0  0  0  0  0  0  0  0  0  0  0
   -0.6670    3.6090    1.9198 H   0  0  0  0  0  0  0  0  0  0  0  0
    1.0066    3.5397    2.5289 H   0  0  0  0  0  0  0  0  0  0  0  0
    0.6896    3.8897    0.8118 H   0  0  0  0  0  0  0  0  0  0  0  0
  5  6  2  0  0  0  0
  5  7  1  0  0  0  0
  2  3  1  0  0  0  0
  2  4  1  0  0  0  0
  2  5  1  0  0  0  0
  1  2  1  0  0  0  0
 20 21  2  0  0  0  0
 20 22  1  0  0  0  0
 17 18  1  0  0  0  0
 17 19  2  0  0  0  0
 14 15  1  0  0  0  0
 14 16  1  0  0  0  0
 14 17  1  0  0  0  0
 11 12  1  0  0  0  0
 11 13  1  0  0  0  0
 11 14  1  0  0  0  0
  9 10  1  0  0  0  0
  9 11  1  0  0  0  0
  9 20  1  0  0  0  0
  7  8  1  0  0  0  0
  7  9  1  0  0  0  0
 24 25  1  0  0  0  0
 24 26  1  0  0  0  0
 24 27  1  0  0  0  0
 22 23  1  0  0  0  0
 22 24  1  0  0  0  0
M  CHG  1  18  -1
M  END
$$$$
default_name
  -OEChem-02102213163D

 27 26  0     1  0  0  0  0  0999 V2000
   -3.2406   -3.5400    1.2326 H   0  0  0  0  0  0  0  0  0  0  0  0
   -3.1436   -2.6190    0.6606 C   0  0  0  0  0  0  0  0  0  0  0  0
   -3.8786   -1.8920    0.9996 H   0  0  0  0  0  0  0  0  0  0  0  0
   -3.2846   -2.8280   -0.3984 H   0  0  0  0  0  0  0  0  0  0  0  0
   -1.7586   -2.0580    0.8686 C   0  0  0  0  0  0  0  0  0  0  0  0
   -0.9666   -2.6340    1.6026 O   0  0  0  0  0  0  0  0  0  0  0  0
   -1.4866   -0.9220    0.2366 N   0  0  0  0  0  0  0  0  0  0  0  0
   -2.2166   -0.4790   -0.2994 H   0  0  0  0  0  0  0  0  0  0  0  0
   -0.1956   -0.2250    0.2596 C   0  0  1  0  0  0  0  0  0  0  0  0
    0.3927   -0.6026    1.0964 H   0  0  0  0  0  0  0  0  0  0  0  0
    0.5767   -0.5489   -1.0351 C   0  0  0  0  0  0  0  0  0  0  0  0
    1.5333   -0.0255   -0.9959 H   0  0  0  0  0  0  0  0  0  0  0  0
    0.7722   -1.6213   -1.0792 H   0  0  0  0  0  0  0  0  0  0  0  0
   -0.1627   -0.1179   -2.3130 C   0  0  0  0  0  0  0  0  0  0  0  0
    0.1445    0.8965   -2.5787 H   0  0  0  0  0  0  0  0  0  0  0  0
    0.1385   -0.7849   -3.1251 H   0  0  0  0  0  0  0  0  0  0  0  0
   -1.6919   -0.1488   -2.1731 C   0  0  0  0  0  0  0  0  0  0  0  0
   -2.1831   -0.6316   -1.1281 O   0  5  0  0  0  0  0  0  0  0  0  0
   -2.3516    0.3404   -3.1169 O   0  0  0  0  0  0  0  0  0  0  0  0
   -0.3954    1.2887    0.4814 C   0  0  0  0  0  0  0  0  0  0  0  0
   -1.2761    1.9015   -0.1256 O   0  0  0  0  0  0  0  0  0  0  0  0
    0.4051    1.8919    1.3699 N   0  0  0  0  0  0  0  0  0  0  0  0
    1.1380    1.3380    1.7875 H   0  0  0  0  0  0  0  0  0  0  0  0
    0.3573    3.3183    1.6807 C   0  0  0  0  0  0  0  0  0  0  0  0
   -0.6670    3.6090    1.9198 H   0  0  0  0  0  0  0  0  0  0  0  0
    1.0066    3.5397    2.5289 H   0  0  0  0  0  0  0  0  0  0  0  0
    0.6896    3.8897    0.8118 H   0  0  0  0  0  0  0  0  0  0  0  0
  5  6  2  0  0  0  0
  5  7  1  0  0  0  0
  2  3  1  0  0  0  0
  2  4  1  0  0  0  0
  2  5  1  0  0  0  0
  1  2  1  0  0  0  0
 20 21  2  0  0  0  0
 20 22  1  0  0  0  0
 17 18  1  0  0  0  0
 17 19  2  0  0  0  0
 14 15  1  0  0  0  0
 14 16  1  0  0  0  0
 14 17  1  0  0  0  0
 11 12  1  0  0  0  0
 11 13  1  0  0  0  0
 11 14  1  0  0  0  0
  9 10  1  0  0  0  0
  9 11  1  0  0  0  0
  9 20  1  0  0  0  0
  7  8  1  0  0  0  0
  7  9  1  0  0  0  0
 24 25  1  0  0  0  0
 24 26  1  0  0  0  0
 24 27  1  0  0  0  0
 22 23  1  0  0  0  0
 22 24  1  0  0  0  0
M  CHG  1  18  -1
M  END
$$$$
default_name
  -OEChem-02102213163D

 27 26  0     1  0  0  0  0  0999 V2000
   -3.2406   -3.5400    1.2326 H   0  0  0  0  0  0  0  0  0  0  0  0
   -3.1436   -2.6190    0.6606 C   0  0  0  0  0  0  0  0  0  0  0  0
   -3.8786   -1.8920    0.9996 H   0  0  0  0  0  0  0  0  0  0  0  0
   -3.2846   -2.8280   -0.3984 H   0  0  0  0  0  0  0  0  0  0  0  0
   -1.7586   -2.0580    0.8686 C   0  0  0  0  0  0  0  0  0  0  0  0
   -0.9666   -2.6340    1.6026 O   0  0  0  0  0  0  0  0  0  0  0  0
   -1.4866   -0.9220    0.2366 N   0  0  0  0  0  0  0  0  0  0  0  0
   -2.2166   -0.4790   -0.2994 H   0  0  0  0  0  0  0  0  0  0  0  0
   -0.1956   -0.2250    0.2596 C   0  0  1  0  0  0  0  0  0  0  0  0
    0.3927   -0.6026    1.0964 H   0  0  0  0  0  0  0  0  0  0  0  0
    0.5767   -0.5489   -1.0351 C   0  0  0  0  0  0  0  0  0  0  0  0
    1.5333   -0.0255   -0.9959 H   0  0  0  0  0  0  0  0  0  0  0  0
    0.7722   -1.6213   -1.0792 H   0  0  0  0  0  0  0  0  0  0  0  0
   -0.1627   -0.1179   -2.3130 C   0  0  0  0  0  0  0  0  0  0  0  0
    0.3271    0.7662   -2.7282 H   0  0  0  0  0  0  0  0  0  0  0  0
   -0.0797   -0.9247   -3.0460 H   0  0  0  0  0  0  0  0  0  0  0  0
   -1.6463    0.2043   -2.0804 C   0  0  0  0  0  0  0  0  0  0  0  0
   -2.1362   -0.0337   -0.9535 O   0  5  0  0  0  0  0  0  0  0  0  0
   -2.2671    0.7131   -3.0401 O   0  0  0  0  0  0  0  0  0  0  0  0
   -0.3954    1.2887    0.4814 C   0  0  0  0  0  0  0  0  0  0  0  0
   -1.2761    1.9015   -0.1256 O   0  0  0  0  0  0  0  0  0  0  0  0
    0.4051    1.8919    1.3699 N   0  0  0  0  0  0  0  0  0  0  0  0
    1.1380    1.3380    1.7875 H   0  0  0  0  0  0  0  0  0  0  0  0
    0.3573    3.3183    1.6807 C   0  0  0  0  0  0  0  0  0  0  0  0
   -0.6670    3.6090    1.9198 H   0  0  0  0  0  0  0  0  0  0  0  0
    1.0066    3.5397    2.5289 H   0  0  0  0  0  0  0  0  0  0  0  0
    0.6896    3.8897    0.8118 H   0  0  0  0  0  0  0  0  0  0  0  0
  5  6  2  0  0  0  0
  5  7  1  0  0  0  0
  2  3  1  0  0  0  0
  2  4  1  0  0  0  0
  2  5  1  0  0  0  0
  1  2  1  0  0  0  0
 20 21  2  0  0  0  0
 20 22  1  0  0  0  0
 17 18  1  0  0  0  0
 17 19  2  0  0  0  0
 14 15  1  0  0  0  0
 14 16  1  0  0  0  0
 14 17  1  0  0  0  0
 11 12  1  0  0  0  0
 11 13  1  0  0  0  0
 11 14  1  0  0  0  0
  9 10  1  0  0  0  0
  9 11  1  0  0  0  0
  9 20  1  0  0  0  0
  7  8  1  0  0  0  0
  7  9  1  0  0  0  0
 24 25  1  0  0  0  0
 24 26  1  0  0  0  0
 24 27  1  0  0  0  0
 22 23  1  0  0  0  0
 22 24  1  0  0  0  0
M  CHG  1  18  -1
M  END
$$$$
default_name
  -OEChem-02102213163D

 27 26  0     1  0  0  0  0  0999 V2000
   -3.2406   -3.5400    1.2326 H   0  0  0  0  0  0  0  0  0  0  0  0
   -3.1436   -2.6190    0.6606 C   0  0  0  0  0  0  0  0  0  0  0  0
   -3.8786   -1.8920    0.9996 H   0  0  0  0  0  0  0  0  0  0  0  0
   -3.2846   -2.8280   -0.3984 H   0  0  0  0  0  0  0  0  0  0  0  0
   -1.7586   -2.0580    0.8686 C   0  0  0  0  0  0  0  0  0  0  0  0
   -0.9666   -2.6340    1.6026 O   0  0  0  0  0  0  0  0  0  0  0  0
   -1.4866   -0.9220    0.2366 N   0  0  0  0  0  0  0  0  0  0  0  0
   -2.2166   -0.4790   -0.2994 H   0  0  0  0  0  0  0  0  0  0  0  0
   -0.1956   -0.2250    0.2596 C   0  0  1  0  0  0  0  0  0  0  0  0
    0.3927   -0.6026    1.0964 H   0  0  0  0  0  0  0  0  0  0  0  0
    0.5767   -0.5489   -1.0351 C   0  0  0  0  0  0  0  0  0  0  0  0
    1.5333   -0.0255   -0.9959 H   0  0  0  0  0  0  0  0  0  0  0  0
    0.7722   -1.6213   -1.0792 H   0  0  0  0  0  0  0  0  0  0  0  0
   -0.1627   -0.1179   -2.3130 C   0  0  0  0  0  0  0  0  0  0  0  0
    0.4645    0.5825   -2.8697 H   0  0  0  0  0  0  0  0  0  0  0  0
   -0.3148   -1.0030   -2.9364 H   0  0  0  0  0  0  0  0  0  0  0  0
   -1.5196    0.5471   -2.0381 C   0  0  0  0  0  0  0  0  0  0  0  0
   -1.9497    0.5555   -0.8627 O   0  5  0  0  0  0  0  0  0  0  0  0
   -2.0997    1.0645   -3.0184 O   0  0  0  0  0  0  0  0  0  0  0  0
   -0.3954    1.2887    0.4814 C   0  0  0  0  0  0  0  0  0  0  0  0
   -1.2761    1.9015   -0.1256 O   0  0  0  0  0  0  0  0  0  0  0  0
    0.4051    1.8919    1.3699 N   0  0  0  0  0  0  0  0  0  0  0  0
    1.1380    1.3380    1.7875 H   0  0  0  0  0  0  0  0  0  0  0  0
    0.3573    3.3183    1.6807 C   0  0  0  0  0  0  0  0  0  0  0  0
   -0.6670    3.6090    1.9198 H   0  0  0  0  0  0  0  0  0  0  0  0
    1.0066    3.5397    2.5289 H   0  0  0  0  0  0  0  0  0  0  0  0
    0.6896    3.8897    0.8118 H   0  0  0  0  0  0  0  0  0  0  0  0
  5  6  2  0  0  0  0
  5  7  1  0  0  0  0
  2  3  1  0  0  0  0
  2  4  1  0  0  0  0
  2  5  1  0  0  0  0
  1  2  1  0  0  0  0
 20 21  2  0  0  0  0
 20 22  1  0  0  0  0
 17 18  1  0  0  0  0
 17 19  2  0  0  0  0
 14 15  1  0  0  0  0
 14 16  1  0  0  0  0
 14 17  1  0  0  0  0
 11 12  1  0  0  0  0
 11 13  1  0  0  0  0
 11 14  1  0  0  0  0
  9 10  1  0  0  0  0
  9 11  1  0  0  0  0
  9 20  1  0  0  0  0
  7  8  1  0  0  0  0
  7  9  1  0  0  0  0
 24 25  1  0  0  0  0
 24 26  1  0  0  0  0
 24 27  1  0  0  0  0
 22 23  1  0  0  0  0
 22 24  1  0  0  0  0
M  CHG  1  18  -1
M  END
$$$$
default_name
  -OEChem-02102213163D

 27 26  0     1  0  0  0  0  0999 V2000
   -3.2406   -3.5400    1.2326 H   0  0  0  0  0  0  0  0  0  0  0  0
   -3.1436   -2.6190    0.6606 C   0  0  0  0  0  0  0  0  0  0  0  0
   -3.8786   -1.8920    0.9996 H   0  0  0  0  0  0  0  0  0  0  0  0
   -3.2846   -2.8280   -0.3984 H   0  0  0  0  0  0  0  0  0  0  0  0
   -1.7586   -2.0580    0.8686 C   0  0  0  0  0  0  0  0  0  0  0  0
   -0.9666   -2.6340    1.6026 O   0  0  0  0  0  0  0  0  0  0  0  0
   -1.4866   -0.9220    0.2366 N   0  0  0  0  0  0  0  0  0  0  0  0
   -2.2166   -0.4790   -0.2994 H   0  0  0  0  0  0  0  0  0  0  0  0
   -0.1956   -0.2250    0.2596 C   0  0  1  0  0  0  0  0  0  0  0  0
    0.3927   -0.6026    1.0964 H   0  0  0  0  0  0  0  0  0  0  0  0
    0.5767   -0.5489   -1.0351 C   0  0  0  0  0  0  0  0  0  0  0  0
    1.5333   -0.0255   -0.9959 H   0  0  0  0  0  0  0  0  0  0  0  0
    0.7722   -1.6213   -1.0792 H   0  0  0  0  0  0  0  0  0  0  0  0
   -0.1627   -0.1179   -2.3130 C   0  0  0  0  0  0  0  0  0  0  0  0
    0.5476    0.3579   -2.9935 H   0  0  0  0  0  0  0  0  0  0  0  0
   -0.5508   -1.0144   -2.8037 H   0  0  0  0  0  0  0  0  0  0  0  0
   -1.3204    0.8563   -2.0490 C   0  0  0  0  0  0  0  0  0  0  0  0
   -1.6363    1.0958   -0.8619 O   0  5  0  0  0  0  0  0  0  0  0  0
   -1.8609    1.3706   -3.0534 O   0  0  0  0  0  0  0  0  0  0  0  0
   -0.3954    1.2887    0.4814 C   0  0  0  0  0  0  0  0  0  0  0  0
   -1.2761    1.9015   -0.1256 O   0  0  0  0  0  0  0  0  0  0  0  0
    0.4051    1.8919    1.3699 N   0  0  0  0  0  0  0  0  0  0  0  0
    1.1380    1.3380    1.7875 H   0  0  0  0  0  0  0  0  0  0  0  0
    0.3573    3.3183    1.6807 C   0  0  0  0  0  0  0  0  0  0  0  0
   -0.6670    3.6090    1.9198 H   0  0  0  0  0  0  0  0  0  0  0  0
    1.0066    3.5397    2.5289 H   0  0  0  0  0  0  0  0  0  0  0  0
    0.6896    3.8897    0.8118 H   0  0  0  0  0  0  0  0  0  0  0  0
  5  6  2  0  0  0  0
  5  7  1  0  0  0  0
  2  3  1  0  0  0  0
  2  4  1  0  0  0  0
  2  5  1  0  0  0  0
  1  2  1  0  0  0  0
 20 21  2  0  0  0  0
 20 22  1  0  0  0  0
 17 18  1  0  0  0  0
 17 19  2  0  0  0  0
 14 15  1  0  0  0  0
 14 16  1  0  0  0  0
 14 17  1  0  0  0  0
 11 12  1  0  0  0  0
 11 13  1  0  0  0  0
 11 14  1  0  0  0  0
  9 10  1  0  0  0  0
  9 11  1  0  0  0  0
  9 20  1  0  0  0  0
  7  8  1  0  0  0  0
  7  9  1  0  0  0  0
 24 25  1  0  0  0  0
 24 26  1  0  0  0  0
 24 27  1  0  0  0  0
 22 23  1  0  0  0  0
 22 24  1  0  0  0  0
M  CHG  1  18  -1
M  END
$$$$
default_name
  -OEChem-02102213163D

 27 26  0     1  0  0  0  0  0999 V2000
   -3.2406   -3.5400    1.2326 H   0  0  0  0  0  0  0  0  0  0  0  0
   -3.1436   -2.6190    0.6606 C   0  0  0  0  0  0  0  0  0  0  0  0
   -3.8786   -1.8920    0.9996 H   0  0  0  0  0  0  0  0  0  0  0  0
   -3.2846   -2.8280   -0.3984 H   0  0  0  0  0  0  0  0  0  0  0  0
   -1.7586   -2.0580    0.8686 C   0  0  0  0  0  0  0  0  0  0  0  0
   -0.9666   -2.6340    1.6026 O   0  0  0  0  0  0  0  0  0  0  0  0
   -1.4866   -0.9220    0.2366 N   0  0  0  0  0  0  0  0  0  0  0  0
   -2.2166   -0.4790   -0.2994 H   0  0  0  0  0  0  0  0  0  0  0  0
   -0.1956   -0.2250    0.2596 C   0  0  1  0  0  0  0  0  0  0  0  0
    0.3927   -0.6026    1.0964 H   0  0  0  0  0  0  0  0  0  0  0  0
    0.5767   -0.5489   -1.0351 C   0  0  0  0  0  0  0  0  0  0  0  0
    1.5333   -0.0255   -0.9959 H   0  0  0  0  0  0  0  0  0  0  0  0
    0.7722   -1.6213   -1.0792 H   0  0  0  0  0  0  0  0  0  0  0  0
   -0.1627   -0.1179   -2.3130 C   0  0  0  0  0  0  0  0  0  0  0  0
    0.5705    0.1077   -3.0912 H   0  0  0  0  0  0  0  0  0  0  0  0
   -0.7716   -0.9582   -2.6570 H   0  0  0  0  0  0  0  0  0  0  0  0
   -1.0623    1.1107   -2.1126 C   0  0  0  0  0  0  0  0  0  0  0  0
   -1.2172    1.5504   -0.9510 O   0  5  0  0  0  0  0  0  0  0  0  0
   -1.5669    1.6106   -3.1425 O   0  0  0  0  0  0  0  0  0  0  0  0
   -0.3954    1.2887    0.4814 C   0  0  0  0  0  0  0  0  0  0  0  0
   -1.2761    1.9015   -0.1256 O   0  0  0  0  0  0  0  0  0  0  0  0
    0.4051    1.8919    1.3699 N   0  0  0  0  0  0  0  0  0  0  0  0
    1.1380    1.3380    1.7875 H   0  0  0  0  0  0  0  0  0  0  0  0
    0.3573    3.3183    1.6807 C   0  0  0  0  0  0  0  0  0  0  0  0
   -0.6670    3.6090    1.9198 H   0  0  0  0  0  0  0  0  0  0  0  0
    1.0066    3.5397    2.5289 H   0  0  0  0  0  0  0  0  0  0  0  0
    0.6896    3.8897    0.8118 H   0  0  0  0  0  0  0  0  0  0  0  0
  5  6  2  0  0  0  0
  5  7  1  0  0  0  0
  2  3  1  0  0  0  0
  2  4  1  0  0  0  0
  2  5  1  0  0  0  0
  1  2  1  0  0  0  0
 20 21  2  0  0  0  0
 20 22  1  0  0  0  0
 17 18  1  0  0  0  0
 17 19  2  0  0  0  0
 14 15  1  0  0  0  0
 14 16  1  0  0  0  0
 14 17  1  0  0  0  0
 11 12  1  0  0  0  0
 11 13  1  0  0  0  0
 11 14  1  0  0  0  0
  9 10  1  0  0  0  0
  9 11  1  0  0  0  0
  9 20  1  0  0  0  0
  7  8  1  0  0  0  0
  7  9  1  0  0  0  0
 24 25  1  0  0  0  0
 24 26  1  0  0  0  0
 24 27  1  0  0  0  0
 22 23  1  0  0  0  0
 22 24  1  0  0  0  0
M  CHG  1  18  -1
M  END
$$$$
default_name
  -OEChem-02102213163D

 27 26  0     1  0  0  0  0  0999 V2000
   -3.2406   -3.5400    1.2326 H   0  0  0  0  0  0  0  0  0  0  0  0
   -3.1436   -2.6190    0.6606 C   0  0  0  0  0  0  0  0  0  0  0  0
   -3.8786   -1.8920    0.9996 H   0  0  0  0  0  0  0  0  0  0  0  0
   -3.2846   -2.8280   -0.3984 H   0  0  0  0  0  0  0  0  0  0  0  0
   -1.7586   -2.0580    0.8686 C   0  0  0  0  0  0  0  0  0  0  0  0
   -0.9666   -2.6340    1.6026 O   0  0  0  0  0  0  0  0  0  0  0  0
   -1.4866   -0.9220    0.2366 N   0  0  0  0  0  0  0  0  0  0  0  0
   -2.2166   -0.4790   -0.2994 H   0  0  0  0  0  0  0  0  0  0  0  0
   -0.1956   -0.2250    0.2596 C   0  0  1  0  0  0  0  0  0  0  0  0
    0.3927   -0.6026    1.0964 H   0  0  0  0  0  0  0  0  0  0  0  0
    0.5767   -0.5489   -1.0351 C   0  0  0  0  0  0  0  0  0  0  0  0
    1.5333   -0.0255   -0.9959 H   0  0  0  0  0  0  0  0  0  0  0  0
    0.7722   -1.6213   -1.0792 H   0  0  0  0  0  0  0  0  0  0  0  0
   -0.1627   -0.1179   -2.3130 C   0  0  0  0  0  0  0  0  0  0  0  0
    0.5317   -0.1511   -3.1560 H   0  0  0  0  0  0  0  0  0  0  0  0
   -0.9621   -0.8381   -2.5062 H   0  0  0  0  0  0  0  0  0  0  0  0
   -0.7629    1.2931   -2.2243 C   0  0  0  0  0  0  0  0  0  0  0  0
   -0.7212    1.8883   -1.1241 O   0  5  0  0  0  0  0  0  0  0  0  0
   -1.2378    1.7681   -3.2798 O   0  0  0  0  0  0  0  0  0  0  0  0
   -0.3954    1.2887    0.4814 C   0  0  0  0  0  0  0  0  0  0  0  0
   -1.2761    1.9015   -0.1256 O   0  0  0  0  0  0  0  0  0  0  0  0
    0.4051    1.8919    1.3699 N   0  0  0  0  0  0  0  0  0  0  0  0
    1.1380    1.3380    1.7875 H   0  0  0  0  0  0  0  0  0  0  0  0
    0.3573    3.3183    1.6807 C   0  0  0  0  0  0  0  0  0  0  0  0
   -0.6670    3.6090    1.9198 H   0  0  0  0  0  0  0  0  0  0  0  0
    1.0066    3.5397    2.5289 H   0  0  0  0  0  0  0  0  0  0  0  0
    0.6896    3.8897    0.8118 H   0  0  0  0  0  0  0  0  0  0  0  0
  5  6  2  0  0  0  0
  5  7  1  0  0  0  0
  2  3  1  0  0  0  0
  2  4  1  0  0  0  0
  2  5  1  0  0  0  0
  1  2  1  0  0  0  0
 20 21  2  0  0  0  0
 20 22  1  0  0  0  0
 17 18  1  0  0  0  0
 17 19  2  0  0  0  0
 14 15  1  0  0  0  0
 14 16  1  0  0  0  0
 14 17  1  0  0  0  0
 11 12  1  0  0  0  0
 11 13  1  0  0  0  0
 11 14  1  0  0  0  0
  9 10  1  0  0  0  0
  9 11  1  0  0  0  0
  9 20  1  0  0  0  0
  7  8  1  0  0  0  0
  7  9  1  0  0  0  0
 24 25  1  0  0  0  0
 24 26  1  0  0  0  0
 24 27  1  0  0  0  0
 22 23  1  0  0  0  0
 22 24  1  0  0  0  0
M  CHG  1  18  -1
M  END
$$$$
default_name
  -OEChem-02102213163D

 27 26  0     1  0  0  0  0  0999 V2000
   -3.2406   -3.5400    1.2326 H   0  0  0  0  0  0  0  0  0  0  0  0
   -3.1436   -2.6190    0.6606 C   0  0  0  0  0  0  0  0  0  0  0  0
   -3.8786   -1.8920    0.9996 H   0  0  0  0  0  0  0  0  0  0  0  0
   -3.2846   -2.8280   -0.3984 H   0  0  0  0  0  0  0  0  0  0  0  0
   -1.7586   -2.0580    0.8686 C   0  0  0  0  0  0  0  0  0  0  0  0
   -0.9666   -2.6340    1.6026 O   0  0  0  0  0  0  0  0  0  0  0  0
   -1.4866   -0.9220    0.2366 N   0  0  0  0  0  0  0  0  0  0  0  0
   -2.2166   -0.4790   -0.2994 H   0  0  0  0  0  0  0  0  0  0  0  0
   -0.1956   -0.2250    0.2596 C   0  0  1  0  0  0  0  0  0  0  0  0
    0.3927   -0.6026    1.0964 H   0  0  0  0  0  0  0  0  0  0  0  0
    0.5767   -0.5489   -1.0351 C   0  0  0  0  0  0  0  0  0  0  0  0
    1.5333   -0.0255   -0.9959 H   0  0  0  0  0  0  0  0  0  0  0  0
    0.7722   -1.6213   -1.0792 H   0  0  0  0  0  0  0  0  0  0  0  0
   -0.1627   -0.1179   -2.3130 C   0  0  0  0  0  0  0  0  0  0  0  0
    0.4339   -0.4008   -3.1836 H   0  0  0  0  0  0  0  0  0  0  0  0
   -1.1094   -0.6625   -2.3617 H   0  0  0  0  0  0  0  0  0  0  0  0
   -0.4426    1.3909   -2.3767 C   0  0  0  0  0  0  0  0  0  0  0  0
   -0.1820    2.0865   -1.3693 O   0  5  0  0  0  0  0  0  0  0  0  0
   -0.8960    1.8324   -3.4559 O   0  0  0  0  0  0  0  0  0  0  0  0
   -0.3954    1.2887    0.4814 C   0  0  0  0  0  0  0  0  0  0  0  0
   -1.2761    1.9015   -0.1256 O   0  0  0  0  0  0  0  0  0  0  0  0
    0.4051    1.8919    1.3699 N   0  0  0  0  0  0  0  0  0  0  0  0
    1.1380    1.3380    1.7875 H   0  0  0  0  0  0  0  0  0  0  0  0
    0.3573    3.3183    1.6807 C   0  0  0  0  0  0  0  0  0  0  0  0
   -0.6670    3.6090    1.9198 H   0  0  0  0  0  0  0  0  0  0  0  0
    1.0066    3.5397    2.5289 H   0  0  0  0  0  0  0  0  0  0  0  0
    0.6896    3.8897    0.8118 H   0  0  0  0  0  0  0  0  0  0  0  0
  5  6  2  0  0  0  0
  5  7  1  0  0  0  0
  2  3  1  0  0  0  0
  2  4  1  0  0  0  0
  2  5  1  0  0  0  0
  1  2  1  0  0  0  0
 20 21  2  0  0  0  0
 20 22  1  0  0  0  0
 17 18  1  0  0  0  0
 17 19  2  0  0  0  0
 14 15  1  0  0  0  0
 14 16  1  0  0  0  0
 14 17  1  0  0  0  0
 11 12  1  0  0  0  0
 11 13  1  0  0  0  0
 11 14  1  0  0  0  0
  9 10  1  0  0  0  0
  9 11  1  0  0  0  0
  9 20  1  0  0  0  0
  7  8  1  0  0  0  0
  7  9  1  0  0  0  0
 24 25  1  0  0  0  0
 24 26  1  0  0  0  0
 24 27  1  0  0  0  0
 22 23  1  0  0  0  0
 22 24  1  0  0  0  0
M  CHG  1  18  -1
M  END
$$$$
default_name
  -OEChem-02102213163D

 27 26  0     1  0  0  0  0  0999 V2000
   -3.2406   -3.5400    1.2326 H   0  0  0  0  0  0  0  0  0  0  0  0
   -3.1436   -2.6190    0.6606 C   0  0  0  0  0  0  0  0  0  0  0  0
   -3.8786   -1.8920    0.9996 H   0  0  0  0  0  0  0  0  0  0  0  0
   -3.2846   -2.8280   -0.3984 H   0  0  0  0  0  0  0  0  0  0  0  0
   -1.7586   -2.0580    0.8686 C   0  0  0  0  0  0  0  0  0  0  0  0
   -0.9666   -2.6340    1.6026 O   0  0  0  0  0  0  0  0  0  0  0  0
   -1.4866   -0.9220    0.2366 N   0  0  0  0  0  0  0  0  0  0  0  0
   -2.2166   -0.4790   -0.2994 H   0  0  0  0  0  0  0  0  0  0  0  0
   -0.1956   -0.2250    0.2596 C   0  0  1  0  0  0  0  0  0  0  0  0
    0.3927   -0.6026    1.0964 H   0  0  0  0  0  0  0  0  0  0  0  0
    0.5767   -0.5489   -1.0351 C   0  0  0  0  0  0  0  0  0  0  0  0
    1.5333   -0.0255   -0.9959 H   0  0  0  0  0  0  0  0  0  0  0  0
    0.7722   -1.6213   -1.0792 H   0  0  0  0  0  0  0  0  0  0  0  0
   -0.1627   -0.1179   -2.3130 C   0  0  0  0  0  0  0  0  0  0  0  0
    0.2837   -0.6243   -3.1721 H   0  0  0  0  0  0  0  0  0  0  0  0
   -1.2034   -0.4431   -2.2334 H   0  0  0  0  0  0  0  0  0  0  0  0
   -0.1232    1.3976   -2.5592 C   0  0  0  0  0  0  0  0  0  0  0  0
    0.3637    2.1314   -1.6699 O   0  5  0  0  0  0  0  0  0  0  0  0
   -0.5648    1.7990   -3.6588 O   0  0  0  0  0  0  0  0  0  0  0  0
   -0.3954    1.2887    0.4814 C   0  0  0  0  0  0  0  0  0  0  0  0
   -1.2761    1.9015   -0.1256 O   0  0  0  0  0  0  0  0  0  0  0  0
    0.4051    1.8919    1.3699 N   0  0  0  0  0  0  0  0  0  0  0  0
    1.1380    1.3380    1.7875 H   0  0  0  0  0  0  0  0  0  0  0  0
    0.3573    3.3183    1.6807 C   0  0  0  0  0  0  0  0  0  0  0  0
   -0.6670    3.6090    1.9198 H   0  0  0  0  0  0  0  0  0  0  0  0
    1.0066    3.5397    2.5289 H   0  0  0  0  0  0  0  0  0  0  0  0
    0.6896    3.8897    0.8118 H   0  0  0  0  0  0  0  0  0  0  0  0
  5  6  2  0  0  0  0
  5  7  1  0  0  0  0
  2  3  1  0  0  0  0
  2  4  1  0  0  0  0
  2  5  1  0  0  0  0
  1  2  1  0  0  0  0
 20 21  2  0  0  0  0
 20 22  1  0  0  0  0
 17 18  1  0  0  0  0
 17 19  2  0  0  0  0
 14 15  1  0  0  0  0
 14 16  1  0  0  0  0
 14 17  1  0  0  0  0
 11 12  1  0  0  0  0
 11 13  1  0  0  0  0
 11 14  1  0  0  0  0
  9 10  1  0  0  0  0
  9 11  1  0  0  0  0
  9 20  1  0  0  0  0
  7  8  1  0  0  0  0
  7  9  1  0  0  0  0
 24 25  1  0  0  0  0
 24 26  1  0  0  0  0
 24 27  1  0  0  0  0
 22 23  1  0  0  0  0
 22 24  1  0  0  0  0
M  CHG  1  18  -1
M  END
$$$$
default_name
  -OEChem-02102213163D

 27 26  0     1  0  0  0  0  0999 V2000
   -3.2406   -3.5400    1.2326 H   0  0  0  0  0  0  0  0  0  0  0  0
   -3.1436   -2.6190    0.6606 C   0  0  0  0  0  0  0  0  0  0  0  0
   -3.8786   -1.8920    0.9996 H   0  0  0  0  0  0  0  0  0  0  0  0
   -3.2846   -2.8280   -0.3984 H   0  0  0  0  0  0  0  0  0  0  0  0
   -1.7586   -2.0580    0.8686 C   0  0  0  0  0  0  0  0  0  0  0  0
   -0.9666   -2.6340    1.6026 O   0  0  0  0  0  0  0  0  0  0  0  0
   -1.4866   -0.9220    0.2366 N   0  0  0  0  0  0  0  0  0  0  0  0
   -2.2166   -0.4790   -0.2994 H   0  0  0  0  0  0  0  0  0  0  0  0
   -0.1956   -0.2250    0.2596 C   0  0  1  0  0  0  0  0  0  0  0  0
    0.3927   -0.6026    1.0964 H   0  0  0  0  0  0  0  0  0  0  0  0
    0.5767   -0.5489   -1.0351 C   0  0  0  0  0  0  0  0  0  0  0  0
    1.5333   -0.0255   -0.9959 H   0  0  0  0  0  0  0  0  0  0  0  0
    0.7722   -1.6213   -1.0792 H   0  0  0  0  0  0  0  0  0  0  0  0
   -0.1627   -0.1179   -2.3130 C   0  0  0  0  0  0  0  0  0  0  0  0
    0.0914   -0.8066   -3.1223 H   0  0  0  0  0  0  0  0  0  0  0  0
   -1.2377   -0.1951   -2.1299 H   0  0  0  0  0  0  0  0  0  0  0  0
    0.1735    1.3127   -2.7595 C   0  0  0  0  0  0  0  0  0  0  0  0
    0.8787    2.0201   -2.0054 O   0  5  0  0  0  0  0  0  0  0  0  0
   -0.2668    1.6704   -3.8746 O   0  0  0  0  0  0  0  0  0  0  0  0
   -0.3954    1.2887    0.4814 C   0  0  0  0  0  0  0  0  0  0  0  0
   -1.2761    1.9015   -0.1256 O   0  0  0  0  0  0  0  0  0  0  0  0
    0.4051    1.8919    1.3699 N   0  0  0  0  0  0  0  0  0  0  0  0
    1.1380    1.3380    1.7875 H   0  0  0  0  0  0  0  0  0  0  0  0
    0.3573    3.3183    1.6807 C   0  0  0  0  0  0  0  0  0  0  0  0
   -0.6670    3.6090    1.9198 H   0  0  0  0  0  0  0  0  0  0  0  0
    1.0066    3.5397    2.5289 H   0  0  0  0  0  0  0  0  0  0  0  0
    0.6896    3.8897    0.8118 H   0  0  0  0  0  0  0  0  0  0  0  0
  5  6  2  0  0  0  0
  5  7  1  0  0  0  0
  2  3  1  0  0  0  0
  2  4  1  0  0  0  0
  2  5  1  0  0  0  0
  1  2  1  0  0  0  0
 20 21  2  0  0  0  0
 20 22  1  0  0  0  0
 17 18  1  0  0  0  0
 17 19  2  0  0  0  0
 14 15  1  0  0  0  0
 14 16  1  0  0  0  0
 14 17  1  0  0  0  0
 11 12  1  0  0  0  0
 11 13  1  0  0  0  0
 11 14  1  0  0  0  0
  9 10  1  0  0  0  0
  9 11  1  0  0  0  0
  9 20  1  0  0  0  0
  7  8  1  0  0  0  0
  7  9  1  0  0  0  0
 24 25  1  0  0  0  0
 24 26  1  0  0  0  0
 24 27  1  0  0  0  0
 22 23  1  0  0  0  0
 22 24  1  0  0  0  0
M  CHG  1  18  -1
M  END
$$$$
default_name
  -OEChem-02102213163D

 27 26  0     1  0  0  0  0  0999 V2000
   -3.2406   -3.5400    1.2326 H   0  0  0  0  0  0  0  0  0  0  0  0
   -3.1436   -2.6190    0.6606 C   0  0  0  0  0  0  0  0  0  0  0  0
   -3.8786   -1.8920    0.9996 H   0  0  0  0  0  0  0  0  0  0  0  0
   -3.2846   -2.8280   -0.3984 H   0  0  0  0  0  0  0  0  0  0  0  0
   -1.7586   -2.0580    0.8686 C   0  0  0  0  0  0  0  0  0  0  0  0
   -0.9666   -2.6340    1.6026 O   0  0  0  0  0  0  0  0  0  0  0  0
   -1.4866   -0.9220    0.2366 N   0  0  0  0  0  0  0  0  0  0  0  0
   -2.2166   -0.4790   -0.2994 H   0  0  0  0  0  0  0  0  0  0  0  0
   -0.1956   -0.2250    0.2596 C   0  0  1  0  0  0  0  0  0  0  0  0
    0.3927   -0.6026    1.0964 H   0  0  0  0  0  0  0  0  0  0  0  0
    0.5767   -0.5489   -1.0351 C   0  0  0  0  0  0  0  0  0  0  0  0
    1.5333   -0.0255   -0.9959 H   0  0  0  0  0  0  0  0  0  0  0  0
    0.7722   -1.6213   -1.0792 H   0  0  0  0  0  0  0  0  0  0  0  0
   -0.1627   -0.1179   -2.3130 C   0  0  0  0  0  0  0  0  0  0  0  0
   -0.1299   -0.9351   -3.0376 H   0  0  0  0  0  0  0  0  0  0  0  0
   -1.2100    0.0648   -2.0582 H   0  0  0  0  0  0  0  0  0  0  0  0
    0.4273    1.1419   -2.9640 C   0  0  0  0  0  0  0  0  0  0  0  0
    1.3279    1.7601   -2.3530 O   0  5  0  0  0  0  0  0  0  0  0  0
   -0.0222    1.4552   -4.0887 O   0  0  0  0  0  0  0  0  0  0  0  0
   -0.3954    1.2887    0.4814 C   0  0  0  0  0  0  0  0  0  0  0  0
   -1.2761    1.9015   -0.1256 O   0  0  0  0  0  0  0  0  0  0  0  0
    0.4051    1.8919    1.3699 N   0  0  0  0  0  0  0  0  0  0  0  0
    1.1380    1.3380    1.7875 H   0  0  0  0  0  0  0  0  0  0  0  0
    0.3573    3.3183    1.6807 C   0  0  0  0  0  0  0  0  0  0  0  0
   -0.6670    3.6090    1.9198 H   0  0  0  0  0  0  0  0  0  0  0  0
    1.0066    3.5397    2.5289 H   0  0  0  0  0  0  0  0  0  0  0  0
    0.6896    3.8897    0.8118 H   0  0  0  0  0  0  0  0  0  0  0  0
  5  6  2  0  0  0  0
  5  7  1  0  0  0  0
  2  3  1  0  0  0  0
  2  4  1  0  0  0  0
  2  5  1  0  0  0  0
  1  2  1  0  0  0  0
 20 21  2  0  0  0  0
 20 22  1  0  0  0  0
 17 18  1  0  0  0  0
 17 19  2  0  0  0  0
 14 15  1  0  0  0  0
 14 16  1  0  0  0  0
 14 17  1  0  0  0  0
 11 12  1  0  0  0  0
 11 13  1  0  0  0  0
 11 14  1  0  0  0  0
  9 10  1  0  0  0  0
  9 11  1  0  0  0  0
  9 20  1  0  0  0  0
  7  8  1  0  0  0  0
  7  9  1  0  0  0  0
 24 25  1  0  0  0  0
 24 26  1  0  0  0  0
 24 27  1  0  0  0  0
 22 23  1  0  0  0  0
 22 24  1  0  0  0  0
M  CHG  1  18  -1
M  END
$$$$
default_name
  -OEChem-02102213163D

 27 26  0     1  0  0  0  0  0999 V2000
   -3.2406   -3.5400    1.2326 H   0  0  0  0  0  0  0  0  0  0  0  0
   -3.1436   -2.6190    0.6606 C   0  0  0  0  0  0  0  0  0  0  0  0
   -3.8786   -1.8920    0.9996 H   0  0  0  0  0  0  0  0  0  0  0  0
   -3.2846   -2.8280   -0.3984 H   0  0  0  0  0  0  0  0  0  0  0  0
   -1.7586   -2.0580    0.8686 C   0  0  0  0  0  0  0  0  0  0  0  0
   -0.9666   -2.6340    1.6026 O   0  0  0  0  0  0  0  0  0  0  0  0
   -1.4866   -0.9220    0.2366 N   0  0  0  0  0  0  0  0  0  0  0  0
   -2.2166   -0.4790   -0.2994 H   0  0  0  0  0  0  0  0  0  0  0  0
   -0.1956   -0.2250    0.2596 C   0  0  1  0  0  0  0  0  0  0  0  0
    0.3927   -0.6026    1.0964 H   0  0  0  0  0  0  0  0  0  0  0  0
    0.5767   -0.5489   -1.0351 C   0  0  0  0  0  0  0  0  0  0  0  0
    1.5333   -0.0255   -0.9959 H   0  0  0  0  0  0  0  0  0  0  0  0
    0.7722   -1.6213   -1.0792 H   0  0  0  0  0  0  0  0  0  0  0  0
   -0.1627   -0.1179   -2.3130 C   0  0  0  0  0  0  0  0  0  0  0  0
   -0.3651   -1.0010   -2.9237 H   0  0  0  0  0  0  0  0  0  0  0  0
   -1.1222    0.3188   -2.0234 H   0  0  0  0  0  0  0  0  0  0  0  0
    0.6209    0.8969   -3.1586 C   0  0  0  0  0  0  0  0  0  0  0  0
    1.6806    1.3691   -2.6890 O   0  5  0  0  0  0  0  0  0  0  0  0
    0.1522    1.1681   -4.2865 O   0  0  0  0  0  0  0  0  0  0  0  0
   -0.3954    1.2887    0.4814 C   0  0  0  0  0  0  0  0  0  0  0  0
   -1.2761    1.9015   -0.1256 O   0  0  0  0  0  0  0  0  0  0  0  0
    0.4051    1.8919    1.3699 N   0  0  0  0  0  0  0  0  0  0  0  0
    1.1380    1.3380    1.7875 H   0  0  0  0  0  0  0  0  0  0  0  0
    0.3573    3.3183    1.6807 C   0  0  0  0  0  0  0  0  0  0  0  0
   -0.6670    3.6090    1.9198 H   0  0  0  0  0  0  0  0  0  0  0  0
    1.0066    3.5397    2.5289 H   0  0  0  0  0  0  0  0  0  0  0  0
    0.6896    3.8897    0.8118 H   0  0  0  0  0  0  0  0  0  0  0  0
  5  6  2  0  0  0  0
  5  7  1  0  0  0  0
  2  3  1  0  0  0  0
  2  4  1  0  0  0  0
  2  5  1  0  0  0  0
  1  2  1  0  0  0  0
 20 21  2  0  0  0  0
 20 22  1  0  0  0  0
 17 18  1  0  0  0  0
 17 19  2  0  0  0  0
 14 15  1  0  0  0  0
 14 16  1  0  0  0  0
 14 17  1  0  0  0  0
 11 12  1  0  0  0  0
 11 13  1  0  0  0  0
 11 14  1  0  0  0  0
  9 10  1  0  0  0  0
  9 11  1  0  0  0  0
  9 20  1  0  0  0  0
  7  8  1  0  0  0  0
  7  9  1  0  0  0  0
 24 25  1  0  0  0  0
 24 26  1  0  0  0  0
 24 27  1  0  0  0  0
 22 23  1  0  0  0  0
 22 24  1  0  0  0  0
M  CHG  1  18  -1
M  END
$$$$
default_name
  -OEChem-02102213163D

 27 26  0     1  0  0  0  0  0999 V2000
   -3.2406   -3.5400    1.2326 H   0  0  0  0  0  0  0  0  0  0  0  0
   -3.1436   -2.6190    0.6606 C   0  0  0  0  0  0  0  0  0  0  0  0
   -3.8786   -1.8920    0.9996 H   0  0  0  0  0  0  0  0  0  0  0  0
   -3.2846   -2.8280   -0.3984 H   0  0  0  0  0  0  0  0  0  0  0  0
   -1.7586   -2.0580    0.8686 C   0  0  0  0  0  0  0  0  0  0  0  0
   -0.9666   -2.6340    1.6026 O   0  0  0  0  0  0  0  0  0  0  0  0
   -1.4866   -0.9220    0.2366 N   0  0  0  0  0  0  0  0  0  0  0  0
   -2.2166   -0.4790   -0.2994 H   0  0  0  0  0  0  0  0  0  0  0  0
   -0.1956   -0.2250    0.2596 C   0  0  1  0  0  0  0  0  0  0  0  0
    0.3927   -0.6026    1.0964 H   0  0  0  0  0  0  0  0  0  0  0  0
    0.5767   -0.5489   -1.0351 C   0  0  0  0  0  0  0  0  0  0  0  0
    1.5333   -0.0255   -0.9959 H   0  0  0  0  0  0  0  0  0  0  0  0
    0.7722   -1.6213   -1.0792 H   0  0  0  0  0  0  0  0  0  0  0  0
   -0.1627   -0.1179   -2.3130 C   0  0  0  0  0  0  0  0  0  0  0  0
   -0.5983   -1.0000   -2.7885 H   0  0  0  0  0  0  0  0  0  0  0  0
   -0.9802    0.5495   -2.0277 H   0  0  0  0  0  0  0  0  0  0  0  0
    0.7411    0.5944   -3.3302 C   0  0  0  0  0  0  0  0  0  0  0  0
    1.9129    0.8737   -2.9904 O   0  5  0  0  0  0  0  0  0  0  0  0
    0.2446    0.8286   -4.4544 O   0  0  0  0  0  0  0  0  0  0  0  0
   -0.3954    1.2887    0.4814 C   0  0  0  0  0  0  0  0  0  0  0  0
   -1.2761    1.9015   -0.1256 O   0  0  0  0  0  0  0  0  0  0  0  0
    0.4051    1.8919    1.3699 N   0  0  0  0  0  0  0  0  0  0  0  0
    1.1380    1.3380    1.7875 H   0  0  0  0  0  0  0  0  0  0  0  0
    0.3573    3.3183    1.6807 C   0  0  0  0  0  0  0  0  0  0  0  0
   -0.6670    3.6090    1.9198 H   0  0  0  0  0  0  0  0  0  0  0  0
    1.0066    3.5397    2.5289 H   0  0  0  0  0  0  0  0  0  0  0  0
    0.6896    3.8897    0.8118 H   0  0  0  0  0  0  0  0  0  0  0  0
  5  6  2  0  0  0  0
  5  7  1  0  0  0  0
  2  3  1  0  0  0  0
  2  4  1  0  0  0  0
  2  5  1  0  0  0  0
  1  2  1  0  0  0  0
 20 21  2  0  0  0  0
 20 22  1  0  0  0  0
 17 18  1  0  0  0  0
 17 19  2  0  0  0  0
 14 15  1  0  0  0  0
 14 16  1  0  0  0  0
 14 17  1  0  0  0  0
 11 12  1  0  0  0  0
 11 13  1  0  0  0  0
 11 14  1  0  0  0  0
  9 10  1  0  0  0  0
  9 11  1  0  0  0  0
  9 20  1  0  0  0  0
  7  8  1  0  0  0  0
  7  9  1  0  0  0  0
 24 25  1  0  0  0  0
 24 26  1  0  0  0  0
 24 27  1  0  0  0  0
 22 23  1  0  0  0  0
 22 24  1  0  0  0  0
M  CHG  1  18  -1
M  END
$$$$
default_name
  -OEChem-02102213163D

 27 26  0     1  0  0  0  0  0999 V2000
   -3.2406   -3.5400    1.2326 H   0  0  0  0  0  0  0  0  0  0  0  0
   -3.1436   -2.6190    0.6606 C   0  0  0  0  0  0  0  0  0  0  0  0
   -3.8786   -1.8920    0.9996 H   0  0  0  0  0  0  0  0  0  0  0  0
   -3.2846   -2.8280   -0.3984 H   0  0  0  0  0  0  0  0  0  0  0  0
   -1.7586   -2.0580    0.8686 C   0  0  0  0  0  0  0  0  0  0  0  0
   -0.9666   -2.6340    1.6026 O   0  0  0  0  0  0  0  0  0  0  0  0
   -1.4866   -0.9220    0.2366 N   0  0  0  0  0  0  0  0  0  0  0  0
   -2.2166   -0.4790   -0.2994 H   0  0  0  0  0  0  0  0  0  0  0  0
   -0.1956   -0.2250    0.2596 C   0  0  1  0  0  0  0  0  0  0  0  0
    0.3927   -0.6026    1.0964 H   0  0  0  0  0  0  0  0  0  0  0  0
    0.5767   -0.5489   -1.0351 C   0  0  0  0  0  0  0  0  0  0  0  0
    1.5333   -0.0255   -0.9959 H   0  0  0  0  0  0  0  0  0  0  0  0
    0.7722   -1.6213   -1.0792 H   0  0  0  0  0  0  0  0  0  0  0  0
   -0.1627   -0.1179   -2.3130 C   0  0  0  0  0  0  0  0  0  0  0  0
   -0.8135   -0.9320   -2.6410 H   0  0  0  0  0  0  0  0  0  0  0  0
   -0.7937    0.7414   -2.0709 H   0  0  0  0  0  0  0  0  0  0  0  0
    0.7797    0.2551   -3.4670 C   0  0  0  0  0  0  0  0  0  0  0  0
    2.0088    0.3078   -3.2368 O   0  5  0  0  0  0  0  0  0  0  0  0
    0.2486    0.4600   -4.5811 O   0  0  0  0  0  0  0  0  0  0  0  0
   -0.3954    1.2887    0.4814 C   0  0  0  0  0  0  0  0  0  0  0  0
   -1.2761    1.9015   -0.1256 O   0  0  0  0  0  0  0  0  0  0  0  0
    0.4051    1.8919    1.3699 N   0  0  0  0  0  0  0  0  0  0  0  0
    1.1380    1.3380    1.7875 H   0  0  0  0  0  0  0  0  0  0  0  0
    0.3573    3.3183    1.6807 C   0  0  0  0  0  0  0  0  0  0  0  0
   -0.6670    3.6090    1.9198 H   0  0  0  0  0  0  0  0  0  0  0  0
    1.0066    3.5397    2.5289 H   0  0  0  0  0  0  0  0  0  0  0  0
    0.6896    3.8897    0.8118 H   0  0  0  0  0  0  0  0  0  0  0  0
  5  6  2  0  0  0  0
  5  7  1  0  0  0  0
  2  3  1  0  0  0  0
  2  4  1  0  0  0  0
  2  5  1  0  0  0  0
  1  2  1  0  0  0  0
 20 21  2  0  0  0  0
 20 22  1  0  0  0  0
 17 18  1  0  0  0  0
 17 19  2  0  0  0  0
 14 15  1  0  0  0  0
 14 16  1  0  0  0  0
 14 17  1  0  0  0  0
 11 12  1  0  0  0  0
 11 13  1  0  0  0  0
 11 14  1  0  0  0  0
  9 10  1  0  0  0  0
  9 11  1  0  0  0  0
  9 20  1  0  0  0  0
  7  8  1  0  0  0  0
  7  9  1  0  0  0  0
 24 25  1  0  0  0  0
 24 26  1  0  0  0  0
 24 27  1  0  0  0  0
 22 23  1  0  0  0  0
 22 24  1  0  0  0  0
M  CHG  1  18  -1
M  END
$$$$
default_name
  -OEChem-02102213163D

 27 26  0     1  0  0  0  0  0999 V2000
   -3.2406   -3.5400    1.2326 H   0  0  0  0  0  0  0  0  0  0  0  0
   -3.1436   -2.6190    0.6606 C   0  0  0  0  0  0  0  0  0  0  0  0
   -3.8786   -1.8920    0.9996 H   0  0  0  0  0  0  0  0  0  0  0  0
   -3.2846   -2.8280   -0.3984 H   0  0  0  0  0  0  0  0  0  0  0  0
   -1.7586   -2.0580    0.8686 C   0  0  0  0  0  0  0  0  0  0  0  0
   -0.9666   -2.6340    1.6026 O   0  0  0  0  0  0  0  0  0  0  0  0
   -1.4866   -0.9220    0.2366 N   0  0  0  0  0  0  0  0  0  0  0  0
   -2.2166   -0.4790   -0.2994 H   0  0  0  0  0  0  0  0  0  0  0  0
   -0.1956   -0.2250    0.2596 C   0  0  1  0  0  0  0  0  0  0  0  0
    0.3927   -0.6026    1.0964 H   0  0  0  0  0  0  0  0  0  0  0  0
    0.5767   -0.5489   -1.0351 C   0  0  0  0  0  0  0  0  0  0  0  0
    1.5333   -0.0255   -0.9959 H   0  0  0  0  0  0  0  0  0  0  0  0
    0.7722   -1.6213   -1.0792 H   0  0  0  0  0  0  0  0  0  0  0  0
   -0.1627   -0.1179   -2.3130 C   0  0  0  0  0  0  0  0  0  0  0  0
   -0.9960   -0.8017   -2.4915 H   0  0  0  0  0  0  0  0  0  0  0  0
   -0.5755    0.8812   -2.1500 H   0  0  0  0  0  0  0  0  0  0  0  0
    0.7341   -0.0981   -3.5597 C   0  0  0  0  0  0  0  0  0  0  0  0
    1.9620   -0.2901   -3.4114 O   0  5  0  0  0  0  0  0  0  0  0  0
    0.1641    0.0873   -4.6579 O   0  0  0  0  0  0  0  0  0  0  0  0
   -0.3954    1.2887    0.4814 C   0  0  0  0  0  0  0  0  0  0  0  0
   -1.2761    1.9015   -0.1256 O   0  0  0  0  0  0  0  0  0  0  0  0
    0.4051    1.8919    1.3699 N   0  0  0  0  0  0  0  0  0  0  0  0
    1.1380    1.3380    1.7875 H   0  0  0  0  0  0  0  0  0  0  0  0
    0.3573    3.3183    1.6807 C   0  0  0  0  0  0  0  0  0  0  0  0
   -0.6670    3.6090    1.9198 H   0  0  0  0  0  0  0  0  0  0  0  0
    1.0066    3.5397    2.5289 H   0  0  0  0  0  0  0  0  0  0  0  0
    0.6896    3.8897    0.8118 H   0  0  0  0  0  0  0  0  0  0  0  0
  5  6  2  0  0  0  0
  5  7  1  0  0  0  0
  2  3  1  0  0  0  0
  2  4  1  0  0  0  0
  2  5  1  0  0  0  0
  1  2  1  0  0  0  0
 20 21  2  0  0  0  0
 20 22  1  0  0  0  0
 17 18  1  0  0  0  0
 17 19  2  0  0  0  0
 14 15  1  0  0  0  0
 14 16  1  0  0  0  0
 14 17  1  0  0  0  0
 11 12  1  0  0  0  0
 11 13  1  0  0  0  0
 11 14  1  0  0  0  0
  9 10  1  0  0  0  0
  9 11  1  0  0  0  0
  9 20  1  0  0  0  0
  7  8  1  0  0  0  0
  7  9  1  0  0  0  0
 24 25  1  0  0  0  0
 24 26  1  0  0  0  0
 24 27  1  0  0  0  0
 22 23  1  0  0  0  0
 22 24  1  0  0  0  0
M  CHG  1  18  -1
M  END
$$$$
default_name
  -OEChem-02102213163D

 27 26  0     1  0  0  0  0  0999 V2000
   -3.2406   -3.5400    1.2326 H   0  0  0  0  0  0  0  0  0  0  0  0
   -3.1436   -2.6190    0.6606 C   0  0  0  0  0  0  0  0  0  0  0  0
   -3.8786   -1.8920    0.9996 H   0  0  0  0  0  0  0  0  0  0  0  0
   -3.2846   -2.8280   -0.3984 H   0  0  0  0  0  0  0  0  0  0  0  0
   -1.7586   -2.0580    0.8686 C   0  0  0  0  0  0  0  0  0  0  0  0
   -0.9666   -2.6340    1.6026 O   0  0  0  0  0  0  0  0  0  0  0  0
   -1.4866   -0.9220    0.2366 N   0  0  0  0  0  0  0  0  0  0  0  0
   -2.2166   -0.4790   -0.2994 H   0  0  0  0  0  0  0  0  0  0  0  0
   -0.1956   -0.2250    0.2596 C   0  0  1  0  0  0  0  0  0  0  0  0
    0.3927   -0.6026    1.0964 H   0  0  0  0  0  0  0  0  0  0  0  0
    0.5767   -0.5489   -1.0351 C   0  0  0  0  0  0  0  0  0  0  0  0
    1.6181   -0.2587   -0.8870 H   0  0  0  0  0  0  0  0  0  0  0  0
    0.5410   -1.6241   -1.2164 H   0  0  0  0  0  0  0  0  0  0  0  0
    0.0361    0.1894   -2.2713 C   0  0  0  0  0  0  0  0  0  0  0  0
   -1.0143   -0.0754   -2.4146 H   0  0  0  0  0  0  0  0  0  0  0  0
    0.0895    1.2643   -2.0795 H   0  0  0  0  0  0  0  0  0  0  0  0
    0.8060   -0.1339   -3.5604 C   0  0  0  0  0  0  0  0  0  0  0  0
    1.8436   -0.8284   -3.4742 O   0  5  0  0  0  0  0  0  0  0  0  0
    0.3227    0.3052   -4.6275 O   0  0  0  0  0  0  0  0  0  0  0  0
   -0.3954    1.2887    0.4814 C   0  0  0  0  0  0  0  0  0  0  0  0
   -1.2761    1.9015   -0.1256 O   0  0  0  0  0  0  0  0  0  0  0  0
    0.4051    1.8919    1.3699 N   0  0  0  0  0  0  0  0  0  0  0  0
    1.1380    1.3380    1.7875 H   0  0  0  0  0  0  0  0  0  0  0  0
    0.3573    3.3183    1.6807 C   0  0  0  0  0  0  0  0  0  0  0  0
   -0.6670    3.6090    1.9198 H   0  0  0  0  0  0  0  0  0  0  0  0
    1.0066    3.5397    2.5289 H   0  0  0  0  0  0  0  0  0  0  0  0
    0.6896    3.8897    0.8118 H   0  0  0  0  0  0  0  0  0  0  0  0
  5  6  2  0  0  0  0
  5  7  1  0  0  0  0
  2  3  1  0  0  0  0
  2  4  1  0  0  0  0
  2  5  1  0  0  0  0
  1  2  1  0  0  0  0
 20 21  2  0  0  0  0
 20 22  1  0  0  0  0
 17 18  1  0  0  0  0
 17 19  2  0  0  0  0
 14 15  1  0  0  0  0
 14 16  1  0  0  0  0
 14 17  1  0  0  0  0
 11 12  1  0  0  0  0
 11 13  1  0  0  0  0
 11 14  1  0  0  0  0
  9 10  1  0  0  0  0
  9 11  1  0  0  0  0
  9 20  1  0  0  0  0
  7  8  1  0  0  0  0
  7  9  1  0  0  0  0
 24 25  1  0  0  0  0
 24 26  1  0  0  0  0
 24 27  1  0  0  0  0
 22 23  1  0  0  0  0
 22 24  1  0  0  0  0
M  CHG  1  18  -1
M  END
$$$$
default_name
  -OEChem-02102213163D

 27 26  0     1  0  0  0  0  0999 V2000
   -3.2406   -3.5400    1.2326 H   0  0  0  0  0  0  0  0  0  0  0  0
   -3.1436   -2.6190    0.6606 C   0  0  0  0  0  0  0  0  0  0  0  0
   -3.8786   -1.8920    0.9996 H   0  0  0  0  0  0  0  0  0  0  0  0
   -3.2846   -2.8280   -0.3984 H   0  0  0  0  0  0  0  0  0  0  0  0
   -1.7586   -2.0580    0.8686 C   0  0  0  0  0  0  0  0  0  0  0  0
   -0.9666   -2.6340    1.6026 O   0  0  0  0  0  0  0  0  0  0  0  0
   -1.4866   -0.9220    0.2366 N   0  0  0  0  0  0  0  0  0  0  0  0
   -2.2166   -0.4790   -0.2994 H   0  0  0  0  0  0  0  0  0  0  0  0
   -0.1956   -0.2250    0.2596 C   0  0  1  0  0  0  0  0  0  0  0  0
    0.3927   -0.6026    1.0964 H   0  0  0  0  0  0  0  0  0  0  0  0
    0.5767   -0.5489   -1.0351 C   0  0  0  0  0  0  0  0  0  0  0  0
    1.6181   -0.2587   -0.8870 H   0  0  0  0  0  0  0  0  0  0  0  0
    0.5410   -1.6241   -1.2164 H   0  0  0  0  0  0  0  0  0  0  0  0
    0.0361    0.1894   -2.2713 C   0  0  0  0  0  0  0  0  0  0  0  0
   -1.0557    0.1449   -2.2649 H   0  0  0  0  0  0  0  0  0  0  0  0
    0.3310    1.2396   -2.1999 H   0  0  0  0  0  0  0  0  0  0  0  0
    0.5450   -0.3903   -3.5994 C   0  0  0  0  0  0  0  0  0  0  0  0
    1.4228   -1.2817   -3.5609 O   0  5  0  0  0  0  0  0  0  0  0  0
    0.0222    0.0575   -4.6440 O   0  0  0  0  0  0  0  0  0  0  0  0
   -0.3954    1.2887    0.4814 C   0  0  0  0  0  0  0  0  0  0  0  0
   -1.2761    1.9015   -0.1256 O   0  0  0  0  0  0  0  0  0  0  0  0
    0.4051    1.8919    1.3699 N   0  0  0  0  0  0  0  0  0  0  0  0
    1.1380    1.3380    1.7875 H   0  0  0  0  0  0  0  0  0  0  0  0
    0.3573    3.3183    1.6807 C   0  0  0  0  0  0  0  0  0  0  0  0
   -0.6670    3.6090    1.9198 H   0  0  0  0  0  0  0  0  0  0  0  0
    1.0066    3.5397    2.5289 H   0  0  0  0  0  0  0  0  0  0  0  0
    0.6896    3.8897    0.8118 H   0  0  0  0  0  0  0  0  0  0  0  0
  5  6  2  0  0  0  0
  5  7  1  0  0  0  0
  2  3  1  0  0  0  0
  2  4  1  0  0  0  0
  2  5  1  0  0  0  0
  1  2  1  0  0  0  0
 20 21  2  0  0  0  0
 20 22  1  0  0  0  0
 17 18  1  0  0  0  0
 17 19  2  0  0  0  0
 14 15  1  0  0  0  0
 14 16  1  0  0  0  0
 14 17  1  0  0  0  0
 11 12  1  0  0  0  0
 11 13  1  0  0  0  0
 11 14  1  0  0  0  0
  9 10  1  0  0  0  0
  9 11  1  0  0  0  0
  9 20  1  0  0  0  0
  7  8  1  0  0  0  0
  7  9  1  0  0  0  0
 24 25  1  0  0  0  0
 24 26  1  0  0  0  0
 24 27  1  0  0  0  0
 22 23  1  0  0  0  0
 22 24  1  0  0  0  0
M  CHG  1  18  -1
M  END
$$$$
default_name
  -OEChem-02102213163D

 27 26  0     1  0  0  0  0  0999 V2000
   -3.2406   -3.5400    1.2326 H   0  0  0  0  0  0  0  0  0  0  0  0
   -3.1436   -2.6190    0.6606 C   0  0  0  0  0  0  0  0  0  0  0  0
   -3.8786   -1.8920    0.9996 H   0  0  0  0  0  0  0  0  0  0  0  0
   -3.2846   -2.8280   -0.3984 H   0  0  0  0  0  0  0  0  0  0  0  0
   -1.7586   -2.0580    0.8686 C   0  0  0  0  0  0  0  0  0  0  0  0
   -0.9666   -2.6340    1.6026 O   0  0  0  0  0  0  0  0  0  0  0  0
   -1.4866   -0.9220    0.2366 N   0  0  0  0  0  0  0  0  0  0  0  0
   -2.2166   -0.4790   -0.2994 H   0  0  0  0  0  0  0  0  0  0  0  0
   -0.1956   -0.2250    0.2596 C   0  0  1  0  0  0  0  0  0  0  0  0
    0.3927   -0.6026    1.0964 H   0  0  0  0  0  0  0  0  0  0  0  0
    0.5767   -0.5489   -1.0351 C   0  0  0  0  0  0  0  0  0  0  0  0
    1.6181   -0.2587   -0.8870 H   0  0  0  0  0  0  0  0  0  0  0  0
    0.5410   -1.6241   -1.2164 H   0  0  0  0  0  0  0  0  0  0  0  0
    0.0361    0.1894   -2.2713 C   0  0  0  0  0  0  0  0  0  0  0  0
   -1.0312    0.3799   -2.1352 H   0  0  0  0  0  0  0  0  0  0  0  0
    0.5442    1.1546   -2.3439 H   0  0  0  0  0  0  0  0  0  0  0  0
    0.2348   -0.5873   -3.5813 C   0  0  0  0  0  0  0  0  0  0  0  0
    0.9112   -1.6400   -3.5511 O   0  5  0  0  0  0  0  0  0  0  0  0
   -0.3217   -0.1207   -4.6001 O   0  0  0  0  0  0  0  0  0  0  0  0
   -0.3954    1.2887    0.4814 C   0  0  0  0  0  0  0  0  0  0  0  0
   -1.2761    1.9015   -0.1256 O   0  0  0  0  0  0  0  0  0  0  0  0
    0.4051    1.8919    1.3699 N   0  0  0  0  0  0  0  0  0  0  0  0
    1.1380    1.3380    1.7875 H   0  0  0  0  0  0  0  0  0  0  0  0
    0.3573    3.3183    1.6807 C   0  0  0  0  0  0  0  0  0  0  0  0
   -0.6670    3.6090    1.9198 H   0  0  0  0  0  0  0  0  0  0  0  0
    1.0066    3.5397    2.5289 H   0  0  0  0  0  0  0  0  0  0  0  0
    0.6896    3.8897    0.8118 H   0  0  0  0  0  0  0  0  0  0  0  0
  5  6  2  0  0  0  0
  5  7  1  0  0  0  0
  2  3  1  0  0  0  0
  2  4  1  0  0  0  0
  2  5  1  0  0  0  0
  1  2  1  0  0  0  0
 20 21  2  0  0  0  0
 20 22  1  0  0  0  0
 17 18  1  0  0  0  0
 17 19  2  0  0  0  0
 14 15  1  0  0  0  0
 14 16  1  0  0  0  0
 14 17  1  0  0  0  0
 11 12  1  0  0  0  0
 11 13  1  0  0  0  0
 11 14  1  0  0  0  0
  9 10  1  0  0  0  0
  9 11  1  0  0  0  0
  9 20  1  0  0  0  0
  7  8  1  0  0  0  0
  7  9  1  0  0  0  0
 24 25  1  0  0  0  0
 24 26  1  0  0  0  0
 24 27  1  0  0  0  0
 22 23  1  0  0  0  0
 22 24  1  0  0  0  0
M  CHG  1  18  -1
M  END
$$$$
default_name
  -OEChem-02102213163D

 27 26  0     1  0  0  0  0  0999 V2000
   -3.2406   -3.5400    1.2326 H   0  0  0  0  0  0  0  0  0  0  0  0
   -3.1436   -2.6190    0.6606 C   0  0  0  0  0  0  0  0  0  0  0  0
   -3.8786   -1.8920    0.9996 H   0  0  0  0  0  0  0  0  0  0  0  0
   -3.2846   -2.8280   -0.3984 H   0  0  0  0  0  0  0  0  0  0  0  0
   -1.7586   -2.0580    0.8686 C   0  0  0  0  0  0  0  0  0  0  0  0
   -0.9666   -2.6340    1.6026 O   0  0  0  0  0  0  0  0  0  0  0  0
   -1.4866   -0.9220    0.2366 N   0  0  0  0  0  0  0  0  0  0  0  0
   -2.2166   -0.4790   -0.2994 H   0  0  0  0  0  0  0  0  0  0  0  0
   -0.1956   -0.2250    0.2596 C   0  0  1  0  0  0  0  0  0  0  0  0
    0.3927   -0.6026    1.0964 H   0  0  0  0  0  0  0  0  0  0  0  0
    0.5767   -0.5489   -1.0351 C   0  0  0  0  0  0  0  0  0  0  0  0
    1.6181   -0.2587   -0.8870 H   0  0  0  0  0  0  0  0  0  0  0  0
    0.5410   -1.6241   -1.2164 H   0  0  0  0  0  0  0  0  0  0  0  0
    0.0361    0.1894   -2.2713 C   0  0  0  0  0  0  0  0  0  0  0  0
   -0.9426    0.6137   -2.0344 H   0  0  0  0  0  0  0  0  0  0  0  0
    0.7146    1.0150   -2.5018 H   0  0  0  0  0  0  0  0  0  0  0  0
   -0.1036   -0.7114   -3.5074 C   0  0  0  0  0  0  0  0  0  0  0  0
    0.3437   -1.8787   -3.4454 O   0  5  0  0  0  0  0  0  0  0  0  0
   -0.6855   -0.2174   -4.4987 O   0  0  0  0  0  0  0  0  0  0  0  0
   -0.3954    1.2887    0.4814 C   0  0  0  0  0  0  0  0  0  0  0  0
   -1.2761    1.9015   -0.1256 O   0  0  0  0  0  0  0  0  0  0  0  0
    0.4051    1.8919    1.3699 N   0  0  0  0  0  0  0  0  0  0  0  0
    1.1380    1.3380    1.7875 H   0  0  0  0  0  0  0  0  0  0  0  0
    0.3573    3.3183    1.6807 C   0  0  0  0  0  0  0  0  0  0  0  0
   -0.6670    3.6090    1.9198 H   0  0  0  0  0  0  0  0  0  0  0  0
    1.0066    3.5397    2.5289 H   0  0  0  0  0  0  0  0  0  0  0  0
    0.6896    3.8897    0.8118 H   0  0  0  0  0  0  0  0  0  0  0  0
  5  6  2  0  0  0  0
  5  7  1  0  0  0  0
  2  3  1  0  0  0  0
  2  4  1  0  0  0  0
  2  5  1  0  0  0  0
  1  2  1  0  0  0  0
 20 21  2  0  0  0  0
 20 22  1  0  0  0  0
 17 18  1  0  0  0  0
 17 19  2  0  0  0  0
 14 15  1  0  0  0  0
 14 16  1  0  0  0  0
 14 17  1  0  0  0  0
 11 12  1  0  0  0  0
 11 13  1  0  0  0  0
 11 14  1  0  0  0  0
  9 10  1  0  0  0  0
  9 11  1  0  0  0  0
  9 20  1  0  0  0  0
  7  8  1  0  0  0  0
  7  9  1  0  0  0  0
 24 25  1  0  0  0  0
 24 26  1  0  0  0  0
 24 27  1  0  0  0  0
 22 23  1  0  0  0  0
 22 24  1  0  0  0  0
M  CHG  1  18  -1
M  END
$$$$
default_name
  -OEChem-02102213163D

 27 26  0     1  0  0  0  0  0999 V2000
   -3.2406   -3.5400    1.2326 H   0  0  0  0  0  0  0  0  0  0  0  0
   -3.1436   -2.6190    0.6606 C   0  0  0  0  0  0  0  0  0  0  0  0
   -3.8786   -1.8920    0.9996 H   0  0  0  0  0  0  0  0  0  0  0  0
   -3.2846   -2.8280   -0.3984 H   0  0  0  0  0  0  0  0  0  0  0  0
   -1.7586   -2.0580    0.8686 C   0  0  0  0  0  0  0  0  0  0  0  0
   -0.9666   -2.6340    1.6026 O   0  0  0  0  0  0  0  0  0  0  0  0
   -1.4866   -0.9220    0.2366 N   0  0  0  0  0  0  0  0  0  0  0  0
   -2.2166   -0.4790   -0.2994 H   0  0  0  0  0  0  0  0  0  0  0  0
   -0.1956   -0.2250    0.2596 C   0  0  1  0  0  0  0  0  0  0  0  0
    0.3927   -0.6026    1.0964 H   0  0  0  0  0  0  0  0  0  0  0  0
    0.5767   -0.5489   -1.0351 C   0  0  0  0  0  0  0  0  0  0  0  0
    1.6181   -0.2587   -0.8870 H   0  0  0  0  0  0  0  0  0  0  0  0
    0.5410   -1.6241   -1.2164 H   0  0  0  0  0  0  0  0  0  0  0  0
    0.0361    0.1894   -2.2713 C   0  0  0  0  0  0  0  0  0  0  0  0
   -0.7958    0.8302   -1.9693 H   0  0  0  0  0  0  0  0  0  0  0  0
    0.8305    0.8304   -2.6627 H   0  0  0  0  0  0  0  0  0  0  0  0
   -0.4471   -0.7541   -3.3827 C   0  0  0  0  0  0  0  0  0  0  0  0
   -0.2410   -1.9816   -3.2512 O   0  5  0  0  0  0  0  0  0  0  0  0
   -1.0444   -0.2258   -4.3468 O   0  0  0  0  0  0  0  0  0  0  0  0
   -0.3954    1.2887    0.4814 C   0  0  0  0  0  0  0  0  0  0  0  0
   -1.2761    1.9015   -0.1256 O   0  0  0  0  0  0  0  0  0  0  0  0
    0.4051    1.8919    1.3699 N   0  0  0  0  0  0  0  0  0  0  0  0
    1.1380    1.3380    1.7875 H   0  0  0  0  0  0  0  0  0  0  0  0
    0.3573    3.3183    1.6807 C   0  0  0  0  0  0  0  0  0  0  0  0
   -0.6670    3.6090    1.9198 H   0  0  0  0  0  0  0  0  0  0  0  0
    1.0066    3.5397    2.5289 H   0  0  0  0  0  0  0  0  0  0  0  0
    0.6896    3.8897    0.8118 H   0  0  0  0  0  0  0  0  0  0  0  0
  5  6  2  0  0  0  0
  5  7  1  0  0  0  0
  2  3  1  0  0  0  0
  2  4  1  0  0  0  0
  2  5  1  0  0  0  0
  1  2  1  0  0  0  0
 20 21  2  0  0  0  0
 20 22  1  0  0  0  0
 17 18  1  0  0  0  0
 17 19  2  0  0  0  0
 14 15  1  0  0  0  0
 14 16  1  0  0  0  0
 14 17  1  0  0  0  0
 11 12  1  0  0  0  0
 11 13  1  0  0  0  0
 11 14  1  0  0  0  0
  9 10  1  0  0  0  0
  9 11  1  0  0  0  0
  9 20  1  0  0  0  0
  7  8  1  0  0  0  0
  7  9  1  0  0  0  0
 24 25  1  0  0  0  0
 24 26  1  0  0  0  0
 24 27  1  0  0  0  0
 22 23  1  0  0  0  0
 22 24  1  0  0  0  0
M  CHG  1  18  -1
M  END
$$$$
default_name
  -OEChem-02102213163D

 27 26  0     1  0  0  0  0  0999 V2000
   -3.2406   -3.5400    1.2326 H   0  0  0  0  0  0  0  0  0  0  0  0
   -3.1436   -2.6190    0.6606 C   0  0  0  0  0  0  0  0  0  0  0  0
   -3.8786   -1.8920    0.9996 H   0  0  0  0  0  0  0  0  0  0  0  0
   -3.2846   -2.8280   -0.3984 H   0  0  0  0  0  0  0  0  0  0  0  0
   -1.7586   -2.0580    0.8686 C   0  0  0  0  0  0  0  0  0  0  0  0
   -0.9666   -2.6340    1.6026 O   0  0  0  0  0  0  0  0  0  0  0  0
   -1.4866   -0.9220    0.2366 N   0  0  0  0  0  0  0  0  0  0  0  0
   -2.2166   -0.4790   -0.2994 H   0  0  0  0  0  0  0  0  0  0  0  0
   -0.1956   -0.2250    0.2596 C   0  0  1  0  0  0  0  0  0  0  0  0
    0.3927   -0.6026    1.0964 H   0  0  0  0  0  0  0  0  0  0  0  0
    0.5767   -0.5489   -1.0351 C   0  0  0  0  0  0  0  0  0  0  0  0
    1.6181   -0.2587   -0.8870 H   0  0  0  0  0  0  0  0  0  0  0  0
    0.5410   -1.6241   -1.2164 H   0  0  0  0  0  0  0  0  0  0  0  0
    0.0361    0.1894   -2.2713 C   0  0  0  0  0  0  0  0  0  0  0  0
   -0.6009    1.0148   -1.9443 H   0  0  0  0  0  0  0  0  0  0  0  0
    0.8840    0.6133   -2.8158 H   0  0  0  0  0  0  0  0  0  0  0  0
   -0.7723   -0.7126   -3.2157 C   0  0  0  0  0  0  0  0  0  0  0  0
   -0.8030   -1.9417   -2.9815 O   0  5  0  0  0  0  0  0  0  0  0  0
   -1.3740   -0.1455   -4.1547 O   0  0  0  0  0  0  0  0  0  0  0  0
   -0.3954    1.2887    0.4814 C   0  0  0  0  0  0  0  0  0  0  0  0
   -1.2761    1.9015   -0.1256 O   0  0  0  0  0  0  0  0  0  0  0  0
    0.4051    1.8919    1.3699 N   0  0  0  0  0  0  0  0  0  0  0  0
    1.1380    1.3380    1.7875 H   0  0  0  0  0  0  0  0  0  0  0  0
    0.3573    3.3183    1.6807 C   0  0  0  0  0  0  0  0  0  0  0  0
   -0.6670    3.6090    1.9198 H   0  0  0  0  0  0  0  0  0  0  0  0
    1.0066    3.5397    2.5289 H   0  0  0  0  0  0  0  0  0  0  0  0
    0.6896    3.8897    0.8118 H   0  0  0  0  0  0  0  0  0  0  0  0
  5  6  2  0  0  0  0
  5  7  1  0  0  0  0
  2  3  1  0  0  0  0
  2  4  1  0  0  0  0
  2  5  1  0  0  0  0
  1  2  1  0  0  0  0
 20 21  2  0  0  0  0
 20 22  1  0  0  0  0
 17 18  1  0  0  0  0
 17 19  2  0  0  0  0
 14 15  1  0  0  0  0
 14 16  1  0  0  0  0
 14 17  1  0  0  0  0
 11 12  1  0  0  0  0
 11 13  1  0  0  0  0
 11 14  1  0  0  0  0
  9 10  1  0  0  0  0
  9 11  1  0  0  0  0
  9 20  1  0  0  0  0
  7  8  1  0  0  0  0
  7  9  1  0  0  0  0
 24 25  1  0  0  0  0
 24 26  1  0  0  0  0
 24 27  1  0  0  0  0
 22 23  1  0  0  0  0
 22 24  1  0  0  0  0
M  CHG  1  18  -1
M  END
$$$$
default_name
  -OEChem-02102213163D

 27 26  0     1  0  0  0  0  0999 V2000
   -3.2406   -3.5400    1.2326 H   0  0  0  0  0  0  0  0  0  0  0  0
   -3.1436   -2.6190    0.6606 C   0  0  0  0  0  0  0  0  0  0  0  0
   -3.8786   -1.8920    0.9996 H   0  0  0  0  0  0  0  0  0  0  0  0
   -3.2846   -2.8280   -0.3984 H   0  0  0  0  0  0  0  0  0  0  0  0
   -1.7586   -2.0580    0.8686 C   0  0  0  0  0  0  0  0  0  0  0  0
   -0.9666   -2.6340    1.6026 O   0  0  0  0  0  0  0  0  0  0  0  0
   -1.4866   -0.9220    0.2366 N   0  0  0  0  0  0  0  0  0  0  0  0
   -2.2166   -0.4790   -0.2994 H   0  0  0  0  0  0  0  0  0  0  0  0
   -0.1956   -0.2250    0.2596 C   0  0  1  0  0  0  0  0  0  0  0  0
    0.3927   -0.6026    1.0964 H   0  0  0  0  0  0  0  0  0  0  0  0
    0.5767   -0.5489   -1.0351 C   0  0  0  0  0  0  0  0  0  0  0  0
    1.6181   -0.2587   -0.8870 H   0  0  0  0  0  0  0  0  0  0  0  0
    0.5410   -1.6241   -1.2164 H   0  0  0  0  0  0  0  0  0  0  0  0
    0.0361    0.1894   -2.2713 C   0  0  0  0  0  0  0  0  0  0  0  0
   -0.3712    1.1547   -1.9612 H   0  0  0  0  0  0  0  0  0  0  0  0
    0.8715    0.3785   -2.9505 H   0  0  0  0  0  0  0  0  0  0  0  0
   -1.0570   -0.5897   -3.0177 C   0  0  0  0  0  0  0  0  0  0  0  0
   -1.3041   -1.7617   -2.6549 O   0  5  0  0  0  0  0  0  0  0  0  0
   -1.6517    0.0181   -3.9355 O   0  0  0  0  0  0  0  0  0  0  0  0
   -0.3954    1.2887    0.4814 C   0  0  0  0  0  0  0  0  0  0  0  0
   -1.2761    1.9015   -0.1256 O   0  0  0  0  0  0  0  0  0  0  0  0
    0.4051    1.8919    1.3699 N   0  0  0  0  0  0  0  0  0  0  0  0
    1.1380    1.3380    1.7875 H   0  0  0  0  0  0  0  0  0  0  0  0
    0.3573    3.3183    1.6807 C   0  0  0  0  0  0  0  0  0  0  0  0
   -0.6670    3.6090    1.9198 H   0  0  0  0  0  0  0  0  0  0  0  0
    1.0066    3.5397    2.5289 H   0  0  0  0  0  0  0  0  0  0  0  0
    0.6896    3.8897    0.8118 H   0  0  0  0  0  0  0  0  0  0  0  0
  5  6  2  0  0  0  0
  5  7  1  0  0  0  0
  2  3  1  0  0  0  0
  2  4  1  0  0  0  0
  2  5  1  0  0  0  0
  1  2  1  0  0  0  0
 20 21  2  0  0  0  0
 20 22  1  0  0  0  0
 17 18  1  0  0  0  0
 17 19  2  0  0  0  0
 14 15  1  0  0  0  0
 14 16  1  0  0  0  0
 14 17  1  0  0  0  0
 11 12  1  0  0  0  0
 11 13  1  0  0  0  0
 11 14  1  0  0  0  0
  9 10  1  0  0  0  0
  9 11  1  0  0  0  0
  9 20  1  0  0  0  0
  7  8  1  0  0  0  0
  7  9  1  0  0  0  0
 24 25  1  0  0  0  0
 24 26  1  0  0  0  0
 24 27  1  0  0  0  0
 22 23  1  0  0  0  0
 22 24  1  0  0  0  0
M  CHG  1  18  -1
M  END
$$$$
default_name
  -OEChem-02102213163D

 27 26  0     1  0  0  0  0  0999 V2000
   -3.2406   -3.5400    1.2326 H   0  0  0  0  0  0  0  0  0  0  0  0
   -3.1436   -2.6190    0.6606 C   0  0  0  0  0  0  0  0  0  0  0  0
   -3.8786   -1.8920    0.9996 H   0  0  0  0  0  0  0  0  0  0  0  0
   -3.2846   -2.8280   -0.3984 H   0  0  0  0  0  0  0  0  0  0  0  0
   -1.7586   -2.0580    0.8686 C   0  0  0  0  0  0  0  0  0  0  0  0
   -0.9666   -2.6340    1.6026 O   0  0  0  0  0  0  0  0  0  0  0  0
   -1.4866   -0.9220    0.2366 N   0  0  0  0  0  0  0  0  0  0  0  0
   -2.2166   -0.4790   -0.2994 H   0  0  0  0  0  0  0  0  0  0  0  0
   -0.1956   -0.2250    0.2596 C   0  0  1  0  0  0  0  0  0  0  0  0
    0.3927   -0.6026    1.0964 H   0  0  0  0  0  0  0  0  0  0  0  0
    0.5767   -0.5489   -1.0351 C   0  0  0  0  0  0  0  0  0  0  0  0
    1.6181   -0.2587   -0.8870 H   0  0  0  0  0  0  0  0  0  0  0  0
    0.5410   -1.6241   -1.2164 H   0  0  0  0  0  0  0  0  0  0  0  0
    0.0361    0.1894   -2.2713 C   0  0  0  0  0  0  0  0  0  0  0  0
   -0.1222    1.2406   -2.0188 H   0  0  0  0  0  0  0  0  0  0  0  0
    0.7939    0.1421   -3.0578 H   0  0  0  0  0  0  0  0  0  0  0  0
   -1.2819   -0.3936   -2.8023 C   0  0  0  0  0  0  0  0  0  0  0  0
   -1.7101   -1.4539   -2.2935 O   0  5  0  0  0  0  0  0  0  0  0  0
   -1.8587    0.2539   -3.7041 O   0  0  0  0  0  0  0  0  0  0  0  0
   -0.3954    1.2887    0.4814 C   0  0  0  0  0  0  0  0  0  0  0  0
   -1.2761    1.9015   -0.1256 O   0  0  0  0  0  0  0  0  0  0  0  0
    0.4051    1.8919    1.3699 N   0  0  0  0  0  0  0  0  0  0  0  0
    1.1380    1.3380    1.7875 H   0  0  0  0  0  0  0  0  0  0  0  0
    0.3573    3.3183    1.6807 C   0  0  0  0  0  0  0  0  0  0  0  0
   -0.6670    3.6090    1.9198 H   0  0  0  0  0  0  0  0  0  0  0  0
    1.0066    3.5397    2.5289 H   0  0  0  0  0  0  0  0  0  0  0  0
    0.6896    3.8897    0.8118 H   0  0  0  0  0  0  0  0  0  0  0  0
  5  6  2  0  0  0  0
  5  7  1  0  0  0  0
  2  3  1  0  0  0  0
  2  4  1  0  0  0  0
  2  5  1  0  0  0  0
  1  2  1  0  0  0  0
 20 21  2  0  0  0  0
 20 22  1  0  0  0  0
 17 18  1  0  0  0  0
 17 19  2  0  0  0  0
 14 15  1  0  0  0  0
 14 16  1  0  0  0  0
 14 17  1  0  0  0  0
 11 12  1  0  0  0  0
 11 13  1  0  0  0  0
 11 14  1  0  0  0  0
  9 10  1  0  0  0  0
  9 11  1  0  0  0  0
  9 20  1  0  0  0  0
  7  8  1  0  0  0  0
  7  9  1  0  0  0  0
 24 25  1  0  0  0  0
 24 26  1  0  0  0  0
 24 27  1  0  0  0  0
 22 23  1  0  0  0  0
 22 24  1  0  0  0  0
M  CHG  1  18  -1
M  END
$$$$
default_name
  -OEChem-02102213163D

 27 26  0     1  0  0  0  0  0999 V2000
   -3.2406   -3.5400    1.2326 H   0  0  0  0  0  0  0  0  0  0  0  0
   -3.1436   -2.6190    0.6606 C   0  0  0  0  0  0  0  0  0  0  0  0
   -3.8786   -1.8920    0.9996 H   0  0  0  0  0  0  0  0  0  0  0  0
   -3.2846   -2.8280   -0.3984 H   0  0  0  0  0  0  0  0  0  0  0  0
   -1.7586   -2.0580    0.8686 C   0  0  0  0  0  0  0  0  0  0  0  0
   -0.9666   -2.6340    1.6026 O   0  0  0  0  0  0  0  0  0  0  0  0
   -1.4866   -0.9220    0.2366 N   0  0  0  0  0  0  0  0  0  0  0  0
   -2.2166   -0.4790   -0.2994 H   0  0  0  0  0  0  0  0  0  0  0  0
   -0.1956   -0.2250    0.2596 C   0  0  1  0  0  0  0  0  0  0  0  0
    0.3927   -0.6026    1.0964 H   0  0  0  0  0  0  0  0  0  0  0  0
    0.5767   -0.5489   -1.0351 C   0  0  0  0  0  0  0  0  0  0  0  0
    1.6181   -0.2587   -0.8870 H   0  0  0  0  0  0  0  0  0  0  0  0
    0.5410   -1.6241   -1.2164 H   0  0  0  0  0  0  0  0  0  0  0  0
    0.0361    0.1894   -2.2713 C   0  0  0  0  0  0  0  0  0  0  0  0
    0.1290    1.2665   -2.1131 H   0  0  0  0  0  0  0  0  0  0  0  0
    0.6564   -0.0799   -3.1302 H   0  0  0  0  0  0  0  0  0  0  0  0
   -1.4316   -0.1379   -2.5842 C   0  0  0  0  0  0  0  0  0  0  0  0
   -1.9933   -1.0393   -1.9220 O   0  5  0  0  0  0  0  0  0  0  0  0
   -1.9809    0.5457   -3.4764 O   0  0  0  0  0  0  0  0  0  0  0  0
   -0.3954    1.2887    0.4814 C   0  0  0  0  0  0  0  0  0  0  0  0
   -1.2761    1.9015   -0.1256 O   0  0  0  0  0  0  0  0  0  0  0  0
    0.4051    1.8919    1.3699 N   0  0  0  0  0  0  0  0  0  0  0  0
    1.1380    1.3380    1.7875 H   0  0  0  0  0  0  0  0  0  0  0  0
    0.3573    3.3183    1.6807 C   0  0  0  0  0  0  0  0  0  0  0  0
   -0.6670    3.6090    1.9198 H   0  0  0  0  0  0  0  0  0  0  0  0
    1.0066    3.5397    2.5289 H   0  0  0  0  0  0  0  0  0  0  0  0
    0.6896    3.8897    0.8118 H   0  0  0  0  0  0  0  0  0  0  0  0
  5  6  2  0  0  0  0
  5  7  1  0  0  0  0
  2  3  1  0  0  0  0
  2  4  1  0  0  0  0
  2  5  1  0  0  0  0
  1  2  1  0  0  0  0
 20 21  2  0  0  0  0
 20 22  1  0  0  0  0
 17 18  1  0  0  0  0
 17 19  2  0  0  0  0
 14 15  1  0  0  0  0
 14 16  1  0  0  0  0
 14 17  1  0  0  0  0
 11 12  1  0  0  0  0
 11 13  1  0  0  0  0
 11 14  1  0  0  0  0
  9 10  1  0  0  0  0
  9 11  1  0  0  0  0
  9 20  1  0  0  0  0
  7  8  1  0  0  0  0
  7  9  1  0  0  0  0
 24 25  1  0  0  0  0
 24 26  1  0  0  0  0
 24 27  1  0  0  0  0
 22 23  1  0  0  0  0
 22 24  1  0  0  0  0
M  CHG  1  18  -1
M  END
$$$$
default_name
  -OEChem-02102213163D

 27 26  0     1  0  0  0  0  0999 V2000
   -3.2406   -3.5400    1.2326 H   0  0  0  0  0  0  0  0  0  0  0  0
   -3.1436   -2.6190    0.6606 C   0  0  0  0  0  0  0  0  0  0  0  0
   -3.8786   -1.8920    0.9996 H   0  0  0  0  0  0  0  0  0  0  0  0
   -3.2846   -2.8280   -0.3984 H   0  0  0  0  0  0  0  0  0  0  0  0
   -1.7586   -2.0580    0.8686 C   0  0  0  0  0  0  0  0  0  0  0  0
   -0.9666   -2.6340    1.6026 O   0  0  0  0  0  0  0  0  0  0  0  0
   -1.4866   -0.9220    0.2366 N   0  0  0  0  0  0  0  0  0  0  0  0
   -2.2166   -0.4790   -0.2994 H   0  0  0  0  0  0  0  0  0  0  0  0
   -0.1956   -0.2250    0.2596 C   0  0  1  0  0  0  0  0  0  0  0  0
    0.3927   -0.6026    1.0964 H   0  0  0  0  0  0  0  0  0  0  0  0
    0.5767   -0.5489   -1.0351 C   0  0  0  0  0  0  0  0  0  0  0  0
    1.6181   -0.2587   -0.8870 H   0  0  0  0  0  0  0  0  0  0  0  0
    0.5410   -1.6241   -1.2164 H   0  0  0  0  0  0  0  0  0  0  0  0
    0.0361    0.1894   -2.2713 C   0  0  0  0  0  0  0  0  0  0  0  0
    0.3652    1.2308   -2.2379 H   0  0  0  0  0  0  0  0  0  0  0  0
    0.4685   -0.2723   -3.1629 H   0  0  0  0  0  0  0  0  0  0  0  0
   -1.4958    0.1600   -2.3781 C   0  0  0  0  0  0  0  0  0  0  0  0
   -2.1345   -0.5460   -1.5657 O   0  5  0  0  0  0  0  0  0  0  0  0
   -2.0099    0.8737   -3.2678 O   0  0  0  0  0  0  0  0  0  0  0  0
   -0.3954    1.2887    0.4814 C   0  0  0  0  0  0  0  0  0  0  0  0
   -1.2761    1.9015   -0.1256 O   0  0  0  0  0  0  0  0  0  0  0  0
    0.4051    1.8919    1.3699 N   0  0  0  0  0  0  0  0  0  0  0  0
    1.1380    1.3380    1.7875 H   0  0  0  0  0  0  0  0  0  0  0  0
    0.3573    3.3183    1.6807 C   0  0  0  0  0  0  0  0  0  0  0  0
   -0.6670    3.6090    1.9198 H   0  0  0  0  0  0  0  0  0  0  0  0
    1.0066    3.5397    2.5289 H   0  0  0  0  0  0  0  0  0  0  0  0
    0.6896    3.8897    0.8118 H   0  0  0  0  0  0  0  0  0  0  0  0
  5  6  2  0  0  0  0
  5  7  1  0  0  0  0
  2  3  1  0  0  0  0
  2  4  1  0  0  0  0
  2  5  1  0  0  0  0
  1  2  1  0  0  0  0
 20 21  2  0  0  0  0
 20 22  1  0  0  0  0
 17 18  1  0  0  0  0
 17 19  2  0  0  0  0
 14 15  1  0  0  0  0
 14 16  1  0  0  0  0
 14 17  1  0  0  0  0
 11 12  1  0  0  0  0
 11 13  1  0  0  0  0
 11 14  1  0  0  0  0
  9 10  1  0  0  0  0
  9 11  1  0  0  0  0
  9 20  1  0  0  0  0
  7  8  1  0  0  0  0
  7  9  1  0  0  0  0
 24 25  1  0  0  0  0
 24 26  1  0  0  0  0
 24 27  1  0  0  0  0
 22 23  1  0  0  0  0
 22 24  1  0  0  0  0
M  CHG  1  18  -1
M  END
$$$$
default_name
  -OEChem-02102213163D

 27 26  0     1  0  0  0  0  0999 V2000
   -3.2406   -3.5400    1.2326 H   0  0  0  0  0  0  0  0  0  0  0  0
   -3.1436   -2.6190    0.6606 C   0  0  0  0  0  0  0  0  0  0  0  0
   -3.8786   -1.8920    0.9996 H   0  0  0  0  0  0  0  0  0  0  0  0
   -3.2846   -2.8280   -0.3984 H   0  0  0  0  0  0  0  0  0  0  0  0
   -1.7586   -2.0580    0.8686 C   0  0  0  0  0  0  0  0  0  0  0  0
   -0.9666   -2.6340    1.6026 O   0  0  0  0  0  0  0  0  0  0  0  0
   -1.4866   -0.9220    0.2366 N   0  0  0  0  0  0  0  0  0  0  0  0
   -2.2166   -0.4790   -0.2994 H   0  0  0  0  0  0  0  0  0  0  0  0
   -0.1956   -0.2250    0.2596 C   0  0  1  0  0  0  0  0  0  0  0  0
    0.3927   -0.6026    1.0964 H   0  0  0  0  0  0  0  0  0  0  0  0
    0.5767   -0.5489   -1.0351 C   0  0  0  0  0  0  0  0  0  0  0  0
    1.6181   -0.2587   -0.8870 H   0  0  0  0  0  0  0  0  0  0  0  0
    0.5410   -1.6241   -1.2164 H   0  0  0  0  0  0  0  0  0  0  0  0
    0.0361    0.1894   -2.2713 C   0  0  0  0  0  0  0  0  0  0  0  0
    0.5705    1.1357   -2.3844 H   0  0  0  0  0  0  0  0  0  0  0  0
    0.2428   -0.4220   -3.1537 H   0  0  0  0  0  0  0  0  0  0  0  0
   -1.4703    0.4800   -2.1982 C   0  0  0  0  0  0  0  0  0  0  0  0
   -2.1240   -0.0078   -1.2488 O   0  5  0  0  0  0  0  0  0  0  0  0
   -1.9438    1.2156   -3.0926 O   0  0  0  0  0  0  0  0  0  0  0  0
   -0.3954    1.2887    0.4814 C   0  0  0  0  0  0  0  0  0  0  0  0
   -1.2761    1.9015   -0.1256 O   0  0  0  0  0  0  0  0  0  0  0  0
    0.4051    1.8919    1.3699 N   0  0  0  0  0  0  0  0  0  0  0  0
    1.1380    1.3380    1.7875 H   0  0  0  0  0  0  0  0  0  0  0  0
    0.3573    3.3183    1.6807 C   0  0  0  0  0  0  0  0  0  0  0  0
   -0.6670    3.6090    1.9198 H   0  0  0  0  0  0  0  0  0  0  0  0
    1.0066    3.5397    2.5289 H   0  0  0  0  0  0  0  0  0  0  0  0
    0.6896    3.8897    0.8118 H   0  0  0  0  0  0  0  0  0  0  0  0
  5  6  2  0  0  0  0
  5  7  1  0  0  0  0
  2  3  1  0  0  0  0
  2  4  1  0  0  0  0
  2  5  1  0  0  0  0
  1  2  1  0  0  0  0
 20 21  2  0  0  0  0
 20 22  1  0  0  0  0
 17 18  1  0  0  0  0
 17 19  2  0  0  0  0
 14 15  1  0  0  0  0
 14 16  1  0  0  0  0
 14 17  1  0  0  0  0
 11 12  1  0  0  0  0
 11 13  1  0  0  0  0
 11 14  1  0  0  0  0
  9 10  1  0  0  0  0
  9 11  1  0  0  0  0
  9 20  1  0  0  0  0
  7  8  1  0  0  0  0
  7  9  1  0  0  0  0
 24 25  1  0  0  0  0
 24 26  1  0  0  0  0
 24 27  1  0  0  0  0
 22 23  1  0  0  0  0
 22 24  1  0  0  0  0
M  CHG  1  18  -1
M  END
$$$$
default_name
  -OEChem-02102213163D

 27 26  0     1  0  0  0  0  0999 V2000
   -3.2406   -3.5400    1.2326 H   0  0  0  0  0  0  0  0  0  0  0  0
   -3.1436   -2.6190    0.6606 C   0  0  0  0  0  0  0  0  0  0  0  0
   -3.8786   -1.8920    0.9996 H   0  0  0  0  0  0  0  0  0  0  0  0
   -3.2846   -2.8280   -0.3984 H   0  0  0  0  0  0  0  0  0  0  0  0
   -1.7586   -2.0580    0.8686 C   0  0  0  0  0  0  0  0  0  0  0  0
   -0.9666   -2.6340    1.6026 O   0  0  0  0  0  0  0  0  0  0  0  0
   -1.4866   -0.9220    0.2366 N   0  0  0  0  0  0  0  0  0  0  0  0
   -2.2166   -0.4790   -0.2994 H   0  0  0  0  0  0  0  0  0  0  0  0
   -0.1956   -0.2250    0.2596 C   0  0  1  0  0  0  0  0  0  0  0  0
    0.3927   -0.6026    1.0964 H   0  0  0  0  0  0  0  0  0  0  0  0
    0.5767   -0.5489   -1.0351 C   0  0  0  0  0  0  0  0  0  0  0  0
    1.6181   -0.2587   -0.8870 H   0  0  0  0  0  0  0  0  0  0  0  0
    0.5410   -1.6241   -1.2164 H   0  0  0  0  0  0  0  0  0  0  0  0
    0.0361    0.1894   -2.2713 C   0  0  0  0  0  0  0  0  0  0  0  0
    0.7308    0.9878   -2.5428 H   0  0  0  0  0  0  0  0  0  0  0  0
   -0.0052   -0.5189   -3.1030 H   0  0  0  0  0  0  0  0  0  0  0  0
   -1.3568    0.8001   -2.0567 C   0  0  0  0  0  0  0  0  0  0  0  0
   -1.9625    0.5387   -0.9931 O   0  5  0  0  0  0  0  0  0  0  0  0
   -1.7870    1.5480   -2.9626 O   0  0  0  0  0  0  0  0  0  0  0  0
   -0.3954    1.2887    0.4814 C   0  0  0  0  0  0  0  0  0  0  0  0
   -1.2761    1.9015   -0.1256 O   0  0  0  0  0  0  0  0  0  0  0  0
    0.4051    1.8919    1.3699 N   0  0  0  0  0  0  0  0  0  0  0  0
    1.1380    1.3380    1.7875 H   0  0  0  0  0  0  0  0  0  0  0  0
    0.3573    3.3183    1.6807 C   0  0  0  0  0  0  0  0  0  0  0  0
   -0.6670    3.6090    1.9198 H   0  0  0  0  0  0  0  0  0  0  0  0
    1.0066    3.5397    2.5289 H   0  0  0  0  0  0  0  0  0  0  0  0
    0.6896    3.8897    0.8118 H   0  0  0  0  0  0  0  0  0  0  0  0
  5  6  2  0  0  0  0
  5  7  1  0  0  0  0
  2  3  1  0  0  0  0
  2  4  1  0  0  0  0
  2  5  1  0  0  0  0
  1  2  1  0  0  0  0
 20 21  2  0  0  0  0
 20 22  1  0  0  0  0
 17 18  1  0  0  0  0
 17 19  2  0  0  0  0
 14 15  1  0  0  0  0
 14 16  1  0  0  0  0
 14 17  1  0  0  0  0
 11 12  1  0  0  0  0
 11 13  1  0  0  0  0
 11 14  1  0  0  0  0
  9 10  1  0  0  0  0
  9 11  1  0  0  0  0
  9 20  1  0  0  0  0
  7  8  1  0  0  0  0
  7  9  1  0  0  0  0
 24 25  1  0  0  0  0
 24 26  1  0  0  0  0
 24 27  1  0  0  0  0
 22 23  1  0  0  0  0
 22 24  1  0  0  0  0
M  CHG  1  18  -1
M  END
$$$$
default_name
  -OEChem-02102213163D

 27 26  0     1  0  0  0  0  0999 V2000
   -3.2406   -3.5400    1.2326 H   0  0  0  0  0  0  0  0  0  0  0  0
   -3.1436   -2.6190    0.6606 C   0  0  0  0  0  0  0  0  0  0  0  0
   -3.8786   -1.8920    0.9996 H   0  0  0  0  0  0  0  0  0  0  0  0
   -3.2846   -2.8280   -0.3984 H   0  0  0  0  0  0  0  0  0  0  0  0
   -1.7586   -2.0580    0.8686 C   0  0  0  0  0  0  0  0  0  0  0  0
   -0.9666   -2.6340    1.6026 O   0  0  0  0  0  0  0  0  0  0  0  0
   -1.4866   -0.9220    0.2366 N   0  0  0  0  0  0  0  0  0  0  0  0
   -2.2166   -0.4790   -0.2994 H   0  0  0  0  0  0  0  0  0  0  0  0
   -0.1956   -0.2250    0.2596 C   0  0  1  0  0  0  0  0  0  0  0  0
    0.3927   -0.6026    1.0964 H   0  0  0  0  0  0  0  0  0  0  0  0
    0.5767   -0.5489   -1.0351 C   0  0  0  0  0  0  0  0  0  0  0  0
    1.6181   -0.2587   -0.8870 H   0  0  0  0  0  0  0  0  0  0  0  0
    0.5410   -1.6241   -1.2164 H   0  0  0  0  0  0  0  0  0  0  0  0
    0.0361    0.1894   -2.2713 C   0  0  0  0  0  0  0  0  0  0  0  0
    0.8352    0.7972   -2.7023 H   0  0  0  0  0  0  0  0  0  0  0  0
   -0.2585   -0.5562   -3.0145 H   0  0  0  0  0  0  0  0  0  0  0  0
   -1.1629    1.0985   -1.9632 C   0  0  0  0  0  0  0  0  0  0  0  0
   -1.6610    1.0563   -0.8158 O   0  5  0  0  0  0  0  0  0  0  0  0
   -1.5503    1.8483   -2.8868 O   0  0  0  0  0  0  0  0  0  0  0  0
   -0.3954    1.2887    0.4814 C   0  0  0  0  0  0  0  0  0  0  0  0
   -1.2761    1.9015   -0.1256 O   0  0  0  0  0  0  0  0  0  0  0  0
    0.4051    1.8919    1.3699 N   0  0  0  0  0  0  0  0  0  0  0  0
    1.1380    1.3380    1.7875 H   0  0  0  0  0  0  0  0  0  0  0  0
    0.3573    3.3183    1.6807 C   0  0  0  0  0  0  0  0  0  0  0  0
   -0.6670    3.6090    1.9198 H   0  0  0  0  0  0  0  0  0  0  0  0
    1.0066    3.5397    2.5289 H   0  0  0  0  0  0  0  0  0  0  0  0
    0.6896    3.8897    0.8118 H   0  0  0  0  0  0  0  0  0  0  0  0
  5  6  2  0  0  0  0
  5  7  1  0  0  0  0
  2  3  1  0  0  0  0
  2  4  1  0  0  0  0
  2  5  1  0  0  0  0
  1  2  1  0  0  0  0
 20 21  2  0  0  0  0
 20 22  1  0  0  0  0
 17 18  1  0  0  0  0
 17 19  2  0  0  0  0
 14 15  1  0  0  0  0
 14 16  1  0  0  0  0
 14 17  1  0  0  0  0
 11 12  1  0  0  0  0
 11 13  1  0  0  0  0
 11 14  1  0  0  0  0
  9 10  1  0  0  0  0
  9 11  1  0  0  0  0
  9 20  1  0  0  0  0
  7  8  1  0  0  0  0
  7  9  1  0  0  0  0
 24 25  1  0  0  0  0
 24 26  1  0  0  0  0
 24 27  1  0  0  0  0
 22 23  1  0  0  0  0
 22 24  1  0  0  0  0
M  CHG  1  18  -1
M  END
$$$$
default_name
  -OEChem-02102213163D

 27 26  0     1  0  0  0  0  0999 V2000
   -3.2406   -3.5400    1.2326 H   0  0  0  0  0  0  0  0  0  0  0  0
   -3.1436   -2.6190    0.6606 C   0  0  0  0  0  0  0  0  0  0  0  0
   -3.8786   -1.8920    0.9996 H   0  0  0  0  0  0  0  0  0  0  0  0
   -3.2846   -2.8280   -0.3984 H   0  0  0  0  0  0  0  0  0  0  0  0
   -1.7586   -2.0580    0.8686 C   0  0  0  0  0  0  0  0  0  0  0  0
   -0.9666   -2.6340    1.6026 O   0  0  0  0  0  0  0  0  0  0  0  0
   -1.4866   -0.9220    0.2366 N   0  0  0  0  0  0  0  0  0  0  0  0
   -2.2166   -0.4790   -0.2994 H   0  0  0  0  0  0  0  0  0  0  0  0
   -0.1956   -0.2250    0.2596 C   0  0  1  0  0  0  0  0  0  0  0  0
    0.3927   -0.6026    1.0964 H   0  0  0  0  0  0  0  0  0  0  0  0
    0.5767   -0.5489   -1.0351 C   0  0  0  0  0  0  0  0  0  0  0  0
    1.6181   -0.2587   -0.8870 H   0  0  0  0  0  0  0  0  0  0  0  0
    0.5410   -1.6241   -1.2164 H   0  0  0  0  0  0  0  0  0  0  0  0
    0.0361    0.1894   -2.2713 C   0  0  0  0  0  0  0  0  0  0  0  0
    0.8766    0.5769   -2.8520 H   0  0  0  0  0  0  0  0  0  0  0  0
   -0.5001   -0.5315   -2.8942 H   0  0  0  0  0  0  0  0  0  0  0  0
   -0.9020    1.3550   -1.9242 C   0  0  0  0  0  0  0  0  0  0  0  0
   -1.2401    1.5097   -0.7291 O   0  5  0  0  0  0  0  0  0  0  0  0
   -1.2498    2.0960   -2.8703 O   0  0  0  0  0  0  0  0  0  0  0  0
   -0.3954    1.2887    0.4814 C   0  0  0  0  0  0  0  0  0  0  0  0
   -1.2761    1.9015   -0.1256 O   0  0  0  0  0  0  0  0  0  0  0  0
    0.4051    1.8919    1.3699 N   0  0  0  0  0  0  0  0  0  0  0  0
    1.1380    1.3380    1.7875 H   0  0  0  0  0  0  0  0  0  0  0  0
    0.3573    3.3183    1.6807 C   0  0  0  0  0  0  0  0  0  0  0  0
   -0.6670    3.6090    1.9198 H   0  0  0  0  0  0  0  0  0  0  0  0
    1.0066    3.5397    2.5289 H   0  0  0  0  0  0  0  0  0  0  0  0
    0.6896    3.8897    0.8118 H   0  0  0  0  0  0  0  0  0  0  0  0
  5  6  2  0  0  0  0
  5  7  1  0  0  0  0
  2  3  1  0  0  0  0
  2  4  1  0  0  0  0
  2  5  1  0  0  0  0
  1  2  1  0  0  0  0
 20 21  2  0  0  0  0
 20 22  1  0  0  0  0
 17 18  1  0  0  0  0
 17 19  2  0  0  0  0
 14 15  1  0  0  0  0
 14 16  1  0  0  0  0
 14 17  1  0  0  0  0
 11 12  1  0  0  0  0
 11 13  1  0  0  0  0
 11 14  1  0  0  0  0
  9 10  1  0  0  0  0
  9 11  1  0  0  0  0
  9 20  1  0  0  0  0
  7  8  1  0  0  0  0
  7  9  1  0  0  0  0
 24 25  1  0  0  0  0
 24 26  1  0  0  0  0
 24 27  1  0  0  0  0
 22 23  1  0  0  0  0
 22 24  1  0  0  0  0
M  CHG  1  18  -1
M  END
$$$$
default_name
  -OEChem-02102213163D

 27 26  0     1  0  0  0  0  0999 V2000
   -3.2406   -3.5400    1.2326 H   0  0  0  0  0  0  0  0  0  0  0  0
   -3.1436   -2.6190    0.6606 C   0  0  0  0  0  0  0  0  0  0  0  0
   -3.8786   -1.8920    0.9996 H   0  0  0  0  0  0  0  0  0  0  0  0
   -3.2846   -2.8280   -0.3984 H   0  0  0  0  0  0  0  0  0  0  0  0
   -1.7586   -2.0580    0.8686 C   0  0  0  0  0  0  0  0  0  0  0  0
   -0.9666   -2.6340    1.6026 O   0  0  0  0  0  0  0  0  0  0  0  0
   -1.4866   -0.9220    0.2366 N   0  0  0  0  0  0  0  0  0  0  0  0
   -2.2166   -0.4790   -0.2994 H   0  0  0  0  0  0  0  0  0  0  0  0
   -0.1956   -0.2250    0.2596 C   0  0  1  0  0  0  0  0  0  0  0  0
    0.3927   -0.6026    1.0964 H   0  0  0  0  0  0  0  0  0  0  0  0
    0.5767   -0.5489   -1.0351 C   0  0  0  0  0  0  0  0  0  0  0  0
    1.6181   -0.2587   -0.8870 H   0  0  0  0  0  0  0  0  0  0  0  0
    0.5410   -1.6241   -1.2164 H   0  0  0  0  0  0  0  0  0  0  0  0
    0.0361    0.1894   -2.2713 C   0  0  0  0  0  0  0  0  0  0  0  0
    0.8522    0.3418   -2.9817 H   0  0  0  0  0  0  0  0  0  0  0  0
   -0.7133   -0.4465   -2.7501 H   0  0  0  0  0  0  0  0  0  0  0  0
   -0.5917    1.5519   -1.9422 C   0  0  0  0  0  0  0  0  0  0  0  0
   -0.7285    1.8679   -0.7389 O   0  5  0  0  0  0  0  0  0  0  0  0
   -0.9059    2.2743   -2.9143 O   0  0  0  0  0  0  0  0  0  0  0  0
   -0.3954    1.2887    0.4814 C   0  0  0  0  0  0  0  0  0  0  0  0
   -1.2761    1.9015   -0.1256 O   0  0  0  0  0  0  0  0  0  0  0  0
    0.4051    1.8919    1.3699 N   0  0  0  0  0  0  0  0  0  0  0  0
    1.1380    1.3380    1.7875 H   0  0  0  0  0  0  0  0  0  0  0  0
    0.3573    3.3183    1.6807 C   0  0  0  0  0  0  0  0  0  0  0  0
   -0.6670    3.6090    1.9198 H   0  0  0  0  0  0  0  0  0  0  0  0
    1.0066    3.5397    2.5289 H   0  0  0  0  0  0  0  0  0  0  0  0
    0.6896    3.8897    0.8118 H   0  0  0  0  0  0  0  0  0  0  0  0
  5  6  2  0  0  0  0
  5  7  1  0  0  0  0
  2  3  1  0  0  0  0
  2  4  1  0  0  0  0
  2  5  1  0  0  0  0
  1  2  1  0  0  0  0
 20 21  2  0  0  0  0
 20 22  1  0  0  0  0
 17 18  1  0  0  0  0
 17 19  2  0  0  0  0
 14 15  1  0  0  0  0
 14 16  1  0  0  0  0
 14 17  1  0  0  0  0
 11 12  1  0  0  0  0
 11 13  1  0  0  0  0
 11 14  1  0  0  0  0
  9 10  1  0  0  0  0
  9 11  1  0  0  0  0
  9 20  1  0  0  0  0
  7  8  1  0  0  0  0
  7  9  1  0  0  0  0
 24 25  1  0  0  0  0
 24 26  1  0  0  0  0
 24 27  1  0  0  0  0
 22 23  1  0  0  0  0
 22 24  1  0  0  0  0
M  CHG  1  18  -1
M  END
$$$$
default_name
  -OEChem-02102213163D

 27 26  0     1  0  0  0  0  0999 V2000
   -3.2406   -3.5400    1.2326 H   0  0  0  0  0  0  0  0  0  0  0  0
   -3.1436   -2.6190    0.6606 C   0  0  0  0  0  0  0  0  0  0  0  0
   -3.8786   -1.8920    0.9996 H   0  0  0  0  0  0  0  0  0  0  0  0
   -3.2846   -2.8280   -0.3984 H   0  0  0  0  0  0  0  0  0  0  0  0
   -1.7586   -2.0580    0.8686 C   0  0  0  0  0  0  0  0  0  0  0  0
   -0.9666   -2.6340    1.6026 O   0  0  0  0  0  0  0  0  0  0  0  0
   -1.4866   -0.9220    0.2366 N   0  0  0  0  0  0  0  0  0  0  0  0
   -2.2166   -0.4790   -0.2994 H   0  0  0  0  0  0  0  0  0  0  0  0
   -0.1956   -0.2250    0.2596 C   0  0  1  0  0  0  0  0  0  0  0  0
    0.3927   -0.6026    1.0964 H   0  0  0  0  0  0  0  0  0  0  0  0
    0.5767   -0.5489   -1.0351 C   0  0  0  0  0  0  0  0  0  0  0  0
    1.6181   -0.2587   -0.8870 H   0  0  0  0  0  0  0  0  0  0  0  0
    0.5410   -1.6241   -1.2164 H   0  0  0  0  0  0  0  0  0  0  0  0
    0.0361    0.1894   -2.2713 C   0  0  0  0  0  0  0  0  0  0  0  0
    0.7635    0.1081   -3.0825 H   0  0  0  0  0  0  0  0  0  0  0  0
   -0.8836   -0.3069   -2.5923 H   0  0  0  0  0  0  0  0  0  0  0  0
   -0.2533    1.6760   -2.0161 C   0  0  0  0  0  0  0  0  0  0  0  0
   -0.1610    2.1066   -0.8446 O   0  5  0  0  0  0  0  0  0  0  0  0
   -0.5421    2.3709   -3.0156 O   0  0  0  0  0  0  0  0  0  0  0  0
   -0.3954    1.2887    0.4814 C   0  0  0  0  0  0  0  0  0  0  0  0
   -1.2761    1.9015   -0.1256 O   0  0  0  0  0  0  0  0  0  0  0  0
    0.4051    1.8919    1.3699 N   0  0  0  0  0  0  0  0  0  0  0  0
    1.1380    1.3380    1.7875 H   0  0  0  0  0  0  0  0  0  0  0  0
    0.3573    3.3183    1.6807 C   0  0  0  0  0  0  0  0  0  0  0  0
   -0.6670    3.6090    1.9198 H   0  0  0  0  0  0  0  0  0  0  0  0
    1.0066    3.5397    2.5289 H   0  0  0  0  0  0  0  0  0  0  0  0
    0.6896    3.8897    0.8118 H   0  0  0  0  0  0  0  0  0  0  0  0
  5  6  2  0  0  0  0
  5  7  1  0  0  0  0
  2  3  1  0  0  0  0
  2  4  1  0  0  0  0
  2  5  1  0  0  0  0
  1  2  1  0  0  0  0
 20 21  2  0  0  0  0
 20 22  1  0  0  0  0
 17 18  1  0  0  0  0
 17 19  2  0  0  0  0
 14 15  1  0  0  0  0
 14 16  1  0  0  0  0
 14 17  1  0  0  0  0
 11 12  1  0  0  0  0
 11 13  1  0  0  0  0
 11 14  1  0  0  0  0
  9 10  1  0  0  0  0
  9 11  1  0  0  0  0
  9 20  1  0  0  0  0
  7  8  1  0  0  0  0
  7  9  1  0  0  0  0
 24 25  1  0  0  0  0
 24 26  1  0  0  0  0
 24 27  1  0  0  0  0
 22 23  1  0  0  0  0
 22 24  1  0  0  0  0
M  CHG  1  18  -1
M  END
$$$$
default_name
  -OEChem-02102213163D

 27 26  0     1  0  0  0  0  0999 V2000
   -3.2406   -3.5400    1.2326 H   0  0  0  0  0  0  0  0  0  0  0  0
   -3.1436   -2.6190    0.6606 C   0  0  0  0  0  0  0  0  0  0  0  0
   -3.8786   -1.8920    0.9996 H   0  0  0  0  0  0  0  0  0  0  0  0
   -3.2846   -2.8280   -0.3984 H   0  0  0  0  0  0  0  0  0  0  0  0
   -1.7586   -2.0580    0.8686 C   0  0  0  0  0  0  0  0  0  0  0  0
   -0.9666   -2.6340    1.6026 O   0  0  0  0  0  0  0  0  0  0  0  0
   -1.4866   -0.9220    0.2366 N   0  0  0  0  0  0  0  0  0  0  0  0
   -2.2166   -0.4790   -0.2994 H   0  0  0  0  0  0  0  0  0  0  0  0
   -0.1956   -0.2250    0.2596 C   0  0  1  0  0  0  0  0  0  0  0  0
    0.3927   -0.6026    1.0964 H   0  0  0  0  0  0  0  0  0  0  0  0
    0.5767   -0.5489   -1.0351 C   0  0  0  0  0  0  0  0  0  0  0  0
    1.6181   -0.2587   -0.8870 H   0  0  0  0  0  0  0  0  0  0  0  0
    0.5410   -1.6241   -1.2164 H   0  0  0  0  0  0  0  0  0  0  0  0
    0.0361    0.1894   -2.2713 C   0  0  0  0  0  0  0  0  0  0  0  0
    0.6168   -0.1084   -3.1477 H   0  0  0  0  0  0  0  0  0  0  0  0
   -0.9995   -0.1223   -2.4313 H   0  0  0  0  0  0  0  0  0  0  0  0
    0.0902    1.7188   -2.1409 C   0  0  0  0  0  0  0  0  0  0  0  0
    0.4236    2.2095   -1.0388 O   0  5  0  0  0  0  0  0  0  0  0  0
   -0.1832    2.3794   -3.1676 O   0  0  0  0  0  0  0  0  0  0  0  0
   -0.3954    1.2887    0.4814 C   0  0  0  0  0  0  0  0  0  0  0  0
   -1.2761    1.9015   -0.1256 O   0  0  0  0  0  0  0  0  0  0  0  0
    0.4051    1.8919    1.3699 N   0  0  0  0  0  0  0  0  0  0  0  0
    1.1380    1.3380    1.7875 H   0  0  0  0  0  0  0  0  0  0  0  0
    0.3573    3.3183    1.6807 C   0  0  0  0  0  0  0  0  0  0  0  0
   -0.6670    3.6090    1.9198 H   0  0  0  0  0  0  0  0  0  0  0  0
    1.0066    3.5397    2.5289 H   0  0  0  0  0  0  0  0  0  0  0  0
    0.6896    3.8897    0.8118 H   0  0  0  0  0  0  0  0  0  0  0  0
  5  6  2  0  0  0  0
  5  7  1  0  0  0  0
  2  3  1  0  0  0  0
  2  4  1  0  0  0  0
  2  5  1  0  0  0  0
  1  2  1  0  0  0  0
 20 21  2  0  0  0  0
 20 22  1  0  0  0  0
 17 18  1  0  0  0  0
 17 19  2  0  0  0  0
 14 15  1  0  0  0  0
 14 16  1  0  0  0  0
 14 17  1  0  0  0  0
 11 12  1  0  0  0  0
 11 13  1  0  0  0  0
 11 14  1  0  0  0  0
  9 10  1  0  0  0  0
  9 11  1  0  0  0  0
  9 20  1  0  0  0  0
  7  8  1  0  0  0  0
  7  9  1  0  0  0  0
 24 25  1  0  0  0  0
 24 26  1  0  0  0  0
 24 27  1  0  0  0  0
 22 23  1  0  0  0  0
 22 24  1  0  0  0  0
M  CHG  1  18  -1
M  END
$$$$
default_name
  -OEChem-02102213163D

 27 26  0     1  0  0  0  0  0999 V2000
   -3.2406   -3.5400    1.2326 H   0  0  0  0  0  0  0  0  0  0  0  0
   -3.1436   -2.6190    0.6606 C   0  0  0  0  0  0  0  0  0  0  0  0
   -3.8786   -1.8920    0.9996 H   0  0  0  0  0  0  0  0  0  0  0  0
   -3.2846   -2.8280   -0.3984 H   0  0  0  0  0  0  0  0  0  0  0  0
   -1.7586   -2.0580    0.8686 C   0  0  0  0  0  0  0  0  0  0  0  0
   -0.9666   -2.6340    1.6026 O   0  0  0  0  0  0  0  0  0  0  0  0
   -1.4866   -0.9220    0.2366 N   0  0  0  0  0  0  0  0  0  0  0  0
   -2.2166   -0.4790   -0.2994 H   0  0  0  0  0  0  0  0  0  0  0  0
   -0.1956   -0.2250    0.2596 C   0  0  1  0  0  0  0  0  0  0  0  0
    0.3927   -0.6026    1.0964 H   0  0  0  0  0  0  0  0  0  0  0  0
    0.5767   -0.5489   -1.0351 C   0  0  0  0  0  0  0  0  0  0  0  0
    1.6181   -0.2587   -0.8870 H   0  0  0  0  0  0  0  0  0  0  0  0
    0.5410   -1.6241   -1.2164 H   0  0  0  0  0  0  0  0  0  0  0  0
    0.0361    0.1894   -2.2713 C   0  0  0  0  0  0  0  0  0  0  0  0
    0.4219   -0.2930   -3.1726 H   0  0  0  0  0  0  0  0  0  0  0  0
   -1.0530    0.0948   -2.2782 H   0  0  0  0  0  0  0  0  0  0  0  0
    0.4154    1.6772   -2.3079 C   0  0  0  0  0  0  0  0  0  0  0  0
    0.9857    2.1696   -1.3085 O   0  5  0  0  0  0  0  0  0  0  0  0
    0.1464    2.2991   -3.3597 O   0  0  0  0  0  0  0  0  0  0  0  0
   -0.3954    1.2887    0.4814 C   0  0  0  0  0  0  0  0  0  0  0  0
   -1.2761    1.9015   -0.1256 O   0  0  0  0  0  0  0  0  0  0  0  0
    0.4051    1.8919    1.3699 N   0  0  0  0  0  0  0  0  0  0  0  0
    1.1380    1.3380    1.7875 H   0  0  0  0  0  0  0  0  0  0  0  0
    0.3573    3.3183    1.6807 C   0  0  0  0  0  0  0  0  0  0  0  0
   -0.6670    3.6090    1.9198 H   0  0  0  0  0  0  0  0  0  0  0  0
    1.0066    3.5397    2.5289 H   0  0  0  0  0  0  0  0  0  0  0  0
    0.6896    3.8897    0.8118 H   0  0  0  0  0  0  0  0  0  0  0  0
  5  6  2  0  0  0  0
  5  7  1  0  0  0  0
  2  3  1  0  0  0  0
  2  4  1  0  0  0  0
  2  5  1  0  0  0  0
  1  2  1  0  0  0  0
 20 21  2  0  0  0  0
 20 22  1  0  0  0  0
 17 18  1  0  0  0  0
 17 19  2  0  0  0  0
 14 15  1  0  0  0  0
 14 16  1  0  0  0  0
 14 17  1  0  0  0  0
 11 12  1  0  0  0  0
 11 13  1  0  0  0  0
 11 14  1  0  0  0  0
  9 10  1  0  0  0  0
  9 11  1  0  0  0  0
  9 20  1  0  0  0  0
  7  8  1  0  0  0  0
  7  9  1  0  0  0  0
 24 25  1  0  0  0  0
 24 26  1  0  0  0  0
 24 27  1  0  0  0  0
 22 23  1  0  0  0  0
 22 24  1  0  0  0  0
M  CHG  1  18  -1
M  END
$$$$
default_name
  -OEChem-02102213163D

 27 26  0     1  0  0  0  0  0999 V2000
   -3.2406   -3.5400    1.2326 H   0  0  0  0  0  0  0  0  0  0  0  0
   -3.1436   -2.6190    0.6606 C   0  0  0  0  0  0  0  0  0  0  0  0
   -3.8786   -1.8920    0.9996 H   0  0  0  0  0  0  0  0  0  0  0  0
   -3.2846   -2.8280   -0.3984 H   0  0  0  0  0  0  0  0  0  0  0  0
   -1.7586   -2.0580    0.8686 C   0  0  0  0  0  0  0  0  0  0  0  0
   -0.9666   -2.6340    1.6026 O   0  0  0  0  0  0  0  0  0  0  0  0
   -1.4866   -0.9220    0.2366 N   0  0  0  0  0  0  0  0  0  0  0  0
   -2.2166   -0.4790   -0.2994 H   0  0  0  0  0  0  0  0  0  0  0  0
   -0.1956   -0.2250    0.2596 C   0  0  1  0  0  0  0  0  0  0  0  0
    0.3927   -0.6026    1.0964 H   0  0  0  0  0  0  0  0  0  0  0  0
    0.5767   -0.5489   -1.0351 C   0  0  0  0  0  0  0  0  0  0  0  0
    1.6181   -0.2587   -0.8870 H   0  0  0  0  0  0  0  0  0  0  0  0
    0.5410   -1.6241   -1.2164 H   0  0  0  0  0  0  0  0  0  0  0  0
    0.0361    0.1894   -2.2713 C   0  0  0  0  0  0  0  0  0  0  0  0
    0.1921   -0.4330   -3.1557 H   0  0  0  0  0  0  0  0  0  0  0  0
   -1.0406    0.3296   -2.1435 H   0  0  0  0  0  0  0  0  0  0  0  0
    0.7001    1.5543   -2.5059 C   0  0  0  0  0  0  0  0  0  0  0  0
    1.4868    1.9896   -1.6351 O   0  5  0  0  0  0  0  0  0  0  0  0
    0.4241    2.1355   -3.5789 O   0  0  0  0  0  0  0  0  0  0  0  0
   -0.3954    1.2887    0.4814 C   0  0  0  0  0  0  0  0  0  0  0  0
   -1.2761    1.9015   -0.1256 O   0  0  0  0  0  0  0  0  0  0  0  0
    0.4051    1.8919    1.3699 N   0  0  0  0  0  0  0  0  0  0  0  0
    1.1380    1.3380    1.7875 H   0  0  0  0  0  0  0  0  0  0  0  0
    0.3573    3.3183    1.6807 C   0  0  0  0  0  0  0  0  0  0  0  0
   -0.6670    3.6090    1.9198 H   0  0  0  0  0  0  0  0  0  0  0  0
    1.0066    3.5397    2.5289 H   0  0  0  0  0  0  0  0  0  0  0  0
    0.6896    3.8897    0.8118 H   0  0  0  0  0  0  0  0  0  0  0  0
  5  6  2  0  0  0  0
  5  7  1  0  0  0  0
  2  3  1  0  0  0  0
  2  4  1  0  0  0  0
  2  5  1  0  0  0  0
  1  2  1  0  0  0  0
 20 21  2  0  0  0  0
 20 22  1  0  0  0  0
 17 18  1  0  0  0  0
 17 19  2  0  0  0  0
 14 15  1  0  0  0  0
 14 16  1  0  0  0  0
 14 17  1  0  0  0  0
 11 12  1  0  0  0  0
 11 13  1  0  0  0  0
 11 14  1  0  0  0  0
  9 10  1  0  0  0  0
  9 11  1  0  0  0  0
  9 20  1  0  0  0  0
  7  8  1  0  0  0  0
  7  9  1  0  0  0  0
 24 25  1  0  0  0  0
 24 26  1  0  0  0  0
 24 27  1  0  0  0  0
 22 23  1  0  0  0  0
 22 24  1  0  0  0  0
M  CHG  1  18  -1
M  END
$$$$
default_name
  -OEChem-02102213163D

 27 26  0     1  0  0  0  0  0999 V2000
   -3.2406   -3.5400    1.2326 H   0  0  0  0  0  0  0  0  0  0  0  0
   -3.1436   -2.6190    0.6606 C   0  0  0  0  0  0  0  0  0  0  0  0
   -3.8786   -1.8920    0.9996 H   0  0  0  0  0  0  0  0  0  0  0  0
   -3.2846   -2.8280   -0.3984 H   0  0  0  0  0  0  0  0  0  0  0  0
   -1.7586   -2.0580    0.8686 C   0  0  0  0  0  0  0  0  0  0  0  0
   -0.9666   -2.6340    1.6026 O   0  0  0  0  0  0  0  0  0  0  0  0
   -1.4866   -0.9220    0.2366 N   0  0  0  0  0  0  0  0  0  0  0  0
   -2.2166   -0.4790   -0.2994 H   0  0  0  0  0  0  0  0  0  0  0  0
   -0.1956   -0.2250    0.2596 C   0  0  1  0  0  0  0  0  0  0  0  0
    0.3927   -0.6026    1.0964 H   0  0  0  0  0  0  0  0  0  0  0  0
    0.5767   -0.5489   -1.0351 C   0  0  0  0  0  0  0  0  0  0  0  0
    1.6181   -0.2587   -0.8870 H   0  0  0  0  0  0  0  0  0  0  0  0
    0.5410   -1.6241   -1.2164 H   0  0  0  0  0  0  0  0  0  0  0  0
    0.0361    0.1894   -2.2713 C   0  0  0  0  0  0  0  0  0  0  0  0
   -0.0568   -0.5188   -3.0982 H   0  0  0  0  0  0  0  0  0  0  0  0
   -0.9629    0.5660   -2.0362 H   0  0  0  0  0  0  0  0  0  0  0  0
    0.9250    1.3583   -2.7213 C   0  0  0  0  0  0  0  0  0  0  0  0
    1.8927    1.6818   -1.9965 O   0  5  0  0  0  0  0  0  0  0  0  0
    0.6311    1.8997   -3.8102 O   0  0  0  0  0  0  0  0  0  0  0  0
   -0.3954    1.2887    0.4814 C   0  0  0  0  0  0  0  0  0  0  0  0
   -1.2761    1.9015   -0.1256 O   0  0  0  0  0  0  0  0  0  0  0  0
    0.4051    1.8919    1.3699 N   0  0  0  0  0  0  0  0  0  0  0  0
    1.1380    1.3380    1.7875 H   0  0  0  0  0  0  0  0  0  0  0  0
    0.3573    3.3183    1.6807 C   0  0  0  0  0  0  0  0  0  0  0  0
   -0.6670    3.6090    1.9198 H   0  0  0  0  0  0  0  0  0  0  0  0
    1.0066    3.5397    2.5289 H   0  0  0  0  0  0  0  0  0  0  0  0
    0.6896    3.8897    0.8118 H   0  0  0  0  0  0  0  0  0  0  0  0
  5  6  2  0  0  0  0
  5  7  1  0  0  0  0
  2  3  1  0  0  0  0
  2  4  1  0  0  0  0
  2  5  1  0  0  0  0
  1  2  1  0  0  0  0
 20 21  2  0  0  0  0
 20 22  1  0  0  0  0
 17 18  1  0  0  0  0
 17 19  2  0  0  0  0
 14 15  1  0  0  0  0
 14 16  1  0  0  0  0
 14 17  1  0  0  0  0
 11 12  1  0  0  0  0
 11 13  1  0  0  0  0
 11 14  1  0  0  0  0
  9 10  1  0  0  0  0
  9 11  1  0  0  0  0
  9 20  1  0  0  0  0
  7  8  1  0  0  0  0
  7  9  1  0  0  0  0
 24 25  1  0  0  0  0
 24 26  1  0  0  0  0
 24 27  1  0  0  0  0
 22 23  1  0  0  0  0
 22 24  1  0  0  0  0
M  CHG  1  18  -1
M  END
$$$$
default_name
  -OEChem-02102213163D

 27 26  0     1  0  0  0  0  0999 V2000
   -3.2406   -3.5400    1.2326 H   0  0  0  0  0  0  0  0  0  0  0  0
   -3.1436   -2.6190    0.6606 C   0  0  0  0  0  0  0  0  0  0  0  0
   -3.8786   -1.8920    0.9996 H   0  0  0  0  0  0  0  0  0  0  0  0
   -3.2846   -2.8280   -0.3984 H   0  0  0  0  0  0  0  0  0  0  0  0
   -1.7586   -2.0580    0.8686 C   0  0  0  0  0  0  0  0  0  0  0  0
   -0.9666   -2.6340    1.6026 O   0  0  0  0  0  0  0  0  0  0  0  0
   -1.4866   -0.9220    0.2366 N   0  0  0  0  0  0  0  0  0  0  0  0
   -2.2166   -0.4790   -0.2994 H   0  0  0  0  0  0  0  0  0  0  0  0
   -0.1956   -0.2250    0.2596 C   0  0  1  0  0  0  0  0  0  0  0  0
    0.3927   -0.6026    1.0964 H   0  0  0  0  0  0  0  0  0  0  0  0
    0.5767   -0.5489   -1.0351 C   0  0  0  0  0  0  0  0  0  0  0  0
    1.6181   -0.2587   -0.8870 H   0  0  0  0  0  0  0  0  0  0  0  0
    0.5410   -1.6241   -1.2164 H   0  0  0  0  0  0  0  0  0  0  0  0
    0.0361    0.1894   -2.2713 C   0  0  0  0  0  0  0  0  0  0  0  0
   -0.3080   -0.5448   -3.0038 H   0  0  0  0  0  0  0  0  0  0  0  0
   -0.8255    0.7880   -1.9638 H   0  0  0  0  0  0  0  0  0  0  0  0
    1.0746    1.1026   -2.9394 C   0  0  0  0  0  0  0  0  0  0  0  0
    2.1760    1.2672   -2.3680 O   0  5  0  0  0  0  0  0  0  0  0  0
    0.7533    1.6078   -4.0379 O   0  0  0  0  0  0  0  0  0  0  0  0
   -0.3954    1.2887    0.4814 C   0  0  0  0  0  0  0  0  0  0  0  0
   -1.2761    1.9015   -0.1256 O   0  0  0  0  0  0  0  0  0  0  0  0
    0.4051    1.8919    1.3699 N   0  0  0  0  0  0  0  0  0  0  0  0
    1.1380    1.3380    1.7875 H   0  0  0  0  0  0  0  0  0  0  0  0
    0.3573    3.3183    1.6807 C   0  0  0  0  0  0  0  0  0  0  0  0
   -0.6670    3.6090    1.9198 H   0  0  0  0  0  0  0  0  0  0  0  0
    1.0066    3.5397    2.5289 H   0  0  0  0  0  0  0  0  0  0  0  0
    0.6896    3.8897    0.8118 H   0  0  0  0  0  0  0  0  0  0  0  0
  5  6  2  0  0  0  0
  5  7  1  0  0  0  0
  2  3  1  0  0  0  0
  2  4  1  0  0  0  0
  2  5  1  0  0  0  0
  1  2  1  0  0  0  0
 20 21  2  0  0  0  0
 20 22  1  0  0  0  0
 17 18  1  0  0  0  0
 17 19  2  0  0  0  0
 14 15  1  0  0  0  0
 14 16  1  0  0  0  0
 14 17  1  0  0  0  0
 11 12  1  0  0  0  0
 11 13  1  0  0  0  0
 11 14  1  0  0  0  0
  9 10  1  0  0  0  0
  9 11  1  0  0  0  0
  9 20  1  0  0  0  0
  7  8  1  0  0  0  0
  7  9  1  0  0  0  0
 24 25  1  0  0  0  0
 24 26  1  0  0  0  0
 24 27  1  0  0  0  0
 22 23  1  0  0  0  0
 22 24  1  0  0  0  0
M  CHG  1  18  -1
M  END
$$$$
default_name
  -OEChem-02102213163D

 27 26  0     1  0  0  0  0  0999 V2000
   -3.2406   -3.5400    1.2326 H   0  0  0  0  0  0  0  0  0  0  0  0
   -3.1436   -2.6190    0.6606 C   0  0  0  0  0  0  0  0  0  0  0  0
   -3.8786   -1.8920    0.9996 H   0  0  0  0  0  0  0  0  0  0  0  0
   -3.2846   -2.8280   -0.3984 H   0  0  0  0  0  0  0  0  0  0  0  0
   -1.7586   -2.0580    0.8686 C   0  0  0  0  0  0  0  0  0  0  0  0
   -0.9666   -2.6340    1.6026 O   0  0  0  0  0  0  0  0  0  0  0  0
   -1.4866   -0.9220    0.2366 N   0  0  0  0  0  0  0  0  0  0  0  0
   -2.2166   -0.4790   -0.2994 H   0  0  0  0  0  0  0  0  0  0  0  0
   -0.1956   -0.2250    0.2596 C   0  0  1  0  0  0  0  0  0  0  0  0
    0.3927   -0.6026    1.0964 H   0  0  0  0  0  0  0  0  0  0  0  0
    0.5767   -0.5489   -1.0351 C   0  0  0  0  0  0  0  0  0  0  0  0
    1.6181   -0.2587   -0.8870 H   0  0  0  0  0  0  0  0  0  0  0  0
    0.5410   -1.6241   -1.2164 H   0  0  0  0  0  0  0  0  0  0  0  0
    0.0361    0.1894   -2.2713 C   0  0  0  0  0  0  0  0  0  0  0  0
   -0.5443   -0.5090   -2.8791 H   0  0  0  0  0  0  0  0  0  0  0  0
   -0.6375    0.9804   -1.9311 H   0  0  0  0  0  0  0  0  0  0  0  0
    1.1389    0.8046   -3.1455 C   0  0  0  0  0  0  0  0  0  0  0  0
    2.3171    0.7739   -2.7243 O   0  5  0  0  0  0  0  0  0  0  0  0
    0.7823    1.2798   -4.2465 O   0  0  0  0  0  0  0  0  0  0  0  0
   -0.3954    1.2887    0.4814 C   0  0  0  0  0  0  0  0  0  0  0  0
   -1.2761    1.9015   -0.1256 O   0  0  0  0  0  0  0  0  0  0  0  0
    0.4051    1.8919    1.3699 N   0  0  0  0  0  0  0  0  0  0  0  0
    1.1380    1.3380    1.7875 H   0  0  0  0  0  0  0  0  0  0  0  0
    0.3573    3.3183    1.6807 C   0  0  0  0  0  0  0  0  0  0  0  0
   -0.6670    3.6090    1.9198 H   0  0  0  0  0  0  0  0  0  0  0  0
    1.0066    3.5397    2.5289 H   0  0  0  0  0  0  0  0  0  0  0  0
    0.6896    3.8897    0.8118 H   0  0  0  0  0  0  0  0  0  0  0  0
  5  6  2  0  0  0  0
  5  7  1  0  0  0  0
  2  3  1  0  0  0  0
  2  4  1  0  0  0  0
  2  5  1  0  0  0  0
  1  2  1  0  0  0  0
 20 21  2  0  0  0  0
 20 22  1  0  0  0  0
 17 18  1  0  0  0  0
 17 19  2  0  0  0  0
 14 15  1  0  0  0  0
 14 16  1  0  0  0  0
 14 17  1  0  0  0  0
 11 12  1  0  0  0  0
 11 13  1  0  0  0  0
 11 14  1  0  0  0  0
  9 10  1  0  0  0  0
  9 11  1  0  0  0  0
  9 20  1  0  0  0  0
  7  8  1  0  0  0  0
  7  9  1  0  0  0  0
 24 25  1  0  0  0  0
 24 26  1  0  0  0  0
 24 27  1  0  0  0  0
 22 23  1  0  0  0  0
 22 24  1  0  0  0  0
M  CHG  1  18  -1
M  END
$$$$
default_name
  -OEChem-02102213163D

 27 26  0     1  0  0  0  0  0999 V2000
   -3.2406   -3.5400    1.2326 H   0  0  0  0  0  0  0  0  0  0  0  0
   -3.1436   -2.6190    0.6606 C   0  0  0  0  0  0  0  0  0  0  0  0
   -3.8786   -1.8920    0.9996 H   0  0  0  0  0  0  0  0  0  0  0  0
   -3.2846   -2.8280   -0.3984 H   0  0  0  0  0  0  0  0  0  0  0  0
   -1.7586   -2.0580    0.8686 C   0  0  0  0  0  0  0  0  0  0  0  0
   -0.9666   -2.6340    1.6026 O   0  0  0  0  0  0  0  0  0  0  0  0
   -1.4866   -0.9220    0.2366 N   0  0  0  0  0  0  0  0  0  0  0  0
   -2.2166   -0.4790   -0.2994 H   0  0  0  0  0  0  0  0  0  0  0  0
   -0.1956   -0.2250    0.2596 C   0  0  1  0  0  0  0  0  0  0  0  0
    0.3927   -0.6026    1.0964 H   0  0  0  0  0  0  0  0  0  0  0  0
    0.5767   -0.5489   -1.0351 C   0  0  0  0  0  0  0  0  0  0  0  0
    1.6181   -0.2587   -0.8870 H   0  0  0  0  0  0  0  0  0  0  0  0
    0.5410   -1.6241   -1.2164 H   0  0  0  0  0  0  0  0  0  0  0  0
    0.0361    0.1894   -2.2713 C   0  0  0  0  0  0  0  0  0  0  0  0
   -0.7496   -0.4139   -2.7325 H   0  0  0  0  0  0  0  0  0  0  0  0
   -0.4118    1.1301   -1.9404 H   0  0  0  0  0  0  0  0  0  0  0  0
    1.1134    0.4847   -3.3254 C   0  0  0  0  0  0  0  0  0  0  0  0
    2.3066    0.2357   -3.0412 O   0  5  0  0  0  0  0  0  0  0  0  0
    0.7162    0.9379   -4.4218 O   0  0  0  0  0  0  0  0  0  0  0  0
   -0.3954    1.2887    0.4814 C   0  0  0  0  0  0  0  0  0  0  0  0
   -1.2761    1.9015   -0.1256 O   0  0  0  0  0  0  0  0  0  0  0  0
    0.4051    1.8919    1.3699 N   0  0  0  0  0  0  0  0  0  0  0  0
    1.1380    1.3380    1.7875 H   0  0  0  0  0  0  0  0  0  0  0  0
    0.3573    3.3183    1.6807 C   0  0  0  0  0  0  0  0  0  0  0  0
   -0.6670    3.6090    1.9198 H   0  0  0  0  0  0  0  0  0  0  0  0
    1.0066    3.5397    2.5289 H   0  0  0  0  0  0  0  0  0  0  0  0
    0.6896    3.8897    0.8118 H   0  0  0  0  0  0  0  0  0  0  0  0
  5  6  2  0  0  0  0
  5  7  1  0  0  0  0
  2  3  1  0  0  0  0
  2  4  1  0  0  0  0
  2  5  1  0  0  0  0
  1  2  1  0  0  0  0
 20 21  2  0  0  0  0
 20 22  1  0  0  0  0
 17 18  1  0  0  0  0
 17 19  2  0  0  0  0
 14 15  1  0  0  0  0
 14 16  1  0  0  0  0
 14 17  1  0  0  0  0
 11 12  1  0  0  0  0
 11 13  1  0  0  0  0
 11 14  1  0  0  0  0
  9 10  1  0  0  0  0
  9 11  1  0  0  0  0
  9 20  1  0  0  0  0
  7  8  1  0  0  0  0
  7  9  1  0  0  0  0
 24 25  1  0  0  0  0
 24 26  1  0  0  0  0
 24 27  1  0  0  0  0
 22 23  1  0  0  0  0
 22 24  1  0  0  0  0
M  CHG  1  18  -1
M  END
$$$$
default_name
  -OEChem-02102213163D

 27 26  0     1  0  0  0  0  0999 V2000
   -3.2406   -3.5400    1.2326 H   0  0  0  0  0  0  0  0  0  0  0  0
   -3.1436   -2.6190    0.6606 C   0  0  0  0  0  0  0  0  0  0  0  0
   -3.8786   -1.8920    0.9996 H   0  0  0  0  0  0  0  0  0  0  0  0
   -3.2846   -2.8280   -0.3984 H   0  0  0  0  0  0  0  0  0  0  0  0
   -1.7586   -2.0580    0.8686 C   0  0  0  0  0  0  0  0  0  0  0  0
   -0.9666   -2.6340    1.6026 O   0  0  0  0  0  0  0  0  0  0  0  0
   -1.4866   -0.9220    0.2366 N   0  0  0  0  0  0  0  0  0  0  0  0
   -2.2166   -0.4790   -0.2994 H   0  0  0  0  0  0  0  0  0  0  0  0
   -0.1956   -0.2250    0.2596 C   0  0  1  0  0  0  0  0  0  0  0  0
    0.3927   -0.6026    1.0964 H   0  0  0  0  0  0  0  0  0  0  0  0
    0.5767   -0.5489   -1.0351 C   0  0  0  0  0  0  0  0  0  0  0  0
    1.6181   -0.2587   -0.8870 H   0  0  0  0  0  0  0  0  0  0  0  0
    0.5410   -1.6241   -1.2164 H   0  0  0  0  0  0  0  0  0  0  0  0
    0.0361    0.1894   -2.2713 C   0  0  0  0  0  0  0  0  0  0  0  0
   -0.9099   -0.2660   -2.5741 H   0  0  0  0  0  0  0  0  0  0  0  0
   -0.1639    1.2270   -1.9910 H   0  0  0  0  0  0  0  0  0  0  0  0
    0.9998    0.1646   -3.4669 C   0  0  0  0  0  0  0  0  0  0  0  0
    2.1451   -0.3108   -3.2969 O   0  5  0  0  0  0  0  0  0  0  0  0
    0.5594    0.6055   -4.5517 O   0  0  0  0  0  0  0  0  0  0  0  0
   -0.3954    1.2887    0.4814 C   0  0  0  0  0  0  0  0  0  0  0  0
   -1.2761    1.9015   -0.1256 O   0  0  0  0  0  0  0  0  0  0  0  0
    0.4051    1.8919    1.3699 N   0  0  0  0  0  0  0  0  0  0  0  0
    1.1380    1.3380    1.7875 H   0  0  0  0  0  0  0  0  0  0  0  0
    0.3573    3.3183    1.6807 C   0  0  0  0  0  0  0  0  0  0  0  0
   -0.6670    3.6090    1.9198 H   0  0  0  0  0  0  0  0  0  0  0  0
    1.0066    3.5397    2.5289 H   0  0  0  0  0  0  0  0  0  0  0  0
    0.6896    3.8897    0.8118 H   0  0  0  0  0  0  0  0  0  0  0  0
  5  6  2  0  0  0  0
  5  7  1  0  0  0  0
  2  3  1  0  0  0  0
  2  4  1  0  0  0  0
  2  5  1  0  0  0  0
  1  2  1  0  0  0  0
 20 21  2  0  0  0  0
 20 22  1  0  0  0  0
 17 18  1  0  0  0  0
 17 19  2  0  0  0  0
 14 15  1  0  0  0  0
 14 16  1  0  0  0  0
 14 17  1  0  0  0  0
 11 12  1  0  0  0  0
 11 13  1  0  0  0  0
 11 14  1  0  0  0  0
  9 10  1  0  0  0  0
  9 11  1  0  0  0  0
  9 20  1  0  0  0  0
  7  8  1  0  0  0  0
  7  9  1  0  0  0  0
 24 25  1  0  0  0  0
 24 26  1  0  0  0  0
 24 27  1  0  0  0  0
 22 23  1  0  0  0  0
 22 24  1  0  0  0  0
M  CHG  1  18  -1
M  END
$$$$
default_name
  -OEChem-02102213163D

 27 26  0     1  0  0  0  0  0999 V2000
   -3.2406   -3.5400    1.2326 H   0  0  0  0  0  0  0  0  0  0  0  0
   -3.1436   -2.6190    0.6606 C   0  0  0  0  0  0  0  0  0  0  0  0
   -3.8786   -1.8920    0.9996 H   0  0  0  0  0  0  0  0  0  0  0  0
   -3.2846   -2.8280   -0.3984 H   0  0  0  0  0  0  0  0  0  0  0  0
   -1.7586   -2.0580    0.8686 C   0  0  0  0  0  0  0  0  0  0  0  0
   -0.9666   -2.6340    1.6026 O   0  0  0  0  0  0  0  0  0  0  0  0
   -1.4866   -0.9220    0.2366 N   0  0  0  0  0  0  0  0  0  0  0  0
   -2.2166   -0.4790   -0.2994 H   0  0  0  0  0  0  0  0  0  0  0  0
   -0.1956   -0.2250    0.2596 C   0  0  1  0  0  0  0  0  0  0  0  0
    0.3927   -0.6026    1.0964 H   0  0  0  0  0  0  0  0  0  0  0  0
    0.5767   -0.5489   -1.0351 C   0  0  0  0  0  0  0  0  0  0  0  0
    1.6433   -0.5165   -0.8074 H   0  0  0  0  0  0  0  0  0  0  0  0
    0.3245   -1.5588   -1.3619 H   0  0  0  0  0  0  0  0  0  0  0  0
    0.2926    0.4376   -2.1804 C   0  0  0  0  0  0  0  0  0  0  0  0
   -0.7777    0.4311   -2.4002 H   0  0  0  0  0  0  0  0  0  0  0  0
    0.5612    1.4420   -1.8426 H   0  0  0  0  0  0  0  0  0  0  0  0
    1.0623    0.1141   -3.4695 C   0  0  0  0  0  0  0  0  0  0  0  0
    1.9191   -0.7977   -3.4369 O   0  5  0  0  0  0  0  0  0  0  0  0
    0.7585    0.7776   -4.4858 O   0  0  0  0  0  0  0  0  0  0  0  0
   -0.3954    1.2887    0.4814 C   0  0  0  0  0  0  0  0  0  0  0  0
   -1.2761    1.9015   -0.1256 O   0  0  0  0  0  0  0  0  0  0  0  0
    0.4051    1.8919    1.3699 N   0  0  0  0  0  0  0  0  0  0  0  0
    1.1380    1.3380    1.7875 H   0  0  0  0  0  0  0  0  0  0  0  0
    0.3573    3.3183    1.6807 C   0  0  0  0  0  0  0  0  0  0  0  0
   -0.6670    3.6090    1.9198 H   0  0  0  0  0  0  0  0  0  0  0  0
    1.0066    3.5397    2.5289 H   0  0  0  0  0  0  0  0  0  0  0  0
    0.6896    3.8897    0.8118 H   0  0  0  0  0  0  0  0  0  0  0  0
  5  6  2  0  0  0  0
  5  7  1  0  0  0  0
  2  3  1  0  0  0  0
  2  4  1  0  0  0  0
  2  5  1  0  0  0  0
  1  2  1  0  0  0  0
 20 21  2  0  0  0  0
 20 22  1  0  0  0  0
 17 18  1  0  0  0  0
 17 19  2  0  0  0  0
 14 15  1  0  0  0  0
 14 16  1  0  0  0  0
 14 17  1  0  0  0  0
 11 12  1  0  0  0  0
 11 13  1  0  0  0  0
 11 14  1  0  0  0  0
  9 10  1  0  0  0  0
  9 11  1  0  0  0  0
  9 20  1  0  0  0  0
  7  8  1  0  0  0  0
  7  9  1  0  0  0  0
 24 25  1  0  0  0  0
 24 26  1  0  0  0  0
 24 27  1  0  0  0  0
 22 23  1  0  0  0  0
 22 24  1  0  0  0  0
M  CHG  1  18  -1
M  END
$$$$
default_name
  -OEChem-02102213163D

 27 26  0     1  0  0  0  0  0999 V2000
   -3.2406   -3.5400    1.2326 H   0  0  0  0  0  0  0  0  0  0  0  0
   -3.1436   -2.6190    0.6606 C   0  0  0  0  0  0  0  0  0  0  0  0
   -3.8786   -1.8920    0.9996 H   0  0  0  0  0  0  0  0  0  0  0  0
   -3.2846   -2.8280   -0.3984 H   0  0  0  0  0  0  0  0  0  0  0  0
   -1.7586   -2.0580    0.8686 C   0  0  0  0  0  0  0  0  0  0  0  0
   -0.9666   -2.6340    1.6026 O   0  0  0  0  0  0  0  0  0  0  0  0
   -1.4866   -0.9220    0.2366 N   0  0  0  0  0  0  0  0  0  0  0  0
   -2.2166   -0.4790   -0.2994 H   0  0  0  0  0  0  0  0  0  0  0  0
   -0.1956   -0.2250    0.2596 C   0  0  1  0  0  0  0  0  0  0  0  0
    0.3927   -0.6026    1.0964 H   0  0  0  0  0  0  0  0  0  0  0  0
    0.5767   -0.5489   -1.0351 C   0  0  0  0  0  0  0  0  0  0  0  0
    1.6433   -0.5165   -0.8074 H   0  0  0  0  0  0  0  0  0  0  0  0
    0.3245   -1.5588   -1.3619 H   0  0  0  0  0  0  0  0  0  0  0  0
    0.2926    0.4376   -2.1804 C   0  0  0  0  0  0  0  0  0  0  0  0
   -0.7813    0.6349   -2.2238 H   0  0  0  0  0  0  0  0  0  0  0  0
    0.7996    1.3796   -1.9554 H   0  0  0  0  0  0  0  0  0  0  0  0
    0.7559   -0.0715   -3.5534 C   0  0  0  0  0  0  0  0  0  0  0  0
    1.4180   -1.1326   -3.6010 O   0  5  0  0  0  0  0  0  0  0  0  0
    0.4138    0.6064   -4.5477 O   0  0  0  0  0  0  0  0  0  0  0  0
   -0.3954    1.2887    0.4814 C   0  0  0  0  0  0  0  0  0  0  0  0
   -1.2761    1.9015   -0.1256 O   0  0  0  0  0  0  0  0  0  0  0  0
    0.4051    1.8919    1.3699 N   0  0  0  0  0  0  0  0  0  0  0  0
    1.1380    1.3380    1.7875 H   0  0  0  0  0  0  0  0  0  0  0  0
    0.3573    3.3183    1.6807 C   0  0  0  0  0  0  0  0  0  0  0  0
   -0.6670    3.6090    1.9198 H   0  0  0  0  0  0  0  0  0  0  0  0
    1.0066    3.5397    2.5289 H   0  0  0  0  0  0  0  0  0  0  0  0
    0.6896    3.8897    0.8118 H   0  0  0  0  0  0  0  0  0  0  0  0
  5  6  2  0  0  0  0
  5  7  1  0  0  0  0
  2  3  1  0  0  0  0
  2  4  1  0  0  0  0
  2  5  1  0  0  0  0
  1  2  1  0  0  0  0
 20 21  2  0  0  0  0
 20 22  1  0  0  0  0
 17 18  1  0  0  0  0
 17 19  2  0  0  0  0
 14 15  1  0  0  0  0
 14 16  1  0  0  0  0
 14 17  1  0  0  0  0
 11 12  1  0  0  0  0
 11 13  1  0  0  0  0
 11 14  1  0  0  0  0
  9 10  1  0  0  0  0
  9 11  1  0  0  0  0
  9 20  1  0  0  0  0
  7  8  1  0  0  0  0
  7  9  1  0  0  0  0
 24 25  1  0  0  0  0
 24 26  1  0  0  0  0
 24 27  1  0  0  0  0
 22 23  1  0  0  0  0
 22 24  1  0  0  0  0
M  CHG  1  18  -1
M  END
$$$$
default_name
  -OEChem-02102213163D

 27 26  0     1  0  0  0  0  0999 V2000
   -3.2406   -3.5400    1.2326 H   0  0  0  0  0  0  0  0  0  0  0  0
   -3.1436   -2.6190    0.6606 C   0  0  0  0  0  0  0  0  0  0  0  0
   -3.8786   -1.8920    0.9996 H   0  0  0  0  0  0  0  0  0  0  0  0
   -3.2846   -2.8280   -0.3984 H   0  0  0  0  0  0  0  0  0  0  0  0
   -1.7586   -2.0580    0.8686 C   0  0  0  0  0  0  0  0  0  0  0  0
   -0.9666   -2.6340    1.6026 O   0  0  0  0  0  0  0  0  0  0  0  0
   -1.4866   -0.9220    0.2366 N   0  0  0  0  0  0  0  0  0  0  0  0
   -2.2166   -0.4790   -0.2994 H   0  0  0  0  0  0  0  0  0  0  0  0
   -0.1956   -0.2250    0.2596 C   0  0  1  0  0  0  0  0  0  0  0  0
    0.3927   -0.6026    1.0964 H   0  0  0  0  0  0  0  0  0  0  0  0
    0.5767   -0.5489   -1.0351 C   0  0  0  0  0  0  0  0  0  0  0  0
    1.6433   -0.5165   -0.8074 H   0  0  0  0  0  0  0  0  0  0  0  0
    0.3245   -1.5588   -1.3619 H   0  0  0  0  0  0  0  0  0  0  0  0
    0.2926    0.4376   -2.1804 C   0  0  0  0  0  0  0  0  0  0  0  0
   -0.7161    0.8409   -2.0625 H   0  0  0  0  0  0  0  0  0  0  0  0
    0.9990    1.2681   -2.1010 H   0  0  0  0  0  0  0  0  0  0  0  0
    0.4102   -0.1958   -3.5746 C   0  0  0  0  0  0  0  0  0  0  0  0
    0.8422   -1.3673   -3.6604 O   0  5  0  0  0  0  0  0  0  0  0  0
    0.0376    0.5045   -4.5422 O   0  0  0  0  0  0  0  0  0  0  0  0
   -0.3954    1.2887    0.4814 C   0  0  0  0  0  0  0  0  0  0  0  0
   -1.2761    1.9015   -0.1256 O   0  0  0  0  0  0  0  0  0  0  0  0
    0.4051    1.8919    1.3699 N   0  0  0  0  0  0  0  0  0  0  0  0
    1.1380    1.3380    1.7875 H   0  0  0  0  0  0  0  0  0  0  0  0
    0.3573    3.3183    1.6807 C   0  0  0  0  0  0  0  0  0  0  0  0
   -0.6670    3.6090    1.9198 H   0  0  0  0  0  0  0  0  0  0  0  0
    1.0066    3.5397    2.5289 H   0  0  0  0  0  0  0  0  0  0  0  0
    0.6896    3.8897    0.8118 H   0  0  0  0  0  0  0  0  0  0  0  0
  5  6  2  0  0  0  0
  5  7  1  0  0  0  0
  2  3  1  0  0  0  0
  2  4  1  0  0  0  0
  2  5  1  0  0  0  0
  1  2  1  0  0  0  0
 20 21  2  0  0  0  0
 20 22  1  0  0  0  0
 17 18  1  0  0  0  0
 17 19  2  0  0  0  0
 14 15  1  0  0  0  0
 14 16  1  0  0  0  0
 14 17  1  0  0  0  0
 11 12  1  0  0  0  0
 11 13  1  0  0  0  0
 11 14  1  0  0  0  0
  9 10  1  0  0  0  0
  9 11  1  0  0  0  0
  9 20  1  0  0  0  0
  7  8  1  0  0  0  0
  7  9  1  0  0  0  0
 24 25  1  0  0  0  0
 24 26  1  0  0  0  0
 24 27  1  0  0  0  0
 22 23  1  0  0  0  0
 22 24  1  0  0  0  0
M  CHG  1  18  -1
M  END
$$$$
default_name
  -OEChem-02102213163D

 27 26  0     1  0  0  0  0  0999 V2000
   -3.2406   -3.5400    1.2326 H   0  0  0  0  0  0  0  0  0  0  0  0
   -3.1436   -2.6190    0.6606 C   0  0  0  0  0  0  0  0  0  0  0  0
   -3.8786   -1.8920    0.9996 H   0  0  0  0  0  0  0  0  0  0  0  0
   -3.2846   -2.8280   -0.3984 H   0  0  0  0  0  0  0  0  0  0  0  0
   -1.7586   -2.0580    0.8686 C   0  0  0  0  0  0  0  0  0  0  0  0
   -0.9666   -2.6340    1.6026 O   0  0  0  0  0  0  0  0  0  0  0  0
   -1.4866   -0.9220    0.2366 N   0  0  0  0  0  0  0  0  0  0  0  0
   -2.2166   -0.4790   -0.2994 H   0  0  0  0  0  0  0  0  0  0  0  0
   -0.1956   -0.2250    0.2596 C   0  0  1  0  0  0  0  0  0  0  0  0
    0.3927   -0.6026    1.0964 H   0  0  0  0  0  0  0  0  0  0  0  0
    0.5767   -0.5489   -1.0351 C   0  0  0  0  0  0  0  0  0  0  0  0
    1.6433   -0.5165   -0.8074 H   0  0  0  0  0  0  0  0  0  0  0  0
    0.3245   -1.5588   -1.3619 H   0  0  0  0  0  0  0  0  0  0  0  0
    0.2926    0.4376   -2.1804 C   0  0  0  0  0  0  0  0  0  0  0  0
   -0.5867    1.0350   -1.9275 H   0  0  0  0  0  0  0  0  0  0  0  0
    1.1460    1.1149   -2.2694 H   0  0  0  0  0  0  0  0  0  0  0  0
    0.0488   -0.2502   -3.5319 C   0  0  0  0  0  0  0  0  0  0  0  0
    0.2309   -1.4860   -3.6109 O   0  5  0  0  0  0  0  0  0  0  0  0
   -0.3446    0.4788   -4.4695 O   0  0  0  0  0  0  0  0  0  0  0  0
   -0.3954    1.2887    0.4814 C   0  0  0  0  0  0  0  0  0  0  0  0
   -1.2761    1.9015   -0.1256 O   0  0  0  0  0  0  0  0  0  0  0  0
    0.4051    1.8919    1.3699 N   0  0  0  0  0  0  0  0  0  0  0  0
    1.1380    1.3380    1.7875 H   0  0  0  0  0  0  0  0  0  0  0  0
    0.3573    3.3183    1.6807 C   0  0  0  0  0  0  0  0  0  0  0  0
   -0.6670    3.6090    1.9198 H   0  0  0  0  0  0  0  0  0  0  0  0
    1.0066    3.5397    2.5289 H   0  0  0  0  0  0  0  0  0  0  0  0
    0.6896    3.8897    0.8118 H   0  0  0  0  0  0  0  0  0  0  0  0
  5  6  2  0  0  0  0
  5  7  1  0  0  0  0
  2  3  1  0  0  0  0
  2  4  1  0  0  0  0
  2  5  1  0  0  0  0
  1  2  1  0  0  0  0
 20 21  2  0  0  0  0
 20 22  1  0  0  0  0
 17 18  1  0  0  0  0
 17 19  2  0  0  0  0
 14 15  1  0  0  0  0
 14 16  1  0  0  0  0
 14 17  1  0  0  0  0
 11 12  1  0  0  0  0
 11 13  1  0  0  0  0
 11 14  1  0  0  0  0
  9 10  1  0  0  0  0
  9 11  1  0  0  0  0
  9 20  1  0  0  0  0
  7  8  1  0  0  0  0
  7  9  1  0  0  0  0
 24 25  1  0  0  0  0
 24 26  1  0  0  0  0
 24 27  1  0  0  0  0
 22 23  1  0  0  0  0
 22 24  1  0  0  0  0
M  CHG  1  18  -1
M  END
$$$$
default_name
  -OEChem-02102213163D

 27 26  0     1  0  0  0  0  0999 V2000
   -3.2406   -3.5400    1.2326 H   0  0  0  0  0  0  0  0  0  0  0  0
   -3.1436   -2.6190    0.6606 C   0  0  0  0  0  0  0  0  0  0  0  0
   -3.8786   -1.8920    0.9996 H   0  0  0  0  0  0  0  0  0  0  0  0
   -3.2846   -2.8280   -0.3984 H   0  0  0  0  0  0  0  0  0  0  0  0
   -1.7586   -2.0580    0.8686 C   0  0  0  0  0  0  0  0  0  0  0  0
   -0.9666   -2.6340    1.6026 O   0  0  0  0  0  0  0  0  0  0  0  0
   -1.4866   -0.9220    0.2366 N   0  0  0  0  0  0  0  0  0  0  0  0
   -2.2166   -0.4790   -0.2994 H   0  0  0  0  0  0  0  0  0  0  0  0
   -0.1956   -0.2250    0.2596 C   0  0  1  0  0  0  0  0  0  0  0  0
    0.3927   -0.6026    1.0964 H   0  0  0  0  0  0  0  0  0  0  0  0
    0.5767   -0.5489   -1.0351 C   0  0  0  0  0  0  0  0  0  0  0  0
    1.6433   -0.5165   -0.8074 H   0  0  0  0  0  0  0  0  0  0  0  0
    0.3245   -1.5588   -1.3619 H   0  0  0  0  0  0  0  0  0  0  0  0
    0.2926    0.4376   -2.1804 C   0  0  0  0  0  0  0  0  0  0  0  0
   -0.4018    1.2040   -1.8278 H   0  0  0  0  0  0  0  0  0  0  0  0
    1.2306    0.9306   -2.4491 H   0  0  0  0  0  0  0  0  0  0  0  0
   -0.3036   -0.2311   -3.4279 C   0  0  0  0  0  0  0  0  0  0  0  0
   -0.3742   -1.4804   -3.4560 O   0  5  0  0  0  0  0  0  0  0  0  0
   -0.7065    0.5311   -4.3346 O   0  0  0  0  0  0  0  0  0  0  0  0
   -0.3954    1.2887    0.4814 C   0  0  0  0  0  0  0  0  0  0  0  0
   -1.2761    1.9015   -0.1256 O   0  0  0  0  0  0  0  0  0  0  0  0
    0.4051    1.8919    1.3699 N   0  0  0  0  0  0  0  0  0  0  0  0
    1.1380    1.3380    1.7875 H   0  0  0  0  0  0  0  0  0  0  0  0
    0.3573    3.3183    1.6807 C   0  0  0  0  0  0  0  0  0  0  0  0
   -0.6670    3.6090    1.9198 H   0  0  0  0  0  0  0  0  0  0  0  0
    1.0066    3.5397    2.5289 H   0  0  0  0  0  0  0  0  0  0  0  0
    0.6896    3.8897    0.8118 H   0  0  0  0  0  0  0  0  0  0  0  0
  5  6  2  0  0  0  0
  5  7  1  0  0  0  0
  2  3  1  0  0  0  0
  2  4  1  0  0  0  0
  2  5  1  0  0  0  0
  1  2  1  0  0  0  0
 20 21  2  0  0  0  0
 20 22  1  0  0  0  0
 17 18  1  0  0  0  0
 17 19  2  0  0  0  0
 14 15  1  0  0  0  0
 14 16  1  0  0  0  0
 14 17  1  0  0  0  0
 11 12  1  0  0  0  0
 11 13  1  0  0  0  0
 11 14  1  0  0  0  0
  9 10  1  0  0  0  0
  9 11  1  0  0  0  0
  9 20  1  0  0  0  0
  7  8  1  0  0  0  0
  7  9  1  0  0  0  0
 24 25  1  0  0  0  0
 24 26  1  0  0  0  0
 24 27  1  0  0  0  0
 22 23  1  0  0  0  0
 22 24  1  0  0  0  0
M  CHG  1  18  -1
M  END
$$$$
default_name
  -OEChem-02102213163D

 27 26  0     1  0  0  0  0  0999 V2000
   -3.2406   -3.5400    1.2326 H   0  0  0  0  0  0  0  0  0  0  0  0
   -3.1436   -2.6190    0.6606 C   0  0  0  0  0  0  0  0  0  0  0  0
   -3.8786   -1.8920    0.9996 H   0  0  0  0  0  0  0  0  0  0  0  0
   -3.2846   -2.8280   -0.3984 H   0  0  0  0  0  0  0  0  0  0  0  0
   -1.7586   -2.0580    0.8686 C   0  0  0  0  0  0  0  0  0  0  0  0
   -0.9666   -2.6340    1.6026 O   0  0  0  0  0  0  0  0  0  0  0  0
   -1.4866   -0.9220    0.2366 N   0  0  0  0  0  0  0  0  0  0  0  0
   -2.2166   -0.4790   -0.2994 H   0  0  0  0  0  0  0  0  0  0  0  0
   -0.1956   -0.2250    0.2596 C   0  0  1  0  0  0  0  0  0  0  0  0
    0.3927   -0.6026    1.0964 H   0  0  0  0  0  0  0  0  0  0  0  0
    0.5767   -0.5489   -1.0351 C   0  0  0  0  0  0  0  0  0  0  0  0
    1.6433   -0.5165   -0.8074 H   0  0  0  0  0  0  0  0  0  0  0  0
    0.3245   -1.5588   -1.3619 H   0  0  0  0  0  0  0  0  0  0  0  0
    0.2926    0.4376   -2.1804 C   0  0  0  0  0  0  0  0  0  0  0  0
   -0.1742    1.3364   -1.7702 H   0  0  0  0  0  0  0  0  0  0  0  0
    1.2469    0.7277   -2.6280 H   0  0  0  0  0  0  0  0  0  0  0  0
   -0.6231   -0.1397   -3.2700 C   0  0  0  0  0  0  0  0  0  0  0  0
   -0.9319   -1.3509   -3.2061 O   0  5  0  0  0  0  0  0  0  0  0  0
   -1.0237    0.6579   -4.1467 O   0  0  0  0  0  0  0  0  0  0  0  0
   -0.3954    1.2887    0.4814 C   0  0  0  0  0  0  0  0  0  0  0  0
   -1.2761    1.9015   -0.1256 O   0  0  0  0  0  0  0  0  0  0  0  0
    0.4051    1.8919    1.3699 N   0  0  0  0  0  0  0  0  0  0  0  0
    1.1380    1.3380    1.7875 H   0  0  0  0  0  0  0  0  0  0  0  0
    0.3573    3.3183    1.6807 C   0  0  0  0  0  0  0  0  0  0  0  0
   -0.6670    3.6090    1.9198 H   0  0  0  0  0  0  0  0  0  0  0  0
    1.0066    3.5397    2.5289 H   0  0  0  0  0  0  0  0  0  0  0  0
    0.6896    3.8897    0.8118 H   0  0  0  0  0  0  0  0  0  0  0  0
  5  6  2  0  0  0  0
  5  7  1  0  0  0  0
  2  3  1  0  0  0  0
  2  4  1  0  0  0  0
  2  5  1  0  0  0  0
  1  2  1  0  0  0  0
 20 21  2  0  0  0  0
 20 22  1  0  0  0  0
 17 18  1  0  0  0  0
 17 19  2  0  0  0  0
 14 15  1  0  0  0  0
 14 16  1  0  0  0  0
 14 17  1  0  0  0  0
 11 12  1  0  0  0  0
 11 13  1  0  0  0  0
 11 14  1  0  0  0  0
  9 10  1  0  0  0  0
  9 11  1  0  0  0  0
  9 20  1  0  0  0  0
  7  8  1  0  0  0  0
  7  9  1  0  0  0  0
 24 25  1  0  0  0  0
 24 26  1  0  0  0  0
 24 27  1  0  0  0  0
 22 23  1  0  0  0  0
 22 24  1  0  0  0  0
M  CHG  1  18  -1
M  END
$$$$
default_name
  -OEChem-02102213163D

 27 26  0     1  0  0  0  0  0999 V2000
   -3.2406   -3.5400    1.2326 H   0  0  0  0  0  0  0  0  0  0  0  0
   -3.1436   -2.6190    0.6606 C   0  0  0  0  0  0  0  0  0  0  0  0
   -3.8786   -1.8920    0.9996 H   0  0  0  0  0  0  0  0  0  0  0  0
   -3.2846   -2.8280   -0.3984 H   0  0  0  0  0  0  0  0  0  0  0  0
   -1.7586   -2.0580    0.8686 C   0  0  0  0  0  0  0  0  0  0  0  0
   -0.9666   -2.6340    1.6026 O   0  0  0  0  0  0  0  0  0  0  0  0
   -1.4866   -0.9220    0.2366 N   0  0  0  0  0  0  0  0  0  0  0  0
   -2.2166   -0.4790   -0.2994 H   0  0  0  0  0  0  0  0  0  0  0  0
   -0.1956   -0.2250    0.2596 C   0  0  1  0  0  0  0  0  0  0  0  0
    0.3927   -0.6026    1.0964 H   0  0  0  0  0  0  0  0  0  0  0  0
    0.5767   -0.5489   -1.0351 C   0  0  0  0  0  0  0  0  0  0  0  0
    1.6433   -0.5165   -0.8074 H   0  0  0  0  0  0  0  0  0  0  0  0
    0.3245   -1.5588   -1.3619 H   0  0  0  0  0  0  0  0  0  0  0  0
    0.2926    0.4376   -2.1804 C   0  0  0  0  0  0  0  0  0  0  0  0
    0.0808    1.4231   -1.7587 H   0  0  0  0  0  0  0  0  0  0  0  0
    1.1938    0.5200   -2.7937 H   0  0  0  0  0  0  0  0  0  0  0  0
   -0.8879    0.0177   -3.0687 C   0  0  0  0  0  0  0  0  0  0  0  0
   -1.4041   -1.1065   -2.8784 O   0  5  0  0  0  0  0  0  0  0  0  0
   -1.2744    0.8504   -3.9186 O   0  0  0  0  0  0  0  0  0  0  0  0
   -0.3954    1.2887    0.4814 C   0  0  0  0  0  0  0  0  0  0  0  0
   -1.2761    1.9015   -0.1256 O   0  0  0  0  0  0  0  0  0  0  0  0
    0.4051    1.8919    1.3699 N   0  0  0  0  0  0  0  0  0  0  0  0
    1.1380    1.3380    1.7875 H   0  0  0  0  0  0  0  0  0  0  0  0
    0.3573    3.3183    1.6807 C   0  0  0  0  0  0  0  0  0  0  0  0
   -0.6670    3.6090    1.9198 H   0  0  0  0  0  0  0  0  0  0  0  0
    1.0066    3.5397    2.5289 H   0  0  0  0  0  0  0  0  0  0  0  0
    0.6896    3.8897    0.8118 H   0  0  0  0  0  0  0  0  0  0  0  0
  5  6  2  0  0  0  0
  5  7  1  0  0  0  0
  2  3  1  0  0  0  0
  2  4  1  0  0  0  0
  2  5  1  0  0  0  0
  1  2  1  0  0  0  0
 20 21  2  0  0  0  0
 20 22  1  0  0  0  0
 17 18  1  0  0  0  0
 17 19  2  0  0  0  0
 14 15  1  0  0  0  0
 14 16  1  0  0  0  0
 14 17  1  0  0  0  0
 11 12  1  0  0  0  0
 11 13  1  0  0  0  0
 11 14  1  0  0  0  0
  9 10  1  0  0  0  0
  9 11  1  0  0  0  0
  9 20  1  0  0  0  0
  7  8  1  0  0  0  0
  7  9  1  0  0  0  0
 24 25  1  0  0  0  0
 24 26  1  0  0  0  0
 24 27  1  0  0  0  0
 22 23  1  0  0  0  0
 22 24  1  0  0  0  0
M  CHG  1  18  -1
M  END
$$$$
default_name
  -OEChem-02102213163D

 27 26  0     1  0  0  0  0  0999 V2000
   -3.2406   -3.5400    1.2326 H   0  0  0  0  0  0  0  0  0  0  0  0
   -3.1436   -2.6190    0.6606 C   0  0  0  0  0  0  0  0  0  0  0  0
   -3.8786   -1.8920    0.9996 H   0  0  0  0  0  0  0  0  0  0  0  0
   -3.2846   -2.8280   -0.3984 H   0  0  0  0  0  0  0  0  0  0  0  0
   -1.7586   -2.0580    0.8686 C   0  0  0  0  0  0  0  0  0  0  0  0
   -0.9666   -2.6340    1.6026 O   0  0  0  0  0  0  0  0  0  0  0  0
   -1.4866   -0.9220    0.2366 N   0  0  0  0  0  0  0  0  0  0  0  0
   -2.2166   -0.4790   -0.2994 H   0  0  0  0  0  0  0  0  0  0  0  0
   -0.1956   -0.2250    0.2596 C   0  0  1  0  0  0  0  0  0  0  0  0
    0.3927   -0.6026    1.0964 H   0  0  0  0  0  0  0  0  0  0  0  0
    0.5767   -0.5489   -1.0351 C   0  0  0  0  0  0  0  0  0  0  0  0
    1.6433   -0.5165   -0.8074 H   0  0  0  0  0  0  0  0  0  0  0  0
    0.3245   -1.5588   -1.3619 H   0  0  0  0  0  0  0  0  0  0  0  0
    0.2926    0.4376   -2.1804 C   0  0  0  0  0  0  0  0  0  0  0  0
    0.3457    1.4583   -1.7941 H   0  0  0  0  0  0  0  0  0  0  0  0
    1.0750    0.3216   -2.9351 H   0  0  0  0  0  0  0  0  0  0  0  0
   -1.0799    0.2303   -2.8379 C   0  0  0  0  0  0  0  0  0  0  0  0
   -1.7588   -0.7637   -2.4951 O   0  5  0  0  0  0  0  0  0  0  0  0
   -1.4417    1.0957   -3.6659 O   0  0  0  0  0  0  0  0  0  0  0  0
   -0.3954    1.2887    0.4814 C   0  0  0  0  0  0  0  0  0  0  0  0
   -1.2761    1.9015   -0.1256 O   0  0  0  0  0  0  0  0  0  0  0  0
    0.4051    1.8919    1.3699 N   0  0  0  0  0  0  0  0  0  0  0  0
    1.1380    1.3380    1.7875 H   0  0  0  0  0  0  0  0  0  0  0  0
    0.3573    3.3183    1.6807 C   0  0  0  0  0  0  0  0  0  0  0  0
   -0.6670    3.6090    1.9198 H   0  0  0  0  0  0  0  0  0  0  0  0
    1.0066    3.5397    2.5289 H   0  0  0  0  0  0  0  0  0  0  0  0
    0.6896    3.8897    0.8118 H   0  0  0  0  0  0  0  0  0  0  0  0
  5  6  2  0  0  0  0
  5  7  1  0  0  0  0
  2  3  1  0  0  0  0
  2  4  1  0  0  0  0
  2  5  1  0  0  0  0
  1  2  1  0  0  0  0
 20 21  2  0  0  0  0
 20 22  1  0  0  0  0
 17 18  1  0  0  0  0
 17 19  2  0  0  0  0
 14 15  1  0  0  0  0
 14 16  1  0  0  0  0
 14 17  1  0  0  0  0
 11 12  1  0  0  0  0
 11 13  1  0  0  0  0
 11 14  1  0  0  0  0
  9 10  1  0  0  0  0
  9 11  1  0  0  0  0
  9 20  1  0  0  0  0
  7  8  1  0  0  0  0
  7  9  1  0  0  0  0
 24 25  1  0  0  0  0
 24 26  1  0  0  0  0
 24 27  1  0  0  0  0
 22 23  1  0  0  0  0
 22 24  1  0  0  0  0
M  CHG  1  18  -1
M  END
$$$$
default_name
  -OEChem-02102213163D

 27 26  0     1  0  0  0  0  0999 V2000
   -3.2406   -3.5400    1.2326 H   0  0  0  0  0  0  0  0  0  0  0  0
   -3.1436   -2.6190    0.6606 C   0  0  0  0  0  0  0  0  0  0  0  0
   -3.8786   -1.8920    0.9996 H   0  0  0  0  0  0  0  0  0  0  0  0
   -3.2846   -2.8280   -0.3984 H   0  0  0  0  0  0  0  0  0  0  0  0
   -1.7586   -2.0580    0.8686 C   0  0  0  0  0  0  0  0  0  0  0  0
   -0.9666   -2.6340    1.6026 O   0  0  0  0  0  0  0  0  0  0  0  0
   -1.4866   -0.9220    0.2366 N   0  0  0  0  0  0  0  0  0  0  0  0
   -2.2166   -0.4790   -0.2994 H   0  0  0  0  0  0  0  0  0  0  0  0
   -0.1956   -0.2250    0.2596 C   0  0  1  0  0  0  0  0  0  0  0  0
    0.3927   -0.6026    1.0964 H   0  0  0  0  0  0  0  0  0  0  0  0
    0.5767   -0.5489   -1.0351 C   0  0  0  0  0  0  0  0  0  0  0  0
    1.6433   -0.5165   -0.8074 H   0  0  0  0  0  0  0  0  0  0  0  0
    0.3245   -1.5588   -1.3619 H   0  0  0  0  0  0  0  0  0  0  0  0
    0.2926    0.4376   -2.1804 C   0  0  0  0  0  0  0  0  0  0  0  0
    0.6025    1.4396   -1.8740 H   0  0  0  0  0  0  0  0  0  0  0  0
    0.8985    0.1462   -3.0424 H   0  0  0  0  0  0  0  0  0  0  0  0
   -1.1861    0.4838   -2.5932 C   0  0  0  0  0  0  0  0  0  0  0  0
   -1.9717   -0.3459   -2.0824 O   0  5  0  0  0  0  0  0  0  0  0  0
   -1.5140    1.3768   -3.4058 O   0  0  0  0  0  0  0  0  0  0  0  0
   -0.3954    1.2887    0.4814 C   0  0  0  0  0  0  0  0  0  0  0  0
   -1.2761    1.9015   -0.1256 O   0  0  0  0  0  0  0  0  0  0  0  0
    0.4051    1.8919    1.3699 N   0  0  0  0  0  0  0  0  0  0  0  0
    1.1380    1.3380    1.7875 H   0  0  0  0  0  0  0  0  0  0  0  0
    0.3573    3.3183    1.6807 C   0  0  0  0  0  0  0  0  0  0  0  0
   -0.6670    3.6090    1.9198 H   0  0  0  0  0  0  0  0  0  0  0  0
    1.0066    3.5397    2.5289 H   0  0  0  0  0  0  0  0  0  0  0  0
    0.6896    3.8897    0.8118 H   0  0  0  0  0  0  0  0  0  0  0  0
  5  6  2  0  0  0  0
  5  7  1  0  0  0  0
  2  3  1  0  0  0  0
  2  4  1  0  0  0  0
  2  5  1  0  0  0  0
  1  2  1  0  0  0  0
 20 21  2  0  0  0  0
 20 22  1  0  0  0  0
 17 18  1  0  0  0  0
 17 19  2  0  0  0  0
 14 15  1  0  0  0  0
 14 16  1  0  0  0  0
 14 17  1  0  0  0  0
 11 12  1  0  0  0  0
 11 13  1  0  0  0  0
 11 14  1  0  0  0  0
  9 10  1  0  0  0  0
  9 11  1  0  0  0  0
  9 20  1  0  0  0  0
  7  8  1  0  0  0  0
  7  9  1  0  0  0  0
 24 25  1  0  0  0  0
 24 26  1  0  0  0  0
 24 27  1  0  0  0  0
 22 23  1  0  0  0  0
 22 24  1  0  0  0  0
M  CHG  1  18  -1
M  END
$$$$
default_name
  -OEChem-02102213163D

 27 26  0     1  0  0  0  0  0999 V2000
   -3.2406   -3.5400    1.2326 H   0  0  0  0  0  0  0  0  0  0  0  0
   -3.1436   -2.6190    0.6606 C   0  0  0  0  0  0  0  0  0  0  0  0
   -3.8786   -1.8920    0.9996 H   0  0  0  0  0  0  0  0  0  0  0  0
   -3.2846   -2.8280   -0.3984 H   0  0  0  0  0  0  0  0  0  0  0  0
   -1.7586   -2.0580    0.8686 C   0  0  0  0  0  0  0  0  0  0  0  0
   -0.9666   -2.6340    1.6026 O   0  0  0  0  0  0  0  0  0  0  0  0
   -1.4866   -0.9220    0.2366 N   0  0  0  0  0  0  0  0  0  0  0  0
   -2.2166   -0.4790   -0.2994 H   0  0  0  0  0  0  0  0  0  0  0  0
   -0.1956   -0.2250    0.2596 C   0  0  1  0  0  0  0  0  0  0  0  0
    0.3927   -0.6026    1.0964 H   0  0  0  0  0  0  0  0  0  0  0  0
    0.5767   -0.5489   -1.0351 C   0  0  0  0  0  0  0  0  0  0  0  0
    1.6433   -0.5165   -0.8074 H   0  0  0  0  0  0  0  0  0  0  0  0
    0.3245   -1.5588   -1.3619 H   0  0  0  0  0  0  0  0  0  0  0  0
    0.2926    0.4376   -2.1804 C   0  0  0  0  0  0  0  0  0  0  0  0
    0.8336    1.3682   -1.9929 H   0  0  0  0  0  0  0  0  0  0  0  0
    0.6765    0.0056   -3.1084 H   0  0  0  0  0  0  0  0  0  0  0  0
   -1.1992    0.7608   -2.3514 C   0  0  0  0  0  0  0  0  0  0  0  0
   -2.0283    0.1184   -1.6684 O   0  5  0  0  0  0  0  0  0  0  0  0
   -1.4865    1.6748   -3.1559 O   0  0  0  0  0  0  0  0  0  0  0  0
   -0.3954    1.2887    0.4814 C   0  0  0  0  0  0  0  0  0  0  0  0
   -1.2761    1.9015   -0.1256 O   0  0  0  0  0  0  0  0  0  0  0  0
    0.4051    1.8919    1.3699 N   0  0  0  0  0  0  0  0  0  0  0  0
    1.1380    1.3380    1.7875 H   0  0  0  0  0  0  0  0  0  0  0  0
    0.3573    3.3183    1.6807 C   0  0  0  0  0  0  0  0  0  0  0  0
   -0.6670    3.6090    1.9198 H   0  0  0  0  0  0  0  0  0  0  0  0
    1.0066    3.5397    2.5289 H   0  0  0  0  0  0  0  0  0  0  0  0
    0.6896    3.8897    0.8118 H   0  0  0  0  0  0  0  0  0  0  0  0
  5  6  2  0  0  0  0
  5  7  1  0  0  0  0
  2  3  1  0  0  0  0
  2  4  1  0  0  0  0
  2  5  1  0  0  0  0
  1  2  1  0  0  0  0
 20 21  2  0  0  0  0
 20 22  1  0  0  0  0
 17 18  1  0  0  0  0
 17 19  2  0  0  0  0
 14 15  1  0  0  0  0
 14 16  1  0  0  0  0
 14 17  1  0  0  0  0
 11 12  1  0  0  0  0
 11 13  1  0  0  0  0
 11 14  1  0  0  0  0
  9 10  1  0  0  0  0
  9 11  1  0  0  0  0
  9 20  1  0  0  0  0
  7  8  1  0  0  0  0
  7  9  1  0  0  0  0
 24 25  1  0  0  0  0
 24 26  1  0  0  0  0
 24 27  1  0  0  0  0
 22 23  1  0  0  0  0
 22 24  1  0  0  0  0
M  CHG  1  18  -1
M  END
$$$$
default_name
  -OEChem-02102213163D

 27 26  0     1  0  0  0  0  0999 V2000
   -3.2406   -3.5400    1.2326 H   0  0  0  0  0  0  0  0  0  0  0  0
   -3.1436   -2.6190    0.6606 C   0  0  0  0  0  0  0  0  0  0  0  0
   -3.8786   -1.8920    0.9996 H   0  0  0  0  0  0  0  0  0  0  0  0
   -3.2846   -2.8280   -0.3984 H   0  0  0  0  0  0  0  0  0  0  0  0
   -1.7586   -2.0580    0.8686 C   0  0  0  0  0  0  0  0  0  0  0  0
   -0.9666   -2.6340    1.6026 O   0  0  0  0  0  0  0  0  0  0  0  0
   -1.4866   -0.9220    0.2366 N   0  0  0  0  0  0  0  0  0  0  0  0
   -2.2166   -0.4790   -0.2994 H   0  0  0  0  0  0  0  0  0  0  0  0
   -0.1956   -0.2250    0.2596 C   0  0  1  0  0  0  0  0  0  0  0  0
    0.3927   -0.6026    1.0964 H   0  0  0  0  0  0  0  0  0  0  0  0
    0.5767   -0.5489   -1.0351 C   0  0  0  0  0  0  0  0  0  0  0  0
    1.6433   -0.5165   -0.8074 H   0  0  0  0  0  0  0  0  0  0  0  0
    0.3245   -1.5588   -1.3619 H   0  0  0  0  0  0  0  0  0  0  0  0
    0.2926    0.4376   -2.1804 C   0  0  0  0  0  0  0  0  0  0  0  0
    1.0234    1.2490   -2.1426 H   0  0  0  0  0  0  0  0  0  0  0  0
    0.4239   -0.0905   -3.1285 H   0  0  0  0  0  0  0  0  0  0  0  0
   -1.1183    1.0424   -2.1289 C   0  0  0  0  0  0  0  0  0  0  0  0
   -1.9247    0.5976   -1.2814 O   0  5  0  0  0  0  0  0  0  0  0  0
   -1.3610    1.9693   -2.9334 O   0  0  0  0  0  0  0  0  0  0  0  0
   -0.3954    1.2887    0.4814 C   0  0  0  0  0  0  0  0  0  0  0  0
   -1.2761    1.9015   -0.1256 O   0  0  0  0  0  0  0  0  0  0  0  0
    0.4051    1.8919    1.3699 N   0  0  0  0  0  0  0  0  0  0  0  0
    1.1380    1.3380    1.7875 H   0  0  0  0  0  0  0  0  0  0  0  0
    0.3573    3.3183    1.6807 C   0  0  0  0  0  0  0  0  0  0  0  0
   -0.6670    3.6090    1.9198 H   0  0  0  0  0  0  0  0  0  0  0  0
    1.0066    3.5397    2.5289 H   0  0  0  0  0  0  0  0  0  0  0  0
    0.6896    3.8897    0.8118 H   0  0  0  0  0  0  0  0  0  0  0  0
  5  6  2  0  0  0  0
  5  7  1  0  0  0  0
  2  3  1  0  0  0  0
  2  4  1  0  0  0  0
  2  5  1  0  0  0  0
  1  2  1  0  0  0  0
 20 21  2  0  0  0  0
 20 22  1  0  0  0  0
 17 18  1  0  0  0  0
 17 19  2  0  0  0  0
 14 15  1  0  0  0  0
 14 16  1  0  0  0  0
 14 17  1  0  0  0  0
 11 12  1  0  0  0  0
 11 13  1  0  0  0  0
 11 14  1  0  0  0  0
  9 10  1  0  0  0  0
  9 11  1  0  0  0  0
  9 20  1  0  0  0  0
  7  8  1  0  0  0  0
  7  9  1  0  0  0  0
 24 25  1  0  0  0  0
 24 26  1  0  0  0  0
 24 27  1  0  0  0  0
 22 23  1  0  0  0  0
 22 24  1  0  0  0  0
M  CHG  1  18  -1
M  END
$$$$
default_name
  -OEChem-02102213163D

 27 26  0     1  0  0  0  0  0999 V2000
   -3.2406   -3.5400    1.2326 H   0  0  0  0  0  0  0  0  0  0  0  0
   -3.1436   -2.6190    0.6606 C   0  0  0  0  0  0  0  0  0  0  0  0
   -3.8786   -1.8920    0.9996 H   0  0  0  0  0  0  0  0  0  0  0  0
   -3.2846   -2.8280   -0.3984 H   0  0  0  0  0  0  0  0  0  0  0  0
   -1.7586   -2.0580    0.8686 C   0  0  0  0  0  0  0  0  0  0  0  0
   -0.9666   -2.6340    1.6026 O   0  0  0  0  0  0  0  0  0  0  0  0
   -1.4866   -0.9220    0.2366 N   0  0  0  0  0  0  0  0  0  0  0  0
   -2.2166   -0.4790   -0.2994 H   0  0  0  0  0  0  0  0  0  0  0  0
   -0.1956   -0.2250    0.2596 C   0  0  1  0  0  0  0  0  0  0  0  0
    0.3927   -0.6026    1.0964 H   0  0  0  0  0  0  0  0  0  0  0  0
    0.5767   -0.5489   -1.0351 C   0  0  0  0  0  0  0  0  0  0  0  0
    1.6433   -0.5165   -0.8074 H   0  0  0  0  0  0  0  0  0  0  0  0
    0.3245   -1.5588   -1.3619 H   0  0  0  0  0  0  0  0  0  0  0  0
    0.2926    0.4376   -2.1804 C   0  0  0  0  0  0  0  0  0  0  0  0
    1.1589    1.0901   -2.3131 H   0  0  0  0  0  0  0  0  0  0  0  0
    0.1581   -0.1357   -3.1015 H   0  0  0  0  0  0  0  0  0  0  0  0
   -0.9489    1.3095   -1.9408 C   0  0  0  0  0  0  0  0  0  0  0  0
   -1.6681    1.0590   -0.9476 O   0  5  0  0  0  0  0  0  0  0  0  0
   -1.1461    2.2402   -2.7534 O   0  0  0  0  0  0  0  0  0  0  0  0
   -0.3954    1.2887    0.4814 C   0  0  0  0  0  0  0  0  0  0  0  0
   -1.2761    1.9015   -0.1256 O   0  0  0  0  0  0  0  0  0  0  0  0
    0.4051    1.8919    1.3699 N   0  0  0  0  0  0  0  0  0  0  0  0
    1.1380    1.3380    1.7875 H   0  0  0  0  0  0  0  0  0  0  0  0
    0.3573    3.3183    1.6807 C   0  0  0  0  0  0  0  0  0  0  0  0
   -0.6670    3.6090    1.9198 H   0  0  0  0  0  0  0  0  0  0  0  0
    1.0066    3.5397    2.5289 H   0  0  0  0  0  0  0  0  0  0  0  0
    0.6896    3.8897    0.8118 H   0  0  0  0  0  0  0  0  0  0  0  0
  5  6  2  0  0  0  0
  5  7  1  0  0  0  0
  2  3  1  0  0  0  0
  2  4  1  0  0  0  0
  2  5  1  0  0  0  0
  1  2  1  0  0  0  0
 20 21  2  0  0  0  0
 20 22  1  0  0  0  0
 17 18  1  0  0  0  0
 17 19  2  0  0  0  0
 14 15  1  0  0  0  0
 14 16  1  0  0  0  0
 14 17  1  0  0  0  0
 11 12  1  0  0  0  0
 11 13  1  0  0  0  0
 11 14  1  0  0  0  0
  9 10  1  0  0  0  0
  9 11  1  0  0  0  0
  9 20  1  0  0  0  0
  7  8  1  0  0  0  0
  7  9  1  0  0  0  0
 24 25  1  0  0  0  0
 24 26  1  0  0  0  0
 24 27  1  0  0  0  0
 22 23  1  0  0  0  0
 22 24  1  0  0  0  0
M  CHG  1  18  -1
M  END
$$$$
default_name
  -OEChem-02102213163D

 27 26  0     1  0  0  0  0  0999 V2000
   -3.2406   -3.5400    1.2326 H   0  0  0  0  0  0  0  0  0  0  0  0
   -3.1436   -2.6190    0.6606 C   0  0  0  0  0  0  0  0  0  0  0  0
   -3.8786   -1.8920    0.9996 H   0  0  0  0  0  0  0  0  0  0  0  0
   -3.2846   -2.8280   -0.3984 H   0  0  0  0  0  0  0  0  0  0  0  0
   -1.7586   -2.0580    0.8686 C   0  0  0  0  0  0  0  0  0  0  0  0
   -0.9666   -2.6340    1.6026 O   0  0  0  0  0  0  0  0  0  0  0  0
   -1.4866   -0.9220    0.2366 N   0  0  0  0  0  0  0  0  0  0  0  0
   -2.2166   -0.4790   -0.2994 H   0  0  0  0  0  0  0  0  0  0  0  0
   -0.1956   -0.2250    0.2596 C   0  0  1  0  0  0  0  0  0  0  0  0
    0.3927   -0.6026    1.0964 H   0  0  0  0  0  0  0  0  0  0  0  0
    0.5767   -0.5489   -1.0351 C   0  0  0  0  0  0  0  0  0  0  0  0
    1.6433   -0.5165   -0.8074 H   0  0  0  0  0  0  0  0  0  0  0  0
    0.3245   -1.5588   -1.3619 H   0  0  0  0  0  0  0  0  0  0  0  0
    0.2926    0.4376   -2.1804 C   0  0  0  0  0  0  0  0  0  0  0  0
    1.2309    0.9024   -2.4927 H   0  0  0  0  0  0  0  0  0  0  0  0
   -0.1028   -0.1268   -3.0291 H   0  0  0  0  0  0  0  0  0  0  0  0
   -0.7026    1.5439   -1.8001 C   0  0  0  0  0  0  0  0  0  0  0  0
   -1.2759    1.4712   -0.6899 O   0  5  0  0  0  0  0  0  0  0  0  0
   -0.8564    2.4690   -2.6282 O   0  0  0  0  0  0  0  0  0  0  0  0
   -0.3954    1.2887    0.4814 C   0  0  0  0  0  0  0  0  0  0  0  0
   -1.2761    1.9015   -0.1256 O   0  0  0  0  0  0  0  0  0  0  0  0
    0.4051    1.8919    1.3699 N   0  0  0  0  0  0  0  0  0  0  0  0
    1.1380    1.3380    1.7875 H   0  0  0  0  0  0  0  0  0  0  0  0
    0.3573    3.3183    1.6807 C   0  0  0  0  0  0  0  0  0  0  0  0
   -0.6670    3.6090    1.9198 H   0  0  0  0  0  0  0  0  0  0  0  0
    1.0066    3.5397    2.5289 H   0  0  0  0  0  0  0  0  0  0  0  0
    0.6896    3.8897    0.8118 H   0  0  0  0  0  0  0  0  0  0  0  0
  5  6  2  0  0  0  0
  5  7  1  0  0  0  0
  2  3  1  0  0  0  0
  2  4  1  0  0  0  0
  2  5  1  0  0  0  0
  1  2  1  0  0  0  0
 20 21  2  0  0  0  0
 20 22  1  0  0  0  0
 17 18  1  0  0  0  0
 17 19  2  0  0  0  0
 14 15  1  0  0  0  0
 14 16  1  0  0  0  0
 14 17  1  0  0  0  0
 11 12  1  0  0  0  0
 11 13  1  0  0  0  0
 11 14  1  0  0  0  0
  9 10  1  0  0  0  0
  9 11  1  0  0  0  0
  9 20  1  0  0  0  0
  7  8  1  0  0  0  0
  7  9  1  0  0  0  0
 24 25  1  0  0  0  0
 24 26  1  0  0  0  0
 24 27  1  0  0  0  0
 22 23  1  0  0  0  0
 22 24  1  0  0  0  0
M  CHG  1  18  -1
M  END
$$$$
default_name
  -OEChem-02102213163D

 27 26  0     1  0  0  0  0  0999 V2000
   -3.2406   -3.5400    1.2326 H   0  0  0  0  0  0  0  0  0  0  0  0
   -3.1436   -2.6190    0.6606 C   0  0  0  0  0  0  0  0  0  0  0  0
   -3.8786   -1.8920    0.9996 H   0  0  0  0  0  0  0  0  0  0  0  0
   -3.2846   -2.8280   -0.3984 H   0  0  0  0  0  0  0  0  0  0  0  0
   -1.7586   -2.0580    0.8686 C   0  0  0  0  0  0  0  0  0  0  0  0
   -0.9666   -2.6340    1.6026 O   0  0  0  0  0  0  0  0  0  0  0  0
   -1.4866   -0.9220    0.2366 N   0  0  0  0  0  0  0  0  0  0  0  0
   -2.2166   -0.4790   -0.2994 H   0  0  0  0  0  0  0  0  0  0  0  0
   -0.1956   -0.2250    0.2596 C   0  0  1  0  0  0  0  0  0  0  0  0
    0.3927   -0.6026    1.0964 H   0  0  0  0  0  0  0  0  0  0  0  0
    0.5767   -0.5489   -1.0351 C   0  0  0  0  0  0  0  0  0  0  0  0
    1.6433   -0.5165   -0.8074 H   0  0  0  0  0  0  0  0  0  0  0  0
    0.3245   -1.5588   -1.3619 H   0  0  0  0  0  0  0  0  0  0  0  0
    0.2926    0.4376   -2.1804 C   0  0  0  0  0  0  0  0  0  0  0  0
    1.2344    0.6986   -2.6691 H   0  0  0  0  0  0  0  0  0  0  0  0
   -0.3412   -0.0644   -2.9162 H   0  0  0  0  0  0  0  0  0  0  0  0
   -0.3962    1.7295   -1.7162 C   0  0  0  0  0  0  0  0  0  0  0  0
   -0.7748    1.8061   -0.5257 O   0  5  0  0  0  0  0  0  0  0  0  0
   -0.5118    2.6402   -2.5662 O   0  0  0  0  0  0  0  0  0  0  0  0
   -0.3954    1.2887    0.4814 C   0  0  0  0  0  0  0  0  0  0  0  0
   -1.2761    1.9015   -0.1256 O   0  0  0  0  0  0  0  0  0  0  0  0
    0.4051    1.8919    1.3699 N   0  0  0  0  0  0  0  0  0  0  0  0
    1.1380    1.3380    1.7875 H   0  0  0  0  0  0  0  0  0  0  0  0
    0.3573    3.3183    1.6807 C   0  0  0  0  0  0  0  0  0  0  0  0
   -0.6670    3.6090    1.9198 H   0  0  0  0  0  0  0  0  0  0  0  0
    1.0066    3.5397    2.5289 H   0  0  0  0  0  0  0  0  0  0  0  0
    0.6896    3.8897    0.8118 H   0  0  0  0  0  0  0  0  0  0  0  0
  5  6  2  0  0  0  0
  5  7  1  0  0  0  0
  2  3  1  0  0  0  0
  2  4  1  0  0  0  0
  2  5  1  0  0  0  0
  1  2  1  0  0  0  0
 20 21  2  0  0  0  0
 20 22  1  0  0  0  0
 17 18  1  0  0  0  0
 17 19  2  0  0  0  0
 14 15  1  0  0  0  0
 14 16  1  0  0  0  0
 14 17  1  0  0  0  0
 11 12  1  0  0  0  0
 11 13  1  0  0  0  0
 11 14  1  0  0  0  0
  9 10  1  0  0  0  0
  9 11  1  0  0  0  0
  9 20  1  0  0  0  0
  7  8  1  0  0  0  0
  7  9  1  0  0  0  0
 24 25  1  0  0  0  0
 24 26  1  0  0  0  0
 24 27  1  0  0  0  0
 22 23  1  0  0  0  0
 22 24  1  0  0  0  0
M  CHG  1  18  -1
M  END
$$$$
default_name
  -OEChem-02102213163D

 27 26  0     1  0  0  0  0  0999 V2000
   -3.2406   -3.5400    1.2326 H   0  0  0  0  0  0  0  0  0  0  0  0
   -3.1436   -2.6190    0.6606 C   0  0  0  0  0  0  0  0  0  0  0  0
   -3.8786   -1.8920    0.9996 H   0  0  0  0  0  0  0  0  0  0  0  0
   -3.2846   -2.8280   -0.3984 H   0  0  0  0  0  0  0  0  0  0  0  0
   -1.7586   -2.0580    0.8686 C   0  0  0  0  0  0  0  0  0  0  0  0
   -0.9666   -2.6340    1.6026 O   0  0  0  0  0  0  0  0  0  0  0  0
   -1.4866   -0.9220    0.2366 N   0  0  0  0  0  0  0  0  0  0  0  0
   -2.2166   -0.4790   -0.2994 H   0  0  0  0  0  0  0  0  0  0  0  0
   -0.1956   -0.2250    0.2596 C   0  0  1  0  0  0  0  0  0  0  0  0
    0.3927   -0.6026    1.0964 H   0  0  0  0  0  0  0  0  0  0  0  0
    0.5767   -0.5489   -1.0351 C   0  0  0  0  0  0  0  0  0  0  0  0
    1.6433   -0.5165   -0.8074 H   0  0  0  0  0  0  0  0  0  0  0  0
    0.3245   -1.5588   -1.3619 H   0  0  0  0  0  0  0  0  0  0  0  0
    0.2926    0.4376   -2.1804 C   0  0  0  0  0  0  0  0  0  0  0  0
    1.1692    0.4926   -2.8303 H   0  0  0  0  0  0  0  0  0  0  0  0
   -0.5407    0.0471   -2.7706 H   0  0  0  0  0  0  0  0  0  0  0  0
   -0.0506    1.8538   -1.6950 C   0  0  0  0  0  0  0  0  0  0  0  0
   -0.1990    2.0409   -0.4664 O   0  5  0  0  0  0  0  0  0  0  0  0
   -0.1355    2.7421   -2.5718 O   0  0  0  0  0  0  0  0  0  0  0  0
   -0.3954    1.2887    0.4814 C   0  0  0  0  0  0  0  0  0  0  0  0
   -1.2761    1.9015   -0.1256 O   0  0  0  0  0  0  0  0  0  0  0  0
    0.4051    1.8919    1.3699 N   0  0  0  0  0  0  0  0  0  0  0  0
    1.1380    1.3380    1.7875 H   0  0  0  0  0  0  0  0  0  0  0  0
    0.3573    3.3183    1.6807 C   0  0  0  0  0  0  0  0  0  0  0  0
   -0.6670    3.6090    1.9198 H   0  0  0  0  0  0  0  0  0  0  0  0
    1.0066    3.5397    2.5289 H   0  0  0  0  0  0  0  0  0  0  0  0
    0.6896    3.8897    0.8118 H   0  0  0  0  0  0  0  0  0  0  0  0
  5  6  2  0  0  0  0
  5  7  1  0  0  0  0
  2  3  1  0  0  0  0
  2  4  1  0  0  0  0
  2  5  1  0  0  0  0
  1  2  1  0  0  0  0
 20 21  2  0  0  0  0
 20 22  1  0  0  0  0
 17 18  1  0  0  0  0
 17 19  2  0  0  0  0
 14 15  1  0  0  0  0
 14 16  1  0  0  0  0
 14 17  1  0  0  0  0
 11 12  1  0  0  0  0
 11 13  1  0  0  0  0
 11 14  1  0  0  0  0
  9 10  1  0  0  0  0
  9 11  1  0  0  0  0
  9 20  1  0  0  0  0
  7  8  1  0  0  0  0
  7  9  1  0  0  0  0
 24 25  1  0  0  0  0
 24 26  1  0  0  0  0
 24 27  1  0  0  0  0
 22 23  1  0  0  0  0
 22 24  1  0  0  0  0
M  CHG  1  18  -1
M  END
$$$$
default_name
  -OEChem-02102213163D

 27 26  0     1  0  0  0  0  0999 V2000
   -3.2406   -3.5400    1.2326 H   0  0  0  0  0  0  0  0  0  0  0  0
   -3.1436   -2.6190    0.6606 C   0  0  0  0  0  0  0  0  0  0  0  0
   -3.8786   -1.8920    0.9996 H   0  0  0  0  0  0  0  0  0  0  0  0
   -3.2846   -2.8280   -0.3984 H   0  0  0  0  0  0  0  0  0  0  0  0
   -1.7586   -2.0580    0.8686 C   0  0  0  0  0  0  0  0  0  0  0  0
   -0.9666   -2.6340    1.6026 O   0  0  0  0  0  0  0  0  0  0  0  0
   -1.4866   -0.9220    0.2366 N   0  0  0  0  0  0  0  0  0  0  0  0
   -2.2166   -0.4790   -0.2994 H   0  0  0  0  0  0  0  0  0  0  0  0
   -0.1956   -0.2250    0.2596 C   0  0  1  0  0  0  0  0  0  0  0  0
    0.3927   -0.6026    1.0964 H   0  0  0  0  0  0  0  0  0  0  0  0
    0.5767   -0.5489   -1.0351 C   0  0  0  0  0  0  0  0  0  0  0  0
    1.6433   -0.5165   -0.8074 H   0  0  0  0  0  0  0  0  0  0  0  0
    0.3245   -1.5588   -1.3619 H   0  0  0  0  0  0  0  0  0  0  0  0
    0.2926    0.4376   -2.1804 C   0  0  0  0  0  0  0  0  0  0  0  0
    1.0398    0.2985   -2.9654 H   0  0  0  0  0  0  0  0  0  0  0  0
   -0.6877    0.2003   -2.6022 H   0  0  0  0  0  0  0  0  0  0  0  0
    0.3108    1.9082   -1.7377 C   0  0  0  0  0  0  0  0  0  0  0  0
    0.4123    2.1595   -0.5158 O   0  5  0  0  0  0  0  0  0  0  0  0
    0.2466    2.7678   -2.6445 O   0  0  0  0  0  0  0  0  0  0  0  0
   -0.3954    1.2887    0.4814 C   0  0  0  0  0  0  0  0  0  0  0  0
   -1.2761    1.9015   -0.1256 O   0  0  0  0  0  0  0  0  0  0  0  0
    0.4051    1.8919    1.3699 N   0  0  0  0  0  0  0  0  0  0  0  0
    1.1380    1.3380    1.7875 H   0  0  0  0  0  0  0  0  0  0  0  0
    0.3573    3.3183    1.6807 C   0  0  0  0  0  0  0  0  0  0  0  0
   -0.6670    3.6090    1.9198 H   0  0  0  0  0  0  0  0  0  0  0  0
    1.0066    3.5397    2.5289 H   0  0  0  0  0  0  0  0  0  0  0  0
    0.6896    3.8897    0.8118 H   0  0  0  0  0  0  0  0  0  0  0  0
  5  6  2  0  0  0  0
  5  7  1  0  0  0  0
  2  3  1  0  0  0  0
  2  4  1  0  0  0  0
  2  5  1  0  0  0  0
  1  2  1  0  0  0  0
 20 21  2  0  0  0  0
 20 22  1  0  0  0  0
 17 18  1  0  0  0  0
 17 19  2  0  0  0  0
 14 15  1  0  0  0  0
 14 16  1  0  0  0  0
 14 17  1  0  0  0  0
 11 12  1  0  0  0  0
 11 13  1  0  0  0  0
 11 14  1  0  0  0  0
  9 10  1  0  0  0  0
  9 11  1  0  0  0  0
  9 20  1  0  0  0  0
  7  8  1  0  0  0  0
  7  9  1  0  0  0  0
 24 25  1  0  0  0  0
 24 26  1  0  0  0  0
 24 27  1  0  0  0  0
 22 23  1  0  0  0  0
 22 24  1  0  0  0  0
M  CHG  1  18  -1
M  END
$$$$
default_name
  -OEChem-02102213163D

 27 26  0     1  0  0  0  0  0999 V2000
   -3.2406   -3.5400    1.2326 H   0  0  0  0  0  0  0  0  0  0  0  0
   -3.1436   -2.6190    0.6606 C   0  0  0  0  0  0  0  0  0  0  0  0
   -3.8786   -1.8920    0.9996 H   0  0  0  0  0  0  0  0  0  0  0  0
   -3.2846   -2.8280   -0.3984 H   0  0  0  0  0  0  0  0  0  0  0  0
   -1.7586   -2.0580    0.8686 C   0  0  0  0  0  0  0  0  0  0  0  0
   -0.9666   -2.6340    1.6026 O   0  0  0  0  0  0  0  0  0  0  0  0
   -1.4866   -0.9220    0.2366 N   0  0  0  0  0  0  0  0  0  0  0  0
   -2.2166   -0.4790   -0.2994 H   0  0  0  0  0  0  0  0  0  0  0  0
   -0.1956   -0.2250    0.2596 C   0  0  1  0  0  0  0  0  0  0  0  0
    0.3927   -0.6026    1.0964 H   0  0  0  0  0  0  0  0  0  0  0  0
    0.5767   -0.5489   -1.0351 C   0  0  0  0  0  0  0  0  0  0  0  0
    1.6433   -0.5165   -0.8074 H   0  0  0  0  0  0  0  0  0  0  0  0
    0.3245   -1.5588   -1.3619 H   0  0  0  0  0  0  0  0  0  0  0  0
    0.2926    0.4376   -2.1804 C   0  0  0  0  0  0  0  0  0  0  0  0
    0.8550    0.1295   -3.0651 H   0  0  0  0  0  0  0  0  0  0  0  0
   -0.7722    0.3846   -2.4225 H   0  0  0  0  0  0  0  0  0  0  0  0
    0.6633    1.8891   -1.8417 C   0  0  0  0  0  0  0  0  0  0  0  0
    1.0174    2.1540   -0.6708 O   0  5  0  0  0  0  0  0  0  0  0  0
    0.6086    2.7155   -2.7794 O   0  0  0  0  0  0  0  0  0  0  0  0
   -0.3954    1.2887    0.4814 C   0  0  0  0  0  0  0  0  0  0  0  0
   -1.2761    1.9015   -0.1256 O   0  0  0  0  0  0  0  0  0  0  0  0
    0.4051    1.8919    1.3699 N   0  0  0  0  0  0  0  0  0  0  0  0
    1.1380    1.3380    1.7875 H   0  0  0  0  0  0  0  0  0  0  0  0
    0.3573    3.3183    1.6807 C   0  0  0  0  0  0  0  0  0  0  0  0
   -0.6670    3.6090    1.9198 H   0  0  0  0  0  0  0  0  0  0  0  0
    1.0066    3.5397    2.5289 H   0  0  0  0  0  0  0  0  0  0  0  0
    0.6896    3.8897    0.8118 H   0  0  0  0  0  0  0  0  0  0  0  0
  5  6  2  0  0  0  0
  5  7  1  0  0  0  0
  2  3  1  0  0  0  0
  2  4  1  0  0  0  0
  2  5  1  0  0  0  0
  1  2  1  0  0  0  0
 20 21  2  0  0  0  0
 20 22  1  0  0  0  0
 17 18  1  0  0  0  0
 17 19  2  0  0  0  0
 14 15  1  0  0  0  0
 14 16  1  0  0  0  0
 14 17  1  0  0  0  0
 11 12  1  0  0  0  0
 11 13  1  0  0  0  0
 11 14  1  0  0  0  0
  9 10  1  0  0  0  0
  9 11  1  0  0  0  0
  9 20  1  0  0  0  0
  7  8  1  0  0  0  0
  7  9  1  0  0  0  0
 24 25  1  0  0  0  0
 24 26  1  0  0  0  0
 24 27  1  0  0  0  0
 22 23  1  0  0  0  0
 22 24  1  0  0  0  0
M  CHG  1  18  -1
M  END
$$$$
default_name
  -OEChem-02102213163D

 27 26  0     1  0  0  0  0  0999 V2000
   -3.2406   -3.5400    1.2326 H   0  0  0  0  0  0  0  0  0  0  0  0
   -3.1436   -2.6190    0.6606 C   0  0  0  0  0  0  0  0  0  0  0  0
   -3.8786   -1.8920    0.9996 H   0  0  0  0  0  0  0  0  0  0  0  0
   -3.2846   -2.8280   -0.3984 H   0  0  0  0  0  0  0  0  0  0  0  0
   -1.7586   -2.0580    0.8686 C   0  0  0  0  0  0  0  0  0  0  0  0
   -0.9666   -2.6340    1.6026 O   0  0  0  0  0  0  0  0  0  0  0  0
   -1.4866   -0.9220    0.2366 N   0  0  0  0  0  0  0  0  0  0  0  0
   -2.2166   -0.4790   -0.2994 H   0  0  0  0  0  0  0  0  0  0  0  0
   -0.1956   -0.2250    0.2596 C   0  0  1  0  0  0  0  0  0  0  0  0
    0.3927   -0.6026    1.0964 H   0  0  0  0  0  0  0  0  0  0  0  0
    0.5767   -0.5489   -1.0351 C   0  0  0  0  0  0  0  0  0  0  0  0
    1.6433   -0.5165   -0.8074 H   0  0  0  0  0  0  0  0  0  0  0  0
    0.3245   -1.5588   -1.3619 H   0  0  0  0  0  0  0  0  0  0  0  0
    0.2926    0.4376   -2.1804 C   0  0  0  0  0  0  0  0  0  0  0  0
    0.6273   -0.0029   -3.1226 H   0  0  0  0  0  0  0  0  0  0  0  0
   -0.7885    0.5875   -2.2437 H   0  0  0  0  0  0  0  0  0  0  0  0
    0.9828    1.7977   -1.9996 C   0  0  0  0  0  0  0  0  0  0  0  0
    1.5751    2.0245   -0.9206 O   0  5  0  0  0  0  0  0  0  0  0  0
    0.9257    2.5887   -2.9673 O   0  0  0  0  0  0  0  0  0  0  0  0
   -0.3954    1.2887    0.4814 C   0  0  0  0  0  0  0  0  0  0  0  0
   -1.2761    1.9015   -0.1256 O   0  0  0  0  0  0  0  0  0  0  0  0
    0.4051    1.8919    1.3699 N   0  0  0  0  0  0  0  0  0  0  0  0
    1.1380    1.3380    1.7875 H   0  0  0  0  0  0  0  0  0  0  0  0
    0.3573    3.3183    1.6807 C   0  0  0  0  0  0  0  0  0  0  0  0
   -0.6670    3.6090    1.9198 H   0  0  0  0  0  0  0  0  0  0  0  0
    1.0066    3.5397    2.5289 H   0  0  0  0  0  0  0  0  0  0  0  0
    0.6896    3.8897    0.8118 H   0  0  0  0  0  0  0  0  0  0  0  0
  5  6  2  0  0  0  0
  5  7  1  0  0  0  0
  2  3  1  0  0  0  0
  2  4  1  0  0  0  0
  2  5  1  0  0  0  0
  1  2  1  0  0  0  0
 20 21  2  0  0  0  0
 20 22  1  0  0  0  0
 17 18  1  0  0  0  0
 17 19  2  0  0  0  0
 14 15  1  0  0  0  0
 14 16  1  0  0  0  0
 14 17  1  0  0  0  0
 11 12  1  0  0  0  0
 11 13  1  0  0  0  0
 11 14  1  0  0  0  0
  9 10  1  0  0  0  0
  9 11  1  0  0  0  0
  9 20  1  0  0  0  0
  7  8  1  0  0  0  0
  7  9  1  0  0  0  0
 24 25  1  0  0  0  0
 24 26  1  0  0  0  0
 24 27  1  0  0  0  0
 22 23  1  0  0  0  0
 22 24  1  0  0  0  0
M  CHG  1  18  -1
M  END
$$$$
default_name
  -OEChem-02102213163D

 27 26  0     1  0  0  0  0  0999 V2000
   -3.2406   -3.5400    1.2326 H   0  0  0  0  0  0  0  0  0  0  0  0
   -3.1436   -2.6190    0.6606 C   0  0  0  0  0  0  0  0  0  0  0  0
   -3.8786   -1.8920    0.9996 H   0  0  0  0  0  0  0  0  0  0  0  0
   -3.2846   -2.8280   -0.3984 H   0  0  0  0  0  0  0  0  0  0  0  0
   -1.7586   -2.0580    0.8686 C   0  0  0  0  0  0  0  0  0  0  0  0
   -0.9666   -2.6340    1.6026 O   0  0  0  0  0  0  0  0  0  0  0  0
   -1.4866   -0.9220    0.2366 N   0  0  0  0  0  0  0  0  0  0  0  0
   -2.2166   -0.4790   -0.2994 H   0  0  0  0  0  0  0  0  0  0  0  0
   -0.1956   -0.2250    0.2596 C   0  0  1  0  0  0  0  0  0  0  0  0
    0.3927   -0.6026    1.0964 H   0  0  0  0  0  0  0  0  0  0  0  0
    0.5767   -0.5489   -1.0351 C   0  0  0  0  0  0  0  0  0  0  0  0
    1.6433   -0.5165   -0.8074 H   0  0  0  0  0  0  0  0  0  0  0  0
    0.3245   -1.5588   -1.3619 H   0  0  0  0  0  0  0  0  0  0  0  0
    0.2926    0.4376   -2.1804 C   0  0  0  0  0  0  0  0  0  0  0  0
    0.3724   -0.0896   -3.1341 H   0  0  0  0  0  0  0  0  0  0  0  0
   -0.7354    0.7952   -2.0779 H   0  0  0  0  0  0  0  0  0  0  0  0
    1.2475    1.6403   -2.2009 C   0  0  0  0  0  0  0  0  0  0  0  0
    2.0473    1.7801   -1.2484 O   0  5  0  0  0  0  0  0  0  0  0  0
    1.1765    2.3962   -3.1953 O   0  0  0  0  0  0  0  0  0  0  0  0
   -0.3954    1.2887    0.4814 C   0  0  0  0  0  0  0  0  0  0  0  0
   -1.2761    1.9015   -0.1256 O   0  0  0  0  0  0  0  0  0  0  0  0
    0.4051    1.8919    1.3699 N   0  0  0  0  0  0  0  0  0  0  0  0
    1.1380    1.3380    1.7875 H   0  0  0  0  0  0  0  0  0  0  0  0
    0.3573    3.3183    1.6807 C   0  0  0  0  0  0  0  0  0  0  0  0
   -0.6670    3.6090    1.9198 H   0  0  0  0  0  0  0  0  0  0  0  0
    1.0066    3.5397    2.5289 H   0  0  0  0  0  0  0  0  0  0  0  0
    0.6896    3.8897    0.8118 H   0  0  0  0  0  0  0  0  0  0  0  0
  5  6  2  0  0  0  0
  5  7  1  0  0  0  0
  2  3  1  0  0  0  0
  2  4  1  0  0  0  0
  2  5  1  0  0  0  0
  1  2  1  0  0  0  0
 20 21  2  0  0  0  0
 20 22  1  0  0  0  0
 17 18  1  0  0  0  0
 17 19  2  0  0  0  0
 14 15  1  0  0  0  0
 14 16  1  0  0  0  0
 14 17  1  0  0  0  0
 11 12  1  0  0  0  0
 11 13  1  0  0  0  0
 11 14  1  0  0  0  0
  9 10  1  0  0  0  0
  9 11  1  0  0  0  0
  9 20  1  0  0  0  0
  7  8  1  0  0  0  0
  7  9  1  0  0  0  0
 24 25  1  0  0  0  0
 24 26  1  0  0  0  0
 24 27  1  0  0  0  0
 22 23  1  0  0  0  0
 22 24  1  0  0  0  0
M  CHG  1  18  -1
M  END
$$$$
default_name
  -OEChem-02102213163D

 27 26  0     1  0  0  0  0  0999 V2000
   -3.2406   -3.5400    1.2326 H   0  0  0  0  0  0  0  0  0  0  0  0
   -3.1436   -2.6190    0.6606 C   0  0  0  0  0  0  0  0  0  0  0  0
   -3.8786   -1.8920    0.9996 H   0  0  0  0  0  0  0  0  0  0  0  0
   -3.2846   -2.8280   -0.3984 H   0  0  0  0  0  0  0  0  0  0  0  0
   -1.7586   -2.0580    0.8686 C   0  0  0  0  0  0  0  0  0  0  0  0
   -0.9666   -2.6340    1.6026 O   0  0  0  0  0  0  0  0  0  0  0  0
   -1.4866   -0.9220    0.2366 N   0  0  0  0  0  0  0  0  0  0  0  0
   -2.2166   -0.4790   -0.2994 H   0  0  0  0  0  0  0  0  0  0  0  0
   -0.1956   -0.2250    0.2596 C   0  0  1  0  0  0  0  0  0  0  0  0
    0.3927   -0.6026    1.0964 H   0  0  0  0  0  0  0  0  0  0  0  0
    0.5767   -0.5489   -1.0351 C   0  0  0  0  0  0  0  0  0  0  0  0
    1.6433   -0.5165   -0.8074 H   0  0  0  0  0  0  0  0  0  0  0  0
    0.3245   -1.5588   -1.3619 H   0  0  0  0  0  0  0  0  0  0  0  0
    0.2926    0.4376   -2.1804 C   0  0  0  0  0  0  0  0  0  0  0  0
    0.1075   -0.1248   -3.0987 H   0  0  0  0  0  0  0  0  0  0  0  0
   -0.6166    0.9936   -1.9366 H   0  0  0  0  0  0  0  0  0  0  0  0
    1.4395    1.4277   -2.4317 C   0  0  0  0  0  0  0  0  0  0  0  0
    2.4020    1.4373   -1.6316 O   0  5  0  0  0  0  0  0  0  0  0  0
    1.3437    2.1510   -3.4480 O   0  0  0  0  0  0  0  0  0  0  0  0
   -0.3954    1.2887    0.4814 C   0  0  0  0  0  0  0  0  0  0  0  0
   -1.2761    1.9015   -0.1256 O   0  0  0  0  0  0  0  0  0  0  0  0
    0.4051    1.8919    1.3699 N   0  0  0  0  0  0  0  0  0  0  0  0
    1.1380    1.3380    1.7875 H   0  0  0  0  0  0  0  0  0  0  0  0
    0.3573    3.3183    1.6807 C   0  0  0  0  0  0  0  0  0  0  0  0
   -0.6670    3.6090    1.9198 H   0  0  0  0  0  0  0  0  0  0  0  0
    1.0066    3.5397    2.5289 H   0  0  0  0  0  0  0  0  0  0  0  0
    0.6896    3.8897    0.8118 H   0  0  0  0  0  0  0  0  0  0  0  0
  5  6  2  0  0  0  0
  5  7  1  0  0  0  0
  2  3  1  0  0  0  0
  2  4  1  0  0  0  0
  2  5  1  0  0  0  0
  1  2  1  0  0  0  0
 20 21  2  0  0  0  0
 20 22  1  0  0  0  0
 17 18  1  0  0  0  0
 17 19  2  0  0  0  0
 14 15  1  0  0  0  0
 14 16  1  0  0  0  0
 14 17  1  0  0  0  0
 11 12  1  0  0  0  0
 11 13  1  0  0  0  0
 11 14  1  0  0  0  0
  9 10  1  0  0  0  0
  9 11  1  0  0  0  0
  9 20  1  0  0  0  0
  7  8  1  0  0  0  0
  7  9  1  0  0  0  0
 24 25  1  0  0  0  0
 24 26  1  0  0  0  0
 24 27  1  0  0  0  0
 22 23  1  0  0  0  0
 22 24  1  0  0  0  0
M  CHG  1  18  -1
M  END
$$$$
default_name
  -OEChem-02102213163D

 27 26  0     1  0  0  0  0  0999 V2000
   -3.2406   -3.5400    1.2326 H   0  0  0  0  0  0  0  0  0  0  0  0
   -3.1436   -2.6190    0.6606 C   0  0  0  0  0  0  0  0  0  0  0  0
   -3.8786   -1.8920    0.9996 H   0  0  0  0  0  0  0  0  0  0  0  0
   -3.2846   -2.8280   -0.3984 H   0  0  0  0  0  0  0  0  0  0  0  0
   -1.7586   -2.0580    0.8686 C   0  0  0  0  0  0  0  0  0  0  0  0
   -0.9666   -2.6340    1.6026 O   0  0  0  0  0  0  0  0  0  0  0  0
   -1.4866   -0.9220    0.2366 N   0  0  0  0  0  0  0  0  0  0  0  0
   -2.2166   -0.4790   -0.2994 H   0  0  0  0  0  0  0  0  0  0  0  0
   -0.1956   -0.2250    0.2596 C   0  0  1  0  0  0  0  0  0  0  0  0
    0.3927   -0.6026    1.0964 H   0  0  0  0  0  0  0  0  0  0  0  0
    0.5767   -0.5489   -1.0351 C   0  0  0  0  0  0  0  0  0  0  0  0
    1.6433   -0.5165   -0.8074 H   0  0  0  0  0  0  0  0  0  0  0  0
    0.3245   -1.5588   -1.3619 H   0  0  0  0  0  0  0  0  0  0  0  0
    0.2926    0.4376   -2.1804 C   0  0  0  0  0  0  0  0  0  0  0  0
   -0.1493   -0.1061   -3.0189 H   0  0  0  0  0  0  0  0  0  0  0  0
   -0.4401    1.1690   -1.8293 H   0  0  0  0  0  0  0  0  0  0  0  0
    1.5457    1.1742   -2.6764 C   0  0  0  0  0  0  0  0  0  0  0  0
    2.6149    1.0195   -2.0443 O   0  5  0  0  0  0  0  0  0  0  0  0
    1.4160    1.8698   -3.7082 O   0  0  0  0  0  0  0  0  0  0  0  0
   -0.3954    1.2887    0.4814 C   0  0  0  0  0  0  0  0  0  0  0  0
   -1.2761    1.9015   -0.1256 O   0  0  0  0  0  0  0  0  0  0  0  0
    0.4051    1.8919    1.3699 N   0  0  0  0  0  0  0  0  0  0  0  0
    1.1380    1.3380    1.7875 H   0  0  0  0  0  0  0  0  0  0  0  0
    0.3573    3.3183    1.6807 C   0  0  0  0  0  0  0  0  0  0  0  0
   -0.6670    3.6090    1.9198 H   0  0  0  0  0  0  0  0  0  0  0  0
    1.0066    3.5397    2.5289 H   0  0  0  0  0  0  0  0  0  0  0  0
    0.6896    3.8897    0.8118 H   0  0  0  0  0  0  0  0  0  0  0  0
  5  6  2  0  0  0  0
  5  7  1  0  0  0  0
  2  3  1  0  0  0  0
  2  4  1  0  0  0  0
  2  5  1  0  0  0  0
  1  2  1  0  0  0  0
 20 21  2  0  0  0  0
 20 22  1  0  0  0  0
 17 18  1  0  0  0  0
 17 19  2  0  0  0  0
 14 15  1  0  0  0  0
 14 16  1  0  0  0  0
 14 17  1  0  0  0  0
 11 12  1  0  0  0  0
 11 13  1  0  0  0  0
 11 14  1  0  0  0  0
  9 10  1  0  0  0  0
  9 11  1  0  0  0  0
  9 20  1  0  0  0  0
  7  8  1  0  0  0  0
  7  9  1  0  0  0  0
 24 25  1  0  0  0  0
 24 26  1  0  0  0  0
 24 27  1  0  0  0  0
 22 23  1  0  0  0  0
 22 24  1  0  0  0  0
M  CHG  1  18  -1
M  END
$$$$
default_name
  -OEChem-02102213163D

 27 26  0     1  0  0  0  0  0999 V2000
   -3.2406   -3.5400    1.2326 H   0  0  0  0  0  0  0  0  0  0  0  0
   -3.1436   -2.6190    0.6606 C   0  0  0  0  0  0  0  0  0  0  0  0
   -3.8786   -1.8920    0.9996 H   0  0  0  0  0  0  0  0  0  0  0  0
   -3.2846   -2.8280   -0.3984 H   0  0  0  0  0  0  0  0  0  0  0  0
   -1.7586   -2.0580    0.8686 C   0  0  0  0  0  0  0  0  0  0  0  0
   -0.9666   -2.6340    1.6026 O   0  0  0  0  0  0  0  0  0  0  0  0
   -1.4866   -0.9220    0.2366 N   0  0  0  0  0  0  0  0  0  0  0  0
   -2.2166   -0.4790   -0.2994 H   0  0  0  0  0  0  0  0  0  0  0  0
   -0.1956   -0.2250    0.2596 C   0  0  1  0  0  0  0  0  0  0  0  0
    0.3927   -0.6026    1.0964 H   0  0  0  0  0  0  0  0  0  0  0  0
    0.5767   -0.5489   -1.0351 C   0  0  0  0  0  0  0  0  0  0  0  0
    1.6433   -0.5165   -0.8074 H   0  0  0  0  0  0  0  0  0  0  0  0
    0.3245   -1.5588   -1.3619 H   0  0  0  0  0  0  0  0  0  0  0  0
    0.2926    0.4376   -2.1804 C   0  0  0  0  0  0  0  0  0  0  0  0
   -0.3805   -0.0347   -2.9000 H   0  0  0  0  0  0  0  0  0  0  0  0
   -0.2181    1.3096   -1.7633 H   0  0  0  0  0  0  0  0  0  0  0  0
    1.5588    0.8972   -2.9182 C   0  0  0  0  0  0  0  0  0  0  0  0
    2.6715    0.5552   -2.4583 O   0  5  0  0  0  0  0  0  0  0  0  0
    1.3885    1.5718   -3.9580 O   0  0  0  0  0  0  0  0  0  0  0  0
   -0.3954    1.2887    0.4814 C   0  0  0  0  0  0  0  0  0  0  0  0
   -1.2761    1.9015   -0.1256 O   0  0  0  0  0  0  0  0  0  0  0  0
    0.4051    1.8919    1.3699 N   0  0  0  0  0  0  0  0  0  0  0  0
    1.1380    1.3380    1.7875 H   0  0  0  0  0  0  0  0  0  0  0  0
    0.3573    3.3183    1.6807 C   0  0  0  0  0  0  0  0  0  0  0  0
   -0.6670    3.6090    1.9198 H   0  0  0  0  0  0  0  0  0  0  0  0
    1.0066    3.5397    2.5289 H   0  0  0  0  0  0  0  0  0  0  0  0
    0.6896    3.8897    0.8118 H   0  0  0  0  0  0  0  0  0  0  0  0
  5  6  2  0  0  0  0
  5  7  1  0  0  0  0
  2  3  1  0  0  0  0
  2  4  1  0  0  0  0
  2  5  1  0  0  0  0
  1  2  1  0  0  0  0
 20 21  2  0  0  0  0
 20 22  1  0  0  0  0
 17 18  1  0  0  0  0
 17 19  2  0  0  0  0
 14 15  1  0  0  0  0
 14 16  1  0  0  0  0
 14 17  1  0  0  0  0
 11 12  1  0  0  0  0
 11 13  1  0  0  0  0
 11 14  1  0  0  0  0
  9 10  1  0  0  0  0
  9 11  1  0  0  0  0
  9 20  1  0  0  0  0
  7  8  1  0  0  0  0
  7  9  1  0  0  0  0
 24 25  1  0  0  0  0
 24 26  1  0  0  0  0
 24 27  1  0  0  0  0
 22 23  1  0  0  0  0
 22 24  1  0  0  0  0
M  CHG  1  18  -1
M  END
$$$$
default_name
  -OEChem-02102213163D

 27 26  0     1  0  0  0  0  0999 V2000
   -3.2406   -3.5400    1.2326 H   0  0  0  0  0  0  0  0  0  0  0  0
   -3.1436   -2.6190    0.6606 C   0  0  0  0  0  0  0  0  0  0  0  0
   -3.8786   -1.8920    0.9996 H   0  0  0  0  0  0  0  0  0  0  0  0
   -3.2846   -2.8280   -0.3984 H   0  0  0  0  0  0  0  0  0  0  0  0
   -1.7586   -2.0580    0.8686 C   0  0  0  0  0  0  0  0  0  0  0  0
   -0.9666   -2.6340    1.6026 O   0  0  0  0  0  0  0  0  0  0  0  0
   -1.4866   -0.9220    0.2366 N   0  0  0  0  0  0  0  0  0  0  0  0
   -2.2166   -0.4790   -0.2994 H   0  0  0  0  0  0  0  0  0  0  0  0
   -0.1956   -0.2250    0.2596 C   0  0  1  0  0  0  0  0  0  0  0  0
    0.3927   -0.6026    1.0964 H   0  0  0  0  0  0  0  0  0  0  0  0
    0.5767   -0.5489   -1.0351 C   0  0  0  0  0  0  0  0  0  0  0  0
    1.6433   -0.5165   -0.8074 H   0  0  0  0  0  0  0  0  0  0  0  0
    0.3245   -1.5588   -1.3619 H   0  0  0  0  0  0  0  0  0  0  0  0
    0.2926    0.4376   -2.1804 C   0  0  0  0  0  0  0  0  0  0  0  0
   -0.5703    0.0845   -2.7502 H   0  0  0  0  0  0  0  0  0  0  0  0
    0.0344    1.4057   -1.7431 H   0  0  0  0  0  0  0  0  0  0  0  0
    1.4779    0.6156   -3.1407 C   0  0  0  0  0  0  0  0  0  0  0  0
    2.5679    0.0760   -2.8454 O   0  5  0  0  0  0  0  0  0  0  0  0
    1.2630    1.2773   -4.1805 O   0  0  0  0  0  0  0  0  0  0  0  0
   -0.3954    1.2887    0.4814 C   0  0  0  0  0  0  0  0  0  0  0  0
   -1.2761    1.9015   -0.1256 O   0  0  0  0  0  0  0  0  0  0  0  0
    0.4051    1.8919    1.3699 N   0  0  0  0  0  0  0  0  0  0  0  0
    1.1380    1.3380    1.7875 H   0  0  0  0  0  0  0  0  0  0  0  0
    0.3573    3.3183    1.6807 C   0  0  0  0  0  0  0  0  0  0  0  0
   -0.6670    3.6090    1.9198 H   0  0  0  0  0  0  0  0  0  0  0  0
    1.0066    3.5397    2.5289 H   0  0  0  0  0  0  0  0  0  0  0  0
    0.6896    3.8897    0.8118 H   0  0  0  0  0  0  0  0  0  0  0  0
  5  6  2  0  0  0  0
  5  7  1  0  0  0  0
  2  3  1  0  0  0  0
  2  4  1  0  0  0  0
  2  5  1  0  0  0  0
  1  2  1  0  0  0  0
 20 21  2  0  0  0  0
 20 22  1  0  0  0  0
 17 18  1  0  0  0  0
 17 19  2  0  0  0  0
 14 15  1  0  0  0  0
 14 16  1  0  0  0  0
 14 17  1  0  0  0  0
 11 12  1  0  0  0  0
 11 13  1  0  0  0  0
 11 14  1  0  0  0  0
  9 10  1  0  0  0  0
  9 11  1  0  0  0  0
  9 20  1  0  0  0  0
  7  8  1  0  0  0  0
  7  9  1  0  0  0  0
 24 25  1  0  0  0  0
 24 26  1  0  0  0  0
 24 27  1  0  0  0  0
 22 23  1  0  0  0  0
 22 24  1  0  0  0  0
M  CHG  1  18  -1
M  END
$$$$
default_name
  -OEChem-02102213163D

 27 26  0     1  0  0  0  0  0999 V2000
   -3.2406   -3.5400    1.2326 H   0  0  0  0  0  0  0  0  0  0  0  0
   -3.1436   -2.6190    0.6606 C   0  0  0  0  0  0  0  0  0  0  0  0
   -3.8786   -1.8920    0.9996 H   0  0  0  0  0  0  0  0  0  0  0  0
   -3.2846   -2.8280   -0.3984 H   0  0  0  0  0  0  0  0  0  0  0  0
   -1.7586   -2.0580    0.8686 C   0  0  0  0  0  0  0  0  0  0  0  0
   -0.9666   -2.6340    1.6026 O   0  0  0  0  0  0  0  0  0  0  0  0
   -1.4866   -0.9220    0.2366 N   0  0  0  0  0  0  0  0  0  0  0  0
   -2.2166   -0.4790   -0.2994 H   0  0  0  0  0  0  0  0  0  0  0  0
   -0.1956   -0.2250    0.2596 C   0  0  1  0  0  0  0  0  0  0  0  0
    0.3927   -0.6026    1.0964 H   0  0  0  0  0  0  0  0  0  0  0  0
    0.5767   -0.5489   -1.0351 C   0  0  0  0  0  0  0  0  0  0  0  0
    1.6433   -0.5165   -0.8074 H   0  0  0  0  0  0  0  0  0  0  0  0
    0.3245   -1.5588   -1.3619 H   0  0  0  0  0  0  0  0  0  0  0  0
    0.2926    0.4376   -2.1804 C   0  0  0  0  0  0  0  0  0  0  0  0
   -0.7058    0.2434   -2.5798 H   0  0  0  0  0  0  0  0  0  0  0  0
    0.3003    1.4509   -1.7702 H   0  0  0  0  0  0  0  0  0  0  0  0
    1.3086    0.3485   -3.3288 C   0  0  0  0  0  0  0  0  0  0  0  0
    2.3113   -0.3854   -3.1791 O   0  5  0  0  0  0  0  0  0  0  0  0
    1.0481    1.0065   -4.3605 O   0  0  0  0  0  0  0  0  0  0  0  0
   -0.3954    1.2887    0.4814 C   0  0  0  0  0  0  0  0  0  0  0  0
   -1.2761    1.9015   -0.1256 O   0  0  0  0  0  0  0  0  0  0  0  0
    0.4051    1.8919    1.3699 N   0  0  0  0  0  0  0  0  0  0  0  0
    1.1380    1.3380    1.7875 H   0  0  0  0  0  0  0  0  0  0  0  0
    0.3573    3.3183    1.6807 C   0  0  0  0  0  0  0  0  0  0  0  0
   -0.6670    3.6090    1.9198 H   0  0  0  0  0  0  0  0  0  0  0  0
    1.0066    3.5397    2.5289 H   0  0  0  0  0  0  0  0  0  0  0  0
    0.6896    3.8897    0.8118 H   0  0  0  0  0  0  0  0  0  0  0  0
  5  6  2  0  0  0  0
  5  7  1  0  0  0  0
  2  3  1  0  0  0  0
  2  4  1  0  0  0  0
  2  5  1  0  0  0  0
  1  2  1  0  0  0  0
 20 21  2  0  0  0  0
 20 22  1  0  0  0  0
 17 18  1  0  0  0  0
 17 19  2  0  0  0  0
 14 15  1  0  0  0  0
 14 16  1  0  0  0  0
 14 17  1  0  0  0  0
 11 12  1  0  0  0  0
 11 13  1  0  0  0  0
 11 14  1  0  0  0  0
  9 10  1  0  0  0  0
  9 11  1  0  0  0  0
  9 20  1  0  0  0  0
  7  8  1  0  0  0  0
  7  9  1  0  0  0  0
 24 25  1  0  0  0  0
 24 26  1  0  0  0  0
 24 27  1  0  0  0  0
 22 23  1  0  0  0  0
 22 24  1  0  0  0  0
M  CHG  1  18  -1
M  END
$$$$
default_name
  -OEChem-02102213163D

 27 26  0     1  0  0  0  0  0999 V2000
   -3.2406   -3.5400    1.2326 H   0  0  0  0  0  0  0  0  0  0  0  0
   -3.1436   -2.6190    0.6606 C   0  0  0  0  0  0  0  0  0  0  0  0
   -3.8786   -1.8920    0.9996 H   0  0  0  0  0  0  0  0  0  0  0  0
   -3.2846   -2.8280   -0.3984 H   0  0  0  0  0  0  0  0  0  0  0  0
   -1.7586   -2.0580    0.8686 C   0  0  0  0  0  0  0  0  0  0  0  0
   -0.9666   -2.6340    1.6026 O   0  0  0  0  0  0  0  0  0  0  0  0
   -1.4866   -0.9220    0.2366 N   0  0  0  0  0  0  0  0  0  0  0  0
   -2.2166   -0.4790   -0.2994 H   0  0  0  0  0  0  0  0  0  0  0  0
   -0.1956   -0.2250    0.2596 C   0  0  1  0  0  0  0  0  0  0  0  0
    0.3927   -0.6026    1.0964 H   0  0  0  0  0  0  0  0  0  0  0  0
    0.5767   -0.5489   -1.0351 C   0  0  0  0  0  0  0  0  0  0  0  0
    1.6074   -0.7814   -0.7626 H   0  0  0  0  0  0  0  0  0  0  0  0
    0.1376   -1.4298   -1.5056 H   0  0  0  0  0  0  0  0  0  0  0  0
    0.5893    0.6098   -2.0465 C   0  0  0  0  0  0  0  0  0  0  0  0
   -0.4399    0.8672   -2.3078 H   0  0  0  0  0  0  0  0  0  0  0  0
    1.0426    1.4804   -1.5650 H   0  0  0  0  0  0  0  0  0  0  0  0
    1.3588    0.2862   -3.3357 C   0  0  0  0  0  0  0  0  0  0  0  0
    1.9966   -0.7892   -3.3928 O   0  5  0  0  0  0  0  0  0  0  0  0
    1.2744    1.1208   -4.2639 O   0  0  0  0  0  0  0  0  0  0  0  0
   -0.3954    1.2887    0.4814 C   0  0  0  0  0  0  0  0  0  0  0  0
   -1.2761    1.9015   -0.1256 O   0  0  0  0  0  0  0  0  0  0  0  0
    0.4051    1.8919    1.3699 N   0  0  0  0  0  0  0  0  0  0  0  0
    1.1380    1.3380    1.7875 H   0  0  0  0  0  0  0  0  0  0  0  0
    0.3573    3.3183    1.6807 C   0  0  0  0  0  0  0  0  0  0  0  0
   -0.6670    3.6090    1.9198 H   0  0  0  0  0  0  0  0  0  0  0  0
    1.0066    3.5397    2.5289 H   0  0  0  0  0  0  0  0  0  0  0  0
    0.6896    3.8897    0.8118 H   0  0  0  0  0  0  0  0  0  0  0  0
  5  6  2  0  0  0  0
  5  7  1  0  0  0  0
  2  3  1  0  0  0  0
  2  4  1  0  0  0  0
  2  5  1  0  0  0  0
  1  2  1  0  0  0  0
 20 21  2  0  0  0  0
 20 22  1  0  0  0  0
 17 18  1  0  0  0  0
 17 19  2  0  0  0  0
 14 15  1  0  0  0  0
 14 16  1  0  0  0  0
 14 17  1  0  0  0  0
 11 12  1  0  0  0  0
 11 13  1  0  0  0  0
 11 14  1  0  0  0  0
  9 10  1  0  0  0  0
  9 11  1  0  0  0  0
  9 20  1  0  0  0  0
  7  8  1  0  0  0  0
  7  9  1  0  0  0  0
 24 25  1  0  0  0  0
 24 26  1  0  0  0  0
 24 27  1  0  0  0  0
 22 23  1  0  0  0  0
 22 24  1  0  0  0  0
M  CHG  1  18  -1
M  END
$$$$
default_name
  -OEChem-02102213163D

 27 26  0     1  0  0  0  0  0999 V2000
   -3.2406   -3.5400    1.2326 H   0  0  0  0  0  0  0  0  0  0  0  0
   -3.1436   -2.6190    0.6606 C   0  0  0  0  0  0  0  0  0  0  0  0
   -3.8786   -1.8920    0.9996 H   0  0  0  0  0  0  0  0  0  0  0  0
   -3.2846   -2.8280   -0.3984 H   0  0  0  0  0  0  0  0  0  0  0  0
   -1.7586   -2.0580    0.8686 C   0  0  0  0  0  0  0  0  0  0  0  0
   -0.9666   -2.6340    1.6026 O   0  0  0  0  0  0  0  0  0  0  0  0
   -1.4866   -0.9220    0.2366 N   0  0  0  0  0  0  0  0  0  0  0  0
   -2.2166   -0.4790   -0.2994 H   0  0  0  0  0  0  0  0  0  0  0  0
   -0.1956   -0.2250    0.2596 C   0  0  1  0  0  0  0  0  0  0  0  0
    0.3927   -0.6026    1.0964 H   0  0  0  0  0  0  0  0  0  0  0  0
    0.5767   -0.5489   -1.0351 C   0  0  0  0  0  0  0  0  0  0  0  0
    1.6074   -0.7814   -0.7626 H   0  0  0  0  0  0  0  0  0  0  0  0
    0.1376   -1.4298   -1.5056 H   0  0  0  0  0  0  0  0  0  0  0  0
    0.5893    0.6098   -2.0465 C   0  0  0  0  0  0  0  0  0  0  0  0
   -0.4119    1.0433   -2.1056 H   0  0  0  0  0  0  0  0  0  0  0  0
    1.2693    1.3814   -1.6757 H   0  0  0  0  0  0  0  0  0  0  0  0
    1.0263    0.1847   -3.4562 C   0  0  0  0  0  0  0  0  0  0  0  0
    1.4480   -0.9822   -3.6207 O   0  5  0  0  0  0  0  0  0  0  0  0
    0.9061    1.0390   -4.3623 O   0  0  0  0  0  0  0  0  0  0  0  0
   -0.3954    1.2887    0.4814 C   0  0  0  0  0  0  0  0  0  0  0  0
   -1.2761    1.9015   -0.1256 O   0  0  0  0  0  0  0  0  0  0  0  0
    0.4051    1.8919    1.3699 N   0  0  0  0  0  0  0  0  0  0  0  0
    1.1380    1.3380    1.7875 H   0  0  0  0  0  0  0  0  0  0  0  0
    0.3573    3.3183    1.6807 C   0  0  0  0  0  0  0  0  0  0  0  0
   -0.6670    3.6090    1.9198 H   0  0  0  0  0  0  0  0  0  0  0  0
    1.0066    3.5397    2.5289 H   0  0  0  0  0  0  0  0  0  0  0  0
    0.6896    3.8897    0.8118 H   0  0  0  0  0  0  0  0  0  0  0  0
  5  6  2  0  0  0  0
  5  7  1  0  0  0  0
  2  3  1  0  0  0  0
  2  4  1  0  0  0  0
  2  5  1  0  0  0  0
  1  2  1  0  0  0  0
 20 21  2  0  0  0  0
 20 22  1  0  0  0  0
 17 18  1  0  0  0  0
 17 19  2  0  0  0  0
 14 15  1  0  0  0  0
 14 16  1  0  0  0  0
 14 17  1  0  0  0  0
 11 12  1  0  0  0  0
 11 13  1  0  0  0  0
 11 14  1  0  0  0  0
  9 10  1  0  0  0  0
  9 11  1  0  0  0  0
  9 20  1  0  0  0  0
  7  8  1  0  0  0  0
  7  9  1  0  0  0  0
 24 25  1  0  0  0  0
 24 26  1  0  0  0  0
 24 27  1  0  0  0  0
 22 23  1  0  0  0  0
 22 24  1  0  0  0  0
M  CHG  1  18  -1
M  END
$$$$
default_name
  -OEChem-02102213163D

 27 26  0     1  0  0  0  0  0999 V2000
   -3.2406   -3.5400    1.2326 H   0  0  0  0  0  0  0  0  0  0  0  0
   -3.1436   -2.6190    0.6606 C   0  0  0  0  0  0  0  0  0  0  0  0
   -3.8786   -1.8920    0.9996 H   0  0  0  0  0  0  0  0  0  0  0  0
   -3.2846   -2.8280   -0.3984 H   0  0  0  0  0  0  0  0  0  0  0  0
   -1.7586   -2.0580    0.8686 C   0  0  0  0  0  0  0  0  0  0  0  0
   -0.9666   -2.6340    1.6026 O   0  0  0  0  0  0  0  0  0  0  0  0
   -1.4866   -0.9220    0.2366 N   0  0  0  0  0  0  0  0  0  0  0  0
   -2.2166   -0.4790   -0.2994 H   0  0  0  0  0  0  0  0  0  0  0  0
   -0.1956   -0.2250    0.2596 C   0  0  1  0  0  0  0  0  0  0  0  0
    0.3927   -0.6026    1.0964 H   0  0  0  0  0  0  0  0  0  0  0  0
    0.5767   -0.5489   -1.0351 C   0  0  0  0  0  0  0  0  0  0  0  0
    1.6074   -0.7814   -0.7626 H   0  0  0  0  0  0  0  0  0  0  0  0
    0.1376   -1.4298   -1.5056 H   0  0  0  0  0  0  0  0  0  0  0  0
    0.5893    0.6098   -2.0465 C   0  0  0  0  0  0  0  0  0  0  0  0
   -0.3155    1.2082   -1.9155 H   0  0  0  0  0  0  0  0  0  0  0  0
    1.4498    1.2474   -1.8269 H   0  0  0  0  0  0  0  0  0  0  0  0
    0.6643    0.1434   -3.5079 C   0  0  0  0  0  0  0  0  0  0  0  0
    0.8408   -1.0748   -3.7344 O   0  5  0  0  0  0  0  0  0  0  0  0
    0.5173    1.0228   -4.3856 O   0  0  0  0  0  0  0  0  0  0  0  0
   -0.3954    1.2887    0.4814 C   0  0  0  0  0  0  0  0  0  0  0  0
   -1.2761    1.9015   -0.1256 O   0  0  0  0  0  0  0  0  0  0  0  0
    0.4051    1.8919    1.3699 N   0  0  0  0  0  0  0  0  0  0  0  0
    1.1380    1.3380    1.7875 H   0  0  0  0  0  0  0  0  0  0  0  0
    0.3573    3.3183    1.6807 C   0  0  0  0  0  0  0  0  0  0  0  0
   -0.6670    3.6090    1.9198 H   0  0  0  0  0  0  0  0  0  0  0  0
    1.0066    3.5397    2.5289 H   0  0  0  0  0  0  0  0  0  0  0  0
    0.6896    3.8897    0.8118 H   0  0  0  0  0  0  0  0  0  0  0  0
  5  6  2  0  0  0  0
  5  7  1  0  0  0  0
  2  3  1  0  0  0  0
  2  4  1  0  0  0  0
  2  5  1  0  0  0  0
  1  2  1  0  0  0  0
 20 21  2  0  0  0  0
 20 22  1  0  0  0  0
 17 18  1  0  0  0  0
 17 19  2  0  0  0  0
 14 15  1  0  0  0  0
 14 16  1  0  0  0  0
 14 17  1  0  0  0  0
 11 12  1  0  0  0  0
 11 13  1  0  0  0  0
 11 14  1  0  0  0  0
  9 10  1  0  0  0  0
  9 11  1  0  0  0  0
  9 20  1  0  0  0  0
  7  8  1  0  0  0  0
  7  9  1  0  0  0  0
 24 25  1  0  0  0  0
 24 26  1  0  0  0  0
 24 27  1  0  0  0  0
 22 23  1  0  0  0  0
 22 24  1  0  0  0  0
M  CHG  1  18  -1
M  END
$$$$
default_name
  -OEChem-02102213163D

 27 26  0     1  0  0  0  0  0999 V2000
   -3.2406   -3.5400    1.2326 H   0  0  0  0  0  0  0  0  0  0  0  0
   -3.1436   -2.6190    0.6606 C   0  0  0  0  0  0  0  0  0  0  0  0
   -3.8786   -1.8920    0.9996 H   0  0  0  0  0  0  0  0  0  0  0  0
   -3.2846   -2.8280   -0.3984 H   0  0  0  0  0  0  0  0  0  0  0  0
   -1.7586   -2.0580    0.8686 C   0  0  0  0  0  0  0  0  0  0  0  0
   -0.9666   -2.6340    1.6026 O   0  0  0  0  0  0  0  0  0  0  0  0
   -1.4866   -0.9220    0.2366 N   0  0  0  0  0  0  0  0  0  0  0  0
   -2.2166   -0.4790   -0.2994 H   0  0  0  0  0  0  0  0  0  0  0  0
   -0.1956   -0.2250    0.2596 C   0  0  1  0  0  0  0  0  0  0  0  0
    0.3927   -0.6026    1.0964 H   0  0  0  0  0  0  0  0  0  0  0  0
    0.5767   -0.5489   -1.0351 C   0  0  0  0  0  0  0  0  0  0  0  0
    1.6074   -0.7814   -0.7626 H   0  0  0  0  0  0  0  0  0  0  0  0
    0.1376   -1.4298   -1.5056 H   0  0  0  0  0  0  0  0  0  0  0  0
    0.5893    0.6098   -2.0465 C   0  0  0  0  0  0  0  0  0  0  0  0
   -0.1572    1.3507   -1.7502 H   0  0  0  0  0  0  0  0  0  0  0  0
    1.5719    1.0875   -2.0085 H   0  0  0  0  0  0  0  0  0  0  0  0
    0.2976    0.1653   -3.4874 C   0  0  0  0  0  0  0  0  0  0  0  0
    0.2164   -1.0606   -3.7260 O   0  5  0  0  0  0  0  0  0  0  0  0
    0.1345    1.0734   -4.3324 O   0  0  0  0  0  0  0  0  0  0  0  0
   -0.3954    1.2887    0.4814 C   0  0  0  0  0  0  0  0  0  0  0  0
   -1.2761    1.9015   -0.1256 O   0  0  0  0  0  0  0  0  0  0  0  0
    0.4051    1.8919    1.3699 N   0  0  0  0  0  0  0  0  0  0  0  0
    1.1380    1.3380    1.7875 H   0  0  0  0  0  0  0  0  0  0  0  0
    0.3573    3.3183    1.6807 C   0  0  0  0  0  0  0  0  0  0  0  0
   -0.6670    3.6090    1.9198 H   0  0  0  0  0  0  0  0  0  0  0  0
    1.0066    3.5397    2.5289 H   0  0  0  0  0  0  0  0  0  0  0  0
    0.6896    3.8897    0.8118 H   0  0  0  0  0  0  0  0  0  0  0  0
  5  6  2  0  0  0  0
  5  7  1  0  0  0  0
  2  3  1  0  0  0  0
  2  4  1  0  0  0  0
  2  5  1  0  0  0  0
  1  2  1  0  0  0  0
 20 21  2  0  0  0  0
 20 22  1  0  0  0  0
 17 18  1  0  0  0  0
 17 19  2  0  0  0  0
 14 15  1  0  0  0  0
 14 16  1  0  0  0  0
 14 17  1  0  0  0  0
 11 12  1  0  0  0  0
 11 13  1  0  0  0  0
 11 14  1  0  0  0  0
  9 10  1  0  0  0  0
  9 11  1  0  0  0  0
  9 20  1  0  0  0  0
  7  8  1  0  0  0  0
  7  9  1  0  0  0  0
 24 25  1  0  0  0  0
 24 26  1  0  0  0  0
 24 27  1  0  0  0  0
 22 23  1  0  0  0  0
 22 24  1  0  0  0  0
M  CHG  1  18  -1
M  END
$$$$
default_name
  -OEChem-02102213163D

 27 26  0     1  0  0  0  0  0999 V2000
   -3.2406   -3.5400    1.2326 H   0  0  0  0  0  0  0  0  0  0  0  0
   -3.1436   -2.6190    0.6606 C   0  0  0  0  0  0  0  0  0  0  0  0
   -3.8786   -1.8920    0.9996 H   0  0  0  0  0  0  0  0  0  0  0  0
   -3.2846   -2.8280   -0.3984 H   0  0  0  0  0  0  0  0  0  0  0  0
   -1.7586   -2.0580    0.8686 C   0  0  0  0  0  0  0  0  0  0  0  0
   -0.9666   -2.6340    1.6026 O   0  0  0  0  0  0  0  0  0  0  0  0
   -1.4866   -0.9220    0.2366 N   0  0  0  0  0  0  0  0  0  0  0  0
   -2.2166   -0.4790   -0.2994 H   0  0  0  0  0  0  0  0  0  0  0  0
   -0.1956   -0.2250    0.2596 C   0  0  1  0  0  0  0  0  0  0  0  0
    0.3927   -0.6026    1.0964 H   0  0  0  0  0  0  0  0  0  0  0  0
    0.5767   -0.5489   -1.0351 C   0  0  0  0  0  0  0  0  0  0  0  0
    1.6074   -0.7814   -0.7626 H   0  0  0  0  0  0  0  0  0  0  0  0
    0.1376   -1.4298   -1.5056 H   0  0  0  0  0  0  0  0  0  0  0  0
    0.5893    0.6098   -2.0465 C   0  0  0  0  0  0  0  0  0  0  0  0
    0.0522    1.4610   -1.6212 H   0  0  0  0  0  0  0  0  0  0  0  0
    1.6272    0.9128   -2.2081 H   0  0  0  0  0  0  0  0  0  0  0  0
   -0.0489    0.2488   -3.3960 C   0  0  0  0  0  0  0  0  0  0  0  0
   -0.3827   -0.9407   -3.5960 O   0  5  0  0  0  0  0  0  0  0  0  0
   -0.2163    1.1873   -4.2063 O   0  0  0  0  0  0  0  0  0  0  0  0
   -0.3954    1.2887    0.4814 C   0  0  0  0  0  0  0  0  0  0  0  0
   -1.2761    1.9015   -0.1256 O   0  0  0  0  0  0  0  0  0  0  0  0
    0.4051    1.8919    1.3699 N   0  0  0  0  0  0  0  0  0  0  0  0
    1.1380    1.3380    1.7875 H   0  0  0  0  0  0  0  0  0  0  0  0
    0.3573    3.3183    1.6807 C   0  0  0  0  0  0  0  0  0  0  0  0
   -0.6670    3.6090    1.9198 H   0  0  0  0  0  0  0  0  0  0  0  0
    1.0066    3.5397    2.5289 H   0  0  0  0  0  0  0  0  0  0  0  0
    0.6896    3.8897    0.8118 H   0  0  0  0  0  0  0  0  0  0  0  0
  5  6  2  0  0  0  0
  5  7  1  0  0  0  0
  2  3  1  0  0  0  0
  2  4  1  0  0  0  0
  2  5  1  0  0  0  0
  1  2  1  0  0  0  0
 20 21  2  0  0  0  0
 20 22  1  0  0  0  0
 17 18  1  0  0  0  0
 17 19  2  0  0  0  0
 14 15  1  0  0  0  0
 14 16  1  0  0  0  0
 14 17  1  0  0  0  0
 11 12  1  0  0  0  0
 11 13  1  0  0  0  0
 11 14  1  0  0  0  0
  9 10  1  0  0  0  0
  9 11  1  0  0  0  0
  9 20  1  0  0  0  0
  7  8  1  0  0  0  0
  7  9  1  0  0  0  0
 24 25  1  0  0  0  0
 24 26  1  0  0  0  0
 24 27  1  0  0  0  0
 22 23  1  0  0  0  0
 22 24  1  0  0  0  0
M  CHG  1  18  -1
M  END
$$$$
default_name
  -OEChem-02102213163D

 27 26  0     1  0  0  0  0  0999 V2000
   -3.2406   -3.5400    1.2326 H   0  0  0  0  0  0  0  0  0  0  0  0
   -3.1436   -2.6190    0.6606 C   0  0  0  0  0  0  0  0  0  0  0  0
   -3.8786   -1.8920    0.9996 H   0  0  0  0  0  0  0  0  0  0  0  0
   -3.2846   -2.8280   -0.3984 H   0  0  0  0  0  0  0  0  0  0  0  0
   -1.7586   -2.0580    0.8686 C   0  0  0  0  0  0  0  0  0  0  0  0
   -0.9666   -2.6340    1.6026 O   0  0  0  0  0  0  0  0  0  0  0  0
   -1.4866   -0.9220    0.2366 N   0  0  0  0  0  0  0  0  0  0  0  0
   -2.2166   -0.4790   -0.2994 H   0  0  0  0  0  0  0  0  0  0  0  0
   -0.1956   -0.2250    0.2596 C   0  0  1  0  0  0  0  0  0  0  0  0
    0.3927   -0.6026    1.0964 H   0  0  0  0  0  0  0  0  0  0  0  0
    0.5767   -0.5489   -1.0351 C   0  0  0  0  0  0  0  0  0  0  0  0
    1.6074   -0.7814   -0.7626 H   0  0  0  0  0  0  0  0  0  0  0  0
    0.1376   -1.4298   -1.5056 H   0  0  0  0  0  0  0  0  0  0  0  0
    0.5893    0.6098   -2.0465 C   0  0  0  0  0  0  0  0  0  0  0  0
    0.2984    1.5317   -1.5372 H   0  0  0  0  0  0  0  0  0  0  0  0
    1.6120    0.7349   -2.4120 H   0  0  0  0  0  0  0  0  0  0  0  0
   -0.3515    0.3883   -3.2400 C   0  0  0  0  0  0  0  0  0  0  0  0
   -0.9157   -0.7232   -3.3535 O   0  5  0  0  0  0  0  0  0  0  0  0
   -0.5112    1.3568   -4.0158 O   0  0  0  0  0  0  0  0  0  0  0  0
   -0.3954    1.2887    0.4814 C   0  0  0  0  0  0  0  0  0  0  0  0
   -1.2761    1.9015   -0.1256 O   0  0  0  0  0  0  0  0  0  0  0  0
    0.4051    1.8919    1.3699 N   0  0  0  0  0  0  0  0  0  0  0  0
    1.1380    1.3380    1.7875 H   0  0  0  0  0  0  0  0  0  0  0  0
    0.3573    3.3183    1.6807 C   0  0  0  0  0  0  0  0  0  0  0  0
   -0.6670    3.6090    1.9198 H   0  0  0  0  0  0  0  0  0  0  0  0
    1.0066    3.5397    2.5289 H   0  0  0  0  0  0  0  0  0  0  0  0
    0.6896    3.8897    0.8118 H   0  0  0  0  0  0  0  0  0  0  0  0
  5  6  2  0  0  0  0
  5  7  1  0  0  0  0
  2  3  1  0  0  0  0
  2  4  1  0  0  0  0
  2  5  1  0  0  0  0
  1  2  1  0  0  0  0
 20 21  2  0  0  0  0
 20 22  1  0  0  0  0
 17 18  1  0  0  0  0
 17 19  2  0  0  0  0
 14 15  1  0  0  0  0
 14 16  1  0  0  0  0
 14 17  1  0  0  0  0
 11 12  1  0  0  0  0
 11 13  1  0  0  0  0
 11 14  1  0  0  0  0
  9 10  1  0  0  0  0
  9 11  1  0  0  0  0
  9 20  1  0  0  0  0
  7  8  1  0  0  0  0
  7  9  1  0  0  0  0
 24 25  1  0  0  0  0
 24 26  1  0  0  0  0
 24 27  1  0  0  0  0
 22 23  1  0  0  0  0
 22 24  1  0  0  0  0
M  CHG  1  18  -1
M  END
$$$$
default_name
  -OEChem-02102213163D

 27 26  0     1  0  0  0  0  0999 V2000
   -3.2406   -3.5400    1.2326 H   0  0  0  0  0  0  0  0  0  0  0  0
   -3.1436   -2.6190    0.6606 C   0  0  0  0  0  0  0  0  0  0  0  0
   -3.8786   -1.8920    0.9996 H   0  0  0  0  0  0  0  0  0  0  0  0
   -3.2846   -2.8280   -0.3984 H   0  0  0  0  0  0  0  0  0  0  0  0
   -1.7586   -2.0580    0.8686 C   0  0  0  0  0  0  0  0  0  0  0  0
   -0.9666   -2.6340    1.6026 O   0  0  0  0  0  0  0  0  0  0  0  0
   -1.4866   -0.9220    0.2366 N   0  0  0  0  0  0  0  0  0  0  0  0
   -2.2166   -0.4790   -0.2994 H   0  0  0  0  0  0  0  0  0  0  0  0
   -0.1956   -0.2250    0.2596 C   0  0  1  0  0  0  0  0  0  0  0  0
    0.3927   -0.6026    1.0964 H   0  0  0  0  0  0  0  0  0  0  0  0
    0.5767   -0.5489   -1.0351 C   0  0  0  0  0  0  0  0  0  0  0  0
    1.6074   -0.7814   -0.7626 H   0  0  0  0  0  0  0  0  0  0  0  0
    0.1376   -1.4298   -1.5056 H   0  0  0  0  0  0  0  0  0  0  0  0
    0.5893    0.6098   -2.0465 C   0  0  0  0  0  0  0  0  0  0  0  0
    0.5646    1.5579   -1.5039 H   0  0  0  0  0  0  0  0  0  0  0  0
    1.5273    0.5662   -2.6064 H   0  0  0  0  0  0  0  0  0  0  0  0
   -0.5897    0.5741   -3.0301 C   0  0  0  0  0  0  0  0  0  0  0  0
   -1.3461   -0.4229   -3.0148 O   0  5  0  0  0  0  0  0  0  0  0  0
   -0.7300    1.5703   -3.7739 O   0  0  0  0  0  0  0  0  0  0  0  0
   -0.3954    1.2887    0.4814 C   0  0  0  0  0  0  0  0  0  0  0  0
   -1.2761    1.9015   -0.1256 O   0  0  0  0  0  0  0  0  0  0  0  0
    0.4051    1.8919    1.3699 N   0  0  0  0  0  0  0  0  0  0  0  0
    1.1380    1.3380    1.7875 H   0  0  0  0  0  0  0  0  0  0  0  0
    0.3573    3.3183    1.6807 C   0  0  0  0  0  0  0  0  0  0  0  0
   -0.6670    3.6090    1.9198 H   0  0  0  0  0  0  0  0  0  0  0  0
    1.0066    3.5397    2.5289 H   0  0  0  0  0  0  0  0  0  0  0  0
    0.6896    3.8897    0.8118 H   0  0  0  0  0  0  0  0  0  0  0  0
  5  6  2  0  0  0  0
  5  7  1  0  0  0  0
  2  3  1  0  0  0  0
  2  4  1  0  0  0  0
  2  5  1  0  0  0  0
  1  2  1  0  0  0  0
 20 21  2  0  0  0  0
 20 22  1  0  0  0  0
 17 18  1  0  0  0  0
 17 19  2  0  0  0  0
 14 15  1  0  0  0  0
 14 16  1  0  0  0  0
 14 17  1  0  0  0  0
 11 12  1  0  0  0  0
 11 13  1  0  0  0  0
 11 14  1  0  0  0  0
  9 10  1  0  0  0  0
  9 11  1  0  0  0  0
  9 20  1  0  0  0  0
  7  8  1  0  0  0  0
  7  9  1  0  0  0  0
 24 25  1  0  0  0  0
 24 26  1  0  0  0  0
 24 27  1  0  0  0  0
 22 23  1  0  0  0  0
 22 24  1  0  0  0  0
M  CHG  1  18  -1
M  END
$$$$
default_name
  -OEChem-02102213163D

 27 26  0     1  0  0  0  0  0999 V2000
   -3.2406   -3.5400    1.2326 H   0  0  0  0  0  0  0  0  0  0  0  0
   -3.1436   -2.6190    0.6606 C   0  0  0  0  0  0  0  0  0  0  0  0
   -3.8786   -1.8920    0.9996 H   0  0  0  0  0  0  0  0  0  0  0  0
   -3.2846   -2.8280   -0.3984 H   0  0  0  0  0  0  0  0  0  0  0  0
   -1.7586   -2.0580    0.8686 C   0  0  0  0  0  0  0  0  0  0  0  0
   -0.9666   -2.6340    1.6026 O   0  0  0  0  0  0  0  0  0  0  0  0
   -1.4866   -0.9220    0.2366 N   0  0  0  0  0  0  0  0  0  0  0  0
   -2.2166   -0.4790   -0.2994 H   0  0  0  0  0  0  0  0  0  0  0  0
   -0.1956   -0.2250    0.2596 C   0  0  1  0  0  0  0  0  0  0  0  0
    0.3927   -0.6026    1.0964 H   0  0  0  0  0  0  0  0  0  0  0  0
    0.5767   -0.5489   -1.0351 C   0  0  0  0  0  0  0  0  0  0  0  0
    1.6074   -0.7814   -0.7626 H   0  0  0  0  0  0  0  0  0  0  0  0
    0.1376   -1.4298   -1.5056 H   0  0  0  0  0  0  0  0  0  0  0  0
    0.5893    0.6098   -2.0465 C   0  0  0  0  0  0  0  0  0  0  0  0
    0.8327    1.5378   -1.5235 H   0  0  0  0  0  0  0  0  0  0  0  0
    1.3788    0.4181   -2.7779 H   0  0  0  0  0  0  0  0  0  0  0  0
   -0.7472    0.7938   -2.7804 C   0  0  0  0  0  0  0  0  0  0  0  0
   -1.6448   -0.0603   -2.6031 O   0  5  0  0  0  0  0  0  0  0  0  0
   -0.8580    1.8132   -3.4972 O   0  0  0  0  0  0  0  0  0  0  0  0
   -0.3954    1.2887    0.4814 C   0  0  0  0  0  0  0  0  0  0  0  0
   -1.2761    1.9015   -0.1256 O   0  0  0  0  0  0  0  0  0  0  0  0
    0.4051    1.8919    1.3699 N   0  0  0  0  0  0  0  0  0  0  0  0
    1.1380    1.3380    1.7875 H   0  0  0  0  0  0  0  0  0  0  0  0
    0.3573    3.3183    1.6807 C   0  0  0  0  0  0  0  0  0  0  0  0
   -0.6670    3.6090    1.9198 H   0  0  0  0  0  0  0  0  0  0  0  0
    1.0066    3.5397    2.5289 H   0  0  0  0  0  0  0  0  0  0  0  0
    0.6896    3.8897    0.8118 H   0  0  0  0  0  0  0  0  0  0  0  0
  5  6  2  0  0  0  0
  5  7  1  0  0  0  0
  2  3  1  0  0  0  0
  2  4  1  0  0  0  0
  2  5  1  0  0  0  0
  1  2  1  0  0  0  0
 20 21  2  0  0  0  0
 20 22  1  0  0  0  0
 17 18  1  0  0  0  0
 17 19  2  0  0  0  0
 14 15  1  0  0  0  0
 14 16  1  0  0  0  0
 14 17  1  0  0  0  0
 11 12  1  0  0  0  0
 11 13  1  0  0  0  0
 11 14  1  0  0  0  0
  9 10  1  0  0  0  0
  9 11  1  0  0  0  0
  9 20  1  0  0  0  0
  7  8  1  0  0  0  0
  7  9  1  0  0  0  0
 24 25  1  0  0  0  0
 24 26  1  0  0  0  0
 24 27  1  0  0  0  0
 22 23  1  0  0  0  0
 22 24  1  0  0  0  0
M  CHG  1  18  -1
M  END
$$$$
default_name
  -OEChem-02102213163D

 27 26  0     1  0  0  0  0  0999 V2000
   -3.2406   -3.5400    1.2326 H   0  0  0  0  0  0  0  0  0  0  0  0
   -3.1436   -2.6190    0.6606 C   0  0  0  0  0  0  0  0  0  0  0  0
   -3.8786   -1.8920    0.9996 H   0  0  0  0  0  0  0  0  0  0  0  0
   -3.2846   -2.8280   -0.3984 H   0  0  0  0  0  0  0  0  0  0  0  0
   -1.7586   -2.0580    0.8686 C   0  0  0  0  0  0  0  0  0  0  0  0
   -0.9666   -2.6340    1.6026 O   0  0  0  0  0  0  0  0  0  0  0  0
   -1.4866   -0.9220    0.2366 N   0  0  0  0  0  0  0  0  0  0  0  0
   -2.2166   -0.4790   -0.2994 H   0  0  0  0  0  0  0  0  0  0  0  0
   -0.1956   -0.2250    0.2596 C   0  0  1  0  0  0  0  0  0  0  0  0
    0.3927   -0.6026    1.0964 H   0  0  0  0  0  0  0  0  0  0  0  0
    0.5767   -0.5489   -1.0351 C   0  0  0  0  0  0  0  0  0  0  0  0
    1.6074   -0.7814   -0.7626 H   0  0  0  0  0  0  0  0  0  0  0  0
    0.1376   -1.4298   -1.5056 H   0  0  0  0  0  0  0  0  0  0  0  0
    0.5893    0.6098   -2.0465 C   0  0  0  0  0  0  0  0  0  0  0  0
    1.0844    1.4728   -1.5948 H   0  0  0  0  0  0  0  0  0  0  0  0
    1.1768    0.3006   -2.9151 H   0  0  0  0  0  0  0  0  0  0  0  0
   -0.8133    1.0322   -2.5081 C   0  0  0  0  0  0  0  0  0  0  0  0
   -1.7913    0.3399   -2.1464 O   0  5  0  0  0  0  0  0  0  0  0  0
   -0.8862    2.0690   -3.2044 O   0  0  0  0  0  0  0  0  0  0  0  0
   -0.3954    1.2887    0.4814 C   0  0  0  0  0  0  0  0  0  0  0  0
   -1.2761    1.9015   -0.1256 O   0  0  0  0  0  0  0  0  0  0  0  0
    0.4051    1.8919    1.3699 N   0  0  0  0  0  0  0  0  0  0  0  0
    1.1380    1.3380    1.7875 H   0  0  0  0  0  0  0  0  0  0  0  0
    0.3573    3.3183    1.6807 C   0  0  0  0  0  0  0  0  0  0  0  0
   -0.6670    3.6090    1.9198 H   0  0  0  0  0  0  0  0  0  0  0  0
    1.0066    3.5397    2.5289 H   0  0  0  0  0  0  0  0  0  0  0  0
    0.6896    3.8897    0.8118 H   0  0  0  0  0  0  0  0  0  0  0  0
  5  6  2  0  0  0  0
  5  7  1  0  0  0  0
  2  3  1  0  0  0  0
  2  4  1  0  0  0  0
  2  5  1  0  0  0  0
  1  2  1  0  0  0  0
 20 21  2  0  0  0  0
 20 22  1  0  0  0  0
 17 18  1  0  0  0  0
 17 19  2  0  0  0  0
 14 15  1  0  0  0  0
 14 16  1  0  0  0  0
 14 17  1  0  0  0  0
 11 12  1  0  0  0  0
 11 13  1  0  0  0  0
 11 14  1  0  0  0  0
  9 10  1  0  0  0  0
  9 11  1  0  0  0  0
  9 20  1  0  0  0  0
  7  8  1  0  0  0  0
  7  9  1  0  0  0  0
 24 25  1  0  0  0  0
 24 26  1  0  0  0  0
 24 27  1  0  0  0  0
 22 23  1  0  0  0  0
 22 24  1  0  0  0  0
M  CHG  1  18  -1
M  END
$$$$
default_name
  -OEChem-02102213163D

 27 26  0     1  0  0  0  0  0999 V2000
   -3.2406   -3.5400    1.2326 H   0  0  0  0  0  0  0  0  0  0  0  0
   -3.1436   -2.6190    0.6606 C   0  0  0  0  0  0  0  0  0  0  0  0
   -3.8786   -1.8920    0.9996 H   0  0  0  0  0  0  0  0  0  0  0  0
   -3.2846   -2.8280   -0.3984 H   0  0  0  0  0  0  0  0  0  0  0  0
   -1.7586   -2.0580    0.8686 C   0  0  0  0  0  0  0  0  0  0  0  0
   -0.9666   -2.6340    1.6026 O   0  0  0  0  0  0  0  0  0  0  0  0
   -1.4866   -0.9220    0.2366 N   0  0  0  0  0  0  0  0  0  0  0  0
   -2.2166   -0.4790   -0.2994 H   0  0  0  0  0  0  0  0  0  0  0  0
   -0.1956   -0.2250    0.2596 C   0  0  1  0  0  0  0  0  0  0  0  0
    0.3927   -0.6026    1.0964 H   0  0  0  0  0  0  0  0  0  0  0  0
    0.5767   -0.5489   -1.0351 C   0  0  0  0  0  0  0  0  0  0  0  0
    1.6074   -0.7814   -0.7626 H   0  0  0  0  0  0  0  0  0  0  0  0
    0.1376   -1.4298   -1.5056 H   0  0  0  0  0  0  0  0  0  0  0  0
    0.5893    0.6098   -2.0465 C   0  0  0  0  0  0  0  0  0  0  0  0
    1.3026    1.3674   -1.7129 H   0  0  0  0  0  0  0  0  0  0  0  0
    0.9348    0.2218   -3.0083 H   0  0  0  0  0  0  0  0  0  0  0  0
   -0.7835    1.2732   -2.2316 C   0  0  0  0  0  0  0  0  0  0  0  0
   -1.7756    0.7504   -1.6758 O   0  5  0  0  0  0  0  0  0  0  0  0
   -0.8129    2.3203   -2.9156 O   0  0  0  0  0  0  0  0  0  0  0  0
   -0.3954    1.2887    0.4814 C   0  0  0  0  0  0  0  0  0  0  0  0
   -1.2761    1.9015   -0.1256 O   0  0  0  0  0  0  0  0  0  0  0  0
    0.4051    1.8919    1.3699 N   0  0  0  0  0  0  0  0  0  0  0  0
    1.1380    1.3380    1.7875 H   0  0  0  0  0  0  0  0  0  0  0  0
    0.3573    3.3183    1.6807 C   0  0  0  0  0  0  0  0  0  0  0  0
   -0.6670    3.6090    1.9198 H   0  0  0  0  0  0  0  0  0  0  0  0
    1.0066    3.5397    2.5289 H   0  0  0  0  0  0  0  0  0  0  0  0
    0.6896    3.8897    0.8118 H   0  0  0  0  0  0  0  0  0  0  0  0
  5  6  2  0  0  0  0
  5  7  1  0  0  0  0
  2  3  1  0  0  0  0
  2  4  1  0  0  0  0
  2  5  1  0  0  0  0
  1  2  1  0  0  0  0
 20 21  2  0  0  0  0
 20 22  1  0  0  0  0
 17 18  1  0  0  0  0
 17 19  2  0  0  0  0
 14 15  1  0  0  0  0
 14 16  1  0  0  0  0
 14 17  1  0  0  0  0
 11 12  1  0  0  0  0
 11 13  1  0  0  0  0
 11 14  1  0  0  0  0
  9 10  1  0  0  0  0
  9 11  1  0  0  0  0
  9 20  1  0  0  0  0
  7  8  1  0  0  0  0
  7  9  1  0  0  0  0
 24 25  1  0  0  0  0
 24 26  1  0  0  0  0
 24 27  1  0  0  0  0
 22 23  1  0  0  0  0
 22 24  1  0  0  0  0
M  CHG  1  18  -1
M  END
$$$$
default_name
  -OEChem-02102213163D

 27 26  0     1  0  0  0  0  0999 V2000
   -3.2406   -3.5400    1.2326 H   0  0  0  0  0  0  0  0  0  0  0  0
   -3.1436   -2.6190    0.6606 C   0  0  0  0  0  0  0  0  0  0  0  0
   -3.8786   -1.8920    0.9996 H   0  0  0  0  0  0  0  0  0  0  0  0
   -3.2846   -2.8280   -0.3984 H   0  0  0  0  0  0  0  0  0  0  0  0
   -1.7586   -2.0580    0.8686 C   0  0  0  0  0  0  0  0  0  0  0  0
   -0.9666   -2.6340    1.6026 O   0  0  0  0  0  0  0  0  0  0  0  0
   -1.4866   -0.9220    0.2366 N   0  0  0  0  0  0  0  0  0  0  0  0
   -2.2166   -0.4790   -0.2994 H   0  0  0  0  0  0  0  0  0  0  0  0
   -0.1956   -0.2250    0.2596 C   0  0  1  0  0  0  0  0  0  0  0  0
    0.3927   -0.6026    1.0964 H   0  0  0  0  0  0  0  0  0  0  0  0
    0.5767   -0.5489   -1.0351 C   0  0  0  0  0  0  0  0  0  0  0  0
    1.6074   -0.7814   -0.7626 H   0  0  0  0  0  0  0  0  0  0  0  0
    0.1376   -1.4298   -1.5056 H   0  0  0  0  0  0  0  0  0  0  0  0
    0.5893    0.6098   -2.0465 C   0  0  0  0  0  0  0  0  0  0  0  0
    1.4724    1.2286   -1.8698 H   0  0  0  0  0  0  0  0  0  0  0  0
    0.6696    0.1871   -3.0514 H   0  0  0  0  0  0  0  0  0  0  0  0
   -0.6597    1.5002   -1.9699 C   0  0  0  0  0  0  0  0  0  0  0  0
   -1.5989    1.1433   -1.2235 O   0  5  0  0  0  0  0  0  0  0  0  0
   -0.6429    2.5500   -2.6504 O   0  0  0  0  0  0  0  0  0  0  0  0
   -0.3954    1.2887    0.4814 C   0  0  0  0  0  0  0  0  0  0  0  0
   -1.2761    1.9015   -0.1256 O   0  0  0  0  0  0  0  0  0  0  0  0
    0.4051    1.8919    1.3699 N   0  0  0  0  0  0  0  0  0  0  0  0
    1.1380    1.3380    1.7875 H   0  0  0  0  0  0  0  0  0  0  0  0
    0.3573    3.3183    1.6807 C   0  0  0  0  0  0  0  0  0  0  0  0
   -0.6670    3.6090    1.9198 H   0  0  0  0  0  0  0  0  0  0  0  0
    1.0066    3.5397    2.5289 H   0  0  0  0  0  0  0  0  0  0  0  0
    0.6896    3.8897    0.8118 H   0  0  0  0  0  0  0  0  0  0  0  0
  5  6  2  0  0  0  0
  5  7  1  0  0  0  0
  2  3  1  0  0  0  0
  2  4  1  0  0  0  0
  2  5  1  0  0  0  0
  1  2  1  0  0  0  0
 20 21  2  0  0  0  0
 20 22  1  0  0  0  0
 17 18  1  0  0  0  0
 17 19  2  0  0  0  0
 14 15  1  0  0  0  0
 14 16  1  0  0  0  0
 14 17  1  0  0  0  0
 11 12  1  0  0  0  0
 11 13  1  0  0  0  0
 11 14  1  0  0  0  0
  9 10  1  0  0  0  0
  9 11  1  0  0  0  0
  9 20  1  0  0  0  0
  7  8  1  0  0  0  0
  7  9  1  0  0  0  0
 24 25  1  0  0  0  0
 24 26  1  0  0  0  0
 24 27  1  0  0  0  0
 22 23  1  0  0  0  0
 22 24  1  0  0  0  0
M  CHG  1  18  -1
M  END
$$$$
default_name
  -OEChem-02102213163D

 27 26  0     1  0  0  0  0  0999 V2000
   -3.2406   -3.5400    1.2326 H   0  0  0  0  0  0  0  0  0  0  0  0
   -3.1436   -2.6190    0.6606 C   0  0  0  0  0  0  0  0  0  0  0  0
   -3.8786   -1.8920    0.9996 H   0  0  0  0  0  0  0  0  0  0  0  0
   -3.2846   -2.8280   -0.3984 H   0  0  0  0  0  0  0  0  0  0  0  0
   -1.7586   -2.0580    0.8686 C   0  0  0  0  0  0  0  0  0  0  0  0
   -0.9666   -2.6340    1.6026 O   0  0  0  0  0  0  0  0  0  0  0  0
   -1.4866   -0.9220    0.2366 N   0  0  0  0  0  0  0  0  0  0  0  0
   -2.2166   -0.4790   -0.2994 H   0  0  0  0  0  0  0  0  0  0  0  0
   -0.1956   -0.2250    0.2596 C   0  0  1  0  0  0  0  0  0  0  0  0
    0.3927   -0.6026    1.0964 H   0  0  0  0  0  0  0  0  0  0  0  0
    0.5767   -0.5489   -1.0351 C   0  0  0  0  0  0  0  0  0  0  0  0
    1.6074   -0.7814   -0.7626 H   0  0  0  0  0  0  0  0  0  0  0  0
    0.1376   -1.4298   -1.5056 H   0  0  0  0  0  0  0  0  0  0  0  0
    0.5893    0.6098   -2.0465 C   0  0  0  0  0  0  0  0  0  0  0  0
    1.5821    1.0661   -2.0547 H   0  0  0  0  0  0  0  0  0  0  0  0
    0.3991    0.1988   -3.0414 H   0  0  0  0  0  0  0  0  0  0  0  0
   -0.4505    1.6980   -1.7407 C   0  0  0  0  0  0  0  0  0  0  0  0
   -1.2731    1.4917   -0.8202 O   0  5  0  0  0  0  0  0  0  0  0  0
   -0.3880    2.7423   -2.4268 O   0  0  0  0  0  0  0  0  0  0  0  0
   -0.3954    1.2887    0.4814 C   0  0  0  0  0  0  0  0  0  0  0  0
   -1.2761    1.9015   -0.1256 O   0  0  0  0  0  0  0  0  0  0  0  0
    0.4051    1.8919    1.3699 N   0  0  0  0  0  0  0  0  0  0  0  0
    1.1380    1.3380    1.7875 H   0  0  0  0  0  0  0  0  0  0  0  0
    0.3573    3.3183    1.6807 C   0  0  0  0  0  0  0  0  0  0  0  0
   -0.6670    3.6090    1.9198 H   0  0  0  0  0  0  0  0  0  0  0  0
    1.0066    3.5397    2.5289 H   0  0  0  0  0  0  0  0  0  0  0  0
    0.6896    3.8897    0.8118 H   0  0  0  0  0  0  0  0  0  0  0  0
  5  6  2  0  0  0  0
  5  7  1  0  0  0  0
  2  3  1  0  0  0  0
  2  4  1  0  0  0  0
  2  5  1  0  0  0  0
  1  2  1  0  0  0  0
 20 21  2  0  0  0  0
 20 22  1  0  0  0  0
 17 18  1  0  0  0  0
 17 19  2  0  0  0  0
 14 15  1  0  0  0  0
 14 16  1  0  0  0  0
 14 17  1  0  0  0  0
 11 12  1  0  0  0  0
 11 13  1  0  0  0  0
 11 14  1  0  0  0  0
  9 10  1  0  0  0  0
  9 11  1  0  0  0  0
  9 20  1  0  0  0  0
  7  8  1  0  0  0  0
  7  9  1  0  0  0  0
 24 25  1  0  0  0  0
 24 26  1  0  0  0  0
 24 27  1  0  0  0  0
 22 23  1  0  0  0  0
 22 24  1  0  0  0  0
M  CHG  1  18  -1
M  END
$$$$
default_name
  -OEChem-02102213163D

 27 26  0     1  0  0  0  0  0999 V2000
   -3.2406   -3.5400    1.2326 H   0  0  0  0  0  0  0  0  0  0  0  0
   -3.1436   -2.6190    0.6606 C   0  0  0  0  0  0  0  0  0  0  0  0
   -3.8786   -1.8920    0.9996 H   0  0  0  0  0  0  0  0  0  0  0  0
   -3.2846   -2.8280   -0.3984 H   0  0  0  0  0  0  0  0  0  0  0  0
   -1.7586   -2.0580    0.8686 C   0  0  0  0  0  0  0  0  0  0  0  0
   -0.9666   -2.6340    1.6026 O   0  0  0  0  0  0  0  0  0  0  0  0
   -1.4866   -0.9220    0.2366 N   0  0  0  0  0  0  0  0  0  0  0  0
   -2.2166   -0.4790   -0.2994 H   0  0  0  0  0  0  0  0  0  0  0  0
   -0.1956   -0.2250    0.2596 C   0  0  1  0  0  0  0  0  0  0  0  0
    0.3927   -0.6026    1.0964 H   0  0  0  0  0  0  0  0  0  0  0  0
    0.5767   -0.5489   -1.0351 C   0  0  0  0  0  0  0  0  0  0  0  0
    1.6074   -0.7814   -0.7626 H   0  0  0  0  0  0  0  0  0  0  0  0
    0.1376   -1.4298   -1.5056 H   0  0  0  0  0  0  0  0  0  0  0  0
    0.5893    0.6098   -2.0465 C   0  0  0  0  0  0  0  0  0  0  0  0
    1.6245    0.8908   -2.2550 H   0  0  0  0  0  0  0  0  0  0  0  0
    0.1417    0.2561   -2.9790 H   0  0  0  0  0  0  0  0  0  0  0  0
   -0.1701    1.8529   -1.5598 C   0  0  0  0  0  0  0  0  0  0  0  0
   -0.8205    1.7720   -0.4935 O   0  5  0  0  0  0  0  0  0  0  0  0
   -0.0654    2.8842   -2.2602 O   0  0  0  0  0  0  0  0  0  0  0  0
   -0.3954    1.2887    0.4814 C   0  0  0  0  0  0  0  0  0  0  0  0
   -1.2761    1.9015   -0.1256 O   0  0  0  0  0  0  0  0  0  0  0  0
    0.4051    1.8919    1.3699 N   0  0  0  0  0  0  0  0  0  0  0  0
    1.1380    1.3380    1.7875 H   0  0  0  0  0  0  0  0  0  0  0  0
    0.3573    3.3183    1.6807 C   0  0  0  0  0  0  0  0  0  0  0  0
   -0.6670    3.6090    1.9198 H   0  0  0  0  0  0  0  0  0  0  0  0
    1.0066    3.5397    2.5289 H   0  0  0  0  0  0  0  0  0  0  0  0
    0.6896    3.8897    0.8118 H   0  0  0  0  0  0  0  0  0  0  0  0
  5  6  2  0  0  0  0
  5  7  1  0  0  0  0
  2  3  1  0  0  0  0
  2  4  1  0  0  0  0
  2  5  1  0  0  0  0
  1  2  1  0  0  0  0
 20 21  2  0  0  0  0
 20 22  1  0  0  0  0
 17 18  1  0  0  0  0
 17 19  2  0  0  0  0
 14 15  1  0  0  0  0
 14 16  1  0  0  0  0
 14 17  1  0  0  0  0
 11 12  1  0  0  0  0
 11 13  1  0  0  0  0
 11 14  1  0  0  0  0
  9 10  1  0  0  0  0
  9 11  1  0  0  0  0
  9 20  1  0  0  0  0
  7  8  1  0  0  0  0
  7  9  1  0  0  0  0
 24 25  1  0  0  0  0
 24 26  1  0  0  0  0
 24 27  1  0  0  0  0
 22 23  1  0  0  0  0
 22 24  1  0  0  0  0
M  CHG  1  18  -1
M  END
$$$$
default_name
  -OEChem-02102213163D

 27 26  0     1  0  0  0  0  0999 V2000
   -3.2406   -3.5400    1.2326 H   0  0  0  0  0  0  0  0  0  0  0  0
   -3.1436   -2.6190    0.6606 C   0  0  0  0  0  0  0  0  0  0  0  0
   -3.8786   -1.8920    0.9996 H   0  0  0  0  0  0  0  0  0  0  0  0
   -3.2846   -2.8280   -0.3984 H   0  0  0  0  0  0  0  0  0  0  0  0
   -1.7586   -2.0580    0.8686 C   0  0  0  0  0  0  0  0  0  0  0  0
   -0.9666   -2.6340    1.6026 O   0  0  0  0  0  0  0  0  0  0  0  0
   -1.4866   -0.9220    0.2366 N   0  0  0  0  0  0  0  0  0  0  0  0
   -2.2166   -0.4790   -0.2994 H   0  0  0  0  0  0  0  0  0  0  0  0
   -0.1956   -0.2250    0.2596 C   0  0  1  0  0  0  0  0  0  0  0  0
    0.3927   -0.6026    1.0964 H   0  0  0  0  0  0  0  0  0  0  0  0
    0.5767   -0.5489   -1.0351 C   0  0  0  0  0  0  0  0  0  0  0  0
    1.6074   -0.7814   -0.7626 H   0  0  0  0  0  0  0  0  0  0  0  0
    0.1376   -1.4298   -1.5056 H   0  0  0  0  0  0  0  0  0  0  0  0
    0.5893    0.6098   -2.0465 C   0  0  0  0  0  0  0  0  0  0  0  0
    1.5964    0.7146   -2.4571 H   0  0  0  0  0  0  0  0  0  0  0  0
   -0.0850    0.3551   -2.8684 H   0  0  0  0  0  0  0  0  0  0  0  0
    0.1624    1.9544   -1.4393 C   0  0  0  0  0  0  0  0  0  0  0  0
   -0.2719    1.9650   -0.2655 O   0  5  0  0  0  0  0  0  0  0  0  0
    0.3028    2.9661   -2.1619 O   0  0  0  0  0  0  0  0  0  0  0  0
   -0.3954    1.2887    0.4814 C   0  0  0  0  0  0  0  0  0  0  0  0
   -1.2761    1.9015   -0.1256 O   0  0  0  0  0  0  0  0  0  0  0  0
    0.4051    1.8919    1.3699 N   0  0  0  0  0  0  0  0  0  0  0  0
    1.1380    1.3380    1.7875 H   0  0  0  0  0  0  0  0  0  0  0  0
    0.3573    3.3183    1.6807 C   0  0  0  0  0  0  0  0  0  0  0  0
   -0.6670    3.6090    1.9198 H   0  0  0  0  0  0  0  0  0  0  0  0
    1.0066    3.5397    2.5289 H   0  0  0  0  0  0  0  0  0  0  0  0
    0.6896    3.8897    0.8118 H   0  0  0  0  0  0  0  0  0  0  0  0
  5  6  2  0  0  0  0
  5  7  1  0  0  0  0
  2  3  1  0  0  0  0
  2  4  1  0  0  0  0
  2  5  1  0  0  0  0
  1  2  1  0  0  0  0
 20 21  2  0  0  0  0
 20 22  1  0  0  0  0
 17 18  1  0  0  0  0
 17 19  2  0  0  0  0
 14 15  1  0  0  0  0
 14 16  1  0  0  0  0
 14 17  1  0  0  0  0
 11 12  1  0  0  0  0
 11 13  1  0  0  0  0
 11 14  1  0  0  0  0
  9 10  1  0  0  0  0
  9 11  1  0  0  0  0
  9 20  1  0  0  0  0
  7  8  1  0  0  0  0
  7  9  1  0  0  0  0
 24 25  1  0  0  0  0
 24 26  1  0  0  0  0
 24 27  1  0  0  0  0
 22 23  1  0  0  0  0
 22 24  1  0  0  0  0
M  CHG  1  18  -1
M  END
$$$$
default_name
  -OEChem-02102213163D

 27 26  0     1  0  0  0  0  0999 V2000
   -3.2406   -3.5400    1.2326 H   0  0  0  0  0  0  0  0  0  0  0  0
   -3.1436   -2.6190    0.6606 C   0  0  0  0  0  0  0  0  0  0  0  0
   -3.8786   -1.8920    0.9996 H   0  0  0  0  0  0  0  0  0  0  0  0
   -3.2846   -2.8280   -0.3984 H   0  0  0  0  0  0  0  0  0  0  0  0
   -1.7586   -2.0580    0.8686 C   0  0  0  0  0  0  0  0  0  0  0  0
   -0.9666   -2.6340    1.6026 O   0  0  0  0  0  0  0  0  0  0  0  0
   -1.4866   -0.9220    0.2366 N   0  0  0  0  0  0  0  0  0  0  0  0
   -2.2166   -0.4790   -0.2994 H   0  0  0  0  0  0  0  0  0  0  0  0
   -0.1956   -0.2250    0.2596 C   0  0  1  0  0  0  0  0  0  0  0  0
    0.3927   -0.6026    1.0964 H   0  0  0  0  0  0  0  0  0  0  0  0
    0.5767   -0.5489   -1.0351 C   0  0  0  0  0  0  0  0  0  0  0  0
    1.6074   -0.7814   -0.7626 H   0  0  0  0  0  0  0  0  0  0  0  0
    0.1376   -1.4298   -1.5056 H   0  0  0  0  0  0  0  0  0  0  0  0
    0.5893    0.6098   -2.0465 C   0  0  0  0  0  0  0  0  0  0  0  0
    1.5000    0.5497   -2.6473 H   0  0  0  0  0  0  0  0  0  0  0  0
   -0.2655    0.4891   -2.7171 H   0  0  0  0  0  0  0  0  0  0  0  0
    0.5243    1.9956   -1.3876 C   0  0  0  0  0  0  0  0  0  0  0  0
    0.3353    2.0576   -0.1519 O   0  5  0  0  0  0  0  0  0  0  0  0
    0.6916    2.9822   -2.1385 O   0  0  0  0  0  0  0  0  0  0  0  0
   -0.3954    1.2887    0.4814 C   0  0  0  0  0  0  0  0  0  0  0  0
   -1.2761    1.9015   -0.1256 O   0  0  0  0  0  0  0  0  0  0  0  0
    0.4051    1.8919    1.3699 N   0  0  0  0  0  0  0  0  0  0  0  0
    1.1380    1.3380    1.7875 H   0  0  0  0  0  0  0  0  0  0  0  0
    0.3573    3.3183    1.6807 C   0  0  0  0  0  0  0  0  0  0  0  0
   -0.6670    3.6090    1.9198 H   0  0  0  0  0  0  0  0  0  0  0  0
    1.0066    3.5397    2.5289 H   0  0  0  0  0  0  0  0  0  0  0  0
    0.6896    3.8897    0.8118 H   0  0  0  0  0  0  0  0  0  0  0  0
  5  6  2  0  0  0  0
  5  7  1  0  0  0  0
  2  3  1  0  0  0  0
  2  4  1  0  0  0  0
  2  5  1  0  0  0  0
  1  2  1  0  0  0  0
 20 21  2  0  0  0  0
 20 22  1  0  0  0  0
 17 18  1  0  0  0  0
 17 19  2  0  0  0  0
 14 15  1  0  0  0  0
 14 16  1  0  0  0  0
 14 17  1  0  0  0  0
 11 12  1  0  0  0  0
 11 13  1  0  0  0  0
 11 14  1  0  0  0  0
  9 10  1  0  0  0  0
  9 11  1  0  0  0  0
  9 20  1  0  0  0  0
  7  8  1  0  0  0  0
  7  9  1  0  0  0  0
 24 25  1  0  0  0  0
 24 26  1  0  0  0  0
 24 27  1  0  0  0  0
 22 23  1  0  0  0  0
 22 24  1  0  0  0  0
M  CHG  1  18  -1
M  END
$$$$
default_name
  -OEChem-02102213163D

 27 26  0     1  0  0  0  0  0999 V2000
   -3.2406   -3.5400    1.2326 H   0  0  0  0  0  0  0  0  0  0  0  0
   -3.1436   -2.6190    0.6606 C   0  0  0  0  0  0  0  0  0  0  0  0
   -3.8786   -1.8920    0.9996 H   0  0  0  0  0  0  0  0  0  0  0  0
   -3.2846   -2.8280   -0.3984 H   0  0  0  0  0  0  0  0  0  0  0  0
   -1.7586   -2.0580    0.8686 C   0  0  0  0  0  0  0  0  0  0  0  0
   -0.9666   -2.6340    1.6026 O   0  0  0  0  0  0  0  0  0  0  0  0
   -1.4866   -0.9220    0.2366 N   0  0  0  0  0  0  0  0  0  0  0  0
   -2.2166   -0.4790   -0.2994 H   0  0  0  0  0  0  0  0  0  0  0  0
   -0.1956   -0.2250    0.2596 C   0  0  1  0  0  0  0  0  0  0  0  0
    0.3927   -0.6026    1.0964 H   0  0  0  0  0  0  0  0  0  0  0  0
    0.5767   -0.5489   -1.0351 C   0  0  0  0  0  0  0  0  0  0  0  0
    1.6074   -0.7814   -0.7626 H   0  0  0  0  0  0  0  0  0  0  0  0
    0.1376   -1.4298   -1.5056 H   0  0  0  0  0  0  0  0  0  0  0  0
    0.5893    0.6098   -2.0465 C   0  0  0  0  0  0  0  0  0  0  0  0
    1.3417    0.4072   -2.8125 H   0  0  0  0  0  0  0  0  0  0  0  0
   -0.3876    0.6489   -2.5355 H   0  0  0  0  0  0  0  0  0  0  0  0
    0.8910    1.9738   -1.4081 C   0  0  0  0  0  0  0  0  0  0  0  0
    0.9597    2.0435   -0.1603 O   0  5  0  0  0  0  0  0  0  0  0  0
    1.0745    2.9317   -2.1917 O   0  0  0  0  0  0  0  0  0  0  0  0
   -0.3954    1.2887    0.4814 C   0  0  0  0  0  0  0  0  0  0  0  0
   -1.2761    1.9015   -0.1256 O   0  0  0  0  0  0  0  0  0  0  0  0
    0.4051    1.8919    1.3699 N   0  0  0  0  0  0  0  0  0  0  0  0
    1.1380    1.3380    1.7875 H   0  0  0  0  0  0  0  0  0  0  0  0
    0.3573    3.3183    1.6807 C   0  0  0  0  0  0  0  0  0  0  0  0
   -0.6670    3.6090    1.9198 H   0  0  0  0  0  0  0  0  0  0  0  0
    1.0066    3.5397    2.5289 H   0  0  0  0  0  0  0  0  0  0  0  0
    0.6896    3.8897    0.8118 H   0  0  0  0  0  0  0  0  0  0  0  0
  5  6  2  0  0  0  0
  5  7  1  0  0  0  0
  2  3  1  0  0  0  0
  2  4  1  0  0  0  0
  2  5  1  0  0  0  0
  1  2  1  0  0  0  0
 20 21  2  0  0  0  0
 20 22  1  0  0  0  0
 17 18  1  0  0  0  0
 17 19  2  0  0  0  0
 14 15  1  0  0  0  0
 14 16  1  0  0  0  0
 14 17  1  0  0  0  0
 11 12  1  0  0  0  0
 11 13  1  0  0  0  0
 11 14  1  0  0  0  0
  9 10  1  0  0  0  0
  9 11  1  0  0  0  0
  9 20  1  0  0  0  0
  7  8  1  0  0  0  0
  7  9  1  0  0  0  0
 24 25  1  0  0  0  0
 24 26  1  0  0  0  0
 24 27  1  0  0  0  0
 22 23  1  0  0  0  0
 22 24  1  0  0  0  0
M  CHG  1  18  -1
M  END
$$$$
default_name
  -OEChem-02102213163D

 27 26  0     1  0  0  0  0  0999 V2000
   -3.2406   -3.5400    1.2326 H   0  0  0  0  0  0  0  0  0  0  0  0
   -3.1436   -2.6190    0.6606 C   0  0  0  0  0  0  0  0  0  0  0  0
   -3.8786   -1.8920    0.9996 H   0  0  0  0  0  0  0  0  0  0  0  0
   -3.2846   -2.8280   -0.3984 H   0  0  0  0  0  0  0  0  0  0  0  0
   -1.7586   -2.0580    0.8686 C   0  0  0  0  0  0  0  0  0  0  0  0
   -0.9666   -2.6340    1.6026 O   0  0  0  0  0  0  0  0  0  0  0  0
   -1.4866   -0.9220    0.2366 N   0  0  0  0  0  0  0  0  0  0  0  0
   -2.2166   -0.4790   -0.2994 H   0  0  0  0  0  0  0  0  0  0  0  0
   -0.1956   -0.2250    0.2596 C   0  0  1  0  0  0  0  0  0  0  0  0
    0.3927   -0.6026    1.0964 H   0  0  0  0  0  0  0  0  0  0  0  0
    0.5767   -0.5489   -1.0351 C   0  0  0  0  0  0  0  0  0  0  0  0
    1.6074   -0.7814   -0.7626 H   0  0  0  0  0  0  0  0  0  0  0  0
    0.1376   -1.4298   -1.5056 H   0  0  0  0  0  0  0  0  0  0  0  0
    0.5893    0.6098   -2.0465 C   0  0  0  0  0  0  0  0  0  0  0  0
    1.1323    0.2969   -2.9415 H   0  0  0  0  0  0  0  0  0  0  0  0
   -0.4429    0.8237   -2.3359 H   0  0  0  0  0  0  0  0  0  0  0  0
    1.2375    1.8902   -1.4994 C   0  0  0  0  0  0  0  0  0  0  0  0
    1.5588    1.9235   -0.2902 O   0  5  0  0  0  0  0  0  0  0  0  0
    1.4253    2.8177   -2.3178 O   0  0  0  0  0  0  0  0  0  0  0  0
   -0.3954    1.2887    0.4814 C   0  0  0  0  0  0  0  0  0  0  0  0
   -1.2761    1.9015   -0.1256 O   0  0  0  0  0  0  0  0  0  0  0  0
    0.4051    1.8919    1.3699 N   0  0  0  0  0  0  0  0  0  0  0  0
    1.1380    1.3380    1.7875 H   0  0  0  0  0  0  0  0  0  0  0  0
    0.3573    3.3183    1.6807 C   0  0  0  0  0  0  0  0  0  0  0  0
   -0.6670    3.6090    1.9198 H   0  0  0  0  0  0  0  0  0  0  0  0
    1.0066    3.5397    2.5289 H   0  0  0  0  0  0  0  0  0  0  0  0
    0.6896    3.8897    0.8118 H   0  0  0  0  0  0  0  0  0  0  0  0
  5  6  2  0  0  0  0
  5  7  1  0  0  0  0
  2  3  1  0  0  0  0
  2  4  1  0  0  0  0
  2  5  1  0  0  0  0
  1  2  1  0  0  0  0
 20 21  2  0  0  0  0
 20 22  1  0  0  0  0
 17 18  1  0  0  0  0
 17 19  2  0  0  0  0
 14 15  1  0  0  0  0
 14 16  1  0  0  0  0
 14 17  1  0  0  0  0
 11 12  1  0  0  0  0
 11 13  1  0  0  0  0
 11 14  1  0  0  0  0
  9 10  1  0  0  0  0
  9 11  1  0  0  0  0
  9 20  1  0  0  0  0
  7  8  1  0  0  0  0
  7  9  1  0  0  0  0
 24 25  1  0  0  0  0
 24 26  1  0  0  0  0
 24 27  1  0  0  0  0
 22 23  1  0  0  0  0
 22 24  1  0  0  0  0
M  CHG  1  18  -1
M  END
$$$$
default_name
  -OEChem-02102213163D

 27 26  0     1  0  0  0  0  0999 V2000
   -3.2406   -3.5400    1.2326 H   0  0  0  0  0  0  0  0  0  0  0  0
   -3.1436   -2.6190    0.6606 C   0  0  0  0  0  0  0  0  0  0  0  0
   -3.8786   -1.8920    0.9996 H   0  0  0  0  0  0  0  0  0  0  0  0
   -3.2846   -2.8280   -0.3984 H   0  0  0  0  0  0  0  0  0  0  0  0
   -1.7586   -2.0580    0.8686 C   0  0  0  0  0  0  0  0  0  0  0  0
   -0.9666   -2.6340    1.6026 O   0  0  0  0  0  0  0  0  0  0  0  0
   -1.4866   -0.9220    0.2366 N   0  0  0  0  0  0  0  0  0  0  0  0
   -2.2166   -0.4790   -0.2994 H   0  0  0  0  0  0  0  0  0  0  0  0
   -0.1956   -0.2250    0.2596 C   0  0  1  0  0  0  0  0  0  0  0  0
    0.3927   -0.6026    1.0964 H   0  0  0  0  0  0  0  0  0  0  0  0
    0.5767   -0.5489   -1.0351 C   0  0  0  0  0  0  0  0  0  0  0  0
    1.6074   -0.7814   -0.7626 H   0  0  0  0  0  0  0  0  0  0  0  0
    0.1376   -1.4298   -1.5056 H   0  0  0  0  0  0  0  0  0  0  0  0
    0.5893    0.6098   -2.0465 C   0  0  0  0  0  0  0  0  0  0  0  0
    0.8861    0.2262   -3.0256 H   0  0  0  0  0  0  0  0  0  0  0  0
   -0.4277    1.0015   -2.1320 H   0  0  0  0  0  0  0  0  0  0  0  0
    1.5402    1.7508   -1.6554 C   0  0  0  0  0  0  0  0  0  0  0  0
    2.0918    1.7060   -0.5328 O   0  5  0  0  0  0  0  0  0  0  0  0
    1.7202    2.6483   -2.5083 O   0  0  0  0  0  0  0  0  0  0  0  0
   -0.3954    1.2887    0.4814 C   0  0  0  0  0  0  0  0  0  0  0  0
   -1.2761    1.9015   -0.1256 O   0  0  0  0  0  0  0  0  0  0  0  0
    0.4051    1.8919    1.3699 N   0  0  0  0  0  0  0  0  0  0  0  0
    1.1380    1.3380    1.7875 H   0  0  0  0  0  0  0  0  0  0  0  0
    0.3573    3.3183    1.6807 C   0  0  0  0  0  0  0  0  0  0  0  0
   -0.6670    3.6090    1.9198 H   0  0  0  0  0  0  0  0  0  0  0  0
    1.0066    3.5397    2.5289 H   0  0  0  0  0  0  0  0  0  0  0  0
    0.6896    3.8897    0.8118 H   0  0  0  0  0  0  0  0  0  0  0  0
  5  6  2  0  0  0  0
  5  7  1  0  0  0  0
  2  3  1  0  0  0  0
  2  4  1  0  0  0  0
  2  5  1  0  0  0  0
  1  2  1  0  0  0  0
 20 21  2  0  0  0  0
 20 22  1  0  0  0  0
 17 18  1  0  0  0  0
 17 19  2  0  0  0  0
 14 15  1  0  0  0  0
 14 16  1  0  0  0  0
 14 17  1  0  0  0  0
 11 12  1  0  0  0  0
 11 13  1  0  0  0  0
 11 14  1  0  0  0  0
  9 10  1  0  0  0  0
  9 11  1  0  0  0  0
  9 20  1  0  0  0  0
  7  8  1  0  0  0  0
  7  9  1  0  0  0  0
 24 25  1  0  0  0  0
 24 26  1  0  0  0  0
 24 27  1  0  0  0  0
 22 23  1  0  0  0  0
 22 24  1  0  0  0  0
M  CHG  1  18  -1
M  END
$$$$
default_name
  -OEChem-02102213163D

 27 26  0     1  0  0  0  0  0999 V2000
   -3.2406   -3.5400    1.2326 H   0  0  0  0  0  0  0  0  0  0  0  0
   -3.1436   -2.6190    0.6606 C   0  0  0  0  0  0  0  0  0  0  0  0
   -3.8786   -1.8920    0.9996 H   0  0  0  0  0  0  0  0  0  0  0  0
   -3.2846   -2.8280   -0.3984 H   0  0  0  0  0  0  0  0  0  0  0  0
   -1.7586   -2.0580    0.8686 C   0  0  0  0  0  0  0  0  0  0  0  0
   -0.9666   -2.6340    1.6026 O   0  0  0  0  0  0  0  0  0  0  0  0
   -1.4866   -0.9220    0.2366 N   0  0  0  0  0  0  0  0  0  0  0  0
   -2.2166   -0.4790   -0.2994 H   0  0  0  0  0  0  0  0  0  0  0  0
   -0.1956   -0.2250    0.2596 C   0  0  1  0  0  0  0  0  0  0  0  0
    0.3927   -0.6026    1.0964 H   0  0  0  0  0  0  0  0  0  0  0  0
    0.5767   -0.5489   -1.0351 C   0  0  0  0  0  0  0  0  0  0  0  0
    1.6074   -0.7814   -0.7626 H   0  0  0  0  0  0  0  0  0  0  0  0
    0.1376   -1.4298   -1.5056 H   0  0  0  0  0  0  0  0  0  0  0  0
    0.5893    0.6098   -2.0465 C   0  0  0  0  0  0  0  0  0  0  0  0
    0.6199    0.2000   -3.0589 H   0  0  0  0  0  0  0  0  0  0  0  0
   -0.3430    1.1702   -1.9377 H   0  0  0  0  0  0  0  0  0  0  0  0
    1.7784    1.5649   -1.8654 C   0  0  0  0  0  0  0  0  0  0  0  0
    2.5222    1.4057   -0.8715 O   0  5  0  0  0  0  0  0  0  0  0  0
    1.9390    2.4348   -2.7502 O   0  0  0  0  0  0  0  0  0  0  0  0
   -0.3954    1.2887    0.4814 C   0  0  0  0  0  0  0  0  0  0  0  0
   -1.2761    1.9015   -0.1256 O   0  0  0  0  0  0  0  0  0  0  0  0
    0.4051    1.8919    1.3699 N   0  0  0  0  0  0  0  0  0  0  0  0
    1.1380    1.3380    1.7875 H   0  0  0  0  0  0  0  0  0  0  0  0
    0.3573    3.3183    1.6807 C   0  0  0  0  0  0  0  0  0  0  0  0
   -0.6670    3.6090    1.9198 H   0  0  0  0  0  0  0  0  0  0  0  0
    1.0066    3.5397    2.5289 H   0  0  0  0  0  0  0  0  0  0  0  0
    0.6896    3.8897    0.8118 H   0  0  0  0  0  0  0  0  0  0  0  0
  5  6  2  0  0  0  0
  5  7  1  0  0  0  0
  2  3  1  0  0  0  0
  2  4  1  0  0  0  0
  2  5  1  0  0  0  0
  1  2  1  0  0  0  0
 20 21  2  0  0  0  0
 20 22  1  0  0  0  0
 17 18  1  0  0  0  0
 17 19  2  0  0  0  0
 14 15  1  0  0  0  0
 14 16  1  0  0  0  0
 14 17  1  0  0  0  0
 11 12  1  0  0  0  0
 11 13  1  0  0  0  0
 11 14  1  0  0  0  0
  9 10  1  0  0  0  0
  9 11  1  0  0  0  0
  9 20  1  0  0  0  0
  7  8  1  0  0  0  0
  7  9  1  0  0  0  0
 24 25  1  0  0  0  0
 24 26  1  0  0  0  0
 24 27  1  0  0  0  0
 22 23  1  0  0  0  0
 22 24  1  0  0  0  0
M  CHG  1  18  -1
M  END
$$$$
default_name
  -OEChem-02102213163D

 27 26  0     1  0  0  0  0  0999 V2000
   -3.2406   -3.5400    1.2326 H   0  0  0  0  0  0  0  0  0  0  0  0
   -3.1436   -2.6190    0.6606 C   0  0  0  0  0  0  0  0  0  0  0  0
   -3.8786   -1.8920    0.9996 H   0  0  0  0  0  0  0  0  0  0  0  0
   -3.2846   -2.8280   -0.3984 H   0  0  0  0  0  0  0  0  0  0  0  0
   -1.7586   -2.0580    0.8686 C   0  0  0  0  0  0  0  0  0  0  0  0
   -0.9666   -2.6340    1.6026 O   0  0  0  0  0  0  0  0  0  0  0  0
   -1.4866   -0.9220    0.2366 N   0  0  0  0  0  0  0  0  0  0  0  0
   -2.2166   -0.4790   -0.2994 H   0  0  0  0  0  0  0  0  0  0  0  0
   -0.1956   -0.2250    0.2596 C   0  0  1  0  0  0  0  0  0  0  0  0
    0.3927   -0.6026    1.0964 H   0  0  0  0  0  0  0  0  0  0  0  0
    0.5767   -0.5489   -1.0351 C   0  0  0  0  0  0  0  0  0  0  0  0
    1.6074   -0.7814   -0.7626 H   0  0  0  0  0  0  0  0  0  0  0  0
    0.1376   -1.4298   -1.5056 H   0  0  0  0  0  0  0  0  0  0  0  0
    0.5893    0.6098   -2.0465 C   0  0  0  0  0  0  0  0  0  0  0  0
    0.3518    0.2201   -3.0392 H   0  0  0  0  0  0  0  0  0  0  0  0
   -0.1945    1.3184   -1.7661 H   0  0  0  0  0  0  0  0  0  0  0  0
    1.9359    1.3453   -2.1151 C   0  0  0  0  0  0  0  0  0  0  0  0
    2.8209    1.0431   -1.2832 O   0  5  0  0  0  0  0  0  0  0  0  0
    2.0669    2.1919   -3.0269 O   0  0  0  0  0  0  0  0  0  0  0  0
   -0.3954    1.2887    0.4814 C   0  0  0  0  0  0  0  0  0  0  0  0
   -1.2761    1.9015   -0.1256 O   0  0  0  0  0  0  0  0  0  0  0  0
    0.4051    1.8919    1.3699 N   0  0  0  0  0  0  0  0  0  0  0  0
    1.1380    1.3380    1.7875 H   0  0  0  0  0  0  0  0  0  0  0  0
    0.3573    3.3183    1.6807 C   0  0  0  0  0  0  0  0  0  0  0  0
   -0.6670    3.6090    1.9198 H   0  0  0  0  0  0  0  0  0  0  0  0
    1.0066    3.5397    2.5289 H   0  0  0  0  0  0  0  0  0  0  0  0
    0.6896    3.8897    0.8118 H   0  0  0  0  0  0  0  0  0  0  0  0
  5  6  2  0  0  0  0
  5  7  1  0  0  0  0
  2  3  1  0  0  0  0
  2  4  1  0  0  0  0
  2  5  1  0  0  0  0
  1  2  1  0  0  0  0
 20 21  2  0  0  0  0
 20 22  1  0  0  0  0
 17 18  1  0  0  0  0
 17 19  2  0  0  0  0
 14 15  1  0  0  0  0
 14 16  1  0  0  0  0
 14 17  1  0  0  0  0
 11 12  1  0  0  0  0
 11 13  1  0  0  0  0
 11 14  1  0  0  0  0
  9 10  1  0  0  0  0
  9 11  1  0  0  0  0
  9 20  1  0  0  0  0
  7  8  1  0  0  0  0
  7  9  1  0  0  0  0
 24 25  1  0  0  0  0
 24 26  1  0  0  0  0
 24 27  1  0  0  0  0
 22 23  1  0  0  0  0
 22 24  1  0  0  0  0
M  CHG  1  18  -1
M  END
$$$$
default_name
  -OEChem-02102213163D

 27 26  0     1  0  0  0  0  0999 V2000
   -3.2406   -3.5400    1.2326 H   0  0  0  0  0  0  0  0  0  0  0  0
   -3.1436   -2.6190    0.6606 C   0  0  0  0  0  0  0  0  0  0  0  0
   -3.8786   -1.8920    0.9996 H   0  0  0  0  0  0  0  0  0  0  0  0
   -3.2846   -2.8280   -0.3984 H   0  0  0  0  0  0  0  0  0  0  0  0
   -1.7586   -2.0580    0.8686 C   0  0  0  0  0  0  0  0  0  0  0  0
   -0.9666   -2.6340    1.6026 O   0  0  0  0  0  0  0  0  0  0  0  0
   -1.4866   -0.9220    0.2366 N   0  0  0  0  0  0  0  0  0  0  0  0
   -2.2166   -0.4790   -0.2994 H   0  0  0  0  0  0  0  0  0  0  0  0
   -0.1956   -0.2250    0.2596 C   0  0  1  0  0  0  0  0  0  0  0  0
    0.3927   -0.6026    1.0964 H   0  0  0  0  0  0  0  0  0  0  0  0
    0.5767   -0.5489   -1.0351 C   0  0  0  0  0  0  0  0  0  0  0  0
    1.6074   -0.7814   -0.7626 H   0  0  0  0  0  0  0  0  0  0  0  0
    0.1376   -1.4298   -1.5056 H   0  0  0  0  0  0  0  0  0  0  0  0
    0.5893    0.6098   -2.0465 C   0  0  0  0  0  0  0  0  0  0  0  0
    0.1001    0.2851   -2.9679 H   0  0  0  0  0  0  0  0  0  0  0  0
    0.0075    1.4358   -1.6290 H   0  0  0  0  0  0  0  0  0  0  0  0
    2.0020    1.1069   -2.3874 C   0  0  0  0  0  0  0  0  0  0  0  0
    2.9674    0.6429   -1.7399 O   0  5  0  0  0  0  0  0  0  0  0  0
    2.0952    1.9360   -3.3197 O   0  0  0  0  0  0  0  0  0  0  0  0
   -0.3954    1.2887    0.4814 C   0  0  0  0  0  0  0  0  0  0  0  0
   -1.2761    1.9015   -0.1256 O   0  0  0  0  0  0  0  0  0  0  0  0
    0.4051    1.8919    1.3699 N   0  0  0  0  0  0  0  0  0  0  0  0
    1.1380    1.3380    1.7875 H   0  0  0  0  0  0  0  0  0  0  0  0
    0.3573    3.3183    1.6807 C   0  0  0  0  0  0  0  0  0  0  0  0
   -0.6670    3.6090    1.9198 H   0  0  0  0  0  0  0  0  0  0  0  0
    1.0066    3.5397    2.5289 H   0  0  0  0  0  0  0  0  0  0  0  0
    0.6896    3.8897    0.8118 H   0  0  0  0  0  0  0  0  0  0  0  0
  5  6  2  0  0  0  0
  5  7  1  0  0  0  0
  2  3  1  0  0  0  0
  2  4  1  0  0  0  0
  2  5  1  0  0  0  0
  1  2  1  0  0  0  0
 20 21  2  0  0  0  0
 20 22  1  0  0  0  0
 17 18  1  0  0  0  0
 17 19  2  0  0  0  0
 14 15  1  0  0  0  0
 14 16  1  0  0  0  0
 14 17  1  0  0  0  0
 11 12  1  0  0  0  0
 11 13  1  0  0  0  0
 11 14  1  0  0  0  0
  9 10  1  0  0  0  0
  9 11  1  0  0  0  0
  9 20  1  0  0  0  0
  7  8  1  0  0  0  0
  7  9  1  0  0  0  0
 24 25  1  0  0  0  0
 24 26  1  0  0  0  0
 24 27  1  0  0  0  0
 22 23  1  0  0  0  0
 22 24  1  0  0  0  0
M  CHG  1  18  -1
M  END
$$$$
default_name
  -OEChem-02102213163D

 27 26  0     1  0  0  0  0  0999 V2000
   -3.2406   -3.5400    1.2326 H   0  0  0  0  0  0  0  0  0  0  0  0
   -3.1436   -2.6190    0.6606 C   0  0  0  0  0  0  0  0  0  0  0  0
   -3.8786   -1.8920    0.9996 H   0  0  0  0  0  0  0  0  0  0  0  0
   -3.2846   -2.8280   -0.3984 H   0  0  0  0  0  0  0  0  0  0  0  0
   -1.7586   -2.0580    0.8686 C   0  0  0  0  0  0  0  0  0  0  0  0
   -0.9666   -2.6340    1.6026 O   0  0  0  0  0  0  0  0  0  0  0  0
   -1.4866   -0.9220    0.2366 N   0  0  0  0  0  0  0  0  0  0  0  0
   -2.2166   -0.4790   -0.2994 H   0  0  0  0  0  0  0  0  0  0  0  0
   -0.1956   -0.2250    0.2596 C   0  0  1  0  0  0  0  0  0  0  0  0
    0.3927   -0.6026    1.0964 H   0  0  0  0  0  0  0  0  0  0  0  0
    0.5767   -0.5489   -1.0351 C   0  0  0  0  0  0  0  0  0  0  0  0
    1.6074   -0.7814   -0.7626 H   0  0  0  0  0  0  0  0  0  0  0  0
    0.1376   -1.4298   -1.5056 H   0  0  0  0  0  0  0  0  0  0  0  0
    0.5893    0.6098   -2.0465 C   0  0  0  0  0  0  0  0  0  0  0  0
   -0.1181    0.3905   -2.8498 H   0  0  0  0  0  0  0  0  0  0  0  0
    0.2494    1.5146   -1.5357 H   0  0  0  0  0  0  0  0  0  0  0  0
    1.9721    0.8659   -2.6638 C   0  0  0  0  0  0  0  0  0  0  0  0
    2.9517    0.2324   -2.2104 O   0  5  0  0  0  0  0  0  0  0  0  0
    2.0218    1.6847   -3.6085 O   0  0  0  0  0  0  0  0  0  0  0  0
   -0.3954    1.2887    0.4814 C   0  0  0  0  0  0  0  0  0  0  0  0
   -1.2761    1.9015   -0.1256 O   0  0  0  0  0  0  0  0  0  0  0  0
    0.4051    1.8919    1.3699 N   0  0  0  0  0  0  0  0  0  0  0  0
    1.1380    1.3380    1.7875 H   0  0  0  0  0  0  0  0  0  0  0  0
    0.3573    3.3183    1.6807 C   0  0  0  0  0  0  0  0  0  0  0  0
   -0.6670    3.6090    1.9198 H   0  0  0  0  0  0  0  0  0  0  0  0
    1.0066    3.5397    2.5289 H   0  0  0  0  0  0  0  0  0  0  0  0
    0.6896    3.8897    0.8118 H   0  0  0  0  0  0  0  0  0  0  0  0
  5  6  2  0  0  0  0
  5  7  1  0  0  0  0
  2  3  1  0  0  0  0
  2  4  1  0  0  0  0
  2  5  1  0  0  0  0
  1  2  1  0  0  0  0
 20 21  2  0  0  0  0
 20 22  1  0  0  0  0
 17 18  1  0  0  0  0
 17 19  2  0  0  0  0
 14 15  1  0  0  0  0
 14 16  1  0  0  0  0
 14 17  1  0  0  0  0
 11 12  1  0  0  0  0
 11 13  1  0  0  0  0
 11 14  1  0  0  0  0
  9 10  1  0  0  0  0
  9 11  1  0  0  0  0
  9 20  1  0  0  0  0
  7  8  1  0  0  0  0
  7  9  1  0  0  0  0
 24 25  1  0  0  0  0
 24 26  1  0  0  0  0
 24 27  1  0  0  0  0
 22 23  1  0  0  0  0
 22 24  1  0  0  0  0
M  CHG  1  18  -1
M  END
$$$$
default_name
  -OEChem-02102213163D

 27 26  0     1  0  0  0  0  0999 V2000
   -3.2406   -3.5400    1.2326 H   0  0  0  0  0  0  0  0  0  0  0  0
   -3.1436   -2.6190    0.6606 C   0  0  0  0  0  0  0  0  0  0  0  0
   -3.8786   -1.8920    0.9996 H   0  0  0  0  0  0  0  0  0  0  0  0
   -3.2846   -2.8280   -0.3984 H   0  0  0  0  0  0  0  0  0  0  0  0
   -1.7586   -2.0580    0.8686 C   0  0  0  0  0  0  0  0  0  0  0  0
   -0.9666   -2.6340    1.6026 O   0  0  0  0  0  0  0  0  0  0  0  0
   -1.4866   -0.9220    0.2366 N   0  0  0  0  0  0  0  0  0  0  0  0
   -2.2166   -0.4790   -0.2994 H   0  0  0  0  0  0  0  0  0  0  0  0
   -0.1956   -0.2250    0.2596 C   0  0  1  0  0  0  0  0  0  0  0  0
    0.3927   -0.6026    1.0964 H   0  0  0  0  0  0  0  0  0  0  0  0
    0.5767   -0.5489   -1.0351 C   0  0  0  0  0  0  0  0  0  0  0  0
    1.6074   -0.7814   -0.7626 H   0  0  0  0  0  0  0  0  0  0  0  0
    0.1376   -1.4298   -1.5056 H   0  0  0  0  0  0  0  0  0  0  0  0
    0.5893    0.6098   -2.0465 C   0  0  0  0  0  0  0  0  0  0  0  0
   -0.2878    0.5293   -2.6930 H   0  0  0  0  0  0  0  0  0  0  0  0
    0.5147    1.5494   -1.4926 H   0  0  0  0  0  0  0  0  0  0  0  0
    1.8484    0.6388   -2.9256 C   0  0  0  0  0  0  0  0  0  0  0  0
    2.7750   -0.1605   -2.6627 O   0  5  0  0  0  0  0  0  0  0  0  0
    1.8519    1.4551   -3.8737 O   0  0  0  0  0  0  0  0  0  0  0  0
   -0.3954    1.2887    0.4814 C   0  0  0  0  0  0  0  0  0  0  0  0
   -1.2761    1.9015   -0.1256 O   0  0  0  0  0  0  0  0  0  0  0  0
    0.4051    1.8919    1.3699 N   0  0  0  0  0  0  0  0  0  0  0  0
    1.1380    1.3380    1.7875 H   0  0  0  0  0  0  0  0  0  0  0  0
    0.3573    3.3183    1.6807 C   0  0  0  0  0  0  0  0  0  0  0  0
   -0.6670    3.6090    1.9198 H   0  0  0  0  0  0  0  0  0  0  0  0
    1.0066    3.5397    2.5289 H   0  0  0  0  0  0  0  0  0  0  0  0
    0.6896    3.8897    0.8118 H   0  0  0  0  0  0  0  0  0  0  0  0
  5  6  2  0  0  0  0
  5  7  1  0  0  0  0
  2  3  1  0  0  0  0
  2  4  1  0  0  0  0
  2  5  1  0  0  0  0
  1  2  1  0  0  0  0
 20 21  2  0  0  0  0
 20 22  1  0  0  0  0
 17 18  1  0  0  0  0
 17 19  2  0  0  0  0
 14 15  1  0  0  0  0
 14 16  1  0  0  0  0
 14 17  1  0  0  0  0
 11 12  1  0  0  0  0
 11 13  1  0  0  0  0
 11 14  1  0  0  0  0
  9 10  1  0  0  0  0
  9 11  1  0  0  0  0
  9 20  1  0  0  0  0
  7  8  1  0  0  0  0
  7  9  1  0  0  0  0
 24 25  1  0  0  0  0
 24 26  1  0  0  0  0
 24 27  1  0  0  0  0
 22 23  1  0  0  0  0
 22 24  1  0  0  0  0
M  CHG  1  18  -1
M  END
$$$$
default_name
  -OEChem-02102213163D

 27 26  0     1  0  0  0  0  0999 V2000
   -3.2406   -3.5400    1.2326 H   0  0  0  0  0  0  0  0  0  0  0  0
   -3.1436   -2.6190    0.6606 C   0  0  0  0  0  0  0  0  0  0  0  0
   -3.8786   -1.8920    0.9996 H   0  0  0  0  0  0  0  0  0  0  0  0
   -3.2846   -2.8280   -0.3984 H   0  0  0  0  0  0  0  0  0  0  0  0
   -1.7586   -2.0580    0.8686 C   0  0  0  0  0  0  0  0  0  0  0  0
   -0.9666   -2.6340    1.6026 O   0  0  0  0  0  0  0  0  0  0  0  0
   -1.4866   -0.9220    0.2366 N   0  0  0  0  0  0  0  0  0  0  0  0
   -2.2166   -0.4790   -0.2994 H   0  0  0  0  0  0  0  0  0  0  0  0
   -0.1956   -0.2250    0.2596 C   0  0  1  0  0  0  0  0  0  0  0  0
    0.3927   -0.6026    1.0964 H   0  0  0  0  0  0  0  0  0  0  0  0
    0.5767   -0.5489   -1.0351 C   0  0  0  0  0  0  0  0  0  0  0  0
    1.6074   -0.7814   -0.7626 H   0  0  0  0  0  0  0  0  0  0  0  0
    0.1376   -1.4298   -1.5056 H   0  0  0  0  0  0  0  0  0  0  0  0
    0.5893    0.6098   -2.0465 C   0  0  0  0  0  0  0  0  0  0  0  0
   -0.3976    0.6918   -2.5081 H   0  0  0  0  0  0  0  0  0  0  0  0
    0.7852    1.5377   -1.5026 H   0  0  0  0  0  0  0  0  0  0  0  0
    1.6392    0.4411   -3.1547 C   0  0  0  0  0  0  0  0  0  0  0  0
    2.4492   -0.5089   -3.0660 O   0  5  0  0  0  0  0  0  0  0  0  0
    1.5969    1.2627   -4.0973 O   0  0  0  0  0  0  0  0  0  0  0  0
   -0.3954    1.2887    0.4814 C   0  0  0  0  0  0  0  0  0  0  0  0
   -1.2761    1.9015   -0.1256 O   0  0  0  0  0  0  0  0  0  0  0  0
    0.4051    1.8919    1.3699 N   0  0  0  0  0  0  0  0  0  0  0  0
    1.1380    1.3380    1.7875 H   0  0  0  0  0  0  0  0  0  0  0  0
    0.3573    3.3183    1.6807 C   0  0  0  0  0  0  0  0  0  0  0  0
   -0.6670    3.6090    1.9198 H   0  0  0  0  0  0  0  0  0  0  0  0
    1.0066    3.5397    2.5289 H   0  0  0  0  0  0  0  0  0  0  0  0
    0.6896    3.8897    0.8118 H   0  0  0  0  0  0  0  0  0  0  0  0
  5  6  2  0  0  0  0
  5  7  1  0  0  0  0
  2  3  1  0  0  0  0
  2  4  1  0  0  0  0
  2  5  1  0  0  0  0
  1  2  1  0  0  0  0
 20 21  2  0  0  0  0
 20 22  1  0  0  0  0
 17 18  1  0  0  0  0
 17 19  2  0  0  0  0
 14 15  1  0  0  0  0
 14 16  1  0  0  0  0
 14 17  1  0  0  0  0
 11 12  1  0  0  0  0
 11 13  1  0  0  0  0
 11 14  1  0  0  0  0
  9 10  1  0  0  0  0
  9 11  1  0  0  0  0
  9 20  1  0  0  0  0
  7  8  1  0  0  0  0
  7  9  1  0  0  0  0
 24 25  1  0  0  0  0
 24 26  1  0  0  0  0
 24 27  1  0  0  0  0
 22 23  1  0  0  0  0
 22 24  1  0  0  0  0
M  CHG  1  18  -1
M  END
$$$$
default_name
  -OEChem-02102213163D

 27 26  0     1  0  0  0  0  0999 V2000
   -3.2406   -3.5400    1.2326 H   0  0  0  0  0  0  0  0  0  0  0  0
   -3.1436   -2.6190    0.6606 C   0  0  0  0  0  0  0  0  0  0  0  0
   -3.8786   -1.8920    0.9996 H   0  0  0  0  0  0  0  0  0  0  0  0
   -3.2846   -2.8280   -0.3984 H   0  0  0  0  0  0  0  0  0  0  0  0
   -1.7586   -2.0580    0.8686 C   0  0  0  0  0  0  0  0  0  0  0  0
   -0.9666   -2.6340    1.6026 O   0  0  0  0  0  0  0  0  0  0  0  0
   -1.4866   -0.9220    0.2366 N   0  0  0  0  0  0  0  0  0  0  0  0
   -2.2166   -0.4790   -0.2994 H   0  0  0  0  0  0  0  0  0  0  0  0
   -0.1956   -0.2250    0.2596 C   0  0  1  0  0  0  0  0  0  0  0  0
    0.3927   -0.6026    1.0964 H   0  0  0  0  0  0  0  0  0  0  0  0
    0.5767   -0.5489   -1.0351 C   0  0  0  0  0  0  0  0  0  0  0  0
    1.5127   -1.0352   -0.7557 H   0  0  0  0  0  0  0  0  0  0  0  0
   -0.0072   -1.2459   -1.6380 H   0  0  0  0  0  0  0  0  0  0  0  0
    0.9061    0.6943   -1.8786 C   0  0  0  0  0  0  0  0  0  0  0  0
   -0.0239    1.2029   -2.1436 H   0  0  0  0  0  0  0  0  0  0  0  0
    1.5008    1.3769   -1.2658 H   0  0  0  0  0  0  0  0  0  0  0  0
    1.6753    0.3706   -3.1680 C   0  0  0  0  0  0  0  0  0  0  0  0
    2.0709   -0.8036   -3.3448 O   0  5  0  0  0  0  0  0  0  0  0  0
    1.8352    1.3114   -3.9771 O   0  0  0  0  0  0  0  0  0  0  0  0
   -0.3954    1.2887    0.4814 C   0  0  0  0  0  0  0  0  0  0  0  0
   -1.2761    1.9015   -0.1256 O   0  0  0  0  0  0  0  0  0  0  0  0
    0.4051    1.8919    1.3699 N   0  0  0  0  0  0  0  0  0  0  0  0
    1.1380    1.3380    1.7875 H   0  0  0  0  0  0  0  0  0  0  0  0
    0.3573    3.3183    1.6807 C   0  0  0  0  0  0  0  0  0  0  0  0
   -0.6670    3.6090    1.9198 H   0  0  0  0  0  0  0  0  0  0  0  0
    1.0066    3.5397    2.5289 H   0  0  0  0  0  0  0  0  0  0  0  0
    0.6896    3.8897    0.8118 H   0  0  0  0  0  0  0  0  0  0  0  0
  5  6  2  0  0  0  0
  5  7  1  0  0  0  0
  2  3  1  0  0  0  0
  2  4  1  0  0  0  0
  2  5  1  0  0  0  0
  1  2  1  0  0  0  0
 20 21  2  0  0  0  0
 20 22  1  0  0  0  0
 17 18  1  0  0  0  0
 17 19  2  0  0  0  0
 14 15  1  0  0  0  0
 14 16  1  0  0  0  0
 14 17  1  0  0  0  0
 11 12  1  0  0  0  0
 11 13  1  0  0  0  0
 11 14  1  0  0  0  0
  9 10  1  0  0  0  0
  9 11  1  0  0  0  0
  9 20  1  0  0  0  0
  7  8  1  0  0  0  0
  7  9  1  0  0  0  0
 24 25  1  0  0  0  0
 24 26  1  0  0  0  0
 24 27  1  0  0  0  0
 22 23  1  0  0  0  0
 22 24  1  0  0  0  0
M  CHG  1  18  -1
M  END
$$$$
default_name
  -OEChem-02102213163D

 27 26  0     1  0  0  0  0  0999 V2000
   -3.2406   -3.5400    1.2326 H   0  0  0  0  0  0  0  0  0  0  0  0
   -3.1436   -2.6190    0.6606 C   0  0  0  0  0  0  0  0  0  0  0  0
   -3.8786   -1.8920    0.9996 H   0  0  0  0  0  0  0  0  0  0  0  0
   -3.2846   -2.8280   -0.3984 H   0  0  0  0  0  0  0  0  0  0  0  0
   -1.7586   -2.0580    0.8686 C   0  0  0  0  0  0  0  0  0  0  0  0
   -0.9666   -2.6340    1.6026 O   0  0  0  0  0  0  0  0  0  0  0  0
   -1.4866   -0.9220    0.2366 N   0  0  0  0  0  0  0  0  0  0  0  0
   -2.2166   -0.4790   -0.2994 H   0  0  0  0  0  0  0  0  0  0  0  0
   -0.1956   -0.2250    0.2596 C   0  0  1  0  0  0  0  0  0  0  0  0
    0.3927   -0.6026    1.0964 H   0  0  0  0  0  0  0  0  0  0  0  0
    0.5767   -0.5489   -1.0351 C   0  0  0  0  0  0  0  0  0  0  0  0
    1.5127   -1.0352   -0.7557 H   0  0  0  0  0  0  0  0  0  0  0  0
   -0.0072   -1.2459   -1.6380 H   0  0  0  0  0  0  0  0  0  0  0  0
    0.9061    0.6943   -1.8786 C   0  0  0  0  0  0  0  0  0  0  0  0
    0.0271    1.3422   -1.9185 H   0  0  0  0  0  0  0  0  0  0  0  0
    1.7082    1.2447   -1.3797 H   0  0  0  0  0  0  0  0  0  0  0  0
    1.3379    0.3607   -3.3143 C   0  0  0  0  0  0  0  0  0  0  0  0
    1.5107   -0.8409   -3.6187 O   0  5  0  0  0  0  0  0  0  0  0  0
    1.4656    1.3258   -4.1003 O   0  0  0  0  0  0  0  0  0  0  0  0
   -0.3954    1.2887    0.4814 C   0  0  0  0  0  0  0  0  0  0  0  0
   -1.2761    1.9015   -0.1256 O   0  0  0  0  0  0  0  0  0  0  0  0
    0.4051    1.8919    1.3699 N   0  0  0  0  0  0  0  0  0  0  0  0
    1.1380    1.3380    1.7875 H   0  0  0  0  0  0  0  0  0  0  0  0
    0.3573    3.3183    1.6807 C   0  0  0  0  0  0  0  0  0  0  0  0
   -0.6670    3.6090    1.9198 H   0  0  0  0  0  0  0  0  0  0  0  0
    1.0066    3.5397    2.5289 H   0  0  0  0  0  0  0  0  0  0  0  0
    0.6896    3.8897    0.8118 H   0  0  0  0  0  0  0  0  0  0  0  0
  5  6  2  0  0  0  0
  5  7  1  0  0  0  0
  2  3  1  0  0  0  0
  2  4  1  0  0  0  0
  2  5  1  0  0  0  0
  1  2  1  0  0  0  0
 20 21  2  0  0  0  0
 20 22  1  0  0  0  0
 17 18  1  0  0  0  0
 17 19  2  0  0  0  0
 14 15  1  0  0  0  0
 14 16  1  0  0  0  0
 14 17  1  0  0  0  0
 11 12  1  0  0  0  0
 11 13  1  0  0  0  0
 11 14  1  0  0  0  0
  9 10  1  0  0  0  0
  9 11  1  0  0  0  0
  9 20  1  0  0  0  0
  7  8  1  0  0  0  0
  7  9  1  0  0  0  0
 24 25  1  0  0  0  0
 24 26  1  0  0  0  0
 24 27  1  0  0  0  0
 22 23  1  0  0  0  0
 22 24  1  0  0  0  0
M  CHG  1  18  -1
M  END
$$$$
default_name
  -OEChem-02102213163D

 27 26  0     1  0  0  0  0  0999 V2000
   -3.2406   -3.5400    1.2326 H   0  0  0  0  0  0  0  0  0  0  0  0
   -3.1436   -2.6190    0.6606 C   0  0  0  0  0  0  0  0  0  0  0  0
   -3.8786   -1.8920    0.9996 H   0  0  0  0  0  0  0  0  0  0  0  0
   -3.2846   -2.8280   -0.3984 H   0  0  0  0  0  0  0  0  0  0  0  0
   -1.7586   -2.0580    0.8686 C   0  0  0  0  0  0  0  0  0  0  0  0
   -0.9666   -2.6340    1.6026 O   0  0  0  0  0  0  0  0  0  0  0  0
   -1.4866   -0.9220    0.2366 N   0  0  0  0  0  0  0  0  0  0  0  0
   -2.2166   -0.4790   -0.2994 H   0  0  0  0  0  0  0  0  0  0  0  0
   -0.1956   -0.2250    0.2596 C   0  0  1  0  0  0  0  0  0  0  0  0
    0.3927   -0.6026    1.0964 H   0  0  0  0  0  0  0  0  0  0  0  0
    0.5767   -0.5489   -1.0351 C   0  0  0  0  0  0  0  0  0  0  0  0
    1.5127   -1.0352   -0.7557 H   0  0  0  0  0  0  0  0  0  0  0  0
   -0.0072   -1.2459   -1.6380 H   0  0  0  0  0  0  0  0  0  0  0  0
    0.9061    0.6943   -1.8786 C   0  0  0  0  0  0  0  0  0  0  0  0
    0.1433    1.4569   -1.7040 H   0  0  0  0  0  0  0  0  0  0  0  0
    1.8658    1.0939   -1.5404 H   0  0  0  0  0  0  0  0  0  0  0  0
    0.9799    0.4072   -3.3856 C   0  0  0  0  0  0  0  0  0  0  0  0
    0.9070   -0.7823   -3.7680 O   0  5  0  0  0  0  0  0  0  0  0  0
    1.0849    1.3989   -4.1412 O   0  0  0  0  0  0  0  0  0  0  0  0
   -0.3954    1.2887    0.4814 C   0  0  0  0  0  0  0  0  0  0  0  0
   -1.2761    1.9015   -0.1256 O   0  0  0  0  0  0  0  0  0  0  0  0
    0.4051    1.8919    1.3699 N   0  0  0  0  0  0  0  0  0  0  0  0
    1.1380    1.3380    1.7875 H   0  0  0  0  0  0  0  0  0  0  0  0
    0.3573    3.3183    1.6807 C   0  0  0  0  0  0  0  0  0  0  0  0
   -0.6670    3.6090    1.9198 H   0  0  0  0  0  0  0  0  0  0  0  0
    1.0066    3.5397    2.5289 H   0  0  0  0  0  0  0  0  0  0  0  0
    0.6896    3.8897    0.8118 H   0  0  0  0  0  0  0  0  0  0  0  0
  5  6  2  0  0  0  0
  5  7  1  0  0  0  0
  2  3  1  0  0  0  0
  2  4  1  0  0  0  0
  2  5  1  0  0  0  0
  1  2  1  0  0  0  0
 20 21  2  0  0  0  0
 20 22  1  0  0  0  0
 17 18  1  0  0  0  0
 17 19  2  0  0  0  0
 14 15  1  0  0  0  0
 14 16  1  0  0  0  0
 14 17  1  0  0  0  0
 11 12  1  0  0  0  0
 11 13  1  0  0  0  0
 11 14  1  0  0  0  0
  9 10  1  0  0  0  0
  9 11  1  0  0  0  0
  9 20  1  0  0  0  0
  7  8  1  0  0  0  0
  7  9  1  0  0  0  0
 24 25  1  0  0  0  0
 24 26  1  0  0  0  0
 24 27  1  0  0  0  0
 22 23  1  0  0  0  0
 22 24  1  0  0  0  0
M  CHG  1  18  -1
M  END
$$$$
default_name
  -OEChem-02102213163D

 27 26  0     1  0  0  0  0  0999 V2000
   -3.2406   -3.5400    1.2326 H   0  0  0  0  0  0  0  0  0  0  0  0
   -3.1436   -2.6190    0.6606 C   0  0  0  0  0  0  0  0  0  0  0  0
   -3.8786   -1.8920    0.9996 H   0  0  0  0  0  0  0  0  0  0  0  0
   -3.2846   -2.8280   -0.3984 H   0  0  0  0  0  0  0  0  0  0  0  0
   -1.7586   -2.0580    0.8686 C   0  0  0  0  0  0  0  0  0  0  0  0
   -0.9666   -2.6340    1.6026 O   0  0  0  0  0  0  0  0  0  0  0  0
   -1.4866   -0.9220    0.2366 N   0  0  0  0  0  0  0  0  0  0  0  0
   -2.2166   -0.4790   -0.2994 H   0  0  0  0  0  0  0  0  0  0  0  0
   -0.1956   -0.2250    0.2596 C   0  0  1  0  0  0  0  0  0  0  0  0
    0.3927   -0.6026    1.0964 H   0  0  0  0  0  0  0  0  0  0  0  0
    0.5767   -0.5489   -1.0351 C   0  0  0  0  0  0  0  0  0  0  0  0
    1.5127   -1.0352   -0.7557 H   0  0  0  0  0  0  0  0  0  0  0  0
   -0.0072   -1.2459   -1.6380 H   0  0  0  0  0  0  0  0  0  0  0  0
    0.9061    0.6943   -1.8786 C   0  0  0  0  0  0  0  0  0  0  0  0
    0.3167    1.5393   -1.5148 H   0  0  0  0  0  0  0  0  0  0  0  0
    1.9631    0.9347   -1.7370 H   0  0  0  0  0  0  0  0  0  0  0  0
    0.6258    0.5069   -3.3770 C   0  0  0  0  0  0  0  0  0  0  0  0
    0.3010   -0.6317   -3.7827 O   0  5  0  0  0  0  0  0  0  0  0  0
    0.7190    1.5258   -4.0970 O   0  0  0  0  0  0  0  0  0  0  0  0
   -0.3954    1.2887    0.4814 C   0  0  0  0  0  0  0  0  0  0  0  0
   -1.2761    1.9015   -0.1256 O   0  0  0  0  0  0  0  0  0  0  0  0
    0.4051    1.8919    1.3699 N   0  0  0  0  0  0  0  0  0  0  0  0
    1.1380    1.3380    1.7875 H   0  0  0  0  0  0  0  0  0  0  0  0
    0.3573    3.3183    1.6807 C   0  0  0  0  0  0  0  0  0  0  0  0
   -0.6670    3.6090    1.9198 H   0  0  0  0  0  0  0  0  0  0  0  0
    1.0066    3.5397    2.5289 H   0  0  0  0  0  0  0  0  0  0  0  0
    0.6896    3.8897    0.8118 H   0  0  0  0  0  0  0  0  0  0  0  0
  5  6  2  0  0  0  0
  5  7  1  0  0  0  0
  2  3  1  0  0  0  0
  2  4  1  0  0  0  0
  2  5  1  0  0  0  0
  1  2  1  0  0  0  0
 20 21  2  0  0  0  0
 20 22  1  0  0  0  0
 17 18  1  0  0  0  0
 17 19  2  0  0  0  0
 14 15  1  0  0  0  0
 14 16  1  0  0  0  0
 14 17  1  0  0  0  0
 11 12  1  0  0  0  0
 11 13  1  0  0  0  0
 11 14  1  0  0  0  0
  9 10  1  0  0  0  0
  9 11  1  0  0  0  0
  9 20  1  0  0  0  0
  7  8  1  0  0  0  0
  7  9  1  0  0  0  0
 24 25  1  0  0  0  0
 24 26  1  0  0  0  0
 24 27  1  0  0  0  0
 22 23  1  0  0  0  0
 22 24  1  0  0  0  0
M  CHG  1  18  -1
M  END
$$$$
default_name
  -OEChem-02102213163D

 27 26  0     1  0  0  0  0  0999 V2000
   -3.2406   -3.5400    1.2326 H   0  0  0  0  0  0  0  0  0  0  0  0
   -3.1436   -2.6190    0.6606 C   0  0  0  0  0  0  0  0  0  0  0  0
   -3.8786   -1.8920    0.9996 H   0  0  0  0  0  0  0  0  0  0  0  0
   -3.2846   -2.8280   -0.3984 H   0  0  0  0  0  0  0  0  0  0  0  0
   -1.7586   -2.0580    0.8686 C   0  0  0  0  0  0  0  0  0  0  0  0
   -0.9666   -2.6340    1.6026 O   0  0  0  0  0  0  0  0  0  0  0  0
   -1.4866   -0.9220    0.2366 N   0  0  0  0  0  0  0  0  0  0  0  0
   -2.2166   -0.4790   -0.2994 H   0  0  0  0  0  0  0  0  0  0  0  0
   -0.1956   -0.2250    0.2596 C   0  0  1  0  0  0  0  0  0  0  0  0
    0.3927   -0.6026    1.0964 H   0  0  0  0  0  0  0  0  0  0  0  0
    0.5767   -0.5489   -1.0351 C   0  0  0  0  0  0  0  0  0  0  0  0
    1.5127   -1.0352   -0.7557 H   0  0  0  0  0  0  0  0  0  0  0  0
   -0.0072   -1.2459   -1.6380 H   0  0  0  0  0  0  0  0  0  0  0  0
    0.9061    0.6943   -1.8786 C   0  0  0  0  0  0  0  0  0  0  0  0
    0.5355    1.5839   -1.3637 H   0  0  0  0  0  0  0  0  0  0  0  0
    1.9934    0.7781   -1.9560 H   0  0  0  0  0  0  0  0  0  0  0  0
    0.2998    0.6529   -3.2891 C   0  0  0  0  0  0  0  0  0  0  0  0
   -0.2661   -0.3994   -3.6618 O   0  5  0  0  0  0  0  0  0  0  0  0
    0.3928    1.6979   -3.9707 O   0  0  0  0  0  0  0  0  0  0  0  0
   -0.3954    1.2887    0.4814 C   0  0  0  0  0  0  0  0  0  0  0  0
   -1.2761    1.9015   -0.1256 O   0  0  0  0  0  0  0  0  0  0  0  0
    0.4051    1.8919    1.3699 N   0  0  0  0  0  0  0  0  0  0  0  0
    1.1380    1.3380    1.7875 H   0  0  0  0  0  0  0  0  0  0  0  0
    0.3573    3.3183    1.6807 C   0  0  0  0  0  0  0  0  0  0  0  0
   -0.6670    3.6090    1.9198 H   0  0  0  0  0  0  0  0  0  0  0  0
    1.0066    3.5397    2.5289 H   0  0  0  0  0  0  0  0  0  0  0  0
    0.6896    3.8897    0.8118 H   0  0  0  0  0  0  0  0  0  0  0  0
  5  6  2  0  0  0  0
  5  7  1  0  0  0  0
  2  3  1  0  0  0  0
  2  4  1  0  0  0  0
  2  5  1  0  0  0  0
  1  2  1  0  0  0  0
 20 21  2  0  0  0  0
 20 22  1  0  0  0  0
 17 18  1  0  0  0  0
 17 19  2  0  0  0  0
 14 15  1  0  0  0  0
 14 16  1  0  0  0  0
 14 17  1  0  0  0  0
 11 12  1  0  0  0  0
 11 13  1  0  0  0  0
 11 14  1  0  0  0  0
  9 10  1  0  0  0  0
  9 11  1  0  0  0  0
  9 20  1  0  0  0  0
  7  8  1  0  0  0  0
  7  9  1  0  0  0  0
 24 25  1  0  0  0  0
 24 26  1  0  0  0  0
 24 27  1  0  0  0  0
 22 23  1  0  0  0  0
 22 24  1  0  0  0  0
M  CHG  1  18  -1
M  END
$$$$
default_name
  -OEChem-02102213163D

 27 26  0     1  0  0  0  0  0999 V2000
   -3.2406   -3.5400    1.2326 H   0  0  0  0  0  0  0  0  0  0  0  0
   -3.1436   -2.6190    0.6606 C   0  0  0  0  0  0  0  0  0  0  0  0
   -3.8786   -1.8920    0.9996 H   0  0  0  0  0  0  0  0  0  0  0  0
   -3.2846   -2.8280   -0.3984 H   0  0  0  0  0  0  0  0  0  0  0  0
   -1.7586   -2.0580    0.8686 C   0  0  0  0  0  0  0  0  0  0  0  0
   -0.9666   -2.6340    1.6026 O   0  0  0  0  0  0  0  0  0  0  0  0
   -1.4866   -0.9220    0.2366 N   0  0  0  0  0  0  0  0  0  0  0  0
   -2.2166   -0.4790   -0.2994 H   0  0  0  0  0  0  0  0  0  0  0  0
   -0.1956   -0.2250    0.2596 C   0  0  1  0  0  0  0  0  0  0  0  0
    0.3927   -0.6026    1.0964 H   0  0  0  0  0  0  0  0  0  0  0  0
    0.5767   -0.5489   -1.0351 C   0  0  0  0  0  0  0  0  0  0  0  0
    1.5127   -1.0352   -0.7557 H   0  0  0  0  0  0  0  0  0  0  0  0
   -0.0072   -1.2459   -1.6380 H   0  0  0  0  0  0  0  0  0  0  0  0
    0.9061    0.6943   -1.8786 C   0  0  0  0  0  0  0  0  0  0  0  0
    0.7847    1.5875   -1.2611 H   0  0  0  0  0  0  0  0  0  0  0  0
    1.9545    0.6346   -2.1826 H   0  0  0  0  0  0  0  0  0  0  0  0
    0.0239    0.8354   -3.1279 C   0  0  0  0  0  0  0  0  0  0  0  0
   -0.7556   -0.1013   -3.4135 O   0  5  0  0  0  0  0  0  0  0  0  0
    0.1286    1.9035   -3.7709 O   0  0  0  0  0  0  0  0  0  0  0  0
   -0.3954    1.2887    0.4814 C   0  0  0  0  0  0  0  0  0  0  0  0
   -1.2761    1.9015   -0.1256 O   0  0  0  0  0  0  0  0  0  0  0  0
    0.4051    1.8919    1.3699 N   0  0  0  0  0  0  0  0  0  0  0  0
    1.1380    1.3380    1.7875 H   0  0  0  0  0  0  0  0  0  0  0  0
    0.3573    3.3183    1.6807 C   0  0  0  0  0  0  0  0  0  0  0  0
   -0.6670    3.6090    1.9198 H   0  0  0  0  0  0  0  0  0  0  0  0
    1.0066    3.5397    2.5289 H   0  0  0  0  0  0  0  0  0  0  0  0
    0.6896    3.8897    0.8118 H   0  0  0  0  0  0  0  0  0  0  0  0
  5  6  2  0  0  0  0
  5  7  1  0  0  0  0
  2  3  1  0  0  0  0
  2  4  1  0  0  0  0
  2  5  1  0  0  0  0
  1  2  1  0  0  0  0
 20 21  2  0  0  0  0
 20 22  1  0  0  0  0
 17 18  1  0  0  0  0
 17 19  2  0  0  0  0
 14 15  1  0  0  0  0
 14 16  1  0  0  0  0
 14 17  1  0  0  0  0
 11 12  1  0  0  0  0
 11 13  1  0  0  0  0
 11 14  1  0  0  0  0
  9 10  1  0  0  0  0
  9 11  1  0  0  0  0
  9 20  1  0  0  0  0
  7  8  1  0  0  0  0
  7  9  1  0  0  0  0
 24 25  1  0  0  0  0
 24 26  1  0  0  0  0
 24 27  1  0  0  0  0
 22 23  1  0  0  0  0
 22 24  1  0  0  0  0
M  CHG  1  18  -1
M  END
$$$$
default_name
  -OEChem-02102213163D

 27 26  0     1  0  0  0  0  0999 V2000
   -3.2406   -3.5400    1.2326 H   0  0  0  0  0  0  0  0  0  0  0  0
   -3.1436   -2.6190    0.6606 C   0  0  0  0  0  0  0  0  0  0  0  0
   -3.8786   -1.8920    0.9996 H   0  0  0  0  0  0  0  0  0  0  0  0
   -3.2846   -2.8280   -0.3984 H   0  0  0  0  0  0  0  0  0  0  0  0
   -1.7586   -2.0580    0.8686 C   0  0  0  0  0  0  0  0  0  0  0  0
   -0.9666   -2.6340    1.6026 O   0  0  0  0  0  0  0  0  0  0  0  0
   -1.4866   -0.9220    0.2366 N   0  0  0  0  0  0  0  0  0  0  0  0
   -2.2166   -0.4790   -0.2994 H   0  0  0  0  0  0  0  0  0  0  0  0
   -0.1956   -0.2250    0.2596 C   0  0  1  0  0  0  0  0  0  0  0  0
    0.3927   -0.6026    1.0964 H   0  0  0  0  0  0  0  0  0  0  0  0
    0.5767   -0.5489   -1.0351 C   0  0  0  0  0  0  0  0  0  0  0  0
    1.5127   -1.0352   -0.7557 H   0  0  0  0  0  0  0  0  0  0  0  0
   -0.0072   -1.2459   -1.6380 H   0  0  0  0  0  0  0  0  0  0  0  0
    0.9061    0.6943   -1.8786 C   0  0  0  0  0  0  0  0  0  0  0  0
    1.0474    1.5499   -1.2139 H   0  0  0  0  0  0  0  0  0  0  0  0
    1.8493    0.5141   -2.4013 H   0  0  0  0  0  0  0  0  0  0  0  0
   -0.1829    1.0419   -2.9044 C   0  0  0  0  0  0  0  0  0  0  0  0
   -1.1342    0.2425   -3.0548 O   0  5  0  0  0  0  0  0  0  0  0  0
   -0.0556    2.1285   -3.5113 O   0  0  0  0  0  0  0  0  0  0  0  0
   -0.3954    1.2887    0.4814 C   0  0  0  0  0  0  0  0  0  0  0  0
   -1.2761    1.9015   -0.1256 O   0  0  0  0  0  0  0  0  0  0  0  0
    0.4051    1.8919    1.3699 N   0  0  0  0  0  0  0  0  0  0  0  0
    1.1380    1.3380    1.7875 H   0  0  0  0  0  0  0  0  0  0  0  0
    0.3573    3.3183    1.6807 C   0  0  0  0  0  0  0  0  0  0  0  0
   -0.6670    3.6090    1.9198 H   0  0  0  0  0  0  0  0  0  0  0  0
    1.0066    3.5397    2.5289 H   0  0  0  0  0  0  0  0  0  0  0  0
    0.6896    3.8897    0.8118 H   0  0  0  0  0  0  0  0  0  0  0  0
  5  6  2  0  0  0  0
  5  7  1  0  0  0  0
  2  3  1  0  0  0  0
  2  4  1  0  0  0  0
  2  5  1  0  0  0  0
  1  2  1  0  0  0  0
 20 21  2  0  0  0  0
 20 22  1  0  0  0  0
 17 18  1  0  0  0  0
 17 19  2  0  0  0  0
 14 15  1  0  0  0  0
 14 16  1  0  0  0  0
 14 17  1  0  0  0  0
 11 12  1  0  0  0  0
 11 13  1  0  0  0  0
 11 14  1  0  0  0  0
  9 10  1  0  0  0  0
  9 11  1  0  0  0  0
  9 20  1  0  0  0  0
  7  8  1  0  0  0  0
  7  9  1  0  0  0  0
 24 25  1  0  0  0  0
 24 26  1  0  0  0  0
 24 27  1  0  0  0  0
 22 23  1  0  0  0  0
 22 24  1  0  0  0  0
M  CHG  1  18  -1
M  END
$$$$
default_name
  -OEChem-02102213163D

 27 26  0     1  0  0  0  0  0999 V2000
   -3.2406   -3.5400    1.2326 H   0  0  0  0  0  0  0  0  0  0  0  0
   -3.1436   -2.6190    0.6606 C   0  0  0  0  0  0  0  0  0  0  0  0
   -3.8786   -1.8920    0.9996 H   0  0  0  0  0  0  0  0  0  0  0  0
   -3.2846   -2.8280   -0.3984 H   0  0  0  0  0  0  0  0  0  0  0  0
   -1.7586   -2.0580    0.8686 C   0  0  0  0  0  0  0  0  0  0  0  0
   -0.9666   -2.6340    1.6026 O   0  0  0  0  0  0  0  0  0  0  0  0
   -1.4866   -0.9220    0.2366 N   0  0  0  0  0  0  0  0  0  0  0  0
   -2.2166   -0.4790   -0.2994 H   0  0  0  0  0  0  0  0  0  0  0  0
   -0.1956   -0.2250    0.2596 C   0  0  1  0  0  0  0  0  0  0  0  0
    0.3927   -0.6026    1.0964 H   0  0  0  0  0  0  0  0  0  0  0  0
    0.5767   -0.5489   -1.0351 C   0  0  0  0  0  0  0  0  0  0  0  0
    1.5127   -1.0352   -0.7557 H   0  0  0  0  0  0  0  0  0  0  0  0
   -0.0072   -1.2459   -1.6380 H   0  0  0  0  0  0  0  0  0  0  0  0
    0.9061    0.6943   -1.8786 C   0  0  0  0  0  0  0  0  0  0  0  0
    1.3057    1.4737   -1.2253 H   0  0  0  0  0  0  0  0  0  0  0  0
    1.6847    0.4248   -2.5972 H   0  0  0  0  0  0  0  0  0  0  0  0
   -0.3066    1.2583   -2.6337 C   0  0  0  0  0  0  0  0  0  0  0  0
   -1.3760    0.6084   -2.6100 O   0  5  0  0  0  0  0  0  0  0  0  0
   -0.1474    2.3575   -3.2095 O   0  0  0  0  0  0  0  0  0  0  0  0
   -0.3954    1.2887    0.4814 C   0  0  0  0  0  0  0  0  0  0  0  0
   -1.2761    1.9015   -0.1256 O   0  0  0  0  0  0  0  0  0  0  0  0
    0.4051    1.8919    1.3699 N   0  0  0  0  0  0  0  0  0  0  0  0
    1.1380    1.3380    1.7875 H   0  0  0  0  0  0  0  0  0  0  0  0
    0.3573    3.3183    1.6807 C   0  0  0  0  0  0  0  0  0  0  0  0
   -0.6670    3.6090    1.9198 H   0  0  0  0  0  0  0  0  0  0  0  0
    1.0066    3.5397    2.5289 H   0  0  0  0  0  0  0  0  0  0  0  0
    0.6896    3.8897    0.8118 H   0  0  0  0  0  0  0  0  0  0  0  0
  5  6  2  0  0  0  0
  5  7  1  0  0  0  0
  2  3  1  0  0  0  0
  2  4  1  0  0  0  0
  2  5  1  0  0  0  0
  1  2  1  0  0  0  0
 20 21  2  0  0  0  0
 20 22  1  0  0  0  0
 17 18  1  0  0  0  0
 17 19  2  0  0  0  0
 14 15  1  0  0  0  0
 14 16  1  0  0  0  0
 14 17  1  0  0  0  0
 11 12  1  0  0  0  0
 11 13  1  0  0  0  0
 11 14  1  0  0  0  0
  9 10  1  0  0  0  0
  9 11  1  0  0  0  0
  9 20  1  0  0  0  0
  7  8  1  0  0  0  0
  7  9  1  0  0  0  0
 24 25  1  0  0  0  0
 24 26  1  0  0  0  0
 24 27  1  0  0  0  0
 22 23  1  0  0  0  0
 22 24  1  0  0  0  0
M  CHG  1  18  -1
M  END
$$$$
default_name
  -OEChem-02102213163D

 27 26  0     1  0  0  0  0  0999 V2000
   -3.2406   -3.5400    1.2326 H   0  0  0  0  0  0  0  0  0  0  0  0
   -3.1436   -2.6190    0.6606 C   0  0  0  0  0  0  0  0  0  0  0  0
   -3.8786   -1.8920    0.9996 H   0  0  0  0  0  0  0  0  0  0  0  0
   -3.2846   -2.8280   -0.3984 H   0  0  0  0  0  0  0  0  0  0  0  0
   -1.7586   -2.0580    0.8686 C   0  0  0  0  0  0  0  0  0  0  0  0
   -0.9666   -2.6340    1.6026 O   0  0  0  0  0  0  0  0  0  0  0  0
   -1.4866   -0.9220    0.2366 N   0  0  0  0  0  0  0  0  0  0  0  0
   -2.2166   -0.4790   -0.2994 H   0  0  0  0  0  0  0  0  0  0  0  0
   -0.1956   -0.2250    0.2596 C   0  0  1  0  0  0  0  0  0  0  0  0
    0.3927   -0.6026    1.0964 H   0  0  0  0  0  0  0  0  0  0  0  0
    0.5767   -0.5489   -1.0351 C   0  0  0  0  0  0  0  0  0  0  0  0
    1.5127   -1.0352   -0.7557 H   0  0  0  0  0  0  0  0  0  0  0  0
   -0.0072   -1.2459   -1.6380 H   0  0  0  0  0  0  0  0  0  0  0  0
    0.9061    0.6943   -1.8786 C   0  0  0  0  0  0  0  0  0  0  0  0
    1.5420    1.3640   -1.2947 H   0  0  0  0  0  0  0  0  0  0  0  0
    1.4721    0.3728   -2.7569 H   0  0  0  0  0  0  0  0  0  0  0  0
   -0.3387    1.4698   -2.3345 C   0  0  0  0  0  0  0  0  0  0  0  0
   -1.4646    0.9714   -2.1094 O   0  5  0  0  0  0  0  0  0  0  0  0
   -0.1403    2.5751   -2.8861 O   0  0  0  0  0  0  0  0  0  0  0  0
   -0.3954    1.2887    0.4814 C   0  0  0  0  0  0  0  0  0  0  0  0
   -1.2761    1.9015   -0.1256 O   0  0  0  0  0  0  0  0  0  0  0  0
    0.4051    1.8919    1.3699 N   0  0  0  0  0  0  0  0  0  0  0  0
    1.1380    1.3380    1.7875 H   0  0  0  0  0  0  0  0  0  0  0  0
    0.3573    3.3183    1.6807 C   0  0  0  0  0  0  0  0  0  0  0  0
   -0.6670    3.6090    1.9198 H   0  0  0  0  0  0  0  0  0  0  0  0
    1.0066    3.5397    2.5289 H   0  0  0  0  0  0  0  0  0  0  0  0
    0.6896    3.8897    0.8118 H   0  0  0  0  0  0  0  0  0  0  0  0
  5  6  2  0  0  0  0
  5  7  1  0  0  0  0
  2  3  1  0  0  0  0
  2  4  1  0  0  0  0
  2  5  1  0  0  0  0
  1  2  1  0  0  0  0
 20 21  2  0  0  0  0
 20 22  1  0  0  0  0
 17 18  1  0  0  0  0
 17 19  2  0  0  0  0
 14 15  1  0  0  0  0
 14 16  1  0  0  0  0
 14 17  1  0  0  0  0
 11 12  1  0  0  0  0
 11 13  1  0  0  0  0
 11 14  1  0  0  0  0
  9 10  1  0  0  0  0
  9 11  1  0  0  0  0
  9 20  1  0  0  0  0
  7  8  1  0  0  0  0
  7  9  1  0  0  0  0
 24 25  1  0  0  0  0
 24 26  1  0  0  0  0
 24 27  1  0  0  0  0
 22 23  1  0  0  0  0
 22 24  1  0  0  0  0
M  CHG  1  18  -1
M  END
$$$$
default_name
  -OEChem-02102213163D

 27 26  0     1  0  0  0  0  0999 V2000
   -3.2406   -3.5400    1.2326 H   0  0  0  0  0  0  0  0  0  0  0  0
   -3.1436   -2.6190    0.6606 C   0  0  0  0  0  0  0  0  0  0  0  0
   -3.8786   -1.8920    0.9996 H   0  0  0  0  0  0  0  0  0  0  0  0
   -3.2846   -2.8280   -0.3984 H   0  0  0  0  0  0  0  0  0  0  0  0
   -1.7586   -2.0580    0.8686 C   0  0  0  0  0  0  0  0  0  0  0  0
   -0.9666   -2.6340    1.6026 O   0  0  0  0  0  0  0  0  0  0  0  0
   -1.4866   -0.9220    0.2366 N   0  0  0  0  0  0  0  0  0  0  0  0
   -2.2166   -0.4790   -0.2994 H   0  0  0  0  0  0  0  0  0  0  0  0
   -0.1956   -0.2250    0.2596 C   0  0  1  0  0  0  0  0  0  0  0  0
    0.3927   -0.6026    1.0964 H   0  0  0  0  0  0  0  0  0  0  0  0
    0.5767   -0.5489   -1.0351 C   0  0  0  0  0  0  0  0  0  0  0  0
    1.5127   -1.0352   -0.7557 H   0  0  0  0  0  0  0  0  0  0  0  0
   -0.0072   -1.2459   -1.6380 H   0  0  0  0  0  0  0  0  0  0  0  0
    0.9061    0.6943   -1.8786 C   0  0  0  0  0  0  0  0  0  0  0  0
    1.7402    1.2284   -1.4172 H   0  0  0  0  0  0  0  0  0  0  0  0
    1.2260    0.3615   -2.8696 H   0  0  0  0  0  0  0  0  0  0  0  0
   -0.2771    1.6622   -2.0269 C   0  0  0  0  0  0  0  0  0  0  0  0
   -1.3939    1.3070   -1.5873 O   0  5  0  0  0  0  0  0  0  0  0  0
   -0.0350    2.7663   -2.5632 O   0  0  0  0  0  0  0  0  0  0  0  0
   -0.3954    1.2887    0.4814 C   0  0  0  0  0  0  0  0  0  0  0  0
   -1.2761    1.9015   -0.1256 O   0  0  0  0  0  0  0  0  0  0  0  0
    0.4051    1.8919    1.3699 N   0  0  0  0  0  0  0  0  0  0  0  0
    1.1380    1.3380    1.7875 H   0  0  0  0  0  0  0  0  0  0  0  0
    0.3573    3.3183    1.6807 C   0  0  0  0  0  0  0  0  0  0  0  0
   -0.6670    3.6090    1.9198 H   0  0  0  0  0  0  0  0  0  0  0  0
    1.0066    3.5397    2.5289 H   0  0  0  0  0  0  0  0  0  0  0  0
    0.6896    3.8897    0.8118 H   0  0  0  0  0  0  0  0  0  0  0  0
  5  6  2  0  0  0  0
  5  7  1  0  0  0  0
  2  3  1  0  0  0  0
  2  4  1  0  0  0  0
  2  5  1  0  0  0  0
  1  2  1  0  0  0  0
 20 21  2  0  0  0  0
 20 22  1  0  0  0  0
 17 18  1  0  0  0  0
 17 19  2  0  0  0  0
 14 15  1  0  0  0  0
 14 16  1  0  0  0  0
 14 17  1  0  0  0  0
 11 12  1  0  0  0  0
 11 13  1  0  0  0  0
 11 14  1  0  0  0  0
  9 10  1  0  0  0  0
  9 11  1  0  0  0  0
  9 20  1  0  0  0  0
  7  8  1  0  0  0  0
  7  9  1  0  0  0  0
 24 25  1  0  0  0  0
 24 26  1  0  0  0  0
 24 27  1  0  0  0  0
 22 23  1  0  0  0  0
 22 24  1  0  0  0  0
M  CHG  1  18  -1
M  END
$$$$
default_name
  -OEChem-02102213163D

 27 26  0     1  0  0  0  0  0999 V2000
   -3.2406   -3.5400    1.2326 H   0  0  0  0  0  0  0  0  0  0  0  0
   -3.1436   -2.6190    0.6606 C   0  0  0  0  0  0  0  0  0  0  0  0
   -3.8786   -1.8920    0.9996 H   0  0  0  0  0  0  0  0  0  0  0  0
   -3.2846   -2.8280   -0.3984 H   0  0  0  0  0  0  0  0  0  0  0  0
   -1.7586   -2.0580    0.8686 C   0  0  0  0  0  0  0  0  0  0  0  0
   -0.9666   -2.6340    1.6026 O   0  0  0  0  0  0  0  0  0  0  0  0
   -1.4866   -0.9220    0.2366 N   0  0  0  0  0  0  0  0  0  0  0  0
   -2.2166   -0.4790   -0.2994 H   0  0  0  0  0  0  0  0  0  0  0  0
   -0.1956   -0.2250    0.2596 C   0  0  1  0  0  0  0  0  0  0  0  0
    0.3927   -0.6026    1.0964 H   0  0  0  0  0  0  0  0  0  0  0  0
    0.5767   -0.5489   -1.0351 C   0  0  0  0  0  0  0  0  0  0  0  0
    1.5127   -1.0352   -0.7557 H   0  0  0  0  0  0  0  0  0  0  0  0
   -0.0072   -1.2459   -1.6380 H   0  0  0  0  0  0  0  0  0  0  0  0
    0.9061    0.6943   -1.8786 C   0  0  0  0  0  0  0  0  0  0  0  0
    1.8867    1.0761   -1.5844 H   0  0  0  0  0  0  0  0  0  0  0  0
    0.9630    0.3918   -2.9276 H   0  0  0  0  0  0  0  0  0  0  0  0
   -0.1260    1.8222   -1.7321 C   0  0  0  0  0  0  0  0  0  0  0  0
   -1.1687    1.5921   -1.0792 O   0  5  0  0  0  0  0  0  0  0  0  0
    0.1615    2.9181   -2.2627 O   0  0  0  0  0  0  0  0  0  0  0  0
   -0.3954    1.2887    0.4814 C   0  0  0  0  0  0  0  0  0  0  0  0
   -1.2761    1.9015   -0.1256 O   0  0  0  0  0  0  0  0  0  0  0  0
    0.4051    1.8919    1.3699 N   0  0  0  0  0  0  0  0  0  0  0  0
    1.1380    1.3380    1.7875 H   0  0  0  0  0  0  0  0  0  0  0  0
    0.3573    3.3183    1.6807 C   0  0  0  0  0  0  0  0  0  0  0  0
   -0.6670    3.6090    1.9198 H   0  0  0  0  0  0  0  0  0  0  0  0
    1.0066    3.5397    2.5289 H   0  0  0  0  0  0  0  0  0  0  0  0
    0.6896    3.8897    0.8118 H   0  0  0  0  0  0  0  0  0  0  0  0
  5  6  2  0  0  0  0
  5  7  1  0  0  0  0
  2  3  1  0  0  0  0
  2  4  1  0  0  0  0
  2  5  1  0  0  0  0
  1  2  1  0  0  0  0
 20 21  2  0  0  0  0
 20 22  1  0  0  0  0
 17 18  1  0  0  0  0
 17 19  2  0  0  0  0
 14 15  1  0  0  0  0
 14 16  1  0  0  0  0
 14 17  1  0  0  0  0
 11 12  1  0  0  0  0
 11 13  1  0  0  0  0
 11 14  1  0  0  0  0
  9 10  1  0  0  0  0
  9 11  1  0  0  0  0
  9 20  1  0  0  0  0
  7  8  1  0  0  0  0
  7  9  1  0  0  0  0
 24 25  1  0  0  0  0
 24 26  1  0  0  0  0
 24 27  1  0  0  0  0
 22 23  1  0  0  0  0
 22 24  1  0  0  0  0
M  CHG  1  18  -1
M  END
$$$$
default_name
  -OEChem-02102213163D

 27 26  0     1  0  0  0  0  0999 V2000
   -3.2406   -3.5400    1.2326 H   0  0  0  0  0  0  0  0  0  0  0  0
   -3.1436   -2.6190    0.6606 C   0  0  0  0  0  0  0  0  0  0  0  0
   -3.8786   -1.8920    0.9996 H   0  0  0  0  0  0  0  0  0  0  0  0
   -3.2846   -2.8280   -0.3984 H   0  0  0  0  0  0  0  0  0  0  0  0
   -1.7586   -2.0580    0.8686 C   0  0  0  0  0  0  0  0  0  0  0  0
   -0.9666   -2.6340    1.6026 O   0  0  0  0  0  0  0  0  0  0  0  0
   -1.4866   -0.9220    0.2366 N   0  0  0  0  0  0  0  0  0  0  0  0
   -2.2166   -0.4790   -0.2994 H   0  0  0  0  0  0  0  0  0  0  0  0
   -0.1956   -0.2250    0.2596 C   0  0  1  0  0  0  0  0  0  0  0  0
    0.3927   -0.6026    1.0964 H   0  0  0  0  0  0  0  0  0  0  0  0
    0.5767   -0.5489   -1.0351 C   0  0  0  0  0  0  0  0  0  0  0  0
    1.5127   -1.0352   -0.7557 H   0  0  0  0  0  0  0  0  0  0  0  0
   -0.0072   -1.2459   -1.6380 H   0  0  0  0  0  0  0  0  0  0  0  0
    0.9061    0.6943   -1.8786 C   0  0  0  0  0  0  0  0  0  0  0  0
    1.9717    0.9174   -1.7851 H   0  0  0  0  0  0  0  0  0  0  0  0
    0.7012    0.4617   -2.9270 H   0  0  0  0  0  0  0  0  0  0  0  0
    0.1044    1.9390   -1.4700 C   0  0  0  0  0  0  0  0  0  0  0  0
   -0.8045    1.8074   -0.6197 O   0  5  0  0  0  0  0  0  0  0  0  0
    0.4357    3.0203   -2.0051 O   0  0  0  0  0  0  0  0  0  0  0  0
   -0.3954    1.2887    0.4814 C   0  0  0  0  0  0  0  0  0  0  0  0
   -1.2761    1.9015   -0.1256 O   0  0  0  0  0  0  0  0  0  0  0  0
    0.4051    1.8919    1.3699 N   0  0  0  0  0  0  0  0  0  0  0  0
    1.1380    1.3380    1.7875 H   0  0  0  0  0  0  0  0  0  0  0  0
    0.3573    3.3183    1.6807 C   0  0  0  0  0  0  0  0  0  0  0  0
   -0.6670    3.6090    1.9198 H   0  0  0  0  0  0  0  0  0  0  0  0
    1.0066    3.5397    2.5289 H   0  0  0  0  0  0  0  0  0  0  0  0
    0.6896    3.8897    0.8118 H   0  0  0  0  0  0  0  0  0  0  0  0
  5  6  2  0  0  0  0
  5  7  1  0  0  0  0
  2  3  1  0  0  0  0
  2  4  1  0  0  0  0
  2  5  1  0  0  0  0
  1  2  1  0  0  0  0
 20 21  2  0  0  0  0
 20 22  1  0  0  0  0
 17 18  1  0  0  0  0
 17 19  2  0  0  0  0
 14 15  1  0  0  0  0
 14 16  1  0  0  0  0
 14 17  1  0  0  0  0
 11 12  1  0  0  0  0
 11 13  1  0  0  0  0
 11 14  1  0  0  0  0
  9 10  1  0  0  0  0
  9 11  1  0  0  0  0
  9 20  1  0  0  0  0
  7  8  1  0  0  0  0
  7  9  1  0  0  0  0
 24 25  1  0  0  0  0
 24 26  1  0  0  0  0
 24 27  1  0  0  0  0
 22 23  1  0  0  0  0
 22 24  1  0  0  0  0
M  CHG  1  18  -1
M  END
$$$$
default_name
  -OEChem-02102213163D

 27 26  0     1  0  0  0  0  0999 V2000
   -3.2406   -3.5400    1.2326 H   0  0  0  0  0  0  0  0  0  0  0  0
   -3.1436   -2.6190    0.6606 C   0  0  0  0  0  0  0  0  0  0  0  0
   -3.8786   -1.8920    0.9996 H   0  0  0  0  0  0  0  0  0  0  0  0
   -3.2846   -2.8280   -0.3984 H   0  0  0  0  0  0  0  0  0  0  0  0
   -1.7586   -2.0580    0.8686 C   0  0  0  0  0  0  0  0  0  0  0  0
   -0.9666   -2.6340    1.6026 O   0  0  0  0  0  0  0  0  0  0  0  0
   -1.4866   -0.9220    0.2366 N   0  0  0  0  0  0  0  0  0  0  0  0
   -2.2166   -0.4790   -0.2994 H   0  0  0  0  0  0  0  0  0  0  0  0
   -0.1956   -0.2250    0.2596 C   0  0  1  0  0  0  0  0  0  0  0  0
    0.3927   -0.6026    1.0964 H   0  0  0  0  0  0  0  0  0  0  0  0
    0.5767   -0.5489   -1.0351 C   0  0  0  0  0  0  0  0  0  0  0  0
    1.5127   -1.0352   -0.7557 H   0  0  0  0  0  0  0  0  0  0  0  0
   -0.0072   -1.2459   -1.6380 H   0  0  0  0  0  0  0  0  0  0  0  0
    0.9061    0.6943   -1.8786 C   0  0  0  0  0  0  0  0  0  0  0  0
    1.9892    0.7632   -2.0055 H   0  0  0  0  0  0  0  0  0  0  0  0
    0.4583    0.5662   -2.8677 H   0  0  0  0  0  0  0  0  0  0  0  0
    0.3983    2.0045   -1.2586 C   0  0  0  0  0  0  0  0  0  0  0  0
   -0.3260    1.9381   -0.2401 O   0  5  0  0  0  0  0  0  0  0  0  0
    0.7689    3.0657   -1.8080 O   0  0  0  0  0  0  0  0  0  0  0  0
   -0.3954    1.2887    0.4814 C   0  0  0  0  0  0  0  0  0  0  0  0
   -1.2761    1.9015   -0.1256 O   0  0  0  0  0  0  0  0  0  0  0  0
    0.4051    1.8919    1.3699 N   0  0  0  0  0  0  0  0  0  0  0  0
    1.1380    1.3380    1.7875 H   0  0  0  0  0  0  0  0  0  0  0  0
    0.3573    3.3183    1.6807 C   0  0  0  0  0  0  0  0  0  0  0  0
   -0.6670    3.6090    1.9198 H   0  0  0  0  0  0  0  0  0  0  0  0
    1.0066    3.5397    2.5289 H   0  0  0  0  0  0  0  0  0  0  0  0
    0.6896    3.8897    0.8118 H   0  0  0  0  0  0  0  0  0  0  0  0
  5  6  2  0  0  0  0
  5  7  1  0  0  0  0
  2  3  1  0  0  0  0
  2  4  1  0  0  0  0
  2  5  1  0  0  0  0
  1  2  1  0  0  0  0
 20 21  2  0  0  0  0
 20 22  1  0  0  0  0
 17 18  1  0  0  0  0
 17 19  2  0  0  0  0
 14 15  1  0  0  0  0
 14 16  1  0  0  0  0
 14 17  1  0  0  0  0
 11 12  1  0  0  0  0
 11 13  1  0  0  0  0
 11 14  1  0  0  0  0
  9 10  1  0  0  0  0
  9 11  1  0  0  0  0
  9 20  1  0  0  0  0
  7  8  1  0  0  0  0
  7  9  1  0  0  0  0
 24 25  1  0  0  0  0
 24 26  1  0  0  0  0
 24 27  1  0  0  0  0
 22 23  1  0  0  0  0
 22 24  1  0  0  0  0
M  CHG  1  18  -1
M  END
$$$$
default_name
  -OEChem-02102213163D

 27 26  0     1  0  0  0  0  0999 V2000
   -3.2406   -3.5400    1.2326 H   0  0  0  0  0  0  0  0  0  0  0  0
   -3.1436   -2.6190    0.6606 C   0  0  0  0  0  0  0  0  0  0  0  0
   -3.8786   -1.8920    0.9996 H   0  0  0  0  0  0  0  0  0  0  0  0
   -3.2846   -2.8280   -0.3984 H   0  0  0  0  0  0  0  0  0  0  0  0
   -1.7586   -2.0580    0.8686 C   0  0  0  0  0  0  0  0  0  0  0  0
   -0.9666   -2.6340    1.6026 O   0  0  0  0  0  0  0  0  0  0  0  0
   -1.4866   -0.9220    0.2366 N   0  0  0  0  0  0  0  0  0  0  0  0
   -2.2166   -0.4790   -0.2994 H   0  0  0  0  0  0  0  0  0  0  0  0
   -0.1956   -0.2250    0.2596 C   0  0  1  0  0  0  0  0  0  0  0  0
    0.3927   -0.6026    1.0964 H   0  0  0  0  0  0  0  0  0  0  0  0
    0.5767   -0.5489   -1.0351 C   0  0  0  0  0  0  0  0  0  0  0  0
    1.5127   -1.0352   -0.7557 H   0  0  0  0  0  0  0  0  0  0  0  0
   -0.0072   -1.2459   -1.6380 H   0  0  0  0  0  0  0  0  0  0  0  0
    0.9061    0.6943   -1.8786 C   0  0  0  0  0  0  0  0  0  0  0  0
    1.9381    0.6240   -2.2307 H   0  0  0  0  0  0  0  0  0  0  0  0
    0.2510    0.6984   -2.7538 H   0  0  0  0  0  0  0  0  0  0  0  0
    0.7358    2.0144   -1.1123 C   0  0  0  0  0  0  0  0  0  0  0  0
    0.2342    1.9755    0.0338 O   0  5  0  0  0  0  0  0  0  0  0  0
    1.1385    3.0514   -1.6848 O   0  0  0  0  0  0  0  0  0  0  0  0
   -0.3954    1.2887    0.4814 C   0  0  0  0  0  0  0  0  0  0  0  0
   -1.2761    1.9015   -0.1256 O   0  0  0  0  0  0  0  0  0  0  0  0
    0.4051    1.8919    1.3699 N   0  0  0  0  0  0  0  0  0  0  0  0
    1.1380    1.3380    1.7875 H   0  0  0  0  0  0  0  0  0  0  0  0
    0.3573    3.3183    1.6807 C   0  0  0  0  0  0  0  0  0  0  0  0
   -0.6670    3.6090    1.9198 H   0  0  0  0  0  0  0  0  0  0  0  0
    1.0066    3.5397    2.5289 H   0  0  0  0  0  0  0  0  0  0  0  0
    0.6896    3.8897    0.8118 H   0  0  0  0  0  0  0  0  0  0  0  0
  5  6  2  0  0  0  0
  5  7  1  0  0  0  0
  2  3  1  0  0  0  0
  2  4  1  0  0  0  0
  2  5  1  0  0  0  0
  1  2  1  0  0  0  0
 20 21  2  0  0  0  0
 20 22  1  0  0  0  0
 17 18  1  0  0  0  0
 17 19  2  0  0  0  0
 14 15  1  0  0  0  0
 14 16  1  0  0  0  0
 14 17  1  0  0  0  0
 11 12  1  0  0  0  0
 11 13  1  0  0  0  0
 11 14  1  0  0  0  0
  9 10  1  0  0  0  0
  9 11  1  0  0  0  0
  9 20  1  0  0  0  0
  7  8  1  0  0  0  0
  7  9  1  0  0  0  0
 24 25  1  0  0  0  0
 24 26  1  0  0  0  0
 24 27  1  0  0  0  0
 22 23  1  0  0  0  0
 22 24  1  0  0  0  0
M  CHG  1  18  -1
M  END
$$$$
default_name
  -OEChem-02102213163D

 27 26  0     1  0  0  0  0  0999 V2000
   -3.2406   -3.5400    1.2326 H   0  0  0  0  0  0  0  0  0  0  0  0
   -3.1436   -2.6190    0.6606 C   0  0  0  0  0  0  0  0  0  0  0  0
   -3.8786   -1.8920    0.9996 H   0  0  0  0  0  0  0  0  0  0  0  0
   -3.2846   -2.8280   -0.3984 H   0  0  0  0  0  0  0  0  0  0  0  0
   -1.7586   -2.0580    0.8686 C   0  0  0  0  0  0  0  0  0  0  0  0
   -0.9666   -2.6340    1.6026 O   0  0  0  0  0  0  0  0  0  0  0  0
   -1.4866   -0.9220    0.2366 N   0  0  0  0  0  0  0  0  0  0  0  0
   -2.2166   -0.4790   -0.2994 H   0  0  0  0  0  0  0  0  0  0  0  0
   -0.1956   -0.2250    0.2596 C   0  0  1  0  0  0  0  0  0  0  0  0
    0.3927   -0.6026    1.0964 H   0  0  0  0  0  0  0  0  0  0  0  0
    0.5767   -0.5489   -1.0351 C   0  0  0  0  0  0  0  0  0  0  0  0
    1.5127   -1.0352   -0.7557 H   0  0  0  0  0  0  0  0  0  0  0  0
   -0.0072   -1.2459   -1.6380 H   0  0  0  0  0  0  0  0  0  0  0  0
    0.9061    0.6943   -1.8786 C   0  0  0  0  0  0  0  0  0  0  0  0
    1.8220    0.5093   -2.4451 H   0  0  0  0  0  0  0  0  0  0  0  0
    0.0933    0.8493   -2.5931 H   0  0  0  0  0  0  0  0  0  0  0  0
    1.0937    1.9679   -1.0410 C   0  0  0  0  0  0  0  0  0  0  0  0
    0.8379    1.9169    0.1831 O   0  5  0  0  0  0  0  0  0  0  0  0
    1.5192    2.9782   -1.6439 O   0  0  0  0  0  0  0  0  0  0  0  0
   -0.3954    1.2887    0.4814 C   0  0  0  0  0  0  0  0  0  0  0  0
   -1.2761    1.9015   -0.1256 O   0  0  0  0  0  0  0  0  0  0  0  0
    0.4051    1.8919    1.3699 N   0  0  0  0  0  0  0  0  0  0  0  0
    1.1380    1.3380    1.7875 H   0  0  0  0  0  0  0  0  0  0  0  0
    0.3573    3.3183    1.6807 C   0  0  0  0  0  0  0  0  0  0  0  0
   -0.6670    3.6090    1.9198 H   0  0  0  0  0  0  0  0  0  0  0  0
    1.0066    3.5397    2.5289 H   0  0  0  0  0  0  0  0  0  0  0  0
    0.6896    3.8897    0.8118 H   0  0  0  0  0  0  0  0  0  0  0  0
  5  6  2  0  0  0  0
  5  7  1  0  0  0  0
  2  3  1  0  0  0  0
  2  4  1  0  0  0  0
  2  5  1  0  0  0  0
  1  2  1  0  0  0  0
 20 21  2  0  0  0  0
 20 22  1  0  0  0  0
 17 18  1  0  0  0  0
 17 19  2  0  0  0  0
 14 15  1  0  0  0  0
 14 16  1  0  0  0  0
 14 17  1  0  0  0  0
 11 12  1  0  0  0  0
 11 13  1  0  0  0  0
 11 14  1  0  0  0  0
  9 10  1  0  0  0  0
  9 11  1  0  0  0  0
  9 20  1  0  0  0  0
  7  8  1  0  0  0  0
  7  9  1  0  0  0  0
 24 25  1  0  0  0  0
 24 26  1  0  0  0  0
 24 27  1  0  0  0  0
 22 23  1  0  0  0  0
 22 24  1  0  0  0  0
M  CHG  1  18  -1
M  END
$$$$
default_name
  -OEChem-02102213163D

 27 26  0     1  0  0  0  0  0999 V2000
   -3.2406   -3.5400    1.2326 H   0  0  0  0  0  0  0  0  0  0  0  0
   -3.1436   -2.6190    0.6606 C   0  0  0  0  0  0  0  0  0  0  0  0
   -3.8786   -1.8920    0.9996 H   0  0  0  0  0  0  0  0  0  0  0  0
   -3.2846   -2.8280   -0.3984 H   0  0  0  0  0  0  0  0  0  0  0  0
   -1.7586   -2.0580    0.8686 C   0  0  0  0  0  0  0  0  0  0  0  0
   -0.9666   -2.6340    1.6026 O   0  0  0  0  0  0  0  0  0  0  0  0
   -1.4866   -0.9220    0.2366 N   0  0  0  0  0  0  0  0  0  0  0  0
   -2.2166   -0.4790   -0.2994 H   0  0  0  0  0  0  0  0  0  0  0  0
   -0.1956   -0.2250    0.2596 C   0  0  1  0  0  0  0  0  0  0  0  0
    0.3927   -0.6026    1.0964 H   0  0  0  0  0  0  0  0  0  0  0  0
    0.5767   -0.5489   -1.0351 C   0  0  0  0  0  0  0  0  0  0  0  0
    1.5127   -1.0352   -0.7557 H   0  0  0  0  0  0  0  0  0  0  0  0
   -0.0072   -1.2459   -1.6380 H   0  0  0  0  0  0  0  0  0  0  0  0
    0.9061    0.6943   -1.8786 C   0  0  0  0  0  0  0  0  0  0  0  0
    1.6486    0.4268   -2.6344 H   0  0  0  0  0  0  0  0  0  0  0  0
   -0.0039    1.0084   -2.3966 H   0  0  0  0  0  0  0  0  0  0  0  0
    1.4478    1.8683   -1.0496 C   0  0  0  0  0  0  0  0  0  0  0  0
    1.4439    1.7663    0.1978 O   0  5  0  0  0  0  0  0  0  0  0  0
    1.8851    2.8513   -1.6881 O   0  0  0  0  0  0  0  0  0  0  0  0
   -0.3954    1.2887    0.4814 C   0  0  0  0  0  0  0  0  0  0  0  0
   -1.2761    1.9015   -0.1256 O   0  0  0  0  0  0  0  0  0  0  0  0
    0.4051    1.8919    1.3699 N   0  0  0  0  0  0  0  0  0  0  0  0
    1.1380    1.3380    1.7875 H   0  0  0  0  0  0  0  0  0  0  0  0
    0.3573    3.3183    1.6807 C   0  0  0  0  0  0  0  0  0  0  0  0
   -0.6670    3.6090    1.9198 H   0  0  0  0  0  0  0  0  0  0  0  0
    1.0066    3.5397    2.5289 H   0  0  0  0  0  0  0  0  0  0  0  0
    0.6896    3.8897    0.8118 H   0  0  0  0  0  0  0  0  0  0  0  0
  5  6  2  0  0  0  0
  5  7  1  0  0  0  0
  2  3  1  0  0  0  0
  2  4  1  0  0  0  0
  2  5  1  0  0  0  0
  1  2  1  0  0  0  0
 20 21  2  0  0  0  0
 20 22  1  0  0  0  0
 17 18  1  0  0  0  0
 17 19  2  0  0  0  0
 14 15  1  0  0  0  0
 14 16  1  0  0  0  0
 14 17  1  0  0  0  0
 11 12  1  0  0  0  0
 11 13  1  0  0  0  0
 11 14  1  0  0  0  0
  9 10  1  0  0  0  0
  9 11  1  0  0  0  0
  9 20  1  0  0  0  0
  7  8  1  0  0  0  0
  7  9  1  0  0  0  0
 24 25  1  0  0  0  0
 24 26  1  0  0  0  0
 24 27  1  0  0  0  0
 22 23  1  0  0  0  0
 22 24  1  0  0  0  0
M  CHG  1  18  -1
M  END
$$$$
default_name
  -OEChem-02102213163D

 27 26  0     1  0  0  0  0  0999 V2000
   -3.2406   -3.5400    1.2326 H   0  0  0  0  0  0  0  0  0  0  0  0
   -3.1436   -2.6190    0.6606 C   0  0  0  0  0  0  0  0  0  0  0  0
   -3.8786   -1.8920    0.9996 H   0  0  0  0  0  0  0  0  0  0  0  0
   -3.2846   -2.8280   -0.3984 H   0  0  0  0  0  0  0  0  0  0  0  0
   -1.7586   -2.0580    0.8686 C   0  0  0  0  0  0  0  0  0  0  0  0
   -0.9666   -2.6340    1.6026 O   0  0  0  0  0  0  0  0  0  0  0  0
   -1.4866   -0.9220    0.2366 N   0  0  0  0  0  0  0  0  0  0  0  0
   -2.2166   -0.4790   -0.2994 H   0  0  0  0  0  0  0  0  0  0  0  0
   -0.1956   -0.2250    0.2596 C   0  0  1  0  0  0  0  0  0  0  0  0
    0.3927   -0.6026    1.0964 H   0  0  0  0  0  0  0  0  0  0  0  0
    0.5767   -0.5489   -1.0351 C   0  0  0  0  0  0  0  0  0  0  0  0
    1.5127   -1.0352   -0.7557 H   0  0  0  0  0  0  0  0  0  0  0  0
   -0.0072   -1.2459   -1.6380 H   0  0  0  0  0  0  0  0  0  0  0  0
    0.9061    0.6943   -1.8786 C   0  0  0  0  0  0  0  0  0  0  0  0
    1.4298    0.3823   -2.7854 H   0  0  0  0  0  0  0  0  0  0  0  0
   -0.0342    1.1650   -2.1775 H   0  0  0  0  0  0  0  0  0  0  0  0
    1.7739    1.7222   -1.1375 C   0  0  0  0  0  0  0  0  0  0  0  0
    2.0110    1.5340    0.0769 O   0  5  0  0  0  0  0  0  0  0  0  0
    2.2113    2.6792   -1.8143 O   0  0  0  0  0  0  0  0  0  0  0  0
   -0.3954    1.2887    0.4814 C   0  0  0  0  0  0  0  0  0  0  0  0
   -1.2761    1.9015   -0.1256 O   0  0  0  0  0  0  0  0  0  0  0  0
    0.4051    1.8919    1.3699 N   0  0  0  0  0  0  0  0  0  0  0  0
    1.1380    1.3380    1.7875 H   0  0  0  0  0  0  0  0  0  0  0  0
    0.3573    3.3183    1.6807 C   0  0  0  0  0  0  0  0  0  0  0  0
   -0.6670    3.6090    1.9198 H   0  0  0  0  0  0  0  0  0  0  0  0
    1.0066    3.5397    2.5289 H   0  0  0  0  0  0  0  0  0  0  0  0
    0.6896    3.8897    0.8118 H   0  0  0  0  0  0  0  0  0  0  0  0
  5  6  2  0  0  0  0
  5  7  1  0  0  0  0
  2  3  1  0  0  0  0
  2  4  1  0  0  0  0
  2  5  1  0  0  0  0
  1  2  1  0  0  0  0
 20 21  2  0  0  0  0
 20 22  1  0  0  0  0
 17 18  1  0  0  0  0
 17 19  2  0  0  0  0
 14 15  1  0  0  0  0
 14 16  1  0  0  0  0
 14 17  1  0  0  0  0
 11 12  1  0  0  0  0
 11 13  1  0  0  0  0
 11 14  1  0  0  0  0
  9 10  1  0  0  0  0
  9 11  1  0  0  0  0
  9 20  1  0  0  0  0
  7  8  1  0  0  0  0
  7  9  1  0  0  0  0
 24 25  1  0  0  0  0
 24 26  1  0  0  0  0
 24 27  1  0  0  0  0
 22 23  1  0  0  0  0
 22 24  1  0  0  0  0
M  CHG  1  18  -1
M  END
$$$$
default_name
  -OEChem-02102213163D

 27 26  0     1  0  0  0  0  0999 V2000
   -3.2406   -3.5400    1.2326 H   0  0  0  0  0  0  0  0  0  0  0  0
   -3.1436   -2.6190    0.6606 C   0  0  0  0  0  0  0  0  0  0  0  0
   -3.8786   -1.8920    0.9996 H   0  0  0  0  0  0  0  0  0  0  0  0
   -3.2846   -2.8280   -0.3984 H   0  0  0  0  0  0  0  0  0  0  0  0
   -1.7586   -2.0580    0.8686 C   0  0  0  0  0  0  0  0  0  0  0  0
   -0.9666   -2.6340    1.6026 O   0  0  0  0  0  0  0  0  0  0  0  0
   -1.4866   -0.9220    0.2366 N   0  0  0  0  0  0  0  0  0  0  0  0
   -2.2166   -0.4790   -0.2994 H   0  0  0  0  0  0  0  0  0  0  0  0
   -0.1956   -0.2250    0.2596 C   0  0  1  0  0  0  0  0  0  0  0  0
    0.3927   -0.6026    1.0964 H   0  0  0  0  0  0  0  0  0  0  0  0
    0.5767   -0.5489   -1.0351 C   0  0  0  0  0  0  0  0  0  0  0  0
    1.5127   -1.0352   -0.7557 H   0  0  0  0  0  0  0  0  0  0  0  0
   -0.0072   -1.2459   -1.6380 H   0  0  0  0  0  0  0  0  0  0  0  0
    0.9061    0.6943   -1.8786 C   0  0  0  0  0  0  0  0  0  0  0  0
    1.1806    0.3787   -2.8881 H   0  0  0  0  0  0  0  0  0  0  0  0
    0.0046    1.3085   -1.9509 H   0  0  0  0  0  0  0  0  0  0  0  0
    2.0497    1.5397   -1.2987 C   0  0  0  0  0  0  0  0  0  0  0  0
    2.5005    1.2358   -0.1714 O   0  5  0  0  0  0  0  0  0  0  0  0
    2.4755    2.4736   -2.0141 O   0  0  0  0  0  0  0  0  0  0  0  0
   -0.3954    1.2887    0.4814 C   0  0  0  0  0  0  0  0  0  0  0  0
   -1.2761    1.9015   -0.1256 O   0  0  0  0  0  0  0  0  0  0  0  0
    0.4051    1.8919    1.3699 N   0  0  0  0  0  0  0  0  0  0  0  0
    1.1380    1.3380    1.7875 H   0  0  0  0  0  0  0  0  0  0  0  0
    0.3573    3.3183    1.6807 C   0  0  0  0  0  0  0  0  0  0  0  0
   -0.6670    3.6090    1.9198 H   0  0  0  0  0  0  0  0  0  0  0  0
    1.0066    3.5397    2.5289 H   0  0  0  0  0  0  0  0  0  0  0  0
    0.6896    3.8897    0.8118 H   0  0  0  0  0  0  0  0  0  0  0  0
  5  6  2  0  0  0  0
  5  7  1  0  0  0  0
  2  3  1  0  0  0  0
  2  4  1  0  0  0  0
  2  5  1  0  0  0  0
  1  2  1  0  0  0  0
 20 21  2  0  0  0  0
 20 22  1  0  0  0  0
 17 18  1  0  0  0  0
 17 19  2  0  0  0  0
 14 15  1  0  0  0  0
 14 16  1  0  0  0  0
 14 17  1  0  0  0  0
 11 12  1  0  0  0  0
 11 13  1  0  0  0  0
 11 14  1  0  0  0  0
  9 10  1  0  0  0  0
  9 11  1  0  0  0  0
  9 20  1  0  0  0  0
  7  8  1  0  0  0  0
  7  9  1  0  0  0  0
 24 25  1  0  0  0  0
 24 26  1  0  0  0  0
 24 27  1  0  0  0  0
 22 23  1  0  0  0  0
 22 24  1  0  0  0  0
M  CHG  1  18  -1
M  END
$$$$
default_name
  -OEChem-02102213163D

 27 26  0     1  0  0  0  0  0999 V2000
   -3.2406   -3.5400    1.2326 H   0  0  0  0  0  0  0  0  0  0  0  0
   -3.1436   -2.6190    0.6606 C   0  0  0  0  0  0  0  0  0  0  0  0
   -3.8786   -1.8920    0.9996 H   0  0  0  0  0  0  0  0  0  0  0  0
   -3.2846   -2.8280   -0.3984 H   0  0  0  0  0  0  0  0  0  0  0  0
   -1.7586   -2.0580    0.8686 C   0  0  0  0  0  0  0  0  0  0  0  0
   -0.9666   -2.6340    1.6026 O   0  0  0  0  0  0  0  0  0  0  0  0
   -1.4866   -0.9220    0.2366 N   0  0  0  0  0  0  0  0  0  0  0  0
   -2.2166   -0.4790   -0.2994 H   0  0  0  0  0  0  0  0  0  0  0  0
   -0.1956   -0.2250    0.2596 C   0  0  1  0  0  0  0  0  0  0  0  0
    0.3927   -0.6026    1.0964 H   0  0  0  0  0  0  0  0  0  0  0  0
    0.5767   -0.5489   -1.0351 C   0  0  0  0  0  0  0  0  0  0  0  0
    1.5127   -1.0352   -0.7557 H   0  0  0  0  0  0  0  0  0  0  0  0
   -0.0072   -1.2459   -1.6380 H   0  0  0  0  0  0  0  0  0  0  0  0
    0.9061    0.6943   -1.8786 C   0  0  0  0  0  0  0  0  0  0  0  0
    0.9179    0.4163   -2.9353 H   0  0  0  0  0  0  0  0  0  0  0  0
    0.1099    1.4290   -1.7322 H   0  0  0  0  0  0  0  0  0  0  0  0
    2.2565    1.3333   -1.5222 C   0  0  0  0  0  0  0  0  0  0  0  0
    2.8791    0.8921   -0.5301 O   0  5  0  0  0  0  0  0  0  0  0  0
    2.6598    2.2487   -2.2737 O   0  0  0  0  0  0  0  0  0  0  0  0
   -0.3954    1.2887    0.4814 C   0  0  0  0  0  0  0  0  0  0  0  0
   -1.2761    1.9015   -0.1256 O   0  0  0  0  0  0  0  0  0  0  0  0
    0.4051    1.8919    1.3699 N   0  0  0  0  0  0  0  0  0  0  0  0
    1.1380    1.3380    1.7875 H   0  0  0  0  0  0  0  0  0  0  0  0
    0.3573    3.3183    1.6807 C   0  0  0  0  0  0  0  0  0  0  0  0
   -0.6670    3.6090    1.9198 H   0  0  0  0  0  0  0  0  0  0  0  0
    1.0066    3.5397    2.5289 H   0  0  0  0  0  0  0  0  0  0  0  0
    0.6896    3.8897    0.8118 H   0  0  0  0  0  0  0  0  0  0  0  0
  5  6  2  0  0  0  0
  5  7  1  0  0  0  0
  2  3  1  0  0  0  0
  2  4  1  0  0  0  0
  2  5  1  0  0  0  0
  1  2  1  0  0  0  0
 20 21  2  0  0  0  0
 20 22  1  0  0  0  0
 17 18  1  0  0  0  0
 17 19  2  0  0  0  0
 14 15  1  0  0  0  0
 14 16  1  0  0  0  0
 14 17  1  0  0  0  0
 11 12  1  0  0  0  0
 11 13  1  0  0  0  0
 11 14  1  0  0  0  0
  9 10  1  0  0  0  0
  9 11  1  0  0  0  0
  9 20  1  0  0  0  0
  7  8  1  0  0  0  0
  7  9  1  0  0  0  0
 24 25  1  0  0  0  0
 24 26  1  0  0  0  0
 24 27  1  0  0  0  0
 22 23  1  0  0  0  0
 22 24  1  0  0  0  0
M  CHG  1  18  -1
M  END
$$$$
default_name
  -OEChem-02102213163D

 27 26  0     1  0  0  0  0  0999 V2000
   -3.2406   -3.5400    1.2326 H   0  0  0  0  0  0  0  0  0  0  0  0
   -3.1436   -2.6190    0.6606 C   0  0  0  0  0  0  0  0  0  0  0  0
   -3.8786   -1.8920    0.9996 H   0  0  0  0  0  0  0  0  0  0  0  0
   -3.2846   -2.8280   -0.3984 H   0  0  0  0  0  0  0  0  0  0  0  0
   -1.7586   -2.0580    0.8686 C   0  0  0  0  0  0  0  0  0  0  0  0
   -0.9666   -2.6340    1.6026 O   0  0  0  0  0  0  0  0  0  0  0  0
   -1.4866   -0.9220    0.2366 N   0  0  0  0  0  0  0  0  0  0  0  0
   -2.2166   -0.4790   -0.2994 H   0  0  0  0  0  0  0  0  0  0  0  0
   -0.1956   -0.2250    0.2596 C   0  0  1  0  0  0  0  0  0  0  0  0
    0.3927   -0.6026    1.0964 H   0  0  0  0  0  0  0  0  0  0  0  0
    0.5767   -0.5489   -1.0351 C   0  0  0  0  0  0  0  0  0  0  0  0
    1.5127   -1.0352   -0.7557 H   0  0  0  0  0  0  0  0  0  0  0  0
   -0.0072   -1.2459   -1.6380 H   0  0  0  0  0  0  0  0  0  0  0  0
    0.9061    0.6943   -1.8786 C   0  0  0  0  0  0  0  0  0  0  0  0
    0.6595    0.4925   -2.9238 H   0  0  0  0  0  0  0  0  0  0  0  0
    0.2745    1.5183   -1.5363 H   0  0  0  0  0  0  0  0  0  0  0  0
    2.3802    1.1168   -1.7929 C   0  0  0  0  0  0  0  0  0  0  0  0
    3.1209    0.5262   -0.9749 O   0  5  0  0  0  0  0  0  0  0  0  0
    2.7515    2.0196   -2.5755 O   0  0  0  0  0  0  0  0  0  0  0  0
   -0.3954    1.2887    0.4814 C   0  0  0  0  0  0  0  0  0  0  0  0
   -1.2761    1.9015   -0.1256 O   0  0  0  0  0  0  0  0  0  0  0  0
    0.4051    1.8919    1.3699 N   0  0  0  0  0  0  0  0  0  0  0  0
    1.1380    1.3380    1.7875 H   0  0  0  0  0  0  0  0  0  0  0  0
    0.3573    3.3183    1.6807 C   0  0  0  0  0  0  0  0  0  0  0  0
   -0.6670    3.6090    1.9198 H   0  0  0  0  0  0  0  0  0  0  0  0
    1.0066    3.5397    2.5289 H   0  0  0  0  0  0  0  0  0  0  0  0
    0.6896    3.8897    0.8118 H   0  0  0  0  0  0  0  0  0  0  0  0
  5  6  2  0  0  0  0
  5  7  1  0  0  0  0
  2  3  1  0  0  0  0
  2  4  1  0  0  0  0
  2  5  1  0  0  0  0
  1  2  1  0  0  0  0
 20 21  2  0  0  0  0
 20 22  1  0  0  0  0
 17 18  1  0  0  0  0
 17 19  2  0  0  0  0
 14 15  1  0  0  0  0
 14 16  1  0  0  0  0
 14 17  1  0  0  0  0
 11 12  1  0  0  0  0
 11 13  1  0  0  0  0
 11 14  1  0  0  0  0
  9 10  1  0  0  0  0
  9 11  1  0  0  0  0
  9 20  1  0  0  0  0
  7  8  1  0  0  0  0
  7  9  1  0  0  0  0
 24 25  1  0  0  0  0
 24 26  1  0  0  0  0
 24 27  1  0  0  0  0
 22 23  1  0  0  0  0
 22 24  1  0  0  0  0
M  CHG  1  18  -1
M  END
$$$$
default_name
  -OEChem-02102213163D

 27 26  0     1  0  0  0  0  0999 V2000
   -3.2406   -3.5400    1.2326 H   0  0  0  0  0  0  0  0  0  0  0  0
   -3.1436   -2.6190    0.6606 C   0  0  0  0  0  0  0  0  0  0  0  0
   -3.8786   -1.8920    0.9996 H   0  0  0  0  0  0  0  0  0  0  0  0
   -3.2846   -2.8280   -0.3984 H   0  0  0  0  0  0  0  0  0  0  0  0
   -1.7586   -2.0580    0.8686 C   0  0  0  0  0  0  0  0  0  0  0  0
   -0.9666   -2.6340    1.6026 O   0  0  0  0  0  0  0  0  0  0  0  0
   -1.4866   -0.9220    0.2366 N   0  0  0  0  0  0  0  0  0  0  0  0
   -2.2166   -0.4790   -0.2994 H   0  0  0  0  0  0  0  0  0  0  0  0
   -0.1956   -0.2250    0.2596 C   0  0  1  0  0  0  0  0  0  0  0  0
    0.3927   -0.6026    1.0964 H   0  0  0  0  0  0  0  0  0  0  0  0
    0.5767   -0.5489   -1.0351 C   0  0  0  0  0  0  0  0  0  0  0  0
    1.5127   -1.0352   -0.7557 H   0  0  0  0  0  0  0  0  0  0  0  0
   -0.0072   -1.2459   -1.6380 H   0  0  0  0  0  0  0  0  0  0  0  0
    0.9061    0.6943   -1.8786 C   0  0  0  0  0  0  0  0  0  0  0  0
    0.4233    0.6021   -2.8545 H   0  0  0  0  0  0  0  0  0  0  0  0
    0.4871    1.5703   -1.3766 H   0  0  0  0  0  0  0  0  0  0  0  0
    2.4124    0.9053   -2.0922 C   0  0  0  0  0  0  0  0  0  0  0  0
    3.2095    0.1631   -1.4755 O   0  5  0  0  0  0  0  0  0  0  0  0
    2.7444    1.8020   -2.8989 O   0  0  0  0  0  0  0  0  0  0  0  0
   -0.3954    1.2887    0.4814 C   0  0  0  0  0  0  0  0  0  0  0  0
   -1.2761    1.9015   -0.1256 O   0  0  0  0  0  0  0  0  0  0  0  0
    0.4051    1.8919    1.3699 N   0  0  0  0  0  0  0  0  0  0  0  0
    1.1380    1.3380    1.7875 H   0  0  0  0  0  0  0  0  0  0  0  0
    0.3573    3.3183    1.6807 C   0  0  0  0  0  0  0  0  0  0  0  0
   -0.6670    3.6090    1.9198 H   0  0  0  0  0  0  0  0  0  0  0  0
    1.0066    3.5397    2.5289 H   0  0  0  0  0  0  0  0  0  0  0  0
    0.6896    3.8897    0.8118 H   0  0  0  0  0  0  0  0  0  0  0  0
  5  6  2  0  0  0  0
  5  7  1  0  0  0  0
  2  3  1  0  0  0  0
  2  4  1  0  0  0  0
  2  5  1  0  0  0  0
  1  2  1  0  0  0  0
 20 21  2  0  0  0  0
 20 22  1  0  0  0  0
 17 18  1  0  0  0  0
 17 19  2  0  0  0  0
 14 15  1  0  0  0  0
 14 16  1  0  0  0  0
 14 17  1  0  0  0  0
 11 12  1  0  0  0  0
 11 13  1  0  0  0  0
 11 14  1  0  0  0  0
  9 10  1  0  0  0  0
  9 11  1  0  0  0  0
  9 20  1  0  0  0  0
  7  8  1  0  0  0  0
  7  9  1  0  0  0  0
 24 25  1  0  0  0  0
 24 26  1  0  0  0  0
 24 27  1  0  0  0  0
 22 23  1  0  0  0  0
 22 24  1  0  0  0  0
M  CHG  1  18  -1
M  END
$$$$
default_name
  -OEChem-02102213163D

 27 26  0     1  0  0  0  0  0999 V2000
   -3.2406   -3.5400    1.2326 H   0  0  0  0  0  0  0  0  0  0  0  0
   -3.1436   -2.6190    0.6606 C   0  0  0  0  0  0  0  0  0  0  0  0
   -3.8786   -1.8920    0.9996 H   0  0  0  0  0  0  0  0  0  0  0  0
   -3.2846   -2.8280   -0.3984 H   0  0  0  0  0  0  0  0  0  0  0  0
   -1.7586   -2.0580    0.8686 C   0  0  0  0  0  0  0  0  0  0  0  0
   -0.9666   -2.6340    1.6026 O   0  0  0  0  0  0  0  0  0  0  0  0
   -1.4866   -0.9220    0.2366 N   0  0  0  0  0  0  0  0  0  0  0  0
   -2.2166   -0.4790   -0.2994 H   0  0  0  0  0  0  0  0  0  0  0  0
   -0.1956   -0.2250    0.2596 C   0  0  1  0  0  0  0  0  0  0  0  0
    0.3927   -0.6026    1.0964 H   0  0  0  0  0  0  0  0  0  0  0  0
    0.5767   -0.5489   -1.0351 C   0  0  0  0  0  0  0  0  0  0  0  0
    1.5127   -1.0352   -0.7557 H   0  0  0  0  0  0  0  0  0  0  0  0
   -0.0072   -1.2459   -1.6380 H   0  0  0  0  0  0  0  0  0  0  0  0
    0.9061    0.6943   -1.8786 C   0  0  0  0  0  0  0  0  0  0  0  0
    0.2251    0.7377   -2.7320 H   0  0  0  0  0  0  0  0  0  0  0  0
    0.7332    1.5816   -1.2639 H   0  0  0  0  0  0  0  0  0  0  0  0
    2.3508    0.7129   -2.3997 C   0  0  0  0  0  0  0  0  0  0  0  0
    3.1388   -0.1724   -1.9976 O   0  5  0  0  0  0  0  0  0  0  0  0
    2.6391    1.6108   -3.2219 O   0  0  0  0  0  0  0  0  0  0  0  0
   -0.3954    1.2887    0.4814 C   0  0  0  0  0  0  0  0  0  0  0  0
   -1.2761    1.9015   -0.1256 O   0  0  0  0  0  0  0  0  0  0  0  0
    0.4051    1.8919    1.3699 N   0  0  0  0  0  0  0  0  0  0  0  0
    1.1380    1.3380    1.7875 H   0  0  0  0  0  0  0  0  0  0  0  0
    0.3573    3.3183    1.6807 C   0  0  0  0  0  0  0  0  0  0  0  0
   -0.6670    3.6090    1.9198 H   0  0  0  0  0  0  0  0  0  0  0  0
    1.0066    3.5397    2.5289 H   0  0  0  0  0  0  0  0  0  0  0  0
    0.6896    3.8897    0.8118 H   0  0  0  0  0  0  0  0  0  0  0  0
  5  6  2  0  0  0  0
  5  7  1  0  0  0  0
  2  3  1  0  0  0  0
  2  4  1  0  0  0  0
  2  5  1  0  0  0  0
  1  2  1  0  0  0  0
 20 21  2  0  0  0  0
 20 22  1  0  0  0  0
 17 18  1  0  0  0  0
 17 19  2  0  0  0  0
 14 15  1  0  0  0  0
 14 16  1  0  0  0  0
 14 17  1  0  0  0  0
 11 12  1  0  0  0  0
 11 13  1  0  0  0  0
 11 14  1  0  0  0  0
  9 10  1  0  0  0  0
  9 11  1  0  0  0  0
  9 20  1  0  0  0  0
  7  8  1  0  0  0  0
  7  9  1  0  0  0  0
 24 25  1  0  0  0  0
 24 26  1  0  0  0  0
 24 27  1  0  0  0  0
 22 23  1  0  0  0  0
 22 24  1  0  0  0  0
M  CHG  1  18  -1
M  END
$$$$
default_name
  -OEChem-02102213163D

 27 26  0     1  0  0  0  0  0999 V2000
   -3.2406   -3.5400    1.2326 H   0  0  0  0  0  0  0  0  0  0  0  0
   -3.1436   -2.6190    0.6606 C   0  0  0  0  0  0  0  0  0  0  0  0
   -3.8786   -1.8920    0.9996 H   0  0  0  0  0  0  0  0  0  0  0  0
   -3.2846   -2.8280   -0.3984 H   0  0  0  0  0  0  0  0  0  0  0  0
   -1.7586   -2.0580    0.8686 C   0  0  0  0  0  0  0  0  0  0  0  0
   -0.9666   -2.6340    1.6026 O   0  0  0  0  0  0  0  0  0  0  0  0
   -1.4866   -0.9220    0.2366 N   0  0  0  0  0  0  0  0  0  0  0  0
   -2.2166   -0.4790   -0.2994 H   0  0  0  0  0  0  0  0  0  0  0  0
   -0.1956   -0.2250    0.2596 C   0  0  1  0  0  0  0  0  0  0  0  0
    0.3927   -0.6026    1.0964 H   0  0  0  0  0  0  0  0  0  0  0  0
    0.5767   -0.5489   -1.0351 C   0  0  0  0  0  0  0  0  0  0  0  0
    1.5127   -1.0352   -0.7557 H   0  0  0  0  0  0  0  0  0  0  0  0
   -0.0072   -1.2459   -1.6380 H   0  0  0  0  0  0  0  0  0  0  0  0
    0.9061    0.6943   -1.8786 C   0  0  0  0  0  0  0  0  0  0  0  0
    0.0785    0.8901   -2.5647 H   0  0  0  0  0  0  0  0  0  0  0  0
    0.9962    1.5513   -1.2059 H   0  0  0  0  0  0  0  0  0  0  0  0
    2.1996    0.5529   -2.6946 C   0  0  0  0  0  0  0  0  0  0  0  0
    2.9137   -0.4575   -2.5057 O   0  5  0  0  0  0  0  0  0  0  0  0
    2.4426    1.4590   -3.5224 O   0  0  0  0  0  0  0  0  0  0  0  0
   -0.3954    1.2887    0.4814 C   0  0  0  0  0  0  0  0  0  0  0  0
   -1.2761    1.9015   -0.1256 O   0  0  0  0  0  0  0  0  0  0  0  0
    0.4051    1.8919    1.3699 N   0  0  0  0  0  0  0  0  0  0  0  0
    1.1380    1.3380    1.7875 H   0  0  0  0  0  0  0  0  0  0  0  0
    0.3573    3.3183    1.6807 C   0  0  0  0  0  0  0  0  0  0  0  0
   -0.6670    3.6090    1.9198 H   0  0  0  0  0  0  0  0  0  0  0  0
    1.0066    3.5397    2.5289 H   0  0  0  0  0  0  0  0  0  0  0  0
    0.6896    3.8897    0.8118 H   0  0  0  0  0  0  0  0  0  0  0  0
  5  6  2  0  0  0  0
  5  7  1  0  0  0  0
  2  3  1  0  0  0  0
  2  4  1  0  0  0  0
  2  5  1  0  0  0  0
  1  2  1  0  0  0  0
 20 21  2  0  0  0  0
 20 22  1  0  0  0  0
 17 18  1  0  0  0  0
 17 19  2  0  0  0  0
 14 15  1  0  0  0  0
 14 16  1  0  0  0  0
 14 17  1  0  0  0  0
 11 12  1  0  0  0  0
 11 13  1  0  0  0  0
 11 14  1  0  0  0  0
  9 10  1  0  0  0  0
  9 11  1  0  0  0  0
  9 20  1  0  0  0  0
  7  8  1  0  0  0  0
  7  9  1  0  0  0  0
 24 25  1  0  0  0  0
 24 26  1  0  0  0  0
 24 27  1  0  0  0  0
 22 23  1  0  0  0  0
 22 24  1  0  0  0  0
M  CHG  1  18  -1
M  END
$$$$
default_name
  -OEChem-02102213163D

 27 26  0     1  0  0  0  0  0999 V2000
   -3.2406   -3.5400    1.2326 H   0  0  0  0  0  0  0  0  0  0  0  0
   -3.1436   -2.6190    0.6606 C   0  0  0  0  0  0  0  0  0  0  0  0
   -3.8786   -1.8920    0.9996 H   0  0  0  0  0  0  0  0  0  0  0  0
   -3.2846   -2.8280   -0.3984 H   0  0  0  0  0  0  0  0  0  0  0  0
   -1.7586   -2.0580    0.8686 C   0  0  0  0  0  0  0  0  0  0  0  0
   -0.9666   -2.6340    1.6026 O   0  0  0  0  0  0  0  0  0  0  0  0
   -1.4866   -0.9220    0.2366 N   0  0  0  0  0  0  0  0  0  0  0  0
   -2.2166   -0.4790   -0.2994 H   0  0  0  0  0  0  0  0  0  0  0  0
   -0.1956   -0.2250    0.2596 C   0  0  1  0  0  0  0  0  0  0  0  0
    0.3927   -0.6026    1.0964 H   0  0  0  0  0  0  0  0  0  0  0  0
    0.5767   -0.5489   -1.0351 C   0  0  0  0  0  0  0  0  0  0  0  0
    1.5127   -1.0352   -0.7557 H   0  0  0  0  0  0  0  0  0  0  0  0
   -0.0072   -1.2459   -1.6380 H   0  0  0  0  0  0  0  0  0  0  0  0
    0.9061    0.6943   -1.8786 C   0  0  0  0  0  0  0  0  0  0  0  0
   -0.0064    1.0488   -2.3640 H   0  0  0  0  0  0  0  0  0  0  0  0
    1.2580    1.4814   -1.2065 H   0  0  0  0  0  0  0  0  0  0  0  0
    1.9693    0.4361   -2.9566 C   0  0  0  0  0  0  0  0  0  0  0  0
    2.5494   -0.6728   -2.9652 O   0  5  0  0  0  0  0  0  0  0  0  0
    2.1684    1.3569   -3.7800 O   0  0  0  0  0  0  0  0  0  0  0  0
   -0.3954    1.2887    0.4814 C   0  0  0  0  0  0  0  0  0  0  0  0
   -1.2761    1.9015   -0.1256 O   0  0  0  0  0  0  0  0  0  0  0  0
    0.4051    1.8919    1.3699 N   0  0  0  0  0  0  0  0  0  0  0  0
    1.1380    1.3380    1.7875 H   0  0  0  0  0  0  0  0  0  0  0  0
    0.3573    3.3183    1.6807 C   0  0  0  0  0  0  0  0  0  0  0  0
   -0.6670    3.6090    1.9198 H   0  0  0  0  0  0  0  0  0  0  0  0
    1.0066    3.5397    2.5289 H   0  0  0  0  0  0  0  0  0  0  0  0
    0.6896    3.8897    0.8118 H   0  0  0  0  0  0  0  0  0  0  0  0
  5  6  2  0  0  0  0
  5  7  1  0  0  0  0
  2  3  1  0  0  0  0
  2  4  1  0  0  0  0
  2  5  1  0  0  0  0
  1  2  1  0  0  0  0
 20 21  2  0  0  0  0
 20 22  1  0  0  0  0
 17 18  1  0  0  0  0
 17 19  2  0  0  0  0
 14 15  1  0  0  0  0
 14 16  1  0  0  0  0
 14 17  1  0  0  0  0
 11 12  1  0  0  0  0
 11 13  1  0  0  0  0
 11 14  1  0  0  0  0
  9 10  1  0  0  0  0
  9 11  1  0  0  0  0
  9 20  1  0  0  0  0
  7  8  1  0  0  0  0
  7  9  1  0  0  0  0
 24 25  1  0  0  0  0
 24 26  1  0  0  0  0
 24 27  1  0  0  0  0
 22 23  1  0  0  0  0
 22 24  1  0  0  0  0
M  CHG  1  18  -1
M  END
$$$$
default_name
  -OEChem-02102213163D

 27 26  0     1  0  0  0  0  0999 V2000
   -3.2406   -3.5400    1.2326 H   0  0  0  0  0  0  0  0  0  0  0  0
   -3.1436   -2.6190    0.6606 C   0  0  0  0  0  0  0  0  0  0  0  0
   -3.8786   -1.8920    0.9996 H   0  0  0  0  0  0  0  0  0  0  0  0
   -3.2846   -2.8280   -0.3984 H   0  0  0  0  0  0  0  0  0  0  0  0
   -1.7586   -2.0580    0.8686 C   0  0  0  0  0  0  0  0  0  0  0  0
   -0.9666   -2.6340    1.6026 O   0  0  0  0  0  0  0  0  0  0  0  0
   -1.4866   -0.9220    0.2366 N   0  0  0  0  0  0  0  0  0  0  0  0
   -2.2166   -0.4790   -0.2994 H   0  0  0  0  0  0  0  0  0  0  0  0
   -0.1956   -0.2250    0.2596 C   0  0  1  0  0  0  0  0  0  0  0  0
    0.3927   -0.6026    1.0964 H   0  0  0  0  0  0  0  0  0  0  0  0
    0.5767   -0.5489   -1.0351 C   0  0  0  0  0  0  0  0  0  0  0  0
    1.3656   -1.2606   -0.7870 H   0  0  0  0  0  0  0  0  0  0  0  0
   -0.0999   -1.0197   -1.7498 H   0  0  0  0  0  0  0  0  0  0  0  0
    1.2214    0.6853   -1.6884 C   0  0  0  0  0  0  0  0  0  0  0  0
    0.4420    1.4156   -1.9189 H   0  0  0  0  0  0  0  0  0  0  0  0
    1.9047    1.1385   -0.9653 H   0  0  0  0  0  0  0  0  0  0  0  0
    1.9903    0.3616   -2.9779 C   0  0  0  0  0  0  0  0  0  0  0  0
    2.1370   -0.8399   -3.2964 O   0  5  0  0  0  0  0  0  0  0  0  0
    2.4028    1.3365   -3.6448 O   0  0  0  0  0  0  0  0  0  0  0  0
   -0.3954    1.2887    0.4814 C   0  0  0  0  0  0  0  0  0  0  0  0
   -1.2761    1.9015   -0.1256 O   0  0  0  0  0  0  0  0  0  0  0  0
    0.4051    1.8919    1.3699 N   0  0  0  0  0  0  0  0  0  0  0  0
    1.1380    1.3380    1.7875 H   0  0  0  0  0  0  0  0  0  0  0  0
    0.3573    3.3183    1.6807 C   0  0  0  0  0  0  0  0  0  0  0  0
   -0.6670    3.6090    1.9198 H   0  0  0  0  0  0  0  0  0  0  0  0
    1.0066    3.5397    2.5289 H   0  0  0  0  0  0  0  0  0  0  0  0
    0.6896    3.8897    0.8118 H   0  0  0  0  0  0  0  0  0  0  0  0
  5  6  2  0  0  0  0
  5  7  1  0  0  0  0
  2  3  1  0  0  0  0
  2  4  1  0  0  0  0
  2  5  1  0  0  0  0
  1  2  1  0  0  0  0
 20 21  2  0  0  0  0
 20 22  1  0  0  0  0
 17 18  1  0  0  0  0
 17 19  2  0  0  0  0
 14 15  1  0  0  0  0
 14 16  1  0  0  0  0
 14 17  1  0  0  0  0
 11 12  1  0  0  0  0
 11 13  1  0  0  0  0
 11 14  1  0  0  0  0
  9 10  1  0  0  0  0
  9 11  1  0  0  0  0
  9 20  1  0  0  0  0
  7  8  1  0  0  0  0
  7  9  1  0  0  0  0
 24 25  1  0  0  0  0
 24 26  1  0  0  0  0
 24 27  1  0  0  0  0
 22 23  1  0  0  0  0
 22 24  1  0  0  0  0
M  CHG  1  18  -1
M  END
$$$$
default_name
  -OEChem-02102213163D

 27 26  0     1  0  0  0  0  0999 V2000
   -3.2406   -3.5400    1.2326 H   0  0  0  0  0  0  0  0  0  0  0  0
   -3.1436   -2.6190    0.6606 C   0  0  0  0  0  0  0  0  0  0  0  0
   -3.8786   -1.8920    0.9996 H   0  0  0  0  0  0  0  0  0  0  0  0
   -3.2846   -2.8280   -0.3984 H   0  0  0  0  0  0  0  0  0  0  0  0
   -1.7586   -2.0580    0.8686 C   0  0  0  0  0  0  0  0  0  0  0  0
   -0.9666   -2.6340    1.6026 O   0  0  0  0  0  0  0  0  0  0  0  0
   -1.4866   -0.9220    0.2366 N   0  0  0  0  0  0  0  0  0  0  0  0
   -2.2166   -0.4790   -0.2994 H   0  0  0  0  0  0  0  0  0  0  0  0
   -0.1956   -0.2250    0.2596 C   0  0  1  0  0  0  0  0  0  0  0  0
    0.3927   -0.6026    1.0964 H   0  0  0  0  0  0  0  0  0  0  0  0
    0.5767   -0.5489   -1.0351 C   0  0  0  0  0  0  0  0  0  0  0  0
    1.3656   -1.2606   -0.7870 H   0  0  0  0  0  0  0  0  0  0  0  0
   -0.0999   -1.0197   -1.7498 H   0  0  0  0  0  0  0  0  0  0  0  0
    1.2214    0.6853   -1.6884 C   0  0  0  0  0  0  0  0  0  0  0  0
    0.5060    1.5112   -1.6751 H   0  0  0  0  0  0  0  0  0  0  0  0
    2.0863    0.9789   -1.0877 H   0  0  0  0  0  0  0  0  0  0  0  0
    1.6694    0.4447   -3.1376 C   0  0  0  0  0  0  0  0  0  0  0  0
    1.6019   -0.7184   -3.5949 O   0  5  0  0  0  0  0  0  0  0  0  0
    2.0541    1.4472   -3.7796 O   0  0  0  0  0  0  0  0  0  0  0  0
   -0.3954    1.2887    0.4814 C   0  0  0  0  0  0  0  0  0  0  0  0
   -1.2761    1.9015   -0.1256 O   0  0  0  0  0  0  0  0  0  0  0  0
    0.4051    1.8919    1.3699 N   0  0  0  0  0  0  0  0  0  0  0  0
    1.1380    1.3380    1.7875 H   0  0  0  0  0  0  0  0  0  0  0  0
    0.3573    3.3183    1.6807 C   0  0  0  0  0  0  0  0  0  0  0  0
   -0.6670    3.6090    1.9198 H   0  0  0  0  0  0  0  0  0  0  0  0
    1.0066    3.5397    2.5289 H   0  0  0  0  0  0  0  0  0  0  0  0
    0.6896    3.8897    0.8118 H   0  0  0  0  0  0  0  0  0  0  0  0
  5  6  2  0  0  0  0
  5  7  1  0  0  0  0
  2  3  1  0  0  0  0
  2  4  1  0  0  0  0
  2  5  1  0  0  0  0
  1  2  1  0  0  0  0
 20 21  2  0  0  0  0
 20 22  1  0  0  0  0
 17 18  1  0  0  0  0
 17 19  2  0  0  0  0
 14 15  1  0  0  0  0
 14 16  1  0  0  0  0
 14 17  1  0  0  0  0
 11 12  1  0  0  0  0
 11 13  1  0  0  0  0
 11 14  1  0  0  0  0
  9 10  1  0  0  0  0
  9 11  1  0  0  0  0
  9 20  1  0  0  0  0
  7  8  1  0  0  0  0
  7  9  1  0  0  0  0
 24 25  1  0  0  0  0
 24 26  1  0  0  0  0
 24 27  1  0  0  0  0
 22 23  1  0  0  0  0
 22 24  1  0  0  0  0
M  CHG  1  18  -1
M  END
$$$$
default_name
  -OEChem-02102213163D

 27 26  0     1  0  0  0  0  0999 V2000
   -3.2406   -3.5400    1.2326 H   0  0  0  0  0  0  0  0  0  0  0  0
   -3.1436   -2.6190    0.6606 C   0  0  0  0  0  0  0  0  0  0  0  0
   -3.8786   -1.8920    0.9996 H   0  0  0  0  0  0  0  0  0  0  0  0
   -3.2846   -2.8280   -0.3984 H   0  0  0  0  0  0  0  0  0  0  0  0
   -1.7586   -2.0580    0.8686 C   0  0  0  0  0  0  0  0  0  0  0  0
   -0.9666   -2.6340    1.6026 O   0  0  0  0  0  0  0  0  0  0  0  0
   -1.4866   -0.9220    0.2366 N   0  0  0  0  0  0  0  0  0  0  0  0
   -2.2166   -0.4790   -0.2994 H   0  0  0  0  0  0  0  0  0  0  0  0
   -0.1956   -0.2250    0.2596 C   0  0  1  0  0  0  0  0  0  0  0  0
    0.3927   -0.6026    1.0964 H   0  0  0  0  0  0  0  0  0  0  0  0
    0.5767   -0.5489   -1.0351 C   0  0  0  0  0  0  0  0  0  0  0  0
    1.3656   -1.2606   -0.7870 H   0  0  0  0  0  0  0  0  0  0  0  0
   -0.0999   -1.0197   -1.7498 H   0  0  0  0  0  0  0  0  0  0  0  0
    1.2214    0.6853   -1.6884 C   0  0  0  0  0  0  0  0  0  0  0  0
    0.6290    1.5700   -1.4426 H   0  0  0  0  0  0  0  0  0  0  0  0
    2.2188    0.8180   -1.2609 H   0  0  0  0  0  0  0  0  0  0  0  0
    1.3354    0.5776   -3.2162 C   0  0  0  0  0  0  0  0  0  0  0  0
    1.0364   -0.5099   -3.7590 O   0  5  0  0  0  0  0  0  0  0  0  0
    1.7016    1.6071   -3.8254 O   0  0  0  0  0  0  0  0  0  0  0  0
   -0.3954    1.2887    0.4814 C   0  0  0  0  0  0  0  0  0  0  0  0
   -1.2761    1.9015   -0.1256 O   0  0  0  0  0  0  0  0  0  0  0  0
    0.4051    1.8919    1.3699 N   0  0  0  0  0  0  0  0  0  0  0  0
    1.1380    1.3380    1.7875 H   0  0  0  0  0  0  0  0  0  0  0  0
    0.3573    3.3183    1.6807 C   0  0  0  0  0  0  0  0  0  0  0  0
   -0.6670    3.6090    1.9198 H   0  0  0  0  0  0  0  0  0  0  0  0
    1.0066    3.5397    2.5289 H   0  0  0  0  0  0  0  0  0  0  0  0
    0.6896    3.8897    0.8118 H   0  0  0  0  0  0  0  0  0  0  0  0
  5  6  2  0  0  0  0
  5  7  1  0  0  0  0
  2  3  1  0  0  0  0
  2  4  1  0  0  0  0
  2  5  1  0  0  0  0
  1  2  1  0  0  0  0
 20 21  2  0  0  0  0
 20 22  1  0  0  0  0
 17 18  1  0  0  0  0
 17 19  2  0  0  0  0
 14 15  1  0  0  0  0
 14 16  1  0  0  0  0
 14 17  1  0  0  0  0
 11 12  1  0  0  0  0
 11 13  1  0  0  0  0
 11 14  1  0  0  0  0
  9 10  1  0  0  0  0
  9 11  1  0  0  0  0
  9 20  1  0  0  0  0
  7  8  1  0  0  0  0
  7  9  1  0  0  0  0
 24 25  1  0  0  0  0
 24 26  1  0  0  0  0
 24 27  1  0  0  0  0
 22 23  1  0  0  0  0
 22 24  1  0  0  0  0
M  CHG  1  18  -1
M  END
$$$$
default_name
  -OEChem-02102213163D

 27 26  0     1  0  0  0  0  0999 V2000
   -3.2406   -3.5400    1.2326 H   0  0  0  0  0  0  0  0  0  0  0  0
   -3.1436   -2.6190    0.6606 C   0  0  0  0  0  0  0  0  0  0  0  0
   -3.8786   -1.8920    0.9996 H   0  0  0  0  0  0  0  0  0  0  0  0
   -3.2846   -2.8280   -0.3984 H   0  0  0  0  0  0  0  0  0  0  0  0
   -1.7586   -2.0580    0.8686 C   0  0  0  0  0  0  0  0  0  0  0  0
   -0.9666   -2.6340    1.6026 O   0  0  0  0  0  0  0  0  0  0  0  0
   -1.4866   -0.9220    0.2366 N   0  0  0  0  0  0  0  0  0  0  0  0
   -2.2166   -0.4790   -0.2994 H   0  0  0  0  0  0  0  0  0  0  0  0
   -0.1956   -0.2250    0.2596 C   0  0  1  0  0  0  0  0  0  0  0  0
    0.3927   -0.6026    1.0964 H   0  0  0  0  0  0  0  0  0  0  0  0
    0.5767   -0.5489   -1.0351 C   0  0  0  0  0  0  0  0  0  0  0  0
    1.3656   -1.2606   -0.7870 H   0  0  0  0  0  0  0  0  0  0  0  0
   -0.0999   -1.0197   -1.7498 H   0  0  0  0  0  0  0  0  0  0  0  0
    1.2214    0.6853   -1.6884 C   0  0  0  0  0  0  0  0  0  0  0  0
    0.8026    1.5881   -1.2371 H   0  0  0  0  0  0  0  0  0  0  0  0
    2.2930    0.6669   -1.4732 H   0  0  0  0  0  0  0  0  0  0  0  0
    1.0111    0.7511   -3.2084 C   0  0  0  0  0  0  0  0  0  0  0  0
    0.4790   -0.2285   -3.7774 O   0  5  0  0  0  0  0  0  0  0  0  0
    1.3691    1.8053   -3.7791 O   0  0  0  0  0  0  0  0  0  0  0  0
   -0.3954    1.2887    0.4814 C   0  0  0  0  0  0  0  0  0  0  0  0
   -1.2761    1.9015   -0.1256 O   0  0  0  0  0  0  0  0  0  0  0  0
    0.4051    1.8919    1.3699 N   0  0  0  0  0  0  0  0  0  0  0  0
    1.1380    1.3380    1.7875 H   0  0  0  0  0  0  0  0  0  0  0  0
    0.3573    3.3183    1.6807 C   0  0  0  0  0  0  0  0  0  0  0  0
   -0.6670    3.6090    1.9198 H   0  0  0  0  0  0  0  0  0  0  0  0
    1.0066    3.5397    2.5289 H   0  0  0  0  0  0  0  0  0  0  0  0
    0.6896    3.8897    0.8118 H   0  0  0  0  0  0  0  0  0  0  0  0
  5  6  2  0  0  0  0
  5  7  1  0  0  0  0
  2  3  1  0  0  0  0
  2  4  1  0  0  0  0
  2  5  1  0  0  0  0
  1  2  1  0  0  0  0
 20 21  2  0  0  0  0
 20 22  1  0  0  0  0
 17 18  1  0  0  0  0
 17 19  2  0  0  0  0
 14 15  1  0  0  0  0
 14 16  1  0  0  0  0
 14 17  1  0  0  0  0
 11 12  1  0  0  0  0
 11 13  1  0  0  0  0
 11 14  1  0  0  0  0
  9 10  1  0  0  0  0
  9 11  1  0  0  0  0
  9 20  1  0  0  0  0
  7  8  1  0  0  0  0
  7  9  1  0  0  0  0
 24 25  1  0  0  0  0
 24 26  1  0  0  0  0
 24 27  1  0  0  0  0
 22 23  1  0  0  0  0
 22 24  1  0  0  0  0
M  CHG  1  18  -1
M  END
$$$$
default_name
  -OEChem-02102213163D

 27 26  0     1  0  0  0  0  0999 V2000
   -3.2406   -3.5400    1.2326 H   0  0  0  0  0  0  0  0  0  0  0  0
   -3.1436   -2.6190    0.6606 C   0  0  0  0  0  0  0  0  0  0  0  0
   -3.8786   -1.8920    0.9996 H   0  0  0  0  0  0  0  0  0  0  0  0
   -3.2846   -2.8280   -0.3984 H   0  0  0  0  0  0  0  0  0  0  0  0
   -1.7586   -2.0580    0.8686 C   0  0  0  0  0  0  0  0  0  0  0  0
   -0.9666   -2.6340    1.6026 O   0  0  0  0  0  0  0  0  0  0  0  0
   -1.4866   -0.9220    0.2366 N   0  0  0  0  0  0  0  0  0  0  0  0
   -2.2166   -0.4790   -0.2994 H   0  0  0  0  0  0  0  0  0  0  0  0
   -0.1956   -0.2250    0.2596 C   0  0  1  0  0  0  0  0  0  0  0  0
    0.3927   -0.6026    1.0964 H   0  0  0  0  0  0  0  0  0  0  0  0
    0.5767   -0.5489   -1.0351 C   0  0  0  0  0  0  0  0  0  0  0  0
    1.3656   -1.2606   -0.7870 H   0  0  0  0  0  0  0  0  0  0  0  0
   -0.0999   -1.0197   -1.7498 H   0  0  0  0  0  0  0  0  0  0  0  0
    1.2214    0.6853   -1.6884 C   0  0  0  0  0  0  0  0  0  0  0  0
    1.0149    1.5641   -1.0728 H   0  0  0  0  0  0  0  0  0  0  0  0
    2.3041    0.5357   -1.7101 H   0  0  0  0  0  0  0  0  0  0  0  0
    0.7185    0.9536   -3.1146 C   0  0  0  0  0  0  0  0  0  0  0  0
   -0.0322    0.1066   -3.6489 O   0  5  0  0  0  0  0  0  0  0  0  0
    1.0794    2.0283   -3.6438 O   0  0  0  0  0  0  0  0  0  0  0  0
   -0.3954    1.2887    0.4814 C   0  0  0  0  0  0  0  0  0  0  0  0
   -1.2761    1.9015   -0.1256 O   0  0  0  0  0  0  0  0  0  0  0  0
    0.4051    1.8919    1.3699 N   0  0  0  0  0  0  0  0  0  0  0  0
    1.1380    1.3380    1.7875 H   0  0  0  0  0  0  0  0  0  0  0  0
    0.3573    3.3183    1.6807 C   0  0  0  0  0  0  0  0  0  0  0  0
   -0.6670    3.6090    1.9198 H   0  0  0  0  0  0  0  0  0  0  0  0
    1.0066    3.5397    2.5289 H   0  0  0  0  0  0  0  0  0  0  0  0
    0.6896    3.8897    0.8118 H   0  0  0  0  0  0  0  0  0  0  0  0
  5  6  2  0  0  0  0
  5  7  1  0  0  0  0
  2  3  1  0  0  0  0
  2  4  1  0  0  0  0
  2  5  1  0  0  0  0
  1  2  1  0  0  0  0
 20 21  2  0  0  0  0
 20 22  1  0  0  0  0
 17 18  1  0  0  0  0
 17 19  2  0  0  0  0
 14 15  1  0  0  0  0
 14 16  1  0  0  0  0
 14 17  1  0  0  0  0
 11 12  1  0  0  0  0
 11 13  1  0  0  0  0
 11 14  1  0  0  0  0
  9 10  1  0  0  0  0
  9 11  1  0  0  0  0
  9 20  1  0  0  0  0
  7  8  1  0  0  0  0
  7  9  1  0  0  0  0
 24 25  1  0  0  0  0
 24 26  1  0  0  0  0
 24 27  1  0  0  0  0
 22 23  1  0  0  0  0
 22 24  1  0  0  0  0
M  CHG  1  18  -1
M  END
$$$$
default_name
  -OEChem-02102213163D

 27 26  0     1  0  0  0  0  0999 V2000
   -3.2406   -3.5400    1.2326 H   0  0  0  0  0  0  0  0  0  0  0  0
   -3.1436   -2.6190    0.6606 C   0  0  0  0  0  0  0  0  0  0  0  0
   -3.8786   -1.8920    0.9996 H   0  0  0  0  0  0  0  0  0  0  0  0
   -3.2846   -2.8280   -0.3984 H   0  0  0  0  0  0  0  0  0  0  0  0
   -1.7586   -2.0580    0.8686 C   0  0  0  0  0  0  0  0  0  0  0  0
   -0.9666   -2.6340    1.6026 O   0  0  0  0  0  0  0  0  0  0  0  0
   -1.4866   -0.9220    0.2366 N   0  0  0  0  0  0  0  0  0  0  0  0
   -2.2166   -0.4790   -0.2994 H   0  0  0  0  0  0  0  0  0  0  0  0
   -0.1956   -0.2250    0.2596 C   0  0  1  0  0  0  0  0  0  0  0  0
    0.3927   -0.6026    1.0964 H   0  0  0  0  0  0  0  0  0  0  0  0
    0.5767   -0.5489   -1.0351 C   0  0  0  0  0  0  0  0  0  0  0  0
    1.3656   -1.2606   -0.7870 H   0  0  0  0  0  0  0  0  0  0  0  0
   -0.0999   -1.0197   -1.7498 H   0  0  0  0  0  0  0  0  0  0  0  0
    1.2214    0.6853   -1.6884 C   0  0  0  0  0  0  0  0  0  0  0  0
    1.2515    1.4999   -0.9607 H   0  0  0  0  0  0  0  0  0  0  0  0
    2.2511    0.4336   -1.9554 H   0  0  0  0  0  0  0  0  0  0  0  0
    0.4776    1.1711   -2.9413 C   0  0  0  0  0  0  0  0  0  0  0  0
   -0.4626    0.4725   -3.3823 O   0  5  0  0  0  0  0  0  0  0  0  0
    0.8521    2.2608   -3.4287 O   0  0  0  0  0  0  0  0  0  0  0  0
   -0.3954    1.2887    0.4814 C   0  0  0  0  0  0  0  0  0  0  0  0
   -1.2761    1.9015   -0.1256 O   0  0  0  0  0  0  0  0  0  0  0  0
    0.4051    1.8919    1.3699 N   0  0  0  0  0  0  0  0  0  0  0  0
    1.1380    1.3380    1.7875 H   0  0  0  0  0  0  0  0  0  0  0  0
    0.3573    3.3183    1.6807 C   0  0  0  0  0  0  0  0  0  0  0  0
   -0.6670    3.6090    1.9198 H   0  0  0  0  0  0  0  0  0  0  0  0
    1.0066    3.5397    2.5289 H   0  0  0  0  0  0  0  0  0  0  0  0
    0.6896    3.8897    0.8118 H   0  0  0  0  0  0  0  0  0  0  0  0
  5  6  2  0  0  0  0
  5  7  1  0  0  0  0
  2  3  1  0  0  0  0
  2  4  1  0  0  0  0
  2  5  1  0  0  0  0
  1  2  1  0  0  0  0
 20 21  2  0  0  0  0
 20 22  1  0  0  0  0
 17 18  1  0  0  0  0
 17 19  2  0  0  0  0
 14 15  1  0  0  0  0
 14 16  1  0  0  0  0
 14 17  1  0  0  0  0
 11 12  1  0  0  0  0
 11 13  1  0  0  0  0
 11 14  1  0  0  0  0
  9 10  1  0  0  0  0
  9 11  1  0  0  0  0
  9 20  1  0  0  0  0
  7  8  1  0  0  0  0
  7  9  1  0  0  0  0
 24 25  1  0  0  0  0
 24 26  1  0  0  0  0
 24 27  1  0  0  0  0
 22 23  1  0  0  0  0
 22 24  1  0  0  0  0
M  CHG  1  18  -1
M  END
$$$$
default_name
  -OEChem-02102213163D

 27 26  0     1  0  0  0  0  0999 V2000
   -3.2406   -3.5400    1.2326 H   0  0  0  0  0  0  0  0  0  0  0  0
   -3.1436   -2.6190    0.6606 C   0  0  0  0  0  0  0  0  0  0  0  0
   -3.8786   -1.8920    0.9996 H   0  0  0  0  0  0  0  0  0  0  0  0
   -3.2846   -2.8280   -0.3984 H   0  0  0  0  0  0  0  0  0  0  0  0
   -1.7586   -2.0580    0.8686 C   0  0  0  0  0  0  0  0  0  0  0  0
   -0.9666   -2.6340    1.6026 O   0  0  0  0  0  0  0  0  0  0  0  0
   -1.4866   -0.9220    0.2366 N   0  0  0  0  0  0  0  0  0  0  0  0
   -2.2166   -0.4790   -0.2994 H   0  0  0  0  0  0  0  0  0  0  0  0
   -0.1956   -0.2250    0.2596 C   0  0  1  0  0  0  0  0  0  0  0  0
    0.3927   -0.6026    1.0964 H   0  0  0  0  0  0  0  0  0  0  0  0
    0.5767   -0.5489   -1.0351 C   0  0  0  0  0  0  0  0  0  0  0  0
    1.3656   -1.2606   -0.7870 H   0  0  0  0  0  0  0  0  0  0  0  0
   -0.0999   -1.0197   -1.7498 H   0  0  0  0  0  0  0  0  0  0  0  0
    1.2214    0.6853   -1.6884 C   0  0  0  0  0  0  0  0  0  0  0  0
    1.4963    1.3996   -0.9086 H   0  0  0  0  0  0  0  0  0  0  0  0
    2.1378    0.3673   -2.1924 H   0  0  0  0  0  0  0  0  0  0  0  0
    0.3049    1.3889   -2.7003 C   0  0  0  0  0  0  0  0  0  0  0  0
   -0.7826    0.8443   -2.9956 O   0  5  0  0  0  0  0  0  0  0  0  0
    0.7028    2.4871   -3.1486 O   0  0  0  0  0  0  0  0  0  0  0  0
   -0.3954    1.2887    0.4814 C   0  0  0  0  0  0  0  0  0  0  0  0
   -1.2761    1.9015   -0.1256 O   0  0  0  0  0  0  0  0  0  0  0  0
    0.4051    1.8919    1.3699 N   0  0  0  0  0  0  0  0  0  0  0  0
    1.1380    1.3380    1.7875 H   0  0  0  0  0  0  0  0  0  0  0  0
    0.3573    3.3183    1.6807 C   0  0  0  0  0  0  0  0  0  0  0  0
   -0.6670    3.6090    1.9198 H   0  0  0  0  0  0  0  0  0  0  0  0
    1.0066    3.5397    2.5289 H   0  0  0  0  0  0  0  0  0  0  0  0
    0.6896    3.8897    0.8118 H   0  0  0  0  0  0  0  0  0  0  0  0
  5  6  2  0  0  0  0
  5  7  1  0  0  0  0
  2  3  1  0  0  0  0
  2  4  1  0  0  0  0
  2  5  1  0  0  0  0
  1  2  1  0  0  0  0
 20 21  2  0  0  0  0
 20 22  1  0  0  0  0
 17 18  1  0  0  0  0
 17 19  2  0  0  0  0
 14 15  1  0  0  0  0
 14 16  1  0  0  0  0
 14 17  1  0  0  0  0
 11 12  1  0  0  0  0
 11 13  1  0  0  0  0
 11 14  1  0  0  0  0
  9 10  1  0  0  0  0
  9 11  1  0  0  0  0
  9 20  1  0  0  0  0
  7  8  1  0  0  0  0
  7  9  1  0  0  0  0
 24 25  1  0  0  0  0
 24 26  1  0  0  0  0
 24 27  1  0  0  0  0
 22 23  1  0  0  0  0
 22 24  1  0  0  0  0
M  CHG  1  18  -1
M  END
$$$$
default_name
  -OEChem-02102213163D

 27 26  0     1  0  0  0  0  0999 V2000
   -3.2406   -3.5400    1.2326 H   0  0  0  0  0  0  0  0  0  0  0  0
   -3.1436   -2.6190    0.6606 C   0  0  0  0  0  0  0  0  0  0  0  0
   -3.8786   -1.8920    0.9996 H   0  0  0  0  0  0  0  0  0  0  0  0
   -3.2846   -2.8280   -0.3984 H   0  0  0  0  0  0  0  0  0  0  0  0
   -1.7586   -2.0580    0.8686 C   0  0  0  0  0  0  0  0  0  0  0  0
   -0.9666   -2.6340    1.6026 O   0  0  0  0  0  0  0  0  0  0  0  0
   -1.4866   -0.9220    0.2366 N   0  0  0  0  0  0  0  0  0  0  0  0
   -2.2166   -0.4790   -0.2994 H   0  0  0  0  0  0  0  0  0  0  0  0
   -0.1956   -0.2250    0.2596 C   0  0  1  0  0  0  0  0  0  0  0  0
    0.3927   -0.6026    1.0964 H   0  0  0  0  0  0  0  0  0  0  0  0
    0.5767   -0.5489   -1.0351 C   0  0  0  0  0  0  0  0  0  0  0  0
    1.3656   -1.2606   -0.7870 H   0  0  0  0  0  0  0  0  0  0  0  0
   -0.0999   -1.0197   -1.7498 H   0  0  0  0  0  0  0  0  0  0  0  0
    1.2214    0.6853   -1.6884 C   0  0  0  0  0  0  0  0  0  0  0  0
    1.7325    1.2703   -0.9199 H   0  0  0  0  0  0  0  0  0  0  0  0
    1.9718    0.3414   -2.4051 H   0  0  0  0  0  0  0  0  0  0  0  0
    0.2120    1.5921   -2.4079 C   0  0  0  0  0  0  0  0  0  0  0  0
   -0.9706    1.1967   -2.5153 O   0  5  0  0  0  0  0  0  0  0  0  0
    0.6417    2.6916   -2.8224 O   0  0  0  0  0  0  0  0  0  0  0  0
   -0.3954    1.2887    0.4814 C   0  0  0  0  0  0  0  0  0  0  0  0
   -1.2761    1.9015   -0.1256 O   0  0  0  0  0  0  0  0  0  0  0  0
    0.4051    1.8919    1.3699 N   0  0  0  0  0  0  0  0  0  0  0  0
    1.1380    1.3380    1.7875 H   0  0  0  0  0  0  0  0  0  0  0  0
    0.3573    3.3183    1.6807 C   0  0  0  0  0  0  0  0  0  0  0  0
   -0.6670    3.6090    1.9198 H   0  0  0  0  0  0  0  0  0  0  0  0
    1.0066    3.5397    2.5289 H   0  0  0  0  0  0  0  0  0  0  0  0
    0.6896    3.8897    0.8118 H   0  0  0  0  0  0  0  0  0  0  0  0
  5  6  2  0  0  0  0
  5  7  1  0  0  0  0
  2  3  1  0  0  0  0
  2  4  1  0  0  0  0
  2  5  1  0  0  0  0
  1  2  1  0  0  0  0
 20 21  2  0  0  0  0
 20 22  1  0  0  0  0
 17 18  1  0  0  0  0
 17 19  2  0  0  0  0
 14 15  1  0  0  0  0
 14 16  1  0  0  0  0
 14 17  1  0  0  0  0
 11 12  1  0  0  0  0
 11 13  1  0  0  0  0
 11 14  1  0  0  0  0
  9 10  1  0  0  0  0
  9 11  1  0  0  0  0
  9 20  1  0  0  0  0
  7  8  1  0  0  0  0
  7  9  1  0  0  0  0
 24 25  1  0  0  0  0
 24 26  1  0  0  0  0
 24 27  1  0  0  0  0
 22 23  1  0  0  0  0
 22 24  1  0  0  0  0
M  CHG  1  18  -1
M  END
$$$$
default_name
  -OEChem-02102213163D

 27 26  0     1  0  0  0  0  0999 V2000
   -3.2406   -3.5400    1.2326 H   0  0  0  0  0  0  0  0  0  0  0  0
   -3.1436   -2.6190    0.6606 C   0  0  0  0  0  0  0  0  0  0  0  0
   -3.8786   -1.8920    0.9996 H   0  0  0  0  0  0  0  0  0  0  0  0
   -3.2846   -2.8280   -0.3984 H   0  0  0  0  0  0  0  0  0  0  0  0
   -1.7586   -2.0580    0.8686 C   0  0  0  0  0  0  0  0  0  0  0  0
   -0.9666   -2.6340    1.6026 O   0  0  0  0  0  0  0  0  0  0  0  0
   -1.4866   -0.9220    0.2366 N   0  0  0  0  0  0  0  0  0  0  0  0
   -2.2166   -0.4790   -0.2994 H   0  0  0  0  0  0  0  0  0  0  0  0
   -0.1956   -0.2250    0.2596 C   0  0  1  0  0  0  0  0  0  0  0  0
    0.3927   -0.6026    1.0964 H   0  0  0  0  0  0  0  0  0  0  0  0
    0.5767   -0.5489   -1.0351 C   0  0  0  0  0  0  0  0  0  0  0  0
    1.3656   -1.2606   -0.7870 H   0  0  0  0  0  0  0  0  0  0  0  0
   -0.0999   -1.0197   -1.7498 H   0  0  0  0  0  0  0  0  0  0  0  0
    1.2214    0.6853   -1.6884 C   0  0  0  0  0  0  0  0  0  0  0  0
    1.9441    1.1205   -0.9940 H   0  0  0  0  0  0  0  0  0  0  0  0
    1.7645    0.3578   -2.5788 H   0  0  0  0  0  0  0  0  0  0  0  0
    0.2054    1.7669   -2.0842 C   0  0  0  0  0  0  0  0  0  0  0  0
   -1.0137    1.5056   -1.9742 O   0  5  0  0  0  0  0  0  0  0  0  0
    0.6729    2.8605   -2.4725 O   0  0  0  0  0  0  0  0  0  0  0  0
   -0.3954    1.2887    0.4814 C   0  0  0  0  0  0  0  0  0  0  0  0
   -1.2761    1.9015   -0.1256 O   0  0  0  0  0  0  0  0  0  0  0  0
    0.4051    1.8919    1.3699 N   0  0  0  0  0  0  0  0  0  0  0  0
    1.1380    1.3380    1.7875 H   0  0  0  0  0  0  0  0  0  0  0  0
    0.3573    3.3183    1.6807 C   0  0  0  0  0  0  0  0  0  0  0  0
   -0.6670    3.6090    1.9198 H   0  0  0  0  0  0  0  0  0  0  0  0
    1.0066    3.5397    2.5289 H   0  0  0  0  0  0  0  0  0  0  0  0
    0.6896    3.8897    0.8118 H   0  0  0  0  0  0  0  0  0  0  0  0
  5  6  2  0  0  0  0
  5  7  1  0  0  0  0
  2  3  1  0  0  0  0
  2  4  1  0  0  0  0
  2  5  1  0  0  0  0
  1  2  1  0  0  0  0
 20 21  2  0  0  0  0
 20 22  1  0  0  0  0
 17 18  1  0  0  0  0
 17 19  2  0  0  0  0
 14 15  1  0  0  0  0
 14 16  1  0  0  0  0
 14 17  1  0  0  0  0
 11 12  1  0  0  0  0
 11 13  1  0  0  0  0
 11 14  1  0  0  0  0
  9 10  1  0  0  0  0
  9 11  1  0  0  0  0
  9 20  1  0  0  0  0
  7  8  1  0  0  0  0
  7  9  1  0  0  0  0
 24 25  1  0  0  0  0
 24 26  1  0  0  0  0
 24 27  1  0  0  0  0
 22 23  1  0  0  0  0
 22 24  1  0  0  0  0
M  CHG  1  18  -1
M  END
$$$$
default_name
  -OEChem-02102213163D

 27 26  0     1  0  0  0  0  0999 V2000
   -3.2406   -3.5400    1.2326 H   0  0  0  0  0  0  0  0  0  0  0  0
   -3.1436   -2.6190    0.6606 C   0  0  0  0  0  0  0  0  0  0  0  0
   -3.8786   -1.8920    0.9996 H   0  0  0  0  0  0  0  0  0  0  0  0
   -3.2846   -2.8280   -0.3984 H   0  0  0  0  0  0  0  0  0  0  0  0
   -1.7586   -2.0580    0.8686 C   0  0  0  0  0  0  0  0  0  0  0  0
   -0.9666   -2.6340    1.6026 O   0  0  0  0  0  0  0  0  0  0  0  0
   -1.4866   -0.9220    0.2366 N   0  0  0  0  0  0  0  0  0  0  0  0
   -2.2166   -0.4790   -0.2994 H   0  0  0  0  0  0  0  0  0  0  0  0
   -0.1956   -0.2250    0.2596 C   0  0  1  0  0  0  0  0  0  0  0  0
    0.3927   -0.6026    1.0964 H   0  0  0  0  0  0  0  0  0  0  0  0
    0.5767   -0.5489   -1.0351 C   0  0  0  0  0  0  0  0  0  0  0  0
    1.3656   -1.2606   -0.7870 H   0  0  0  0  0  0  0  0  0  0  0  0
   -0.0999   -1.0197   -1.7498 H   0  0  0  0  0  0  0  0  0  0  0  0
    1.2214    0.6853   -1.6884 C   0  0  0  0  0  0  0  0  0  0  0  0
    2.1166    0.9607   -1.1257 H   0  0  0  0  0  0  0  0  0  0  0  0
    1.5300    0.4152   -2.7017 H   0  0  0  0  0  0  0  0  0  0  0  0
    0.2854    1.9014   -1.7512 C   0  0  0  0  0  0  0  0  0  0  0  0
   -0.9090    1.7501   -1.4089 O   0  5  0  0  0  0  0  0  0  0  0  0
    0.7942    2.9823   -2.1226 O   0  0  0  0  0  0  0  0  0  0  0  0
   -0.3954    1.2887    0.4814 C   0  0  0  0  0  0  0  0  0  0  0  0
   -1.2761    1.9015   -0.1256 O   0  0  0  0  0  0  0  0  0  0  0  0
    0.4051    1.8919    1.3699 N   0  0  0  0  0  0  0  0  0  0  0  0
    1.1380    1.3380    1.7875 H   0  0  0  0  0  0  0  0  0  0  0  0
    0.3573    3.3183    1.6807 C   0  0  0  0  0  0  0  0  0  0  0  0
   -0.6670    3.6090    1.9198 H   0  0  0  0  0  0  0  0  0  0  0  0
    1.0066    3.5397    2.5289 H   0  0  0  0  0  0  0  0  0  0  0  0
    0.6896    3.8897    0.8118 H   0  0  0  0  0  0  0  0  0  0  0  0
  5  6  2  0  0  0  0
  5  7  1  0  0  0  0
  2  3  1  0  0  0  0
  2  4  1  0  0  0  0
  2  5  1  0  0  0  0
  1  2  1  0  0  0  0
 20 21  2  0  0  0  0
 20 22  1  0  0  0  0
 17 18  1  0  0  0  0
 17 19  2  0  0  0  0
 14 15  1  0  0  0  0
 14 16  1  0  0  0  0
 14 17  1  0  0  0  0
 11 12  1  0  0  0  0
 11 13  1  0  0  0  0
 11 14  1  0  0  0  0
  9 10  1  0  0  0  0
  9 11  1  0  0  0  0
  9 20  1  0  0  0  0
  7  8  1  0  0  0  0
  7  9  1  0  0  0  0
 24 25  1  0  0  0  0
 24 26  1  0  0  0  0
 24 27  1  0  0  0  0
 22 23  1  0  0  0  0
 22 24  1  0  0  0  0
M  CHG  1  18  -1
M  END
$$$$
default_name
  -OEChem-02102213163D

 27 26  0     1  0  0  0  0  0999 V2000
   -3.2406   -3.5400    1.2326 H   0  0  0  0  0  0  0  0  0  0  0  0
   -3.1436   -2.6190    0.6606 C   0  0  0  0  0  0  0  0  0  0  0  0
   -3.8786   -1.8920    0.9996 H   0  0  0  0  0  0  0  0  0  0  0  0
   -3.2846   -2.8280   -0.3984 H   0  0  0  0  0  0  0  0  0  0  0  0
   -1.7586   -2.0580    0.8686 C   0  0  0  0  0  0  0  0  0  0  0  0
   -0.9666   -2.6340    1.6026 O   0  0  0  0  0  0  0  0  0  0  0  0
   -1.4866   -0.9220    0.2366 N   0  0  0  0  0  0  0  0  0  0  0  0
   -2.2166   -0.4790   -0.2994 H   0  0  0  0  0  0  0  0  0  0  0  0
   -0.1956   -0.2250    0.2596 C   0  0  1  0  0  0  0  0  0  0  0  0
    0.3927   -0.6026    1.0964 H   0  0  0  0  0  0  0  0  0  0  0  0
    0.5767   -0.5489   -1.0351 C   0  0  0  0  0  0  0  0  0  0  0  0
    1.3656   -1.2606   -0.7870 H   0  0  0  0  0  0  0  0  0  0  0  0
   -0.0999   -1.0197   -1.7498 H   0  0  0  0  0  0  0  0  0  0  0  0
    1.2214    0.6853   -1.6884 C   0  0  0  0  0  0  0  0  0  0  0  0
    2.2383    0.8016   -1.3061 H   0  0  0  0  0  0  0  0  0  0  0  0
    1.2842    0.5098   -2.7656 H   0  0  0  0  0  0  0  0  0  0  0  0
    0.4466    1.9864   -1.4316 C   0  0  0  0  0  0  0  0  0  0  0  0
   -0.6635    1.9134   -0.8582 O   0  5  0  0  0  0  0  0  0  0  0  0
    0.9975    3.0487   -1.7967 O   0  0  0  0  0  0  0  0  0  0  0  0
   -0.3954    1.2887    0.4814 C   0  0  0  0  0  0  0  0  0  0  0  0
   -1.2761    1.9015   -0.1256 O   0  0  0  0  0  0  0  0  0  0  0  0
    0.4051    1.8919    1.3699 N   0  0  0  0  0  0  0  0  0  0  0  0
    1.1380    1.3380    1.7875 H   0  0  0  0  0  0  0  0  0  0  0  0
    0.3573    3.3183    1.6807 C   0  0  0  0  0  0  0  0  0  0  0  0
   -0.6670    3.6090    1.9198 H   0  0  0  0  0  0  0  0  0  0  0  0
    1.0066    3.5397    2.5289 H   0  0  0  0  0  0  0  0  0  0  0  0
    0.6896    3.8897    0.8118 H   0  0  0  0  0  0  0  0  0  0  0  0
  5  6  2  0  0  0  0
  5  7  1  0  0  0  0
  2  3  1  0  0  0  0
  2  4  1  0  0  0  0
  2  5  1  0  0  0  0
  1  2  1  0  0  0  0
 20 21  2  0  0  0  0
 20 22  1  0  0  0  0
 17 18  1  0  0  0  0
 17 19  2  0  0  0  0
 14 15  1  0  0  0  0
 14 16  1  0  0  0  0
 14 17  1  0  0  0  0
 11 12  1  0  0  0  0
 11 13  1  0  0  0  0
 11 14  1  0  0  0  0
  9 10  1  0  0  0  0
  9 11  1  0  0  0  0
  9 20  1  0  0  0  0
  7  8  1  0  0  0  0
  7  9  1  0  0  0  0
 24 25  1  0  0  0  0
 24 26  1  0  0  0  0
 24 27  1  0  0  0  0
 22 23  1  0  0  0  0
 22 24  1  0  0  0  0
M  CHG  1  18  -1
M  END
$$$$
default_name
  -OEChem-02102213163D

 27 26  0     1  0  0  0  0  0999 V2000
   -3.2406   -3.5400    1.2326 H   0  0  0  0  0  0  0  0  0  0  0  0
   -3.1436   -2.6190    0.6606 C   0  0  0  0  0  0  0  0  0  0  0  0
   -3.8786   -1.8920    0.9996 H   0  0  0  0  0  0  0  0  0  0  0  0
   -3.2846   -2.8280   -0.3984 H   0  0  0  0  0  0  0  0  0  0  0  0
   -1.7586   -2.0580    0.8686 C   0  0  0  0  0  0  0  0  0  0  0  0
   -0.9666   -2.6340    1.6026 O   0  0  0  0  0  0  0  0  0  0  0  0
   -1.4866   -0.9220    0.2366 N   0  0  0  0  0  0  0  0  0  0  0  0
   -2.2166   -0.4790   -0.2994 H   0  0  0  0  0  0  0  0  0  0  0  0
   -0.1956   -0.2250    0.2596 C   0  0  1  0  0  0  0  0  0  0  0  0
    0.3927   -0.6026    1.0964 H   0  0  0  0  0  0  0  0  0  0  0  0
    0.5767   -0.5489   -1.0351 C   0  0  0  0  0  0  0  0  0  0  0  0
    1.3656   -1.2606   -0.7870 H   0  0  0  0  0  0  0  0  0  0  0  0
   -0.0999   -1.0197   -1.7498 H   0  0  0  0  0  0  0  0  0  0  0  0
    1.2214    0.6853   -1.6884 C   0  0  0  0  0  0  0  0  0  0  0  0
    2.3010    0.6542   -1.5229 H   0  0  0  0  0  0  0  0  0  0  0  0
    1.0439    0.6351   -2.7659 H   0  0  0  0  0  0  0  0  0  0  0  0
    0.6781    2.0160   -1.1471 C   0  0  0  0  0  0  0  0  0  0  0  0
   -0.2942    1.9844   -0.3595 O   0  5  0  0  0  0  0  0  0  0  0  0
    1.2688    3.0551   -1.5169 O   0  0  0  0  0  0  0  0  0  0  0  0
   -0.3954    1.2887    0.4814 C   0  0  0  0  0  0  0  0  0  0  0  0
   -1.2761    1.9015   -0.1256 O   0  0  0  0  0  0  0  0  0  0  0  0
    0.4051    1.8919    1.3699 N   0  0  0  0  0  0  0  0  0  0  0  0
    1.1380    1.3380    1.7875 H   0  0  0  0  0  0  0  0  0  0  0  0
    0.3573    3.3183    1.6807 C   0  0  0  0  0  0  0  0  0  0  0  0
   -0.6670    3.6090    1.9198 H   0  0  0  0  0  0  0  0  0  0  0  0
    1.0066    3.5397    2.5289 H   0  0  0  0  0  0  0  0  0  0  0  0
    0.6896    3.8897    0.8118 H   0  0  0  0  0  0  0  0  0  0  0  0
  5  6  2  0  0  0  0
  5  7  1  0  0  0  0
  2  3  1  0  0  0  0
  2  4  1  0  0  0  0
  2  5  1  0  0  0  0
  1  2  1  0  0  0  0
 20 21  2  0  0  0  0
 20 22  1  0  0  0  0
 17 18  1  0  0  0  0
 17 19  2  0  0  0  0
 14 15  1  0  0  0  0
 14 16  1  0  0  0  0
 14 17  1  0  0  0  0
 11 12  1  0  0  0  0
 11 13  1  0  0  0  0
 11 14  1  0  0  0  0
  9 10  1  0  0  0  0
  9 11  1  0  0  0  0
  9 20  1  0  0  0  0
  7  8  1  0  0  0  0
  7  9  1  0  0  0  0
 24 25  1  0  0  0  0
 24 26  1  0  0  0  0
 24 27  1  0  0  0  0
 22 23  1  0  0  0  0
 22 24  1  0  0  0  0
M  CHG  1  18  -1
M  END
$$$$
default_name
  -OEChem-02102213163D

 27 26  0     1  0  0  0  0  0999 V2000
   -3.2406   -3.5400    1.2326 H   0  0  0  0  0  0  0  0  0  0  0  0
   -3.1436   -2.6190    0.6606 C   0  0  0  0  0  0  0  0  0  0  0  0
   -3.8786   -1.8920    0.9996 H   0  0  0  0  0  0  0  0  0  0  0  0
   -3.2846   -2.8280   -0.3984 H   0  0  0  0  0  0  0  0  0  0  0  0
   -1.7586   -2.0580    0.8686 C   0  0  0  0  0  0  0  0  0  0  0  0
   -0.9666   -2.6340    1.6026 O   0  0  0  0  0  0  0  0  0  0  0  0
   -1.4866   -0.9220    0.2366 N   0  0  0  0  0  0  0  0  0  0  0  0
   -2.2166   -0.4790   -0.2994 H   0  0  0  0  0  0  0  0  0  0  0  0
   -0.1956   -0.2250    0.2596 C   0  0  1  0  0  0  0  0  0  0  0  0
    0.3927   -0.6026    1.0964 H   0  0  0  0  0  0  0  0  0  0  0  0
    0.5767   -0.5489   -1.0351 C   0  0  0  0  0  0  0  0  0  0  0  0
    1.3656   -1.2606   -0.7870 H   0  0  0  0  0  0  0  0  0  0  0  0
   -0.0999   -1.0197   -1.7498 H   0  0  0  0  0  0  0  0  0  0  0  0
    1.2214    0.6853   -1.6884 C   0  0  0  0  0  0  0  0  0  0  0  0
    2.3002    0.5284   -1.7613 H   0  0  0  0  0  0  0  0  0  0  0  0
    0.8256    0.7826   -2.7028 H   0  0  0  0  0  0  0  0  0  0  0  0
    0.9640    1.9884   -0.9172 C   0  0  0  0  0  0  0  0  0  0  0  0
    0.1740    1.9583    0.0531 O   0  5  0  0  0  0  0  0  0  0  0  0
    1.5897    3.0010   -1.3022 O   0  0  0  0  0  0  0  0  0  0  0  0
   -0.3954    1.2887    0.4814 C   0  0  0  0  0  0  0  0  0  0  0  0
   -1.2761    1.9015   -0.1256 O   0  0  0  0  0  0  0  0  0  0  0  0
    0.4051    1.8919    1.3699 N   0  0  0  0  0  0  0  0  0  0  0  0
    1.1380    1.3380    1.7875 H   0  0  0  0  0  0  0  0  0  0  0  0
    0.3573    3.3183    1.6807 C   0  0  0  0  0  0  0  0  0  0  0  0
   -0.6670    3.6090    1.9198 H   0  0  0  0  0  0  0  0  0  0  0  0
    1.0066    3.5397    2.5289 H   0  0  0  0  0  0  0  0  0  0  0  0
    0.6896    3.8897    0.8118 H   0  0  0  0  0  0  0  0  0  0  0  0
  5  6  2  0  0  0  0
  5  7  1  0  0  0  0
  2  3  1  0  0  0  0
  2  4  1  0  0  0  0
  2  5  1  0  0  0  0
  1  2  1  0  0  0  0
 20 21  2  0  0  0  0
 20 22  1  0  0  0  0
 17 18  1  0  0  0  0
 17 19  2  0  0  0  0
 14 15  1  0  0  0  0
 14 16  1  0  0  0  0
 14 17  1  0  0  0  0
 11 12  1  0  0  0  0
 11 13  1  0  0  0  0
 11 14  1  0  0  0  0
  9 10  1  0  0  0  0
  9 11  1  0  0  0  0
  9 20  1  0  0  0  0
  7  8  1  0  0  0  0
  7  9  1  0  0  0  0
 24 25  1  0  0  0  0
 24 26  1  0  0  0  0
 24 27  1  0  0  0  0
 22 23  1  0  0  0  0
 22 24  1  0  0  0  0
M  CHG  1  18  -1
M  END
$$$$
default_name
  -OEChem-02102213163D

 27 26  0     1  0  0  0  0  0999 V2000
   -3.2406   -3.5400    1.2326 H   0  0  0  0  0  0  0  0  0  0  0  0
   -3.1436   -2.6190    0.6606 C   0  0  0  0  0  0  0  0  0  0  0  0
   -3.8786   -1.8920    0.9996 H   0  0  0  0  0  0  0  0  0  0  0  0
   -3.2846   -2.8280   -0.3984 H   0  0  0  0  0  0  0  0  0  0  0  0
   -1.7586   -2.0580    0.8686 C   0  0  0  0  0  0  0  0  0  0  0  0
   -0.9666   -2.6340    1.6026 O   0  0  0  0  0  0  0  0  0  0  0  0
   -1.4866   -0.9220    0.2366 N   0  0  0  0  0  0  0  0  0  0  0  0
   -2.2166   -0.4790   -0.2994 H   0  0  0  0  0  0  0  0  0  0  0  0
   -0.1956   -0.2250    0.2596 C   0  0  1  0  0  0  0  0  0  0  0  0
    0.3927   -0.6026    1.0964 H   0  0  0  0  0  0  0  0  0  0  0  0
    0.5767   -0.5489   -1.0351 C   0  0  0  0  0  0  0  0  0  0  0  0
    1.3656   -1.2606   -0.7870 H   0  0  0  0  0  0  0  0  0  0  0  0
   -0.0999   -1.0197   -1.7498 H   0  0  0  0  0  0  0  0  0  0  0  0
    1.2214    0.6853   -1.6884 C   0  0  0  0  0  0  0  0  0  0  0  0
    2.2362    0.4328   -2.0051 H   0  0  0  0  0  0  0  0  0  0  0  0
    0.6440    0.9422   -2.5804 H   0  0  0  0  0  0  0  0  0  0  0  0
    1.2849    1.9053   -0.7575 C   0  0  0  0  0  0  0  0  0  0  0  0
    0.7091    1.8368    0.3517 O   0  5  0  0  0  0  0  0  0  0  0  0
    1.9383    2.8903   -1.1674 O   0  0  0  0  0  0  0  0  0  0  0  0
   -0.3954    1.2887    0.4814 C   0  0  0  0  0  0  0  0  0  0  0  0
   -1.2761    1.9015   -0.1256 O   0  0  0  0  0  0  0  0  0  0  0  0
    0.4051    1.8919    1.3699 N   0  0  0  0  0  0  0  0  0  0  0  0
    1.1380    1.3380    1.7875 H   0  0  0  0  0  0  0  0  0  0  0  0
    0.3573    3.3183    1.6807 C   0  0  0  0  0  0  0  0  0  0  0  0
   -0.6670    3.6090    1.9198 H   0  0  0  0  0  0  0  0  0  0  0  0
    1.0066    3.5397    2.5289 H   0  0  0  0  0  0  0  0  0  0  0  0
    0.6896    3.8897    0.8118 H   0  0  0  0  0  0  0  0  0  0  0  0
  5  6  2  0  0  0  0
  5  7  1  0  0  0  0
  2  3  1  0  0  0  0
  2  4  1  0  0  0  0
  2  5  1  0  0  0  0
  1  2  1  0  0  0  0
 20 21  2  0  0  0  0
 20 22  1  0  0  0  0
 17 18  1  0  0  0  0
 17 19  2  0  0  0  0
 14 15  1  0  0  0  0
 14 16  1  0  0  0  0
 14 17  1  0  0  0  0
 11 12  1  0  0  0  0
 11 13  1  0  0  0  0
 11 14  1  0  0  0  0
  9 10  1  0  0  0  0
  9 11  1  0  0  0  0
  9 20  1  0  0  0  0
  7  8  1  0  0  0  0
  7  9  1  0  0  0  0
 24 25  1  0  0  0  0
 24 26  1  0  0  0  0
 24 27  1  0  0  0  0
 22 23  1  0  0  0  0
 22 24  1  0  0  0  0
M  CHG  1  18  -1
M  END
$$$$
default_name
  -OEChem-02102213163D

 27 26  0     1  0  0  0  0  0999 V2000
   -3.2406   -3.5400    1.2326 H   0  0  0  0  0  0  0  0  0  0  0  0
   -3.1436   -2.6190    0.6606 C   0  0  0  0  0  0  0  0  0  0  0  0
   -3.8786   -1.8920    0.9996 H   0  0  0  0  0  0  0  0  0  0  0  0
   -3.2846   -2.8280   -0.3984 H   0  0  0  0  0  0  0  0  0  0  0  0
   -1.7586   -2.0580    0.8686 C   0  0  0  0  0  0  0  0  0  0  0  0
   -0.9666   -2.6340    1.6026 O   0  0  0  0  0  0  0  0  0  0  0  0
   -1.4866   -0.9220    0.2366 N   0  0  0  0  0  0  0  0  0  0  0  0
   -2.2166   -0.4790   -0.2994 H   0  0  0  0  0  0  0  0  0  0  0  0
   -0.1956   -0.2250    0.2596 C   0  0  1  0  0  0  0  0  0  0  0  0
    0.3927   -0.6026    1.0964 H   0  0  0  0  0  0  0  0  0  0  0  0
    0.5767   -0.5489   -1.0351 C   0  0  0  0  0  0  0  0  0  0  0  0
    1.3656   -1.2606   -0.7870 H   0  0  0  0  0  0  0  0  0  0  0  0
   -0.0999   -1.0197   -1.7498 H   0  0  0  0  0  0  0  0  0  0  0  0
    1.2214    0.6853   -1.6884 C   0  0  0  0  0  0  0  0  0  0  0  0
    2.1132    0.3740   -2.2376 H   0  0  0  0  0  0  0  0  0  0  0  0
    0.5115    1.1031   -2.4072 H   0  0  0  0  0  0  0  0  0  0  0  0
    1.6189    1.7724   -0.6789 C   0  0  0  0  0  0  0  0  0  0  0  0
    1.2746    1.6283    0.5158 O   0  5  0  0  0  0  0  0  0  0  0  0
    2.2909    2.7304   -1.1216 O   0  0  0  0  0  0  0  0  0  0  0  0
   -0.3954    1.2887    0.4814 C   0  0  0  0  0  0  0  0  0  0  0  0
   -1.2761    1.9015   -0.1256 O   0  0  0  0  0  0  0  0  0  0  0  0
    0.4051    1.8919    1.3699 N   0  0  0  0  0  0  0  0  0  0  0  0
    1.1380    1.3380    1.7875 H   0  0  0  0  0  0  0  0  0  0  0  0
    0.3573    3.3183    1.6807 C   0  0  0  0  0  0  0  0  0  0  0  0
   -0.6670    3.6090    1.9198 H   0  0  0  0  0  0  0  0  0  0  0  0
    1.0066    3.5397    2.5289 H   0  0  0  0  0  0  0  0  0  0  0  0
    0.6896    3.8897    0.8118 H   0  0  0  0  0  0  0  0  0  0  0  0
  5  6  2  0  0  0  0
  5  7  1  0  0  0  0
  2  3  1  0  0  0  0
  2  4  1  0  0  0  0
  2  5  1  0  0  0  0
  1  2  1  0  0  0  0
 20 21  2  0  0  0  0
 20 22  1  0  0  0  0
 17 18  1  0  0  0  0
 17 19  2  0  0  0  0
 14 15  1  0  0  0  0
 14 16  1  0  0  0  0
 14 17  1  0  0  0  0
 11 12  1  0  0  0  0
 11 13  1  0  0  0  0
 11 14  1  0  0  0  0
  9 10  1  0  0  0  0
  9 11  1  0  0  0  0
  9 20  1  0  0  0  0
  7  8  1  0  0  0  0
  7  9  1  0  0  0  0
 24 25  1  0  0  0  0
 24 26  1  0  0  0  0
 24 27  1  0  0  0  0
 22 23  1  0  0  0  0
 22 24  1  0  0  0  0
M  CHG  1  18  -1
M  END
$$$$
default_name
  -OEChem-02102213163D

 27 26  0     1  0  0  0  0  0999 V2000
   -3.2406   -3.5400    1.2326 H   0  0  0  0  0  0  0  0  0  0  0  0
   -3.1436   -2.6190    0.6606 C   0  0  0  0  0  0  0  0  0  0  0  0
   -3.8786   -1.8920    0.9996 H   0  0  0  0  0  0  0  0  0  0  0  0
   -3.2846   -2.8280   -0.3984 H   0  0  0  0  0  0  0  0  0  0  0  0
   -1.7586   -2.0580    0.8686 C   0  0  0  0  0  0  0  0  0  0  0  0
   -0.9666   -2.6340    1.6026 O   0  0  0  0  0  0  0  0  0  0  0  0
   -1.4866   -0.9220    0.2366 N   0  0  0  0  0  0  0  0  0  0  0  0
   -2.2166   -0.4790   -0.2994 H   0  0  0  0  0  0  0  0  0  0  0  0
   -0.1956   -0.2250    0.2596 C   0  0  1  0  0  0  0  0  0  0  0  0
    0.3927   -0.6026    1.0964 H   0  0  0  0  0  0  0  0  0  0  0  0
    0.5767   -0.5489   -1.0351 C   0  0  0  0  0  0  0  0  0  0  0  0
    1.3656   -1.2606   -0.7870 H   0  0  0  0  0  0  0  0  0  0  0  0
   -0.0999   -1.0197   -1.7498 H   0  0  0  0  0  0  0  0  0  0  0  0
    1.2214    0.6853   -1.6884 C   0  0  0  0  0  0  0  0  0  0  0  0
    1.9396    0.3559   -2.4431 H   0  0  0  0  0  0  0  0  0  0  0  0
    0.4372    1.2542   -2.1949 H   0  0  0  0  0  0  0  0  0  0  0  0
    1.9432    1.5989   -0.6867 C   0  0  0  0  0  0  0  0  0  0  0  0
    1.8319    1.3469    0.5342 O   0  5  0  0  0  0  0  0  0  0  0  0
    2.6233    2.5322   -1.1680 O   0  0  0  0  0  0  0  0  0  0  0  0
   -0.3954    1.2887    0.4814 C   0  0  0  0  0  0  0  0  0  0  0  0
   -1.2761    1.9015   -0.1256 O   0  0  0  0  0  0  0  0  0  0  0  0
    0.4051    1.8919    1.3699 N   0  0  0  0  0  0  0  0  0  0  0  0
    1.1380    1.3380    1.7875 H   0  0  0  0  0  0  0  0  0  0  0  0
    0.3573    3.3183    1.6807 C   0  0  0  0  0  0  0  0  0  0  0  0
   -0.6670    3.6090    1.9198 H   0  0  0  0  0  0  0  0  0  0  0  0
    1.0066    3.5397    2.5289 H   0  0  0  0  0  0  0  0  0  0  0  0
    0.6896    3.8897    0.8118 H   0  0  0  0  0  0  0  0  0  0  0  0
  5  6  2  0  0  0  0
  5  7  1  0  0  0  0
  2  3  1  0  0  0  0
  2  4  1  0  0  0  0
  2  5  1  0  0  0  0
  1  2  1  0  0  0  0
 20 21  2  0  0  0  0
 20 22  1  0  0  0  0
 17 18  1  0  0  0  0
 17 19  2  0  0  0  0
 14 15  1  0  0  0  0
 14 16  1  0  0  0  0
 14 17  1  0  0  0  0
 11 12  1  0  0  0  0
 11 13  1  0  0  0  0
 11 14  1  0  0  0  0
  9 10  1  0  0  0  0
  9 11  1  0  0  0  0
  9 20  1  0  0  0  0
  7  8  1  0  0  0  0
  7  9  1  0  0  0  0
 24 25  1  0  0  0  0
 24 26  1  0  0  0  0
 24 27  1  0  0  0  0
 22 23  1  0  0  0  0
 22 24  1  0  0  0  0
M  CHG  1  18  -1
M  END
$$$$
default_name
  -OEChem-02102213163D

 27 26  0     1  0  0  0  0  0999 V2000
   -3.2406   -3.5400    1.2326 H   0  0  0  0  0  0  0  0  0  0  0  0
   -3.1436   -2.6190    0.6606 C   0  0  0  0  0  0  0  0  0  0  0  0
   -3.8786   -1.8920    0.9996 H   0  0  0  0  0  0  0  0  0  0  0  0
   -3.2846   -2.8280   -0.3984 H   0  0  0  0  0  0  0  0  0  0  0  0
   -1.7586   -2.0580    0.8686 C   0  0  0  0  0  0  0  0  0  0  0  0
   -0.9666   -2.6340    1.6026 O   0  0  0  0  0  0  0  0  0  0  0  0
   -1.4866   -0.9220    0.2366 N   0  0  0  0  0  0  0  0  0  0  0  0
   -2.2166   -0.4790   -0.2994 H   0  0  0  0  0  0  0  0  0  0  0  0
   -0.1956   -0.2250    0.2596 C   0  0  1  0  0  0  0  0  0  0  0  0
    0.3927   -0.6026    1.0964 H   0  0  0  0  0  0  0  0  0  0  0  0
    0.5767   -0.5489   -1.0351 C   0  0  0  0  0  0  0  0  0  0  0  0
    1.3656   -1.2606   -0.7870 H   0  0  0  0  0  0  0  0  0  0  0  0
   -0.0999   -1.0197   -1.7498 H   0  0  0  0  0  0  0  0  0  0  0  0
    1.2214    0.6853   -1.6884 C   0  0  0  0  0  0  0  0  0  0  0  0
    1.7273    0.3798   -2.6074 H   0  0  0  0  0  0  0  0  0  0  0  0
    0.4262    1.3854   -1.9580 H   0  0  0  0  0  0  0  0  0  0  0  0
    2.2358    1.3964   -0.7805 C   0  0  0  0  0  0  0  0  0  0  0  0
    2.3432    1.0118    0.4057 O   0  5  0  0  0  0  0  0  0  0  0  0
    2.9131    2.3093   -1.3033 O   0  0  0  0  0  0  0  0  0  0  0  0
   -0.3954    1.2887    0.4814 C   0  0  0  0  0  0  0  0  0  0  0  0
   -1.2761    1.9015   -0.1256 O   0  0  0  0  0  0  0  0  0  0  0  0
    0.4051    1.8919    1.3699 N   0  0  0  0  0  0  0  0  0  0  0  0
    1.1380    1.3380    1.7875 H   0  0  0  0  0  0  0  0  0  0  0  0
    0.3573    3.3183    1.6807 C   0  0  0  0  0  0  0  0  0  0  0  0
   -0.6670    3.6090    1.9198 H   0  0  0  0  0  0  0  0  0  0  0  0
    1.0066    3.5397    2.5289 H   0  0  0  0  0  0  0  0  0  0  0  0
    0.6896    3.8897    0.8118 H   0  0  0  0  0  0  0  0  0  0  0  0
  5  6  2  0  0  0  0
  5  7  1  0  0  0  0
  2  3  1  0  0  0  0
  2  4  1  0  0  0  0
  2  5  1  0  0  0  0
  1  2  1  0  0  0  0
 20 21  2  0  0  0  0
 20 22  1  0  0  0  0
 17 18  1  0  0  0  0
 17 19  2  0  0  0  0
 14 15  1  0  0  0  0
 14 16  1  0  0  0  0
 14 17  1  0  0  0  0
 11 12  1  0  0  0  0
 11 13  1  0  0  0  0
 11 14  1  0  0  0  0
  9 10  1  0  0  0  0
  9 11  1  0  0  0  0
  9 20  1  0  0  0  0
  7  8  1  0  0  0  0
  7  9  1  0  0  0  0
 24 25  1  0  0  0  0
 24 26  1  0  0  0  0
 24 27  1  0  0  0  0
 22 23  1  0  0  0  0
 22 24  1  0  0  0  0
M  CHG  1  18  -1
M  END
$$$$
default_name
  -OEChem-02102213163D

 27 26  0     1  0  0  0  0  0999 V2000
   -3.2406   -3.5400    1.2326 H   0  0  0  0  0  0  0  0  0  0  0  0
   -3.1436   -2.6190    0.6606 C   0  0  0  0  0  0  0  0  0  0  0  0
   -3.8786   -1.8920    0.9996 H   0  0  0  0  0  0  0  0  0  0  0  0
   -3.2846   -2.8280   -0.3984 H   0  0  0  0  0  0  0  0  0  0  0  0
   -1.7586   -2.0580    0.8686 C   0  0  0  0  0  0  0  0  0  0  0  0
   -0.9666   -2.6340    1.6026 O   0  0  0  0  0  0  0  0  0  0  0  0
   -1.4866   -0.9220    0.2366 N   0  0  0  0  0  0  0  0  0  0  0  0
   -2.2166   -0.4790   -0.2994 H   0  0  0  0  0  0  0  0  0  0  0  0
   -0.1956   -0.2250    0.2596 C   0  0  1  0  0  0  0  0  0  0  0  0
    0.3927   -0.6026    1.0964 H   0  0  0  0  0  0  0  0  0  0  0  0
    0.5767   -0.5489   -1.0351 C   0  0  0  0  0  0  0  0  0  0  0  0
    1.3656   -1.2606   -0.7870 H   0  0  0  0  0  0  0  0  0  0  0  0
   -0.0999   -1.0197   -1.7498 H   0  0  0  0  0  0  0  0  0  0  0  0
    1.2214    0.6853   -1.6884 C   0  0  0  0  0  0  0  0  0  0  0  0
    1.4907    0.4441   -2.7195 H   0  0  0  0  0  0  0  0  0  0  0  0
    0.4791    1.4876   -1.7127 H   0  0  0  0  0  0  0  0  0  0  0  0
    2.4767    1.1789   -0.9538 C   0  0  0  0  0  0  0  0  0  0  0  0
    2.7736    0.6459    0.1390 O   0  5  0  0  0  0  0  0  0  0  0  0
    3.1403    2.0767   -1.5183 O   0  0  0  0  0  0  0  0  0  0  0  0
   -0.3954    1.2887    0.4814 C   0  0  0  0  0  0  0  0  0  0  0  0
   -1.2761    1.9015   -0.1256 O   0  0  0  0  0  0  0  0  0  0  0  0
    0.4051    1.8919    1.3699 N   0  0  0  0  0  0  0  0  0  0  0  0
    1.1380    1.3380    1.7875 H   0  0  0  0  0  0  0  0  0  0  0  0
    0.3573    3.3183    1.6807 C   0  0  0  0  0  0  0  0  0  0  0  0
   -0.6670    3.6090    1.9198 H   0  0  0  0  0  0  0  0  0  0  0  0
    1.0066    3.5397    2.5289 H   0  0  0  0  0  0  0  0  0  0  0  0
    0.6896    3.8897    0.8118 H   0  0  0  0  0  0  0  0  0  0  0  0
  5  6  2  0  0  0  0
  5  7  1  0  0  0  0
  2  3  1  0  0  0  0
  2  4  1  0  0  0  0
  2  5  1  0  0  0  0
  1  2  1  0  0  0  0
 20 21  2  0  0  0  0
 20 22  1  0  0  0  0
 17 18  1  0  0  0  0
 17 19  2  0  0  0  0
 14 15  1  0  0  0  0
 14 16  1  0  0  0  0
 14 17  1  0  0  0  0
 11 12  1  0  0  0  0
 11 13  1  0  0  0  0
 11 14  1  0  0  0  0
  9 10  1  0  0  0  0
  9 11  1  0  0  0  0
  9 20  1  0  0  0  0
  7  8  1  0  0  0  0
  7  9  1  0  0  0  0
 24 25  1  0  0  0  0
 24 26  1  0  0  0  0
 24 27  1  0  0  0  0
 22 23  1  0  0  0  0
 22 24  1  0  0  0  0
M  CHG  1  18  -1
M  END
$$$$
default_name
  -OEChem-02102213163D

 27 26  0     1  0  0  0  0  0999 V2000
   -3.2406   -3.5400    1.2326 H   0  0  0  0  0  0  0  0  0  0  0  0
   -3.1436   -2.6190    0.6606 C   0  0  0  0  0  0  0  0  0  0  0  0
   -3.8786   -1.8920    0.9996 H   0  0  0  0  0  0  0  0  0  0  0  0
   -3.2846   -2.8280   -0.3984 H   0  0  0  0  0  0  0  0  0  0  0  0
   -1.7586   -2.0580    0.8686 C   0  0  0  0  0  0  0  0  0  0  0  0
   -0.9666   -2.6340    1.6026 O   0  0  0  0  0  0  0  0  0  0  0  0
   -1.4866   -0.9220    0.2366 N   0  0  0  0  0  0  0  0  0  0  0  0
   -2.2166   -0.4790   -0.2994 H   0  0  0  0  0  0  0  0  0  0  0  0
   -0.1956   -0.2250    0.2596 C   0  0  1  0  0  0  0  0  0  0  0  0
    0.3927   -0.6026    1.0964 H   0  0  0  0  0  0  0  0  0  0  0  0
    0.5767   -0.5489   -1.0351 C   0  0  0  0  0  0  0  0  0  0  0  0
    1.3656   -1.2606   -0.7870 H   0  0  0  0  0  0  0  0  0  0  0  0
   -0.0999   -1.0197   -1.7498 H   0  0  0  0  0  0  0  0  0  0  0  0
    1.2214    0.6853   -1.6884 C   0  0  0  0  0  0  0  0  0  0  0  0
    1.2459    0.5443   -2.7716 H   0  0  0  0  0  0  0  0  0  0  0  0
    0.5925    1.5538   -1.4757 H   0  0  0  0  0  0  0  0  0  0  0  0
    2.6494    0.9611   -1.1948 C   0  0  0  0  0  0  0  0  0  0  0  0
    3.0936    0.2741   -0.2476 O   0  5  0  0  0  0  0  0  0  0  0  0
    3.2896    1.8505   -1.7985 O   0  0  0  0  0  0  0  0  0  0  0  0
   -0.3954    1.2887    0.4814 C   0  0  0  0  0  0  0  0  0  0  0  0
   -1.2761    1.9015   -0.1256 O   0  0  0  0  0  0  0  0  0  0  0  0
    0.4051    1.8919    1.3699 N   0  0  0  0  0  0  0  0  0  0  0  0
    1.1380    1.3380    1.7875 H   0  0  0  0  0  0  0  0  0  0  0  0
    0.3573    3.3183    1.6807 C   0  0  0  0  0  0  0  0  0  0  0  0
   -0.6670    3.6090    1.9198 H   0  0  0  0  0  0  0  0  0  0  0  0
    1.0066    3.5397    2.5289 H   0  0  0  0  0  0  0  0  0  0  0  0
    0.6896    3.8897    0.8118 H   0  0  0  0  0  0  0  0  0  0  0  0
  5  6  2  0  0  0  0
  5  7  1  0  0  0  0
  2  3  1  0  0  0  0
  2  4  1  0  0  0  0
  2  5  1  0  0  0  0
  1  2  1  0  0  0  0
 20 21  2  0  0  0  0
 20 22  1  0  0  0  0
 17 18  1  0  0  0  0
 17 19  2  0  0  0  0
 14 15  1  0  0  0  0
 14 16  1  0  0  0  0
 14 17  1  0  0  0  0
 11 12  1  0  0  0  0
 11 13  1  0  0  0  0
 11 14  1  0  0  0  0
  9 10  1  0  0  0  0
  9 11  1  0  0  0  0
  9 20  1  0  0  0  0
  7  8  1  0  0  0  0
  7  9  1  0  0  0  0
 24 25  1  0  0  0  0
 24 26  1  0  0  0  0
 24 27  1  0  0  0  0
 22 23  1  0  0  0  0
 22 24  1  0  0  0  0
M  CHG  1  18  -1
M  END
$$$$
default_name
  -OEChem-02102213163D

 27 26  0     1  0  0  0  0  0999 V2000
   -3.2406   -3.5400    1.2326 H   0  0  0  0  0  0  0  0  0  0  0  0
   -3.1436   -2.6190    0.6606 C   0  0  0  0  0  0  0  0  0  0  0  0
   -3.8786   -1.8920    0.9996 H   0  0  0  0  0  0  0  0  0  0  0  0
   -3.2846   -2.8280   -0.3984 H   0  0  0  0  0  0  0  0  0  0  0  0
   -1.7586   -2.0580    0.8686 C   0  0  0  0  0  0  0  0  0  0  0  0
   -0.9666   -2.6340    1.6026 O   0  0  0  0  0  0  0  0  0  0  0  0
   -1.4866   -0.9220    0.2366 N   0  0  0  0  0  0  0  0  0  0  0  0
   -2.2166   -0.4790   -0.2994 H   0  0  0  0  0  0  0  0  0  0  0  0
   -0.1956   -0.2250    0.2596 C   0  0  1  0  0  0  0  0  0  0  0  0
    0.3927   -0.6026    1.0964 H   0  0  0  0  0  0  0  0  0  0  0  0
    0.5767   -0.5489   -1.0351 C   0  0  0  0  0  0  0  0  0  0  0  0
    1.3656   -1.2606   -0.7870 H   0  0  0  0  0  0  0  0  0  0  0  0
   -0.0999   -1.0197   -1.7498 H   0  0  0  0  0  0  0  0  0  0  0  0
    1.2214    0.6853   -1.6884 C   0  0  0  0  0  0  0  0  0  0  0  0
    1.0097    0.6737   -2.7603 H   0  0  0  0  0  0  0  0  0  0  0  0
    0.7584    1.5797   -1.2630 H   0  0  0  0  0  0  0  0  0  0  0  0
    2.7423    0.7578   -1.4872 C   0  0  0  0  0  0  0  0  0  0  0  0
    3.2816   -0.0783   -0.7279 O   0  5  0  0  0  0  0  0  0  0  0  0
    3.3508    1.6459   -2.1246 O   0  0  0  0  0  0  0  0  0  0  0  0
   -0.3954    1.2887    0.4814 C   0  0  0  0  0  0  0  0  0  0  0  0
   -1.2761    1.9015   -0.1256 O   0  0  0  0  0  0  0  0  0  0  0  0
    0.4051    1.8919    1.3699 N   0  0  0  0  0  0  0  0  0  0  0  0
    1.1380    1.3380    1.7875 H   0  0  0  0  0  0  0  0  0  0  0  0
    0.3573    3.3183    1.6807 C   0  0  0  0  0  0  0  0  0  0  0  0
   -0.6670    3.6090    1.9198 H   0  0  0  0  0  0  0  0  0  0  0  0
    1.0066    3.5397    2.5289 H   0  0  0  0  0  0  0  0  0  0  0  0
    0.6896    3.8897    0.8118 H   0  0  0  0  0  0  0  0  0  0  0  0
  5  6  2  0  0  0  0
  5  7  1  0  0  0  0
  2  3  1  0  0  0  0
  2  4  1  0  0  0  0
  2  5  1  0  0  0  0
  1  2  1  0  0  0  0
 20 21  2  0  0  0  0
 20 22  1  0  0  0  0
 17 18  1  0  0  0  0
 17 19  2  0  0  0  0
 14 15  1  0  0  0  0
 14 16  1  0  0  0  0
 14 17  1  0  0  0  0
 11 12  1  0  0  0  0
 11 13  1  0  0  0  0
 11 14  1  0  0  0  0
  9 10  1  0  0  0  0
  9 11  1  0  0  0  0
  9 20  1  0  0  0  0
  7  8  1  0  0  0  0
  7  9  1  0  0  0  0
 24 25  1  0  0  0  0
 24 26  1  0  0  0  0
 24 27  1  0  0  0  0
 22 23  1  0  0  0  0
 22 24  1  0  0  0  0
M  CHG  1  18  -1
M  END
$$$$
default_name
  -OEChem-02102213163D

 27 26  0     1  0  0  0  0  0999 V2000
   -3.2406   -3.5400    1.2326 H   0  0  0  0  0  0  0  0  0  0  0  0
   -3.1436   -2.6190    0.6606 C   0  0  0  0  0  0  0  0  0  0  0  0
   -3.8786   -1.8920    0.9996 H   0  0  0  0  0  0  0  0  0  0  0  0
   -3.2846   -2.8280   -0.3984 H   0  0  0  0  0  0  0  0  0  0  0  0
   -1.7586   -2.0580    0.8686 C   0  0  0  0  0  0  0  0  0  0  0  0
   -0.9666   -2.6340    1.6026 O   0  0  0  0  0  0  0  0  0  0  0  0
   -1.4866   -0.9220    0.2366 N   0  0  0  0  0  0  0  0  0  0  0  0
   -2.2166   -0.4790   -0.2994 H   0  0  0  0  0  0  0  0  0  0  0  0
   -0.1956   -0.2250    0.2596 C   0  0  1  0  0  0  0  0  0  0  0  0
    0.3927   -0.6026    1.0964 H   0  0  0  0  0  0  0  0  0  0  0  0
    0.5767   -0.5489   -1.0351 C   0  0  0  0  0  0  0  0  0  0  0  0
    1.3656   -1.2606   -0.7870 H   0  0  0  0  0  0  0  0  0  0  0  0
   -0.0999   -1.0197   -1.7498 H   0  0  0  0  0  0  0  0  0  0  0  0
    1.2214    0.6853   -1.6884 C   0  0  0  0  0  0  0  0  0  0  0  0
    0.7981    0.8234   -2.6862 H   0  0  0  0  0  0  0  0  0  0  0  0
    0.9658    1.5633   -1.0893 H   0  0  0  0  0  0  0  0  0  0  0  0
    2.7489    0.5830   -1.8109 C   0  0  0  0  0  0  0  0  0  0  0  0
    3.3247   -0.3873   -1.2691 O   0  5  0  0  0  0  0  0  0  0  0  0
    3.3196    1.4770   -2.4745 O   0  0  0  0  0  0  0  0  0  0  0  0
   -0.3954    1.2887    0.4814 C   0  0  0  0  0  0  0  0  0  0  0  0
   -1.2761    1.9015   -0.1256 O   0  0  0  0  0  0  0  0  0  0  0  0
    0.4051    1.8919    1.3699 N   0  0  0  0  0  0  0  0  0  0  0  0
    1.1380    1.3380    1.7875 H   0  0  0  0  0  0  0  0  0  0  0  0
    0.3573    3.3183    1.6807 C   0  0  0  0  0  0  0  0  0  0  0  0
   -0.6670    3.6090    1.9198 H   0  0  0  0  0  0  0  0  0  0  0  0
    1.0066    3.5397    2.5289 H   0  0  0  0  0  0  0  0  0  0  0  0
    0.6896    3.8897    0.8118 H   0  0  0  0  0  0  0  0  0  0  0  0
  5  6  2  0  0  0  0
  5  7  1  0  0  0  0
  2  3  1  0  0  0  0
  2  4  1  0  0  0  0
  2  5  1  0  0  0  0
  1  2  1  0  0  0  0
 20 21  2  0  0  0  0
 20 22  1  0  0  0  0
 17 18  1  0  0  0  0
 17 19  2  0  0  0  0
 14 15  1  0  0  0  0
 14 16  1  0  0  0  0
 14 17  1  0  0  0  0
 11 12  1  0  0  0  0
 11 13  1  0  0  0  0
 11 14  1  0  0  0  0
  9 10  1  0  0  0  0
  9 11  1  0  0  0  0
  9 20  1  0  0  0  0
  7  8  1  0  0  0  0
  7  9  1  0  0  0  0
 24 25  1  0  0  0  0
 24 26  1  0  0  0  0
 24 27  1  0  0  0  0
 22 23  1  0  0  0  0
 22 24  1  0  0  0  0
M  CHG  1  18  -1
M  END
$$$$
default_name
  -OEChem-02102213163D

 27 26  0     1  0  0  0  0  0999 V2000
   -3.2406   -3.5400    1.2326 H   0  0  0  0  0  0  0  0  0  0  0  0
   -3.1436   -2.6190    0.6606 C   0  0  0  0  0  0  0  0  0  0  0  0
   -3.8786   -1.8920    0.9996 H   0  0  0  0  0  0  0  0  0  0  0  0
   -3.2846   -2.8280   -0.3984 H   0  0  0  0  0  0  0  0  0  0  0  0
   -1.7586   -2.0580    0.8686 C   0  0  0  0  0  0  0  0  0  0  0  0
   -0.9666   -2.6340    1.6026 O   0  0  0  0  0  0  0  0  0  0  0  0
   -1.4866   -0.9220    0.2366 N   0  0  0  0  0  0  0  0  0  0  0  0
   -2.2166   -0.4790   -0.2994 H   0  0  0  0  0  0  0  0  0  0  0  0
   -0.1956   -0.2250    0.2596 C   0  0  1  0  0  0  0  0  0  0  0  0
    0.3927   -0.6026    1.0964 H   0  0  0  0  0  0  0  0  0  0  0  0
    0.5767   -0.5489   -1.0351 C   0  0  0  0  0  0  0  0  0  0  0  0
    1.3656   -1.2606   -0.7870 H   0  0  0  0  0  0  0  0  0  0  0  0
   -0.0999   -1.0197   -1.7498 H   0  0  0  0  0  0  0  0  0  0  0  0
    1.2214    0.6853   -1.6884 C   0  0  0  0  0  0  0  0  0  0  0  0
    0.6256    0.9833   -2.5545 H   0  0  0  0  0  0  0  0  0  0  0  0
    1.2003    1.5059   -0.9664 H   0  0  0  0  0  0  0  0  0  0  0  0
    2.6689    0.4486   -2.1439 C   0  0  0  0  0  0  0  0  0  0  0  0
    3.2200   -0.6317   -1.8343 O   0  5  0  0  0  0  0  0  0  0  0  0
    3.1982    1.3552   -2.8244 O   0  0  0  0  0  0  0  0  0  0  0  0
   -0.3954    1.2887    0.4814 C   0  0  0  0  0  0  0  0  0  0  0  0
   -1.2761    1.9015   -0.1256 O   0  0  0  0  0  0  0  0  0  0  0  0
    0.4051    1.8919    1.3699 N   0  0  0  0  0  0  0  0  0  0  0  0
    1.1380    1.3380    1.7875 H   0  0  0  0  0  0  0  0  0  0  0  0
    0.3573    3.3183    1.6807 C   0  0  0  0  0  0  0  0  0  0  0  0
   -0.6670    3.6090    1.9198 H   0  0  0  0  0  0  0  0  0  0  0  0
    1.0066    3.5397    2.5289 H   0  0  0  0  0  0  0  0  0  0  0  0
    0.6896    3.8897    0.8118 H   0  0  0  0  0  0  0  0  0  0  0  0
  5  6  2  0  0  0  0
  5  7  1  0  0  0  0
  2  3  1  0  0  0  0
  2  4  1  0  0  0  0
  2  5  1  0  0  0  0
  1  2  1  0  0  0  0
 20 21  2  0  0  0  0
 20 22  1  0  0  0  0
 17 18  1  0  0  0  0
 17 19  2  0  0  0  0
 14 15  1  0  0  0  0
 14 16  1  0  0  0  0
 14 17  1  0  0  0  0
 11 12  1  0  0  0  0
 11 13  1  0  0  0  0
 11 14  1  0  0  0  0
  9 10  1  0  0  0  0
  9 11  1  0  0  0  0
  9 20  1  0  0  0  0
  7  8  1  0  0  0  0
  7  9  1  0  0  0  0
 24 25  1  0  0  0  0
 24 26  1  0  0  0  0
 24 27  1  0  0  0  0
 22 23  1  0  0  0  0
 22 24  1  0  0  0  0
M  CHG  1  18  -1
M  END
$$$$
default_name
  -OEChem-02102213163D

 27 26  0     1  0  0  0  0  0999 V2000
   -3.2406   -3.5400    1.2326 H   0  0  0  0  0  0  0  0  0  0  0  0
   -3.1436   -2.6190    0.6606 C   0  0  0  0  0  0  0  0  0  0  0  0
   -3.8786   -1.8920    0.9996 H   0  0  0  0  0  0  0  0  0  0  0  0
   -3.2846   -2.8280   -0.3984 H   0  0  0  0  0  0  0  0  0  0  0  0
   -1.7586   -2.0580    0.8686 C   0  0  0  0  0  0  0  0  0  0  0  0
   -0.9666   -2.6340    1.6026 O   0  0  0  0  0  0  0  0  0  0  0  0
   -1.4866   -0.9220    0.2366 N   0  0  0  0  0  0  0  0  0  0  0  0
   -2.2166   -0.4790   -0.2994 H   0  0  0  0  0  0  0  0  0  0  0  0
   -0.1956   -0.2250    0.2596 C   0  0  1  0  0  0  0  0  0  0  0  0
    0.3927   -0.6026    1.0964 H   0  0  0  0  0  0  0  0  0  0  0  0
    0.5767   -0.5489   -1.0351 C   0  0  0  0  0  0  0  0  0  0  0  0
    1.3656   -1.2606   -0.7870 H   0  0  0  0  0  0  0  0  0  0  0  0
   -0.0999   -1.0197   -1.7498 H   0  0  0  0  0  0  0  0  0  0  0  0
    1.2214    0.6853   -1.6884 C   0  0  0  0  0  0  0  0  0  0  0  0
    0.5039    1.1423   -2.3741 H   0  0  0  0  0  0  0  0  0  0  0  0
    1.4461    1.4113   -0.9025 H   0  0  0  0  0  0  0  0  0  0  0  0
    2.5077    0.3636   -2.4635 C   0  0  0  0  0  0  0  0  0  0  0  0
    2.9745   -0.7950   -2.3850 O   0  5  0  0  0  0  0  0  0  0  0  0
    2.9950    1.2889   -3.1504 O   0  0  0  0  0  0  0  0  0  0  0  0
   -0.3954    1.2887    0.4814 C   0  0  0  0  0  0  0  0  0  0  0  0
   -1.2761    1.9015   -0.1256 O   0  0  0  0  0  0  0  0  0  0  0  0
    0.4051    1.8919    1.3699 N   0  0  0  0  0  0  0  0  0  0  0  0
    1.1380    1.3380    1.7875 H   0  0  0  0  0  0  0  0  0  0  0  0
    0.3573    3.3183    1.6807 C   0  0  0  0  0  0  0  0  0  0  0  0
   -0.6670    3.6090    1.9198 H   0  0  0  0  0  0  0  0  0  0  0  0
    1.0066    3.5397    2.5289 H   0  0  0  0  0  0  0  0  0  0  0  0
    0.6896    3.8897    0.8118 H   0  0  0  0  0  0  0  0  0  0  0  0
  5  6  2  0  0  0  0
  5  7  1  0  0  0  0
  2  3  1  0  0  0  0
  2  4  1  0  0  0  0
  2  5  1  0  0  0  0
  1  2  1  0  0  0  0
 20 21  2  0  0  0  0
 20 22  1  0  0  0  0
 17 18  1  0  0  0  0
 17 19  2  0  0  0  0
 14 15  1  0  0  0  0
 14 16  1  0  0  0  0
 14 17  1  0  0  0  0
 11 12  1  0  0  0  0
 11 13  1  0  0  0  0
 11 14  1  0  0  0  0
  9 10  1  0  0  0  0
  9 11  1  0  0  0  0
  9 20  1  0  0  0  0
  7  8  1  0  0  0  0
  7  9  1  0  0  0  0
 24 25  1  0  0  0  0
 24 26  1  0  0  0  0
 24 27  1  0  0  0  0
 22 23  1  0  0  0  0
 22 24  1  0  0  0  0
M  CHG  1  18  -1
M  END
$$$$
default_name
  -OEChem-02102213163D

 27 26  0     1  0  0  0  0  0999 V2000
   -3.2406   -3.5400    1.2326 H   0  0  0  0  0  0  0  0  0  0  0  0
   -3.1436   -2.6190    0.6606 C   0  0  0  0  0  0  0  0  0  0  0  0
   -3.8786   -1.8920    0.9996 H   0  0  0  0  0  0  0  0  0  0  0  0
   -3.2846   -2.8280   -0.3984 H   0  0  0  0  0  0  0  0  0  0  0  0
   -1.7586   -2.0580    0.8686 C   0  0  0  0  0  0  0  0  0  0  0  0
   -0.9666   -2.6340    1.6026 O   0  0  0  0  0  0  0  0  0  0  0  0
   -1.4866   -0.9220    0.2366 N   0  0  0  0  0  0  0  0  0  0  0  0
   -2.2166   -0.4790   -0.2994 H   0  0  0  0  0  0  0  0  0  0  0  0
   -0.1956   -0.2250    0.2596 C   0  0  1  0  0  0  0  0  0  0  0  0
    0.3927   -0.6026    1.0964 H   0  0  0  0  0  0  0  0  0  0  0  0
    0.5767   -0.5489   -1.0351 C   0  0  0  0  0  0  0  0  0  0  0  0
    1.3656   -1.2606   -0.7870 H   0  0  0  0  0  0  0  0  0  0  0  0
   -0.0999   -1.0197   -1.7498 H   0  0  0  0  0  0  0  0  0  0  0  0
    1.2214    0.6853   -1.6884 C   0  0  0  0  0  0  0  0  0  0  0  0
    0.4412    1.2898   -2.1573 H   0  0  0  0  0  0  0  0  0  0  0  0
    1.6863    1.2860   -0.9022 H   0  0  0  0  0  0  0  0  0  0  0  0
    2.2762    0.3340   -2.7480 C   0  0  0  0  0  0  0  0  0  0  0  0
    2.6051   -0.8660   -2.8837 O   0  5  0  0  0  0  0  0  0  0  0  0
    2.7237    1.2825   -3.4302 O   0  0  0  0  0  0  0  0  0  0  0  0
   -0.3954    1.2887    0.4814 C   0  0  0  0  0  0  0  0  0  0  0  0
   -1.2761    1.9015   -0.1256 O   0  0  0  0  0  0  0  0  0  0  0  0
    0.4051    1.8919    1.3699 N   0  0  0  0  0  0  0  0  0  0  0  0
    1.1380    1.3380    1.7875 H   0  0  0  0  0  0  0  0  0  0  0  0
    0.3573    3.3183    1.6807 C   0  0  0  0  0  0  0  0  0  0  0  0
   -0.6670    3.6090    1.9198 H   0  0  0  0  0  0  0  0  0  0  0  0
    1.0066    3.5397    2.5289 H   0  0  0  0  0  0  0  0  0  0  0  0
    0.6896    3.8897    0.8118 H   0  0  0  0  0  0  0  0  0  0  0  0
  5  6  2  0  0  0  0
  5  7  1  0  0  0  0
  2  3  1  0  0  0  0
  2  4  1  0  0  0  0
  2  5  1  0  0  0  0
  1  2  1  0  0  0  0
 20 21  2  0  0  0  0
 20 22  1  0  0  0  0
 17 18  1  0  0  0  0
 17 19  2  0  0  0  0
 14 15  1  0  0  0  0
 14 16  1  0  0  0  0
 14 17  1  0  0  0  0
 11 12  1  0  0  0  0
 11 13  1  0  0  0  0
 11 14  1  0  0  0  0
  9 10  1  0  0  0  0
  9 11  1  0  0  0  0
  9 20  1  0  0  0  0
  7  8  1  0  0  0  0
  7  9  1  0  0  0  0
 24 25  1  0  0  0  0
 24 26  1  0  0  0  0
 24 27  1  0  0  0  0
 22 23  1  0  0  0  0
 22 24  1  0  0  0  0
M  CHG  1  18  -1
M  END
$$$$
default_name
  -OEChem-02102213163D

 27 26  0     1  0  0  0  0  0999 V2000
   -3.2406   -3.5400    1.2326 H   0  0  0  0  0  0  0  0  0  0  0  0
   -3.1436   -2.6190    0.6606 C   0  0  0  0  0  0  0  0  0  0  0  0
   -3.8786   -1.8920    0.9996 H   0  0  0  0  0  0  0  0  0  0  0  0
   -3.2846   -2.8280   -0.3984 H   0  0  0  0  0  0  0  0  0  0  0  0
   -1.7586   -2.0580    0.8686 C   0  0  0  0  0  0  0  0  0  0  0  0
   -0.9666   -2.6340    1.6026 O   0  0  0  0  0  0  0  0  0  0  0  0
   -1.4866   -0.9220    0.2366 N   0  0  0  0  0  0  0  0  0  0  0  0
   -2.2166   -0.4790   -0.2994 H   0  0  0  0  0  0  0  0  0  0  0  0
   -0.1956   -0.2250    0.2596 C   0  0  1  0  0  0  0  0  0  0  0  0
    0.3927   -0.6026    1.0964 H   0  0  0  0  0  0  0  0  0  0  0  0
    0.5767   -0.5489   -1.0351 C   0  0  0  0  0  0  0  0  0  0  0  0
    1.1763   -1.4424   -0.8544 H   0  0  0  0  0  0  0  0  0  0  0  0
   -0.1342   -0.7666   -1.8336 H   0  0  0  0  0  0  0  0  0  0  0  0
    1.5136    0.5834   -1.4886 C   0  0  0  0  0  0  0  0  0  0  0  0
    0.9260    1.4906   -1.6490 H   0  0  0  0  0  0  0  0  0  0  0  0
    2.2267    0.7816   -0.6840 H   0  0  0  0  0  0  0  0  0  0  0  0
    2.2823    0.2598   -2.7783 C   0  0  0  0  0  0  0  0  0  0  0  0
    2.1902   -0.8955   -3.2507 O   0  5  0  0  0  0  0  0  0  0  0  0
    2.9384    1.1943   -3.2898 O   0  0  0  0  0  0  0  0  0  0  0  0
   -0.3954    1.2887    0.4814 C   0  0  0  0  0  0  0  0  0  0  0  0
   -1.2761    1.9015   -0.1256 O   0  0  0  0  0  0  0  0  0  0  0  0
    0.4051    1.8919    1.3699 N   0  0  0  0  0  0  0  0  0  0  0  0
    1.1380    1.3380    1.7875 H   0  0  0  0  0  0  0  0  0  0  0  0
    0.3573    3.3183    1.6807 C   0  0  0  0  0  0  0  0  0  0  0  0
   -0.6670    3.6090    1.9198 H   0  0  0  0  0  0  0  0  0  0  0  0
    1.0066    3.5397    2.5289 H   0  0  0  0  0  0  0  0  0  0  0  0
    0.6896    3.8897    0.8118 H   0  0  0  0  0  0  0  0  0  0  0  0
  5  6  2  0  0  0  0
  5  7  1  0  0  0  0
  2  3  1  0  0  0  0
  2  4  1  0  0  0  0
  2  5  1  0  0  0  0
  1  2  1  0  0  0  0
 20 21  2  0  0  0  0
 20 22  1  0  0  0  0
 17 18  1  0  0  0  0
 17 19  2  0  0  0  0
 14 15  1  0  0  0  0
 14 16  1  0  0  0  0
 14 17  1  0  0  0  0
 11 12  1  0  0  0  0
 11 13  1  0  0  0  0
 11 14  1  0  0  0  0
  9 10  1  0  0  0  0
  9 11  1  0  0  0  0
  9 20  1  0  0  0  0
  7  8  1  0  0  0  0
  7  9  1  0  0  0  0
 24 25  1  0  0  0  0
 24 26  1  0  0  0  0
 24 27  1  0  0  0  0
 22 23  1  0  0  0  0
 22 24  1  0  0  0  0
M  CHG  1  18  -1
M  END
$$$$
default_name
  -OEChem-02102213163D

 27 26  0     1  0  0  0  0  0999 V2000
   -3.2406   -3.5400    1.2326 H   0  0  0  0  0  0  0  0  0  0  0  0
   -3.1436   -2.6190    0.6606 C   0  0  0  0  0  0  0  0  0  0  0  0
   -3.8786   -1.8920    0.9996 H   0  0  0  0  0  0  0  0  0  0  0  0
   -3.2846   -2.8280   -0.3984 H   0  0  0  0  0  0  0  0  0  0  0  0
   -1.7586   -2.0580    0.8686 C   0  0  0  0  0  0  0  0  0  0  0  0
   -0.9666   -2.6340    1.6026 O   0  0  0  0  0  0  0  0  0  0  0  0
   -1.4866   -0.9220    0.2366 N   0  0  0  0  0  0  0  0  0  0  0  0
   -2.2166   -0.4790   -0.2994 H   0  0  0  0  0  0  0  0  0  0  0  0
   -0.1956   -0.2250    0.2596 C   0  0  1  0  0  0  0  0  0  0  0  0
    0.3927   -0.6026    1.0964 H   0  0  0  0  0  0  0  0  0  0  0  0
    0.5767   -0.5489   -1.0351 C   0  0  0  0  0  0  0  0  0  0  0  0
    1.1763   -1.4424   -0.8544 H   0  0  0  0  0  0  0  0  0  0  0  0
   -0.1342   -0.7666   -1.8336 H   0  0  0  0  0  0  0  0  0  0  0  0
    1.5136    0.5834   -1.4886 C   0  0  0  0  0  0  0  0  0  0  0  0
    0.9921    1.5388   -1.3921 H   0  0  0  0  0  0  0  0  0  0  0  0
    2.3779    0.6021   -0.8195 H   0  0  0  0  0  0  0  0  0  0  0  0
    1.9983    0.4309   -2.9380 C   0  0  0  0  0  0  0  0  0  0  0  0
    1.7153   -0.6229   -3.5512 O   0  5  0  0  0  0  0  0  0  0  0  0
    2.6316    1.3951   -3.4222 O   0  0  0  0  0  0  0  0  0  0  0  0
   -0.3954    1.2887    0.4814 C   0  0  0  0  0  0  0  0  0  0  0  0
   -1.2761    1.9015   -0.1256 O   0  0  0  0  0  0  0  0  0  0  0  0
    0.4051    1.8919    1.3699 N   0  0  0  0  0  0  0  0  0  0  0  0
    1.1380    1.3380    1.7875 H   0  0  0  0  0  0  0  0  0  0  0  0
    0.3573    3.3183    1.6807 C   0  0  0  0  0  0  0  0  0  0  0  0
   -0.6670    3.6090    1.9198 H   0  0  0  0  0  0  0  0  0  0  0  0
    1.0066    3.5397    2.5289 H   0  0  0  0  0  0  0  0  0  0  0  0
    0.6896    3.8897    0.8118 H   0  0  0  0  0  0  0  0  0  0  0  0
  5  6  2  0  0  0  0
  5  7  1  0  0  0  0
  2  3  1  0  0  0  0
  2  4  1  0  0  0  0
  2  5  1  0  0  0  0
  1  2  1  0  0  0  0
 20 21  2  0  0  0  0
 20 22  1  0  0  0  0
 17 18  1  0  0  0  0
 17 19  2  0  0  0  0
 14 15  1  0  0  0  0
 14 16  1  0  0  0  0
 14 17  1  0  0  0  0
 11 12  1  0  0  0  0
 11 13  1  0  0  0  0
 11 14  1  0  0  0  0
  9 10  1  0  0  0  0
  9 11  1  0  0  0  0
  9 20  1  0  0  0  0
  7  8  1  0  0  0  0
  7  9  1  0  0  0  0
 24 25  1  0  0  0  0
 24 26  1  0  0  0  0
 24 27  1  0  0  0  0
 22 23  1  0  0  0  0
 22 24  1  0  0  0  0
M  CHG  1  18  -1
M  END
$$$$
default_name
  -OEChem-02102213163D

 27 26  0     1  0  0  0  0  0999 V2000
   -3.2406   -3.5400    1.2326 H   0  0  0  0  0  0  0  0  0  0  0  0
   -3.1436   -2.6190    0.6606 C   0  0  0  0  0  0  0  0  0  0  0  0
   -3.8786   -1.8920    0.9996 H   0  0  0  0  0  0  0  0  0  0  0  0
   -3.2846   -2.8280   -0.3984 H   0  0  0  0  0  0  0  0  0  0  0  0
   -1.7586   -2.0580    0.8686 C   0  0  0  0  0  0  0  0  0  0  0  0
   -0.9666   -2.6340    1.6026 O   0  0  0  0  0  0  0  0  0  0  0  0
   -1.4866   -0.9220    0.2366 N   0  0  0  0  0  0  0  0  0  0  0  0
   -2.2166   -0.4790   -0.2994 H   0  0  0  0  0  0  0  0  0  0  0  0
   -0.1956   -0.2250    0.2596 C   0  0  1  0  0  0  0  0  0  0  0  0
    0.3927   -0.6026    1.0964 H   0  0  0  0  0  0  0  0  0  0  0  0
    0.5767   -0.5489   -1.0351 C   0  0  0  0  0  0  0  0  0  0  0  0
    1.1763   -1.4424   -0.8544 H   0  0  0  0  0  0  0  0  0  0  0  0
   -0.1342   -0.7666   -1.8336 H   0  0  0  0  0  0  0  0  0  0  0  0
    1.5136    0.5834   -1.4886 C   0  0  0  0  0  0  0  0  0  0  0  0
    1.1086    1.5398   -1.1490 H   0  0  0  0  0  0  0  0  0  0  0  0
    2.4845    0.4387   -1.0075 H   0  0  0  0  0  0  0  0  0  0  0  0
    1.7066    0.6429   -3.0111 C   0  0  0  0  0  0  0  0  0  0  0  0
    1.2201   -0.2760   -3.7079 O   0  5  0  0  0  0  0  0  0  0  0  0
    2.3254    1.6333   -3.4599 O   0  0  0  0  0  0  0  0  0  0  0  0
   -0.3954    1.2887    0.4814 C   0  0  0  0  0  0  0  0  0  0  0  0
   -1.2761    1.9015   -0.1256 O   0  0  0  0  0  0  0  0  0  0  0  0
    0.4051    1.8919    1.3699 N   0  0  0  0  0  0  0  0  0  0  0  0
    1.1380    1.3380    1.7875 H   0  0  0  0  0  0  0  0  0  0  0  0
    0.3573    3.3183    1.6807 C   0  0  0  0  0  0  0  0  0  0  0  0
   -0.6670    3.6090    1.9198 H   0  0  0  0  0  0  0  0  0  0  0  0
    1.0066    3.5397    2.5289 H   0  0  0  0  0  0  0  0  0  0  0  0
    0.6896    3.8897    0.8118 H   0  0  0  0  0  0  0  0  0  0  0  0
  5  6  2  0  0  0  0
  5  7  1  0  0  0  0
  2  3  1  0  0  0  0
  2  4  1  0  0  0  0
  2  5  1  0  0  0  0
  1  2  1  0  0  0  0
 20 21  2  0  0  0  0
 20 22  1  0  0  0  0
 17 18  1  0  0  0  0
 17 19  2  0  0  0  0
 14 15  1  0  0  0  0
 14 16  1  0  0  0  0
 14 17  1  0  0  0  0
 11 12  1  0  0  0  0
 11 13  1  0  0  0  0
 11 14  1  0  0  0  0
  9 10  1  0  0  0  0
  9 11  1  0  0  0  0
  9 20  1  0  0  0  0
  7  8  1  0  0  0  0
  7  9  1  0  0  0  0
 24 25  1  0  0  0  0
 24 26  1  0  0  0  0
 24 27  1  0  0  0  0
 22 23  1  0  0  0  0
 22 24  1  0  0  0  0
M  CHG  1  18  -1
M  END
$$$$
default_name
  -OEChem-02102213163D

 27 26  0     1  0  0  0  0  0999 V2000
   -3.2406   -3.5400    1.2326 H   0  0  0  0  0  0  0  0  0  0  0  0
   -3.1436   -2.6190    0.6606 C   0  0  0  0  0  0  0  0  0  0  0  0
   -3.8786   -1.8920    0.9996 H   0  0  0  0  0  0  0  0  0  0  0  0
   -3.2846   -2.8280   -0.3984 H   0  0  0  0  0  0  0  0  0  0  0  0
   -1.7586   -2.0580    0.8686 C   0  0  0  0  0  0  0  0  0  0  0  0
   -0.9666   -2.6340    1.6026 O   0  0  0  0  0  0  0  0  0  0  0  0
   -1.4866   -0.9220    0.2366 N   0  0  0  0  0  0  0  0  0  0  0  0
   -2.2166   -0.4790   -0.2994 H   0  0  0  0  0  0  0  0  0  0  0  0
   -0.1956   -0.2250    0.2596 C   0  0  1  0  0  0  0  0  0  0  0  0
    0.3927   -0.6026    1.0964 H   0  0  0  0  0  0  0  0  0  0  0  0
    0.5767   -0.5489   -1.0351 C   0  0  0  0  0  0  0  0  0  0  0  0
    1.1763   -1.4424   -0.8544 H   0  0  0  0  0  0  0  0  0  0  0  0
   -0.1342   -0.7666   -1.8336 H   0  0  0  0  0  0  0  0  0  0  0  0
    1.5136    0.5834   -1.4886 C   0  0  0  0  0  0  0  0  0  0  0  0
    1.2675    1.4935   -0.9362 H   0  0  0  0  0  0  0  0  0  0  0  0
    2.5392    0.3023   -1.2352 H   0  0  0  0  0  0  0  0  0  0  0  0
    1.4271    0.8815   -2.9928 C   0  0  0  0  0  0  0  0  0  0  0  0
    0.7384    0.1217   -3.7103 O   0  5  0  0  0  0  0  0  0  0  0  0
    2.0405    1.8928   -3.4005 O   0  0  0  0  0  0  0  0  0  0  0  0
   -0.3954    1.2887    0.4814 C   0  0  0  0  0  0  0  0  0  0  0  0
   -1.2761    1.9015   -0.1256 O   0  0  0  0  0  0  0  0  0  0  0  0
    0.4051    1.8919    1.3699 N   0  0  0  0  0  0  0  0  0  0  0  0
    1.1380    1.3380    1.7875 H   0  0  0  0  0  0  0  0  0  0  0  0
    0.3573    3.3183    1.6807 C   0  0  0  0  0  0  0  0  0  0  0  0
   -0.6670    3.6090    1.9198 H   0  0  0  0  0  0  0  0  0  0  0  0
    1.0066    3.5397    2.5289 H   0  0  0  0  0  0  0  0  0  0  0  0
    0.6896    3.8897    0.8118 H   0  0  0  0  0  0  0  0  0  0  0  0
  5  6  2  0  0  0  0
  5  7  1  0  0  0  0
  2  3  1  0  0  0  0
  2  4  1  0  0  0  0
  2  5  1  0  0  0  0
  1  2  1  0  0  0  0
 20 21  2  0  0  0  0
 20 22  1  0  0  0  0
 17 18  1  0  0  0  0
 17 19  2  0  0  0  0
 14 15  1  0  0  0  0
 14 16  1  0  0  0  0
 14 17  1  0  0  0  0
 11 12  1  0  0  0  0
 11 13  1  0  0  0  0
 11 14  1  0  0  0  0
  9 10  1  0  0  0  0
  9 11  1  0  0  0  0
  9 20  1  0  0  0  0
  7  8  1  0  0  0  0
  7  9  1  0  0  0  0
 24 25  1  0  0  0  0
 24 26  1  0  0  0  0
 24 27  1  0  0  0  0
 22 23  1  0  0  0  0
 22 24  1  0  0  0  0
M  CHG  1  18  -1
M  END
$$$$
default_name
  -OEChem-02102213163D

 27 26  0     1  0  0  0  0  0999 V2000
   -3.2406   -3.5400    1.2326 H   0  0  0  0  0  0  0  0  0  0  0  0
   -3.1436   -2.6190    0.6606 C   0  0  0  0  0  0  0  0  0  0  0  0
   -3.8786   -1.8920    0.9996 H   0  0  0  0  0  0  0  0  0  0  0  0
   -3.2846   -2.8280   -0.3984 H   0  0  0  0  0  0  0  0  0  0  0  0
   -1.7586   -2.0580    0.8686 C   0  0  0  0  0  0  0  0  0  0  0  0
   -0.9666   -2.6340    1.6026 O   0  0  0  0  0  0  0  0  0  0  0  0
   -1.4866   -0.9220    0.2366 N   0  0  0  0  0  0  0  0  0  0  0  0
   -2.2166   -0.4790   -0.2994 H   0  0  0  0  0  0  0  0  0  0  0  0
   -0.1956   -0.2250    0.2596 C   0  0  1  0  0  0  0  0  0  0  0  0
    0.3927   -0.6026    1.0964 H   0  0  0  0  0  0  0  0  0  0  0  0
    0.5767   -0.5489   -1.0351 C   0  0  0  0  0  0  0  0  0  0  0  0
    1.1763   -1.4424   -0.8544 H   0  0  0  0  0  0  0  0  0  0  0  0
   -0.1342   -0.7666   -1.8336 H   0  0  0  0  0  0  0  0  0  0  0  0
    1.5136    0.5834   -1.4886 C   0  0  0  0  0  0  0  0  0  0  0  0
    1.4580    1.4032   -0.7683 H   0  0  0  0  0  0  0  0  0  0  0  0
    2.5382    0.2023   -1.4870 H   0  0  0  0  0  0  0  0  0  0  0  0
    1.1788    1.1304   -2.8842 C   0  0  0  0  0  0  0  0  0  0  0  0
    0.3029    0.5429   -3.5581 O   0  5  0  0  0  0  0  0  0  0  0  0
    1.7966    2.1558   -3.2479 O   0  0  0  0  0  0  0  0  0  0  0  0
   -0.3954    1.2887    0.4814 C   0  0  0  0  0  0  0  0  0  0  0  0
   -1.2761    1.9015   -0.1256 O   0  0  0  0  0  0  0  0  0  0  0  0
    0.4051    1.8919    1.3699 N   0  0  0  0  0  0  0  0  0  0  0  0
    1.1380    1.3380    1.7875 H   0  0  0  0  0  0  0  0  0  0  0  0
    0.3573    3.3183    1.6807 C   0  0  0  0  0  0  0  0  0  0  0  0
   -0.6670    3.6090    1.9198 H   0  0  0  0  0  0  0  0  0  0  0  0
    1.0066    3.5397    2.5289 H   0  0  0  0  0  0  0  0  0  0  0  0
    0.6896    3.8897    0.8118 H   0  0  0  0  0  0  0  0  0  0  0  0
  5  6  2  0  0  0  0
  5  7  1  0  0  0  0
  2  3  1  0  0  0  0
  2  4  1  0  0  0  0
  2  5  1  0  0  0  0
  1  2  1  0  0  0  0
 20 21  2  0  0  0  0
 20 22  1  0  0  0  0
 17 18  1  0  0  0  0
 17 19  2  0  0  0  0
 14 15  1  0  0  0  0
 14 16  1  0  0  0  0
 14 17  1  0  0  0  0
 11 12  1  0  0  0  0
 11 13  1  0  0  0  0
 11 14  1  0  0  0  0
  9 10  1  0  0  0  0
  9 11  1  0  0  0  0
  9 20  1  0  0  0  0
  7  8  1  0  0  0  0
  7  9  1  0  0  0  0
 24 25  1  0  0  0  0
 24 26  1  0  0  0  0
 24 27  1  0  0  0  0
 22 23  1  0  0  0  0
 22 24  1  0  0  0  0
M  CHG  1  18  -1
M  END
$$$$
default_name
  -OEChem-02102213163D

 27 26  0     1  0  0  0  0  0999 V2000
   -3.2406   -3.5400    1.2326 H   0  0  0  0  0  0  0  0  0  0  0  0
   -3.1436   -2.6190    0.6606 C   0  0  0  0  0  0  0  0  0  0  0  0
   -3.8786   -1.8920    0.9996 H   0  0  0  0  0  0  0  0  0  0  0  0
   -3.2846   -2.8280   -0.3984 H   0  0  0  0  0  0  0  0  0  0  0  0
   -1.7586   -2.0580    0.8686 C   0  0  0  0  0  0  0  0  0  0  0  0
   -0.9666   -2.6340    1.6026 O   0  0  0  0  0  0  0  0  0  0  0  0
   -1.4866   -0.9220    0.2366 N   0  0  0  0  0  0  0  0  0  0  0  0
   -2.2166   -0.4790   -0.2994 H   0  0  0  0  0  0  0  0  0  0  0  0
   -0.1956   -0.2250    0.2596 C   0  0  1  0  0  0  0  0  0  0  0  0
    0.3927   -0.6026    1.0964 H   0  0  0  0  0  0  0  0  0  0  0  0
    0.5767   -0.5489   -1.0351 C   0  0  0  0  0  0  0  0  0  0  0  0
    1.1763   -1.4424   -0.8544 H   0  0  0  0  0  0  0  0  0  0  0  0
   -0.1342   -0.7666   -1.8336 H   0  0  0  0  0  0  0  0  0  0  0  0
    1.5136    0.5834   -1.4886 C   0  0  0  0  0  0  0  0  0  0  0  0
    1.6671    1.2749   -0.6566 H   0  0  0  0  0  0  0  0  0  0  0  0
    2.4816    0.1454   -1.7459 H   0  0  0  0  0  0  0  0  0  0  0  0
    0.9787    1.3726   -2.6928 C   0  0  0  0  0  0  0  0  0  0  0  0
   -0.0565    0.9590   -3.2617 O   0  5  0  0  0  0  0  0  0  0  0  0
    1.6100    2.4043   -3.0126 O   0  0  0  0  0  0  0  0  0  0  0  0
   -0.3954    1.2887    0.4814 C   0  0  0  0  0  0  0  0  0  0  0  0
   -1.2761    1.9015   -0.1256 O   0  0  0  0  0  0  0  0  0  0  0  0
    0.4051    1.8919    1.3699 N   0  0  0  0  0  0  0  0  0  0  0  0
    1.1380    1.3380    1.7875 H   0  0  0  0  0  0  0  0  0  0  0  0
    0.3573    3.3183    1.6807 C   0  0  0  0  0  0  0  0  0  0  0  0
   -0.6670    3.6090    1.9198 H   0  0  0  0  0  0  0  0  0  0  0  0
    1.0066    3.5397    2.5289 H   0  0  0  0  0  0  0  0  0  0  0  0
    0.6896    3.8897    0.8118 H   0  0  0  0  0  0  0  0  0  0  0  0
  5  6  2  0  0  0  0
  5  7  1  0  0  0  0
  2  3  1  0  0  0  0
  2  4  1  0  0  0  0
  2  5  1  0  0  0  0
  1  2  1  0  0  0  0
 20 21  2  0  0  0  0
 20 22  1  0  0  0  0
 17 18  1  0  0  0  0
 17 19  2  0  0  0  0
 14 15  1  0  0  0  0
 14 16  1  0  0  0  0
 14 17  1  0  0  0  0
 11 12  1  0  0  0  0
 11 13  1  0  0  0  0
 11 14  1  0  0  0  0
  9 10  1  0  0  0  0
  9 11  1  0  0  0  0
  9 20  1  0  0  0  0
  7  8  1  0  0  0  0
  7  9  1  0  0  0  0
 24 25  1  0  0  0  0
 24 26  1  0  0  0  0
 24 27  1  0  0  0  0
 22 23  1  0  0  0  0
 22 24  1  0  0  0  0
M  CHG  1  18  -1
M  END
$$$$
default_name
  -OEChem-02102213163D

 27 26  0     1  0  0  0  0  0999 V2000
   -3.2406   -3.5400    1.2326 H   0  0  0  0  0  0  0  0  0  0  0  0
   -3.1436   -2.6190    0.6606 C   0  0  0  0  0  0  0  0  0  0  0  0
   -3.8786   -1.8920    0.9996 H   0  0  0  0  0  0  0  0  0  0  0  0
   -3.2846   -2.8280   -0.3984 H   0  0  0  0  0  0  0  0  0  0  0  0
   -1.7586   -2.0580    0.8686 C   0  0  0  0  0  0  0  0  0  0  0  0
   -0.9666   -2.6340    1.6026 O   0  0  0  0  0  0  0  0  0  0  0  0
   -1.4866   -0.9220    0.2366 N   0  0  0  0  0  0  0  0  0  0  0  0
   -2.2166   -0.4790   -0.2994 H   0  0  0  0  0  0  0  0  0  0  0  0
   -0.1956   -0.2250    0.2596 C   0  0  1  0  0  0  0  0  0  0  0  0
    0.3927   -0.6026    1.0964 H   0  0  0  0  0  0  0  0  0  0  0  0
    0.5767   -0.5489   -1.0351 C   0  0  0  0  0  0  0  0  0  0  0  0
    1.1763   -1.4424   -0.8544 H   0  0  0  0  0  0  0  0  0  0  0  0
   -0.1342   -0.7666   -1.8336 H   0  0  0  0  0  0  0  0  0  0  0  0
    1.5136    0.5834   -1.4886 C   0  0  0  0  0  0  0  0  0  0  0  0
    1.8806    1.1174   -0.6088 H   0  0  0  0  0  0  0  0  0  0  0  0
    2.3733    0.1356   -1.9941 H   0  0  0  0  0  0  0  0  0  0  0  0
    0.8404    1.5917   -2.4316 C   0  0  0  0  0  0  0  0  0  0  0  0
   -0.3155    1.3416   -2.8414 O   0  5  0  0  0  0  0  0  0  0  0  0
    1.4937    2.6216   -2.7105 O   0  0  0  0  0  0  0  0  0  0  0  0
   -0.3954    1.2887    0.4814 C   0  0  0  0  0  0  0  0  0  0  0  0
   -1.2761    1.9015   -0.1256 O   0  0  0  0  0  0  0  0  0  0  0  0
    0.4051    1.8919    1.3699 N   0  0  0  0  0  0  0  0  0  0  0  0
    1.1380    1.3380    1.7875 H   0  0  0  0  0  0  0  0  0  0  0  0
    0.3573    3.3183    1.6807 C   0  0  0  0  0  0  0  0  0  0  0  0
   -0.6670    3.6090    1.9198 H   0  0  0  0  0  0  0  0  0  0  0  0
    1.0066    3.5397    2.5289 H   0  0  0  0  0  0  0  0  0  0  0  0
    0.6896    3.8897    0.8118 H   0  0  0  0  0  0  0  0  0  0  0  0
  5  6  2  0  0  0  0
  5  7  1  0  0  0  0
  2  3  1  0  0  0  0
  2  4  1  0  0  0  0
  2  5  1  0  0  0  0
  1  2  1  0  0  0  0
 20 21  2  0  0  0  0
 20 22  1  0  0  0  0
 17 18  1  0  0  0  0
 17 19  2  0  0  0  0
 14 15  1  0  0  0  0
 14 16  1  0  0  0  0
 14 17  1  0  0  0  0
 11 12  1  0  0  0  0
 11 13  1  0  0  0  0
 11 14  1  0  0  0  0
  9 10  1  0  0  0  0
  9 11  1  0  0  0  0
  9 20  1  0  0  0  0
  7  8  1  0  0  0  0
  7  9  1  0  0  0  0
 24 25  1  0  0  0  0
 24 26  1  0  0  0  0
 24 27  1  0  0  0  0
 22 23  1  0  0  0  0
 22 24  1  0  0  0  0
M  CHG  1  18  -1
M  END
$$$$
default_name
  -OEChem-02102213163D

 27 26  0     1  0  0  0  0  0999 V2000
   -3.2406   -3.5400    1.2326 H   0  0  0  0  0  0  0  0  0  0  0  0
   -3.1436   -2.6190    0.6606 C   0  0  0  0  0  0  0  0  0  0  0  0
   -3.8786   -1.8920    0.9996 H   0  0  0  0  0  0  0  0  0  0  0  0
   -3.2846   -2.8280   -0.3984 H   0  0  0  0  0  0  0  0  0  0  0  0
   -1.7586   -2.0580    0.8686 C   0  0  0  0  0  0  0  0  0  0  0  0
   -0.9666   -2.6340    1.6026 O   0  0  0  0  0  0  0  0  0  0  0  0
   -1.4866   -0.9220    0.2366 N   0  0  0  0  0  0  0  0  0  0  0  0
   -2.2166   -0.4790   -0.2994 H   0  0  0  0  0  0  0  0  0  0  0  0
   -0.1956   -0.2250    0.2596 C   0  0  1  0  0  0  0  0  0  0  0  0
    0.3927   -0.6026    1.0964 H   0  0  0  0  0  0  0  0  0  0  0  0
    0.5767   -0.5489   -1.0351 C   0  0  0  0  0  0  0  0  0  0  0  0
    1.1763   -1.4424   -0.8544 H   0  0  0  0  0  0  0  0  0  0  0  0
   -0.1342   -0.7666   -1.8336 H   0  0  0  0  0  0  0  0  0  0  0  0
    1.5136    0.5834   -1.4886 C   0  0  0  0  0  0  0  0  0  0  0  0
    2.0839    0.9414   -0.6281 H   0  0  0  0  0  0  0  0  0  0  0  0
    2.2206    0.1736   -2.2147 H   0  0  0  0  0  0  0  0  0  0  0  0
    0.7732    1.7727   -2.1183 C   0  0  0  0  0  0  0  0  0  0  0  0
   -0.4563    1.6646   -2.3256 O   0  5  0  0  0  0  0  0  0  0  0  0
    1.4554    2.7927   -2.3624 O   0  0  0  0  0  0  0  0  0  0  0  0
   -0.3954    1.2887    0.4814 C   0  0  0  0  0  0  0  0  0  0  0  0
   -1.2761    1.9015   -0.1256 O   0  0  0  0  0  0  0  0  0  0  0  0
    0.4051    1.8919    1.3699 N   0  0  0  0  0  0  0  0  0  0  0  0
    1.1380    1.3380    1.7875 H   0  0  0  0  0  0  0  0  0  0  0  0
    0.3573    3.3183    1.6807 C   0  0  0  0  0  0  0  0  0  0  0  0
   -0.6670    3.6090    1.9198 H   0  0  0  0  0  0  0  0  0  0  0  0
    1.0066    3.5397    2.5289 H   0  0  0  0  0  0  0  0  0  0  0  0
    0.6896    3.8897    0.8118 H   0  0  0  0  0  0  0  0  0  0  0  0
  5  6  2  0  0  0  0
  5  7  1  0  0  0  0
  2  3  1  0  0  0  0
  2  4  1  0  0  0  0
  2  5  1  0  0  0  0
  1  2  1  0  0  0  0
 20 21  2  0  0  0  0
 20 22  1  0  0  0  0
 17 18  1  0  0  0  0
 17 19  2  0  0  0  0
 14 15  1  0  0  0  0
 14 16  1  0  0  0  0
 14 17  1  0  0  0  0
 11 12  1  0  0  0  0
 11 13  1  0  0  0  0
 11 14  1  0  0  0  0
  9 10  1  0  0  0  0
  9 11  1  0  0  0  0
  9 20  1  0  0  0  0
  7  8  1  0  0  0  0
  7  9  1  0  0  0  0
 24 25  1  0  0  0  0
 24 26  1  0  0  0  0
 24 27  1  0  0  0  0
 22 23  1  0  0  0  0
 22 24  1  0  0  0  0
M  CHG  1  18  -1
M  END
$$$$
default_name
  -OEChem-02102213163D

 27 26  0     1  0  0  0  0  0999 V2000
   -3.2406   -3.5400    1.2326 H   0  0  0  0  0  0  0  0  0  0  0  0
   -3.1436   -2.6190    0.6606 C   0  0  0  0  0  0  0  0  0  0  0  0
   -3.8786   -1.8920    0.9996 H   0  0  0  0  0  0  0  0  0  0  0  0
   -3.2846   -2.8280   -0.3984 H   0  0  0  0  0  0  0  0  0  0  0  0
   -1.7586   -2.0580    0.8686 C   0  0  0  0  0  0  0  0  0  0  0  0
   -0.9666   -2.6340    1.6026 O   0  0  0  0  0  0  0  0  0  0  0  0
   -1.4866   -0.9220    0.2366 N   0  0  0  0  0  0  0  0  0  0  0  0
   -2.2166   -0.4790   -0.2994 H   0  0  0  0  0  0  0  0  0  0  0  0
   -0.1956   -0.2250    0.2596 C   0  0  1  0  0  0  0  0  0  0  0  0
    0.3927   -0.6026    1.0964 H   0  0  0  0  0  0  0  0  0  0  0  0
    0.5767   -0.5489   -1.0351 C   0  0  0  0  0  0  0  0  0  0  0  0
    1.1763   -1.4424   -0.8544 H   0  0  0  0  0  0  0  0  0  0  0  0
   -0.1342   -0.7666   -1.8336 H   0  0  0  0  0  0  0  0  0  0  0  0
    1.5136    0.5834   -1.4886 C   0  0  0  0  0  0  0  0  0  0  0  0
    2.2632    0.7590   -0.7132 H   0  0  0  0  0  0  0  0  0  0  0  0
    2.0340    0.2567   -2.3928 H   0  0  0  0  0  0  0  0  0  0  0  0
    0.7819    1.9032   -1.7745 C   0  0  0  0  0  0  0  0  0  0  0  0
   -0.4695    1.9061   -1.7497 O   0  5  0  0  0  0  0  0  0  0  0  0
    1.4979    2.9059   -1.9918 O   0  0  0  0  0  0  0  0  0  0  0  0
   -0.3954    1.2887    0.4814 C   0  0  0  0  0  0  0  0  0  0  0  0
   -1.2761    1.9015   -0.1256 O   0  0  0  0  0  0  0  0  0  0  0  0
    0.4051    1.8919    1.3699 N   0  0  0  0  0  0  0  0  0  0  0  0
    1.1380    1.3380    1.7875 H   0  0  0  0  0  0  0  0  0  0  0  0
    0.3573    3.3183    1.6807 C   0  0  0  0  0  0  0  0  0  0  0  0
   -0.6670    3.6090    1.9198 H   0  0  0  0  0  0  0  0  0  0  0  0
    1.0066    3.5397    2.5289 H   0  0  0  0  0  0  0  0  0  0  0  0
    0.6896    3.8897    0.8118 H   0  0  0  0  0  0  0  0  0  0  0  0
  5  6  2  0  0  0  0
  5  7  1  0  0  0  0
  2  3  1  0  0  0  0
  2  4  1  0  0  0  0
  2  5  1  0  0  0  0
  1  2  1  0  0  0  0
 20 21  2  0  0  0  0
 20 22  1  0  0  0  0
 17 18  1  0  0  0  0
 17 19  2  0  0  0  0
 14 15  1  0  0  0  0
 14 16  1  0  0  0  0
 14 17  1  0  0  0  0
 11 12  1  0  0  0  0
 11 13  1  0  0  0  0
 11 14  1  0  0  0  0
  9 10  1  0  0  0  0
  9 11  1  0  0  0  0
  9 20  1  0  0  0  0
  7  8  1  0  0  0  0
  7  9  1  0  0  0  0
 24 25  1  0  0  0  0
 24 26  1  0  0  0  0
 24 27  1  0  0  0  0
 22 23  1  0  0  0  0
 22 24  1  0  0  0  0
M  CHG  1  18  -1
M  END
$$$$
default_name
  -OEChem-02102213163D

 27 26  0     1  0  0  0  0  0999 V2000
   -3.2406   -3.5400    1.2326 H   0  0  0  0  0  0  0  0  0  0  0  0
   -3.1436   -2.6190    0.6606 C   0  0  0  0  0  0  0  0  0  0  0  0
   -3.8786   -1.8920    0.9996 H   0  0  0  0  0  0  0  0  0  0  0  0
   -3.2846   -2.8280   -0.3984 H   0  0  0  0  0  0  0  0  0  0  0  0
   -1.7586   -2.0580    0.8686 C   0  0  0  0  0  0  0  0  0  0  0  0
   -0.9666   -2.6340    1.6026 O   0  0  0  0  0  0  0  0  0  0  0  0
   -1.4866   -0.9220    0.2366 N   0  0  0  0  0  0  0  0  0  0  0  0
   -2.2166   -0.4790   -0.2994 H   0  0  0  0  0  0  0  0  0  0  0  0
   -0.1956   -0.2250    0.2596 C   0  0  1  0  0  0  0  0  0  0  0  0
    0.3927   -0.6026    1.0964 H   0  0  0  0  0  0  0  0  0  0  0  0
    0.5767   -0.5489   -1.0351 C   0  0  0  0  0  0  0  0  0  0  0  0
    1.1763   -1.4424   -0.8544 H   0  0  0  0  0  0  0  0  0  0  0  0
   -0.1342   -0.7666   -1.8336 H   0  0  0  0  0  0  0  0  0  0  0  0
    1.5136    0.5834   -1.4886 C   0  0  0  0  0  0  0  0  0  0  0  0
    2.4062    0.5826   -0.8584 H   0  0  0  0  0  0  0  0  0  0  0  0
    1.8262    0.3792   -2.5161 H   0  0  0  0  0  0  0  0  0  0  0  0
    0.8657    1.9745   -1.4233 C   0  0  0  0  0  0  0  0  0  0  0  0
   -0.3540    2.0496   -1.1528 O   0  5  0  0  0  0  0  0  0  0  0  0
    1.6181    2.9537   -1.6241 O   0  0  0  0  0  0  0  0  0  0  0  0
   -0.3954    1.2887    0.4814 C   0  0  0  0  0  0  0  0  0  0  0  0
   -1.2761    1.9015   -0.1256 O   0  0  0  0  0  0  0  0  0  0  0  0
    0.4051    1.8919    1.3699 N   0  0  0  0  0  0  0  0  0  0  0  0
    1.1380    1.3380    1.7875 H   0  0  0  0  0  0  0  0  0  0  0  0
    0.3573    3.3183    1.6807 C   0  0  0  0  0  0  0  0  0  0  0  0
   -0.6670    3.6090    1.9198 H   0  0  0  0  0  0  0  0  0  0  0  0
    1.0066    3.5397    2.5289 H   0  0  0  0  0  0  0  0  0  0  0  0
    0.6896    3.8897    0.8118 H   0  0  0  0  0  0  0  0  0  0  0  0
  5  6  2  0  0  0  0
  5  7  1  0  0  0  0
  2  3  1  0  0  0  0
  2  4  1  0  0  0  0
  2  5  1  0  0  0  0
  1  2  1  0  0  0  0
 20 21  2  0  0  0  0
 20 22  1  0  0  0  0
 17 18  1  0  0  0  0
 17 19  2  0  0  0  0
 14 15  1  0  0  0  0
 14 16  1  0  0  0  0
 14 17  1  0  0  0  0
 11 12  1  0  0  0  0
 11 13  1  0  0  0  0
 11 14  1  0  0  0  0
  9 10  1  0  0  0  0
  9 11  1  0  0  0  0
  9 20  1  0  0  0  0
  7  8  1  0  0  0  0
  7  9  1  0  0  0  0
 24 25  1  0  0  0  0
 24 26  1  0  0  0  0
 24 27  1  0  0  0  0
 22 23  1  0  0  0  0
 22 24  1  0  0  0  0
M  CHG  1  18  -1
M  END
$$$$
default_name
  -OEChem-02102213163D

 27 26  0     1  0  0  0  0  0999 V2000
   -3.2406   -3.5400    1.2326 H   0  0  0  0  0  0  0  0  0  0  0  0
   -3.1436   -2.6190    0.6606 C   0  0  0  0  0  0  0  0  0  0  0  0
   -3.8786   -1.8920    0.9996 H   0  0  0  0  0  0  0  0  0  0  0  0
   -3.2846   -2.8280   -0.3984 H   0  0  0  0  0  0  0  0  0  0  0  0
   -1.7586   -2.0580    0.8686 C   0  0  0  0  0  0  0  0  0  0  0  0
   -0.9666   -2.6340    1.6026 O   0  0  0  0  0  0  0  0  0  0  0  0
   -1.4866   -0.9220    0.2366 N   0  0  0  0  0  0  0  0  0  0  0  0
   -2.2166   -0.4790   -0.2994 H   0  0  0  0  0  0  0  0  0  0  0  0
   -0.1956   -0.2250    0.2596 C   0  0  1  0  0  0  0  0  0  0  0  0
    0.3927   -0.6026    1.0964 H   0  0  0  0  0  0  0  0  0  0  0  0
    0.5767   -0.5489   -1.0351 C   0  0  0  0  0  0  0  0  0  0  0  0
    1.1763   -1.4424   -0.8544 H   0  0  0  0  0  0  0  0  0  0  0  0
   -0.1342   -0.7666   -1.8336 H   0  0  0  0  0  0  0  0  0  0  0  0
    1.5136    0.5834   -1.4886 C   0  0  0  0  0  0  0  0  0  0  0  0
    2.5032    0.4241   -1.0537 H   0  0  0  0  0  0  0  0  0  0  0  0
    1.6113    0.5329   -2.5763 H   0  0  0  0  0  0  0  0  0  0  0  0
    1.0190    1.9815   -1.0889 C   0  0  0  0  0  0  0  0  0  0  0  0
   -0.1178    2.0853   -0.5757 O   0  5  0  0  0  0  0  0  0  0  0  0
    1.8080    2.9327   -1.2843 O   0  0  0  0  0  0  0  0  0  0  0  0
   -0.3954    1.2887    0.4814 C   0  0  0  0  0  0  0  0  0  0  0  0
   -1.2761    1.9015   -0.1256 O   0  0  0  0  0  0  0  0  0  0  0  0
    0.4051    1.8919    1.3699 N   0  0  0  0  0  0  0  0  0  0  0  0
    1.1380    1.3380    1.7875 H   0  0  0  0  0  0  0  0  0  0  0  0
    0.3573    3.3183    1.6807 C   0  0  0  0  0  0  0  0  0  0  0  0
   -0.6670    3.6090    1.9198 H   0  0  0  0  0  0  0  0  0  0  0  0
    1.0066    3.5397    2.5289 H   0  0  0  0  0  0  0  0  0  0  0  0
    0.6896    3.8897    0.8118 H   0  0  0  0  0  0  0  0  0  0  0  0
  5  6  2  0  0  0  0
  5  7  1  0  0  0  0
  2  3  1  0  0  0  0
  2  4  1  0  0  0  0
  2  5  1  0  0  0  0
  1  2  1  0  0  0  0
 20 21  2  0  0  0  0
 20 22  1  0  0  0  0
 17 18  1  0  0  0  0
 17 19  2  0  0  0  0
 14 15  1  0  0  0  0
 14 16  1  0  0  0  0
 14 17  1  0  0  0  0
 11 12  1  0  0  0  0
 11 13  1  0  0  0  0
 11 14  1  0  0  0  0
  9 10  1  0  0  0  0
  9 11  1  0  0  0  0
  9 20  1  0  0  0  0
  7  8  1  0  0  0  0
  7  9  1  0  0  0  0
 24 25  1  0  0  0  0
 24 26  1  0  0  0  0
 24 27  1  0  0  0  0
 22 23  1  0  0  0  0
 22 24  1  0  0  0  0
M  CHG  1  18  -1
M  END
$$$$
default_name
  -OEChem-02102213163D

 27 26  0     1  0  0  0  0  0999 V2000
   -3.2406   -3.5400    1.2326 H   0  0  0  0  0  0  0  0  0  0  0  0
   -3.1436   -2.6190    0.6606 C   0  0  0  0  0  0  0  0  0  0  0  0
   -3.8786   -1.8920    0.9996 H   0  0  0  0  0  0  0  0  0  0  0  0
   -3.2846   -2.8280   -0.3984 H   0  0  0  0  0  0  0  0  0  0  0  0
   -1.7586   -2.0580    0.8686 C   0  0  0  0  0  0  0  0  0  0  0  0
   -0.9666   -2.6340    1.6026 O   0  0  0  0  0  0  0  0  0  0  0  0
   -1.4866   -0.9220    0.2366 N   0  0  0  0  0  0  0  0  0  0  0  0
   -2.2166   -0.4790   -0.2994 H   0  0  0  0  0  0  0  0  0  0  0  0
   -0.1956   -0.2250    0.2596 C   0  0  1  0  0  0  0  0  0  0  0  0
    0.3927   -0.6026    1.0964 H   0  0  0  0  0  0  0  0  0  0  0  0
    0.5767   -0.5489   -1.0351 C   0  0  0  0  0  0  0  0  0  0  0  0
    1.1763   -1.4424   -0.8544 H   0  0  0  0  0  0  0  0  0  0  0  0
   -0.1342   -0.7666   -1.8336 H   0  0  0  0  0  0  0  0  0  0  0  0
    1.5136    0.5834   -1.4886 C   0  0  0  0  0  0  0  0  0  0  0  0
    2.5476    0.2944   -1.2858 H   0  0  0  0  0  0  0  0  0  0  0  0
    1.4040    0.7073   -2.5692 H   0  0  0  0  0  0  0  0  0  0  0  0
    1.2314    1.9239   -0.7940 C   0  0  0  0  0  0  0  0  0  0  0  0
    0.2231    2.0107   -0.0576 O   0  5  0  0  0  0  0  0  0  0  0  0
    2.0545    2.8443   -0.9955 O   0  0  0  0  0  0  0  0  0  0  0  0
   -0.3954    1.2887    0.4814 C   0  0  0  0  0  0  0  0  0  0  0  0
   -1.2761    1.9015   -0.1256 O   0  0  0  0  0  0  0  0  0  0  0  0
    0.4051    1.8919    1.3699 N   0  0  0  0  0  0  0  0  0  0  0  0
    1.1380    1.3380    1.7875 H   0  0  0  0  0  0  0  0  0  0  0  0
    0.3573    3.3183    1.6807 C   0  0  0  0  0  0  0  0  0  0  0  0
   -0.6670    3.6090    1.9198 H   0  0  0  0  0  0  0  0  0  0  0  0
    1.0066    3.5397    2.5289 H   0  0  0  0  0  0  0  0  0  0  0  0
    0.6896    3.8897    0.8118 H   0  0  0  0  0  0  0  0  0  0  0  0
  5  6  2  0  0  0  0
  5  7  1  0  0  0  0
  2  3  1  0  0  0  0
  2  4  1  0  0  0  0
  2  5  1  0  0  0  0
  1  2  1  0  0  0  0
 20 21  2  0  0  0  0
 20 22  1  0  0  0  0
 17 18  1  0  0  0  0
 17 19  2  0  0  0  0
 14 15  1  0  0  0  0
 14 16  1  0  0  0  0
 14 17  1  0  0  0  0
 11 12  1  0  0  0  0
 11 13  1  0  0  0  0
 11 14  1  0  0  0  0
  9 10  1  0  0  0  0
  9 11  1  0  0  0  0
  9 20  1  0  0  0  0
  7  8  1  0  0  0  0
  7  9  1  0  0  0  0
 24 25  1  0  0  0  0
 24 26  1  0  0  0  0
 24 27  1  0  0  0  0
 22 23  1  0  0  0  0
 22 24  1  0  0  0  0
M  CHG  1  18  -1
M  END
$$$$
default_name
  -OEChem-02102213163D

 27 26  0     1  0  0  0  0  0999 V2000
   -3.2406   -3.5400    1.2326 H   0  0  0  0  0  0  0  0  0  0  0  0
   -3.1436   -2.6190    0.6606 C   0  0  0  0  0  0  0  0  0  0  0  0
   -3.8786   -1.8920    0.9996 H   0  0  0  0  0  0  0  0  0  0  0  0
   -3.2846   -2.8280   -0.3984 H   0  0  0  0  0  0  0  0  0  0  0  0
   -1.7586   -2.0580    0.8686 C   0  0  0  0  0  0  0  0  0  0  0  0
   -0.9666   -2.6340    1.6026 O   0  0  0  0  0  0  0  0  0  0  0  0
   -1.4866   -0.9220    0.2366 N   0  0  0  0  0  0  0  0  0  0  0  0
   -2.2166   -0.4790   -0.2994 H   0  0  0  0  0  0  0  0  0  0  0  0
   -0.1956   -0.2250    0.2596 C   0  0  1  0  0  0  0  0  0  0  0  0
    0.3927   -0.6026    1.0964 H   0  0  0  0  0  0  0  0  0  0  0  0
    0.5767   -0.5489   -1.0351 C   0  0  0  0  0  0  0  0  0  0  0  0
    1.1763   -1.4424   -0.8544 H   0  0  0  0  0  0  0  0  0  0  0  0
   -0.1342   -0.7666   -1.8336 H   0  0  0  0  0  0  0  0  0  0  0  0
    1.5136    0.5834   -1.4886 C   0  0  0  0  0  0  0  0  0  0  0  0
    2.5364    0.2023   -1.5389 H   0  0  0  0  0  0  0  0  0  0  0  0
    1.2183    0.8904   -2.4954 H   0  0  0  0  0  0  0  0  0  0  0  0
    1.4883    1.8056   -0.5587 C   0  0  0  0  0  0  0  0  0  0  0  0
    0.6454    1.8310    0.3661 O   0  5  0  0  0  0  0  0  0  0  0  0
    2.3409    2.6947   -0.7775 O   0  0  0  0  0  0  0  0  0  0  0  0
   -0.3954    1.2887    0.4814 C   0  0  0  0  0  0  0  0  0  0  0  0
   -1.2761    1.9015   -0.1256 O   0  0  0  0  0  0  0  0  0  0  0  0
    0.4051    1.8919    1.3699 N   0  0  0  0  0  0  0  0  0  0  0  0
    1.1380    1.3380    1.7875 H   0  0  0  0  0  0  0  0  0  0  0  0
    0.3573    3.3183    1.6807 C   0  0  0  0  0  0  0  0  0  0  0  0
   -0.6670    3.6090    1.9198 H   0  0  0  0  0  0  0  0  0  0  0  0
    1.0066    3.5397    2.5289 H   0  0  0  0  0  0  0  0  0  0  0  0
    0.6896    3.8897    0.8118 H   0  0  0  0  0  0  0  0  0  0  0  0
  5  6  2  0  0  0  0
  5  7  1  0  0  0  0
  2  3  1  0  0  0  0
  2  4  1  0  0  0  0
  2  5  1  0  0  0  0
  1  2  1  0  0  0  0
 20 21  2  0  0  0  0
 20 22  1  0  0  0  0
 17 18  1  0  0  0  0
 17 19  2  0  0  0  0
 14 15  1  0  0  0  0
 14 16  1  0  0  0  0
 14 17  1  0  0  0  0
 11 12  1  0  0  0  0
 11 13  1  0  0  0  0
 11 14  1  0  0  0  0
  9 10  1  0  0  0  0
  9 11  1  0  0  0  0
  9 20  1  0  0  0  0
  7  8  1  0  0  0  0
  7  9  1  0  0  0  0
 24 25  1  0  0  0  0
 24 26  1  0  0  0  0
 24 27  1  0  0  0  0
 22 23  1  0  0  0  0
 22 24  1  0  0  0  0
M  CHG  1  18  -1
M  END
$$$$
default_name
  -OEChem-02102213163D

 27 26  0     1  0  0  0  0  0999 V2000
   -3.2406   -3.5400    1.2326 H   0  0  0  0  0  0  0  0  0  0  0  0
   -3.1436   -2.6190    0.6606 C   0  0  0  0  0  0  0  0  0  0  0  0
   -3.8786   -1.8920    0.9996 H   0  0  0  0  0  0  0  0  0  0  0  0
   -3.2846   -2.8280   -0.3984 H   0  0  0  0  0  0  0  0  0  0  0  0
   -1.7586   -2.0580    0.8686 C   0  0  0  0  0  0  0  0  0  0  0  0
   -0.9666   -2.6340    1.6026 O   0  0  0  0  0  0  0  0  0  0  0  0
   -1.4866   -0.9220    0.2366 N   0  0  0  0  0  0  0  0  0  0  0  0
   -2.2166   -0.4790   -0.2994 H   0  0  0  0  0  0  0  0  0  0  0  0
   -0.1956   -0.2250    0.2596 C   0  0  1  0  0  0  0  0  0  0  0  0
    0.3927   -0.6026    1.0964 H   0  0  0  0  0  0  0  0  0  0  0  0
    0.5767   -0.5489   -1.0351 C   0  0  0  0  0  0  0  0  0  0  0  0
    1.1763   -1.4424   -0.8544 H   0  0  0  0  0  0  0  0  0  0  0  0
   -0.1342   -0.7666   -1.8336 H   0  0  0  0  0  0  0  0  0  0  0  0
    1.5136    0.5834   -1.4886 C   0  0  0  0  0  0  0  0  0  0  0  0
    2.4703    0.1542   -1.7958 H   0  0  0  0  0  0  0  0  0  0  0  0
    1.0671    1.0698   -2.3599 H   0  0  0  0  0  0  0  0  0  0  0  0
    1.7723    1.6346   -0.3991 C   0  0  0  0  0  0  0  0  0  0  0  0
    1.1204    1.5584    0.6666 O   0  5  0  0  0  0  0  0  0  0  0  0
    2.6477    2.4939   -0.6451 O   0  0  0  0  0  0  0  0  0  0  0  0
   -0.3954    1.2887    0.4814 C   0  0  0  0  0  0  0  0  0  0  0  0
   -1.2761    1.9015   -0.1256 O   0  0  0  0  0  0  0  0  0  0  0  0
    0.4051    1.8919    1.3699 N   0  0  0  0  0  0  0  0  0  0  0  0
    1.1380    1.3380    1.7875 H   0  0  0  0  0  0  0  0  0  0  0  0
    0.3573    3.3183    1.6807 C   0  0  0  0  0  0  0  0  0  0  0  0
   -0.6670    3.6090    1.9198 H   0  0  0  0  0  0  0  0  0  0  0  0
    1.0066    3.5397    2.5289 H   0  0  0  0  0  0  0  0  0  0  0  0
    0.6896    3.8897    0.8118 H   0  0  0  0  0  0  0  0  0  0  0  0
  5  6  2  0  0  0  0
  5  7  1  0  0  0  0
  2  3  1  0  0  0  0
  2  4  1  0  0  0  0
  2  5  1  0  0  0  0
  1  2  1  0  0  0  0
 20 21  2  0  0  0  0
 20 22  1  0  0  0  0
 17 18  1  0  0  0  0
 17 19  2  0  0  0  0
 14 15  1  0  0  0  0
 14 16  1  0  0  0  0
 14 17  1  0  0  0  0
 11 12  1  0  0  0  0
 11 13  1  0  0  0  0
 11 14  1  0  0  0  0
  9 10  1  0  0  0  0
  9 11  1  0  0  0  0
  9 20  1  0  0  0  0
  7  8  1  0  0  0  0
  7  9  1  0  0  0  0
 24 25  1  0  0  0  0
 24 26  1  0  0  0  0
 24 27  1  0  0  0  0
 22 23  1  0  0  0  0
 22 24  1  0  0  0  0
M  CHG  1  18  -1
M  END
$$$$
default_name
  -OEChem-02102213163D

 27 26  0     1  0  0  0  0  0999 V2000
   -3.2406   -3.5400    1.2326 H   0  0  0  0  0  0  0  0  0  0  0  0
   -3.1436   -2.6190    0.6606 C   0  0  0  0  0  0  0  0  0  0  0  0
   -3.8786   -1.8920    0.9996 H   0  0  0  0  0  0  0  0  0  0  0  0
   -3.2846   -2.8280   -0.3984 H   0  0  0  0  0  0  0  0  0  0  0  0
   -1.7586   -2.0580    0.8686 C   0  0  0  0  0  0  0  0  0  0  0  0
   -0.9666   -2.6340    1.6026 O   0  0  0  0  0  0  0  0  0  0  0  0
   -1.4866   -0.9220    0.2366 N   0  0  0  0  0  0  0  0  0  0  0  0
   -2.2166   -0.4790   -0.2994 H   0  0  0  0  0  0  0  0  0  0  0  0
   -0.1956   -0.2250    0.2596 C   0  0  1  0  0  0  0  0  0  0  0  0
    0.3927   -0.6026    1.0964 H   0  0  0  0  0  0  0  0  0  0  0  0
    0.5767   -0.5489   -1.0351 C   0  0  0  0  0  0  0  0  0  0  0  0
    1.1763   -1.4424   -0.8544 H   0  0  0  0  0  0  0  0  0  0  0  0
   -0.1342   -0.7666   -1.8336 H   0  0  0  0  0  0  0  0  0  0  0  0
    1.5136    0.5834   -1.4886 C   0  0  0  0  0  0  0  0  0  0  0  0
    2.3538    0.1532   -2.0389 H   0  0  0  0  0  0  0  0  0  0  0  0
    0.9605    1.2333   -2.1719 H   0  0  0  0  0  0  0  0  0  0  0  0
    2.0640    1.4226   -0.3259 C   0  0  0  0  0  0  0  0  0  0  0  0
    1.6156    1.2115    0.8234 O   0  5  0  0  0  0  0  0  0  0  0  0
    2.9540    2.2556   -0.6074 O   0  0  0  0  0  0  0  0  0  0  0  0
   -0.3954    1.2887    0.4814 C   0  0  0  0  0  0  0  0  0  0  0  0
   -1.2761    1.9015   -0.1256 O   0  0  0  0  0  0  0  0  0  0  0  0
    0.4051    1.8919    1.3699 N   0  0  0  0  0  0  0  0  0  0  0  0
    1.1380    1.3380    1.7875 H   0  0  0  0  0  0  0  0  0  0  0  0
    0.3573    3.3183    1.6807 C   0  0  0  0  0  0  0  0  0  0  0  0
   -0.6670    3.6090    1.9198 H   0  0  0  0  0  0  0  0  0  0  0  0
    1.0066    3.5397    2.5289 H   0  0  0  0  0  0  0  0  0  0  0  0
    0.6896    3.8897    0.8118 H   0  0  0  0  0  0  0  0  0  0  0  0
  5  6  2  0  0  0  0
  5  7  1  0  0  0  0
  2  3  1  0  0  0  0
  2  4  1  0  0  0  0
  2  5  1  0  0  0  0
  1  2  1  0  0  0  0
 20 21  2  0  0  0  0
 20 22  1  0  0  0  0
 17 18  1  0  0  0  0
 17 19  2  0  0  0  0
 14 15  1  0  0  0  0
 14 16  1  0  0  0  0
 14 17  1  0  0  0  0
 11 12  1  0  0  0  0
 11 13  1  0  0  0  0
 11 14  1  0  0  0  0
  9 10  1  0  0  0  0
  9 11  1  0  0  0  0
  9 20  1  0  0  0  0
  7  8  1  0  0  0  0
  7  9  1  0  0  0  0
 24 25  1  0  0  0  0
 24 26  1  0  0  0  0
 24 27  1  0  0  0  0
 22 23  1  0  0  0  0
 22 24  1  0  0  0  0
M  CHG  1  18  -1
M  END
$$$$
default_name
  -OEChem-02102213163D

 27 26  0     1  0  0  0  0  0999 V2000
   -3.2406   -3.5400    1.2326 H   0  0  0  0  0  0  0  0  0  0  0  0
   -3.1436   -2.6190    0.6606 C   0  0  0  0  0  0  0  0  0  0  0  0
   -3.8786   -1.8920    0.9996 H   0  0  0  0  0  0  0  0  0  0  0  0
   -3.2846   -2.8280   -0.3984 H   0  0  0  0  0  0  0  0  0  0  0  0
   -1.7586   -2.0580    0.8686 C   0  0  0  0  0  0  0  0  0  0  0  0
   -0.9666   -2.6340    1.6026 O   0  0  0  0  0  0  0  0  0  0  0  0
   -1.4866   -0.9220    0.2366 N   0  0  0  0  0  0  0  0  0  0  0  0
   -2.2166   -0.4790   -0.2994 H   0  0  0  0  0  0  0  0  0  0  0  0
   -0.1956   -0.2250    0.2596 C   0  0  1  0  0  0  0  0  0  0  0  0
    0.3927   -0.6026    1.0964 H   0  0  0  0  0  0  0  0  0  0  0  0
    0.5767   -0.5489   -1.0351 C   0  0  0  0  0  0  0  0  0  0  0  0
    1.1763   -1.4424   -0.8544 H   0  0  0  0  0  0  0  0  0  0  0  0
   -0.1342   -0.7666   -1.8336 H   0  0  0  0  0  0  0  0  0  0  0  0
    1.5136    0.5834   -1.4886 C   0  0  0  0  0  0  0  0  0  0  0  0
    2.1949    0.1994   -2.2516 H   0  0  0  0  0  0  0  0  0  0  0  0
    0.9059    1.3697   -1.9443 H   0  0  0  0  0  0  0  0  0  0  0  0
    2.3435    1.1840   -0.3442 C   0  0  0  0  0  0  0  0  0  0  0  0
    2.0973    0.8138    0.8258 O   0  5  0  0  0  0  0  0  0  0  0  0
    3.2388    1.9962   -0.6668 O   0  0  0  0  0  0  0  0  0  0  0  0
   -0.3954    1.2887    0.4814 C   0  0  0  0  0  0  0  0  0  0  0  0
   -1.2761    1.9015   -0.1256 O   0  0  0  0  0  0  0  0  0  0  0  0
    0.4051    1.8919    1.3699 N   0  0  0  0  0  0  0  0  0  0  0  0
    1.1380    1.3380    1.7875 H   0  0  0  0  0  0  0  0  0  0  0  0
    0.3573    3.3183    1.6807 C   0  0  0  0  0  0  0  0  0  0  0  0
   -0.6670    3.6090    1.9198 H   0  0  0  0  0  0  0  0  0  0  0  0
    1.0066    3.5397    2.5289 H   0  0  0  0  0  0  0  0  0  0  0  0
    0.6896    3.8897    0.8118 H   0  0  0  0  0  0  0  0  0  0  0  0
  5  6  2  0  0  0  0
  5  7  1  0  0  0  0
  2  3  1  0  0  0  0
  2  4  1  0  0  0  0
  2  5  1  0  0  0  0
  1  2  1  0  0  0  0
 20 21  2  0  0  0  0
 20 22  1  0  0  0  0
 17 18  1  0  0  0  0
 17 19  2  0  0  0  0
 14 15  1  0  0  0  0
 14 16  1  0  0  0  0
 14 17  1  0  0  0  0
 11 12  1  0  0  0  0
 11 13  1  0  0  0  0
 11 14  1  0  0  0  0
  9 10  1  0  0  0  0
  9 11  1  0  0  0  0
  9 20  1  0  0  0  0
  7  8  1  0  0  0  0
  7  9  1  0  0  0  0
 24 25  1  0  0  0  0
 24 26  1  0  0  0  0
 24 27  1  0  0  0  0
 22 23  1  0  0  0  0
 22 24  1  0  0  0  0
M  CHG  1  18  -1
M  END
$$$$
default_name
  -OEChem-02102213163D

 27 26  0     1  0  0  0  0  0999 V2000
   -3.2406   -3.5400    1.2326 H   0  0  0  0  0  0  0  0  0  0  0  0
   -3.1436   -2.6190    0.6606 C   0  0  0  0  0  0  0  0  0  0  0  0
   -3.8786   -1.8920    0.9996 H   0  0  0  0  0  0  0  0  0  0  0  0
   -3.2846   -2.8280   -0.3984 H   0  0  0  0  0  0  0  0  0  0  0  0
   -1.7586   -2.0580    0.8686 C   0  0  0  0  0  0  0  0  0  0  0  0
   -0.9666   -2.6340    1.6026 O   0  0  0  0  0  0  0  0  0  0  0  0
   -1.4866   -0.9220    0.2366 N   0  0  0  0  0  0  0  0  0  0  0  0
   -2.2166   -0.4790   -0.2994 H   0  0  0  0  0  0  0  0  0  0  0  0
   -0.1956   -0.2250    0.2596 C   0  0  1  0  0  0  0  0  0  0  0  0
    0.3927   -0.6026    1.0964 H   0  0  0  0  0  0  0  0  0  0  0  0
    0.5767   -0.5489   -1.0351 C   0  0  0  0  0  0  0  0  0  0  0  0
    1.1763   -1.4424   -0.8544 H   0  0  0  0  0  0  0  0  0  0  0  0
   -0.1342   -0.7666   -1.8336 H   0  0  0  0  0  0  0  0  0  0  0  0
    1.5136    0.5834   -1.4886 C   0  0  0  0  0  0  0  0  0  0  0  0
    2.0044    0.2898   -2.4196 H   0  0  0  0  0  0  0  0  0  0  0  0
    0.9069    1.4697   -1.6924 H   0  0  0  0  0  0  0  0  0  0  0  0
    2.5917    0.9351   -0.4528 C   0  0  0  0  0  0  0  0  0  0  0  0
    2.5327    0.3926    0.6736 O   0  5  0  0  0  0  0  0  0  0  0  0
    3.4827    1.7332   -0.8194 O   0  0  0  0  0  0  0  0  0  0  0  0
   -0.3954    1.2887    0.4814 C   0  0  0  0  0  0  0  0  0  0  0  0
   -1.2761    1.9015   -0.1256 O   0  0  0  0  0  0  0  0  0  0  0  0
    0.4051    1.8919    1.3699 N   0  0  0  0  0  0  0  0  0  0  0  0
    1.1380    1.3380    1.7875 H   0  0  0  0  0  0  0  0  0  0  0  0
    0.3573    3.3183    1.6807 C   0  0  0  0  0  0  0  0  0  0  0  0
   -0.6670    3.6090    1.9198 H   0  0  0  0  0  0  0  0  0  0  0  0
    1.0066    3.5397    2.5289 H   0  0  0  0  0  0  0  0  0  0  0  0
    0.6896    3.8897    0.8118 H   0  0  0  0  0  0  0  0  0  0  0  0
  5  6  2  0  0  0  0
  5  7  1  0  0  0  0
  2  3  1  0  0  0  0
  2  4  1  0  0  0  0
  2  5  1  0  0  0  0
  1  2  1  0  0  0  0
 20 21  2  0  0  0  0
 20 22  1  0  0  0  0
 17 18  1  0  0  0  0
 17 19  2  0  0  0  0
 14 15  1  0  0  0  0
 14 16  1  0  0  0  0
 14 17  1  0  0  0  0
 11 12  1  0  0  0  0
 11 13  1  0  0  0  0
 11 14  1  0  0  0  0
  9 10  1  0  0  0  0
  9 11  1  0  0  0  0
  9 20  1  0  0  0  0
  7  8  1  0  0  0  0
  7  9  1  0  0  0  0
 24 25  1  0  0  0  0
 24 26  1  0  0  0  0
 24 27  1  0  0  0  0
 22 23  1  0  0  0  0
 22 24  1  0  0  0  0
M  CHG  1  18  -1
M  END
$$$$
default_name
  -OEChem-02102213163D

 27 26  0     1  0  0  0  0  0999 V2000
   -3.2406   -3.5400    1.2326 H   0  0  0  0  0  0  0  0  0  0  0  0
   -3.1436   -2.6190    0.6606 C   0  0  0  0  0  0  0  0  0  0  0  0
   -3.8786   -1.8920    0.9996 H   0  0  0  0  0  0  0  0  0  0  0  0
   -3.2846   -2.8280   -0.3984 H   0  0  0  0  0  0  0  0  0  0  0  0
   -1.7586   -2.0580    0.8686 C   0  0  0  0  0  0  0  0  0  0  0  0
   -0.9666   -2.6340    1.6026 O   0  0  0  0  0  0  0  0  0  0  0  0
   -1.4866   -0.9220    0.2366 N   0  0  0  0  0  0  0  0  0  0  0  0
   -2.2166   -0.4790   -0.2994 H   0  0  0  0  0  0  0  0  0  0  0  0
   -0.1956   -0.2250    0.2596 C   0  0  1  0  0  0  0  0  0  0  0  0
    0.3927   -0.6026    1.0964 H   0  0  0  0  0  0  0  0  0  0  0  0
    0.5767   -0.5489   -1.0351 C   0  0  0  0  0  0  0  0  0  0  0  0
    1.1763   -1.4424   -0.8544 H   0  0  0  0  0  0  0  0  0  0  0  0
   -0.1342   -0.7666   -1.8336 H   0  0  0  0  0  0  0  0  0  0  0  0
    1.5136    0.5834   -1.4886 C   0  0  0  0  0  0  0  0  0  0  0  0
    1.7953    0.4181   -2.5313 H   0  0  0  0  0  0  0  0  0  0  0  0
    0.9634    1.5266   -1.4336 H   0  0  0  0  0  0  0  0  0  0  0  0
    2.7919    0.6928   -0.6442 C   0  0  0  0  0  0  0  0  0  0  0  0
    2.8922   -0.0235    0.3772 O   0  5  0  0  0  0  0  0  0  0  0  0
    3.6693    1.4846   -1.0547 O   0  0  0  0  0  0  0  0  0  0  0  0
   -0.3954    1.2887    0.4814 C   0  0  0  0  0  0  0  0  0  0  0  0
   -1.2761    1.9015   -0.1256 O   0  0  0  0  0  0  0  0  0  0  0  0
    0.4051    1.8919    1.3699 N   0  0  0  0  0  0  0  0  0  0  0  0
    1.1380    1.3380    1.7875 H   0  0  0  0  0  0  0  0  0  0  0  0
    0.3573    3.3183    1.6807 C   0  0  0  0  0  0  0  0  0  0  0  0
   -0.6670    3.6090    1.9198 H   0  0  0  0  0  0  0  0  0  0  0  0
    1.0066    3.5397    2.5289 H   0  0  0  0  0  0  0  0  0  0  0  0
    0.6896    3.8897    0.8118 H   0  0  0  0  0  0  0  0  0  0  0  0
  5  6  2  0  0  0  0
  5  7  1  0  0  0  0
  2  3  1  0  0  0  0
  2  4  1  0  0  0  0
  2  5  1  0  0  0  0
  1  2  1  0  0  0  0
 20 21  2  0  0  0  0
 20 22  1  0  0  0  0
 17 18  1  0  0  0  0
 17 19  2  0  0  0  0
 14 15  1  0  0  0  0
 14 16  1  0  0  0  0
 14 17  1  0  0  0  0
 11 12  1  0  0  0  0
 11 13  1  0  0  0  0
 11 14  1  0  0  0  0
  9 10  1  0  0  0  0
  9 11  1  0  0  0  0
  9 20  1  0  0  0  0
  7  8  1  0  0  0  0
  7  9  1  0  0  0  0
 24 25  1  0  0  0  0
 24 26  1  0  0  0  0
 24 27  1  0  0  0  0
 22 23  1  0  0  0  0
 22 24  1  0  0  0  0
M  CHG  1  18  -1
M  END
$$$$
default_name
  -OEChem-02102213163D

 27 26  0     1  0  0  0  0  0999 V2000
   -3.2406   -3.5400    1.2326 H   0  0  0  0  0  0  0  0  0  0  0  0
   -3.1436   -2.6190    0.6606 C   0  0  0  0  0  0  0  0  0  0  0  0
   -3.8786   -1.8920    0.9996 H   0  0  0  0  0  0  0  0  0  0  0  0
   -3.2846   -2.8280   -0.3984 H   0  0  0  0  0  0  0  0  0  0  0  0
   -1.7586   -2.0580    0.8686 C   0  0  0  0  0  0  0  0  0  0  0  0
   -0.9666   -2.6340    1.6026 O   0  0  0  0  0  0  0  0  0  0  0  0
   -1.4866   -0.9220    0.2366 N   0  0  0  0  0  0  0  0  0  0  0  0
   -2.2166   -0.4790   -0.2994 H   0  0  0  0  0  0  0  0  0  0  0  0
   -0.1956   -0.2250    0.2596 C   0  0  1  0  0  0  0  0  0  0  0  0
    0.3927   -0.6026    1.0964 H   0  0  0  0  0  0  0  0  0  0  0  0
    0.5767   -0.5489   -1.0351 C   0  0  0  0  0  0  0  0  0  0  0  0
    1.1763   -1.4424   -0.8544 H   0  0  0  0  0  0  0  0  0  0  0  0
   -0.1342   -0.7666   -1.8336 H   0  0  0  0  0  0  0  0  0  0  0  0
    1.5136    0.5834   -1.4886 C   0  0  0  0  0  0  0  0  0  0  0  0
    1.5818    0.5756   -2.5791 H   0  0  0  0  0  0  0  0  0  0  0  0
    1.0717    1.5363   -1.1854 H   0  0  0  0  0  0  0  0  0  0  0  0
    2.9302    0.4738   -0.9055 C   0  0  0  0  0  0  0  0  0  0  0  0
    3.1512   -0.4061   -0.0432 O   0  5  0  0  0  0  0  0  0  0  0  0
    3.7856    1.2674   -1.3568 O   0  0  0  0  0  0  0  0  0  0  0  0
   -0.3954    1.2887    0.4814 C   0  0  0  0  0  0  0  0  0  0  0  0
   -1.2761    1.9015   -0.1256 O   0  0  0  0  0  0  0  0  0  0  0  0
    0.4051    1.8919    1.3699 N   0  0  0  0  0  0  0  0  0  0  0  0
    1.1380    1.3380    1.7875 H   0  0  0  0  0  0  0  0  0  0  0  0
    0.3573    3.3183    1.6807 C   0  0  0  0  0  0  0  0  0  0  0  0
   -0.6670    3.6090    1.9198 H   0  0  0  0  0  0  0  0  0  0  0  0
    1.0066    3.5397    2.5289 H   0  0  0  0  0  0  0  0  0  0  0  0
    0.6896    3.8897    0.8118 H   0  0  0  0  0  0  0  0  0  0  0  0
  5  6  2  0  0  0  0
  5  7  1  0  0  0  0
  2  3  1  0  0  0  0
  2  4  1  0  0  0  0
  2  5  1  0  0  0  0
  1  2  1  0  0  0  0
 20 21  2  0  0  0  0
 20 22  1  0  0  0  0
 17 18  1  0  0  0  0
 17 19  2  0  0  0  0
 14 15  1  0  0  0  0
 14 16  1  0  0  0  0
 14 17  1  0  0  0  0
 11 12  1  0  0  0  0
 11 13  1  0  0  0  0
 11 14  1  0  0  0  0
  9 10  1  0  0  0  0
  9 11  1  0  0  0  0
  9 20  1  0  0  0  0
  7  8  1  0  0  0  0
  7  9  1  0  0  0  0
 24 25  1  0  0  0  0
 24 26  1  0  0  0  0
 24 27  1  0  0  0  0
 22 23  1  0  0  0  0
 22 24  1  0  0  0  0
M  CHG  1  18  -1
M  END
$$$$
default_name
  -OEChem-02102213163D

 27 26  0     1  0  0  0  0  0999 V2000
   -3.2406   -3.5400    1.2326 H   0  0  0  0  0  0  0  0  0  0  0  0
   -3.1436   -2.6190    0.6606 C   0  0  0  0  0  0  0  0  0  0  0  0
   -3.8786   -1.8920    0.9996 H   0  0  0  0  0  0  0  0  0  0  0  0
   -3.2846   -2.8280   -0.3984 H   0  0  0  0  0  0  0  0  0  0  0  0
   -1.7586   -2.0580    0.8686 C   0  0  0  0  0  0  0  0  0  0  0  0
   -0.9666   -2.6340    1.6026 O   0  0  0  0  0  0  0  0  0  0  0  0
   -1.4866   -0.9220    0.2366 N   0  0  0  0  0  0  0  0  0  0  0  0
   -2.2166   -0.4790   -0.2994 H   0  0  0  0  0  0  0  0  0  0  0  0
   -0.1956   -0.2250    0.2596 C   0  0  1  0  0  0  0  0  0  0  0  0
    0.3927   -0.6026    1.0964 H   0  0  0  0  0  0  0  0  0  0  0  0
    0.5767   -0.5489   -1.0351 C   0  0  0  0  0  0  0  0  0  0  0  0
    1.1763   -1.4424   -0.8544 H   0  0  0  0  0  0  0  0  0  0  0  0
   -0.1342   -0.7666   -1.8336 H   0  0  0  0  0  0  0  0  0  0  0  0
    1.5136    0.5834   -1.4886 C   0  0  0  0  0  0  0  0  0  0  0  0
    1.3785    0.7515   -2.5598 H   0  0  0  0  0  0  0  0  0  0  0  0
    1.2244    1.4984   -0.9648 H   0  0  0  0  0  0  0  0  0  0  0  0
    2.9973    0.2928   -1.2187 C   0  0  0  0  0  0  0  0  0  0  0  0
    3.2920   -0.7292   -0.5589 O   0  5  0  0  0  0  0  0  0  0  0  0
    3.8239    1.0963   -1.7049 O   0  0  0  0  0  0  0  0  0  0  0  0
   -0.3954    1.2887    0.4814 C   0  0  0  0  0  0  0  0  0  0  0  0
   -1.2761    1.9015   -0.1256 O   0  0  0  0  0  0  0  0  0  0  0  0
    0.4051    1.8919    1.3699 N   0  0  0  0  0  0  0  0  0  0  0  0
    1.1380    1.3380    1.7875 H   0  0  0  0  0  0  0  0  0  0  0  0
    0.3573    3.3183    1.6807 C   0  0  0  0  0  0  0  0  0  0  0  0
   -0.6670    3.6090    1.9198 H   0  0  0  0  0  0  0  0  0  0  0  0
    1.0066    3.5397    2.5289 H   0  0  0  0  0  0  0  0  0  0  0  0
    0.6896    3.8897    0.8118 H   0  0  0  0  0  0  0  0  0  0  0  0
  5  6  2  0  0  0  0
  5  7  1  0  0  0  0
  2  3  1  0  0  0  0
  2  4  1  0  0  0  0
  2  5  1  0  0  0  0
  1  2  1  0  0  0  0
 20 21  2  0  0  0  0
 20 22  1  0  0  0  0
 17 18  1  0  0  0  0
 17 19  2  0  0  0  0
 14 15  1  0  0  0  0
 14 16  1  0  0  0  0
 14 17  1  0  0  0  0
 11 12  1  0  0  0  0
 11 13  1  0  0  0  0
 11 14  1  0  0  0  0
  9 10  1  0  0  0  0
  9 11  1  0  0  0  0
  9 20  1  0  0  0  0
  7  8  1  0  0  0  0
  7  9  1  0  0  0  0
 24 25  1  0  0  0  0
 24 26  1  0  0  0  0
 24 27  1  0  0  0  0
 22 23  1  0  0  0  0
 22 24  1  0  0  0  0
M  CHG  1  18  -1
M  END
$$$$
default_name
  -OEChem-02102213163D

 27 26  0     1  0  0  0  0  0999 V2000
   -3.2406   -3.5400    1.2326 H   0  0  0  0  0  0  0  0  0  0  0  0
   -3.1436   -2.6190    0.6606 C   0  0  0  0  0  0  0  0  0  0  0  0
   -3.8786   -1.8920    0.9996 H   0  0  0  0  0  0  0  0  0  0  0  0
   -3.2846   -2.8280   -0.3984 H   0  0  0  0  0  0  0  0  0  0  0  0
   -1.7586   -2.0580    0.8686 C   0  0  0  0  0  0  0  0  0  0  0  0
   -0.9666   -2.6340    1.6026 O   0  0  0  0  0  0  0  0  0  0  0  0
   -1.4866   -0.9220    0.2366 N   0  0  0  0  0  0  0  0  0  0  0  0
   -2.2166   -0.4790   -0.2994 H   0  0  0  0  0  0  0  0  0  0  0  0
   -0.1956   -0.2250    0.2596 C   0  0  1  0  0  0  0  0  0  0  0  0
    0.3927   -0.6026    1.0964 H   0  0  0  0  0  0  0  0  0  0  0  0
    0.5767   -0.5489   -1.0351 C   0  0  0  0  0  0  0  0  0  0  0  0
    1.1763   -1.4424   -0.8544 H   0  0  0  0  0  0  0  0  0  0  0  0
   -0.1342   -0.7666   -1.8336 H   0  0  0  0  0  0  0  0  0  0  0  0
    1.5136    0.5834   -1.4886 C   0  0  0  0  0  0  0  0  0  0  0  0
    1.1992    0.9339   -2.4746 H   0  0  0  0  0  0  0  0  0  0  0  0
    1.4110    1.4153   -0.7867 H   0  0  0  0  0  0  0  0  0  0  0  0
    2.9887    0.1622   -1.5626 C   0  0  0  0  0  0  0  0  0  0  0  0
    3.3052   -0.9707   -1.1348 O   0  5  0  0  0  0  0  0  0  0  0  0
    3.7815    0.9830   -2.0755 O   0  0  0  0  0  0  0  0  0  0  0  0
   -0.3954    1.2887    0.4814 C   0  0  0  0  0  0  0  0  0  0  0  0
   -1.2761    1.9015   -0.1256 O   0  0  0  0  0  0  0  0  0  0  0  0
    0.4051    1.8919    1.3699 N   0  0  0  0  0  0  0  0  0  0  0  0
    1.1380    1.3380    1.7875 H   0  0  0  0  0  0  0  0  0  0  0  0
    0.3573    3.3183    1.6807 C   0  0  0  0  0  0  0  0  0  0  0  0
   -0.6670    3.6090    1.9198 H   0  0  0  0  0  0  0  0  0  0  0  0
    1.0066    3.5397    2.5289 H   0  0  0  0  0  0  0  0  0  0  0  0
    0.6896    3.8897    0.8118 H   0  0  0  0  0  0  0  0  0  0  0  0
  5  6  2  0  0  0  0
  5  7  1  0  0  0  0
  2  3  1  0  0  0  0
  2  4  1  0  0  0  0
  2  5  1  0  0  0  0
  1  2  1  0  0  0  0
 20 21  2  0  0  0  0
 20 22  1  0  0  0  0
 17 18  1  0  0  0  0
 17 19  2  0  0  0  0
 14 15  1  0  0  0  0
 14 16  1  0  0  0  0
 14 17  1  0  0  0  0
 11 12  1  0  0  0  0
 11 13  1  0  0  0  0
 11 14  1  0  0  0  0
  9 10  1  0  0  0  0
  9 11  1  0  0  0  0
  9 20  1  0  0  0  0
  7  8  1  0  0  0  0
  7  9  1  0  0  0  0
 24 25  1  0  0  0  0
 24 26  1  0  0  0  0
 24 27  1  0  0  0  0
 22 23  1  0  0  0  0
 22 24  1  0  0  0  0
M  CHG  1  18  -1
M  END
$$$$
default_name
  -OEChem-02102213163D

 27 26  0     1  0  0  0  0  0999 V2000
   -3.2406   -3.5400    1.2326 H   0  0  0  0  0  0  0  0  0  0  0  0
   -3.1436   -2.6190    0.6606 C   0  0  0  0  0  0  0  0  0  0  0  0
   -3.8786   -1.8920    0.9996 H   0  0  0  0  0  0  0  0  0  0  0  0
   -3.2846   -2.8280   -0.3984 H   0  0  0  0  0  0  0  0  0  0  0  0
   -1.7586   -2.0580    0.8686 C   0  0  0  0  0  0  0  0  0  0  0  0
   -0.9666   -2.6340    1.6026 O   0  0  0  0  0  0  0  0  0  0  0  0
   -1.4866   -0.9220    0.2366 N   0  0  0  0  0  0  0  0  0  0  0  0
   -2.2166   -0.4790   -0.2994 H   0  0  0  0  0  0  0  0  0  0  0  0
   -0.1956   -0.2250    0.2596 C   0  0  1  0  0  0  0  0  0  0  0  0
    0.3927   -0.6026    1.0964 H   0  0  0  0  0  0  0  0  0  0  0  0
    0.5767   -0.5489   -1.0351 C   0  0  0  0  0  0  0  0  0  0  0  0
    1.1763   -1.4424   -0.8544 H   0  0  0  0  0  0  0  0  0  0  0  0
   -0.1342   -0.7666   -1.8336 H   0  0  0  0  0  0  0  0  0  0  0  0
    1.5136    0.5834   -1.4886 C   0  0  0  0  0  0  0  0  0  0  0  0
    1.0562    1.1104   -2.3295 H   0  0  0  0  0  0  0  0  0  0  0  0
    1.6189    1.2927   -0.6634 H   0  0  0  0  0  0  0  0  0  0  0  0
    2.9049    0.0910   -1.9137 C   0  0  0  0  0  0  0  0  0  0  0  0
    3.1897   -1.1141   -1.7317 O   0  5  0  0  0  0  0  0  0  0  0  0
    3.6612    0.9352   -2.4432 O   0  0  0  0  0  0  0  0  0  0  0  0
   -0.3954    1.2887    0.4814 C   0  0  0  0  0  0  0  0  0  0  0  0
   -1.2761    1.9015   -0.1256 O   0  0  0  0  0  0  0  0  0  0  0  0
    0.4051    1.8919    1.3699 N   0  0  0  0  0  0  0  0  0  0  0  0
    1.1380    1.3380    1.7875 H   0  0  0  0  0  0  0  0  0  0  0  0
    0.3573    3.3183    1.6807 C   0  0  0  0  0  0  0  0  0  0  0  0
   -0.6670    3.6090    1.9198 H   0  0  0  0  0  0  0  0  0  0  0  0
    1.0066    3.5397    2.5289 H   0  0  0  0  0  0  0  0  0  0  0  0
    0.6896    3.8897    0.8118 H   0  0  0  0  0  0  0  0  0  0  0  0
  5  6  2  0  0  0  0
  5  7  1  0  0  0  0
  2  3  1  0  0  0  0
  2  4  1  0  0  0  0
  2  5  1  0  0  0  0
  1  2  1  0  0  0  0
 20 21  2  0  0  0  0
 20 22  1  0  0  0  0
 17 18  1  0  0  0  0
 17 19  2  0  0  0  0
 14 15  1  0  0  0  0
 14 16  1  0  0  0  0
 14 17  1  0  0  0  0
 11 12  1  0  0  0  0
 11 13  1  0  0  0  0
 11 14  1  0  0  0  0
  9 10  1  0  0  0  0
  9 11  1  0  0  0  0
  9 20  1  0  0  0  0
  7  8  1  0  0  0  0
  7  9  1  0  0  0  0
 24 25  1  0  0  0  0
 24 26  1  0  0  0  0
 24 27  1  0  0  0  0
 22 23  1  0  0  0  0
 22 24  1  0  0  0  0
M  CHG  1  18  -1
M  END
$$$$
default_name
  -OEChem-02102213163D

 27 26  0     1  0  0  0  0  0999 V2000
   -3.2406   -3.5400    1.2326 H   0  0  0  0  0  0  0  0  0  0  0  0
   -3.1436   -2.6190    0.6606 C   0  0  0  0  0  0  0  0  0  0  0  0
   -3.8786   -1.8920    0.9996 H   0  0  0  0  0  0  0  0  0  0  0  0
   -3.2846   -2.8280   -0.3984 H   0  0  0  0  0  0  0  0  0  0  0  0
   -1.7586   -2.0580    0.8686 C   0  0  0  0  0  0  0  0  0  0  0  0
   -0.9666   -2.6340    1.6026 O   0  0  0  0  0  0  0  0  0  0  0  0
   -1.4866   -0.9220    0.2366 N   0  0  0  0  0  0  0  0  0  0  0  0
   -2.2166   -0.4790   -0.2994 H   0  0  0  0  0  0  0  0  0  0  0  0
   -0.1956   -0.2250    0.2596 C   0  0  1  0  0  0  0  0  0  0  0  0
    0.3927   -0.6026    1.0964 H   0  0  0  0  0  0  0  0  0  0  0  0
    0.5767   -0.5489   -1.0351 C   0  0  0  0  0  0  0  0  0  0  0  0
    1.1763   -1.4424   -0.8544 H   0  0  0  0  0  0  0  0  0  0  0  0
   -0.1342   -0.7666   -1.8336 H   0  0  0  0  0  0  0  0  0  0  0  0
    1.5136    0.5834   -1.4886 C   0  0  0  0  0  0  0  0  0  0  0  0
    0.9592    1.2689   -2.1342 H   0  0  0  0  0  0  0  0  0  0  0  0
    1.8338    1.1390   -0.6032 H   0  0  0  0  0  0  0  0  0  0  0  0
    2.7515    0.0839   -2.2481 C   0  0  0  0  0  0  0  0  0  0  0  0
    2.9534   -1.1498   -2.3088 O   0  5  0  0  0  0  0  0  0  0  0  0
    3.4713    0.9563   -2.7831 O   0  0  0  0  0  0  0  0  0  0  0  0
   -0.3954    1.2887    0.4814 C   0  0  0  0  0  0  0  0  0  0  0  0
   -1.2761    1.9015   -0.1256 O   0  0  0  0  0  0  0  0  0  0  0  0
    0.4051    1.8919    1.3699 N   0  0  0  0  0  0  0  0  0  0  0  0
    1.1380    1.3380    1.7875 H   0  0  0  0  0  0  0  0  0  0  0  0
    0.3573    3.3183    1.6807 C   0  0  0  0  0  0  0  0  0  0  0  0
   -0.6670    3.6090    1.9198 H   0  0  0  0  0  0  0  0  0  0  0  0
    1.0066    3.5397    2.5289 H   0  0  0  0  0  0  0  0  0  0  0  0
    0.6896    3.8897    0.8118 H   0  0  0  0  0  0  0  0  0  0  0  0
  5  6  2  0  0  0  0
  5  7  1  0  0  0  0
  2  3  1  0  0  0  0
  2  4  1  0  0  0  0
  2  5  1  0  0  0  0
  1  2  1  0  0  0  0
 20 21  2  0  0  0  0
 20 22  1  0  0  0  0
 17 18  1  0  0  0  0
 17 19  2  0  0  0  0
 14 15  1  0  0  0  0
 14 16  1  0  0  0  0
 14 17  1  0  0  0  0
 11 12  1  0  0  0  0
 11 13  1  0  0  0  0
 11 14  1  0  0  0  0
  9 10  1  0  0  0  0
  9 11  1  0  0  0  0
  9 20  1  0  0  0  0
  7  8  1  0  0  0  0
  7  9  1  0  0  0  0
 24 25  1  0  0  0  0
 24 26  1  0  0  0  0
 24 27  1  0  0  0  0
 22 23  1  0  0  0  0
 22 24  1  0  0  0  0
M  CHG  1  18  -1
M  END
$$$$
default_name
  -OEChem-02102213163D

 27 26  0     1  0  0  0  0  0999 V2000
   -3.2406   -3.5400    1.2326 H   0  0  0  0  0  0  0  0  0  0  0  0
   -3.1436   -2.6190    0.6606 C   0  0  0  0  0  0  0  0  0  0  0  0
   -3.8786   -1.8920    0.9996 H   0  0  0  0  0  0  0  0  0  0  0  0
   -3.2846   -2.8280   -0.3984 H   0  0  0  0  0  0  0  0  0  0  0  0
   -1.7586   -2.0580    0.8686 C   0  0  0  0  0  0  0  0  0  0  0  0
   -0.9666   -2.6340    1.6026 O   0  0  0  0  0  0  0  0  0  0  0  0
   -1.4866   -0.9220    0.2366 N   0  0  0  0  0  0  0  0  0  0  0  0
   -2.2166   -0.4790   -0.2994 H   0  0  0  0  0  0  0  0  0  0  0  0
   -0.1956   -0.2250    0.2596 C   0  0  1  0  0  0  0  0  0  0  0  0
    0.3927   -0.6026    1.0964 H   0  0  0  0  0  0  0  0  0  0  0  0
    0.5767   -0.5489   -1.0351 C   0  0  0  0  0  0  0  0  0  0  0  0
    1.1763   -1.4424   -0.8544 H   0  0  0  0  0  0  0  0  0  0  0  0
   -0.1342   -0.7666   -1.8336 H   0  0  0  0  0  0  0  0  0  0  0  0
    1.5136    0.5834   -1.4886 C   0  0  0  0  0  0  0  0  0  0  0  0
    0.9148    1.3986   -1.9021 H   0  0  0  0  0  0  0  0  0  0  0  0
    2.0411    0.9647   -0.6102 H   0  0  0  0  0  0  0  0  0  0  0  0
    2.5392    0.1415   -2.5430 C   0  0  0  0  0  0  0  0  0  0  0  0
    2.6126   -1.0752   -2.8269 O   0  5  0  0  0  0  0  0  0  0  0  0
    3.2248    1.0446   -3.0718 O   0  0  0  0  0  0  0  0  0  0  0  0
   -0.3954    1.2887    0.4814 C   0  0  0  0  0  0  0  0  0  0  0  0
   -1.2761    1.9015   -0.1256 O   0  0  0  0  0  0  0  0  0  0  0  0
    0.4051    1.8919    1.3699 N   0  0  0  0  0  0  0  0  0  0  0  0
    1.1380    1.3380    1.7875 H   0  0  0  0  0  0  0  0  0  0  0  0
    0.3573    3.3183    1.6807 C   0  0  0  0  0  0  0  0  0  0  0  0
   -0.6670    3.6090    1.9198 H   0  0  0  0  0  0  0  0  0  0  0  0
    1.0066    3.5397    2.5289 H   0  0  0  0  0  0  0  0  0  0  0  0
    0.6896    3.8897    0.8118 H   0  0  0  0  0  0  0  0  0  0  0  0
  5  6  2  0  0  0  0
  5  7  1  0  0  0  0
  2  3  1  0  0  0  0
  2  4  1  0  0  0  0
  2  5  1  0  0  0  0
  1  2  1  0  0  0  0
 20 21  2  0  0  0  0
 20 22  1  0  0  0  0
 17 18  1  0  0  0  0
 17 19  2  0  0  0  0
 14 15  1  0  0  0  0
 14 16  1  0  0  0  0
 14 17  1  0  0  0  0
 11 12  1  0  0  0  0
 11 13  1  0  0  0  0
 11 14  1  0  0  0  0
  9 10  1  0  0  0  0
  9 11  1  0  0  0  0
  9 20  1  0  0  0  0
  7  8  1  0  0  0  0
  7  9  1  0  0  0  0
 24 25  1  0  0  0  0
 24 26  1  0  0  0  0
 24 27  1  0  0  0  0
 22 23  1  0  0  0  0
 22 24  1  0  0  0  0
M  CHG  1  18  -1
M  END
$$$$
default_name
  -OEChem-02102213163D

 27 26  0     1  0  0  0  0  0999 V2000
   -3.2406   -3.5400    1.2326 H   0  0  0  0  0  0  0  0  0  0  0  0
   -3.1436   -2.6190    0.6606 C   0  0  0  0  0  0  0  0  0  0  0  0
   -3.8786   -1.8920    0.9996 H   0  0  0  0  0  0  0  0  0  0  0  0
   -3.2846   -2.8280   -0.3984 H   0  0  0  0  0  0  0  0  0  0  0  0
   -1.7586   -2.0580    0.8686 C   0  0  0  0  0  0  0  0  0  0  0  0
   -0.9666   -2.6340    1.6026 O   0  0  0  0  0  0  0  0  0  0  0  0
   -1.4866   -0.9220    0.2366 N   0  0  0  0  0  0  0  0  0  0  0  0
   -2.2166   -0.4790   -0.2994 H   0  0  0  0  0  0  0  0  0  0  0  0
   -0.1956   -0.2250    0.2596 C   0  0  1  0  0  0  0  0  0  0  0  0
    0.3927   -0.6026    1.0964 H   0  0  0  0  0  0  0  0  0  0  0  0
    0.5767   -0.5489   -1.0351 C   0  0  0  0  0  0  0  0  0  0  0  0
    0.9576   -1.5681   -0.9534 H   0  0  0  0  0  0  0  0  0  0  0  0
   -0.1077   -0.5037   -1.8835 H   0  0  0  0  0  0  0  0  0  0  0  0
    1.7628    0.3957   -1.2930 C   0  0  0  0  0  0  0  0  0  0  0  0
    1.3952    1.4229   -1.3522 H   0  0  0  0  0  0  0  0  0  0  0  0
    2.4448    0.3303   -0.4411 H   0  0  0  0  0  0  0  0  0  0  0  0
    2.5313    0.0722   -2.5828 C   0  0  0  0  0  0  0  0  0  0  0  0
    2.2271   -0.9668   -3.2108 O   0  5  0  0  0  0  0  0  0  0  0  0
    3.4055    0.8945   -2.9362 O   0  0  0  0  0  0  0  0  0  0  0  0
   -0.3954    1.2887    0.4814 C   0  0  0  0  0  0  0  0  0  0  0  0
   -1.2761    1.9015   -0.1256 O   0  0  0  0  0  0  0  0  0  0  0  0
    0.4051    1.8919    1.3699 N   0  0  0  0  0  0  0  0  0  0  0  0
    1.1380    1.3380    1.7875 H   0  0  0  0  0  0  0  0  0  0  0  0
    0.3573    3.3183    1.6807 C   0  0  0  0  0  0  0  0  0  0  0  0
   -0.6670    3.6090    1.9198 H   0  0  0  0  0  0  0  0  0  0  0  0
    1.0066    3.5397    2.5289 H   0  0  0  0  0  0  0  0  0  0  0  0
    0.6896    3.8897    0.8118 H   0  0  0  0  0  0  0  0  0  0  0  0
  5  6  2  0  0  0  0
  5  7  1  0  0  0  0
  2  3  1  0  0  0  0
  2  4  1  0  0  0  0
  2  5  1  0  0  0  0
  1  2  1  0  0  0  0
 20 21  2  0  0  0  0
 20 22  1  0  0  0  0
 17 18  1  0  0  0  0
 17 19  2  0  0  0  0
 14 15  1  0  0  0  0
 14 16  1  0  0  0  0
 14 17  1  0  0  0  0
 11 12  1  0  0  0  0
 11 13  1  0  0  0  0
 11 14  1  0  0  0  0
  9 10  1  0  0  0  0
  9 11  1  0  0  0  0
  9 20  1  0  0  0  0
  7  8  1  0  0  0  0
  7  9  1  0  0  0  0
 24 25  1  0  0  0  0
 24 26  1  0  0  0  0
 24 27  1  0  0  0  0
 22 23  1  0  0  0  0
 22 24  1  0  0  0  0
M  CHG  1  18  -1
M  END
$$$$
default_name
  -OEChem-02102213163D

 27 26  0     1  0  0  0  0  0999 V2000
   -3.2406   -3.5400    1.2326 H   0  0  0  0  0  0  0  0  0  0  0  0
   -3.1436   -2.6190    0.6606 C   0  0  0  0  0  0  0  0  0  0  0  0
   -3.8786   -1.8920    0.9996 H   0  0  0  0  0  0  0  0  0  0  0  0
   -3.2846   -2.8280   -0.3984 H   0  0  0  0  0  0  0  0  0  0  0  0
   -1.7586   -2.0580    0.8686 C   0  0  0  0  0  0  0  0  0  0  0  0
   -0.9666   -2.6340    1.6026 O   0  0  0  0  0  0  0  0  0  0  0  0
   -1.4866   -0.9220    0.2366 N   0  0  0  0  0  0  0  0  0  0  0  0
   -2.2166   -0.4790   -0.2994 H   0  0  0  0  0  0  0  0  0  0  0  0
   -0.1956   -0.2250    0.2596 C   0  0  1  0  0  0  0  0  0  0  0  0
    0.3927   -0.6026    1.0964 H   0  0  0  0  0  0  0  0  0  0  0  0
    0.5767   -0.5489   -1.0351 C   0  0  0  0  0  0  0  0  0  0  0  0
    0.9576   -1.5681   -0.9534 H   0  0  0  0  0  0  0  0  0  0  0  0
   -0.1077   -0.5037   -1.8835 H   0  0  0  0  0  0  0  0  0  0  0  0
    1.7628    0.3957   -1.2930 C   0  0  0  0  0  0  0  0  0  0  0  0
    1.4522    1.4232   -1.0887 H   0  0  0  0  0  0  0  0  0  0  0  0
    2.5632    0.1401   -0.5935 H   0  0  0  0  0  0  0  0  0  0  0  0
    2.3021    0.3201   -2.7291 C   0  0  0  0  0  0  0  0  0  0  0  0
    1.8432   -0.5610   -3.4903 O   0  5  0  0  0  0  0  0  0  0  0  0
    3.1586    1.1729   -3.0523 O   0  0  0  0  0  0  0  0  0  0  0  0
   -0.3954    1.2887    0.4814 C   0  0  0  0  0  0  0  0  0  0  0  0
   -1.2761    1.9015   -0.1256 O   0  0  0  0  0  0  0  0  0  0  0  0
    0.4051    1.8919    1.3699 N   0  0  0  0  0  0  0  0  0  0  0  0
    1.1380    1.3380    1.7875 H   0  0  0  0  0  0  0  0  0  0  0  0
    0.3573    3.3183    1.6807 C   0  0  0  0  0  0  0  0  0  0  0  0
   -0.6670    3.6090    1.9198 H   0  0  0  0  0  0  0  0  0  0  0  0
    1.0066    3.5397    2.5289 H   0  0  0  0  0  0  0  0  0  0  0  0
    0.6896    3.8897    0.8118 H   0  0  0  0  0  0  0  0  0  0  0  0
  5  6  2  0  0  0  0
  5  7  1  0  0  0  0
  2  3  1  0  0  0  0
  2  4  1  0  0  0  0
  2  5  1  0  0  0  0
  1  2  1  0  0  0  0
 20 21  2  0  0  0  0
 20 22  1  0  0  0  0
 17 18  1  0  0  0  0
 17 19  2  0  0  0  0
 14 15  1  0  0  0  0
 14 16  1  0  0  0  0
 14 17  1  0  0  0  0
 11 12  1  0  0  0  0
 11 13  1  0  0  0  0
 11 14  1  0  0  0  0
  9 10  1  0  0  0  0
  9 11  1  0  0  0  0
  9 20  1  0  0  0  0
  7  8  1  0  0  0  0
  7  9  1  0  0  0  0
 24 25  1  0  0  0  0
 24 26  1  0  0  0  0
 24 27  1  0  0  0  0
 22 23  1  0  0  0  0
 22 24  1  0  0  0  0
M  CHG  1  18  -1
M  END
$$$$
default_name
  -OEChem-02102213163D

 27 26  0     1  0  0  0  0  0999 V2000
   -3.2406   -3.5400    1.2326 H   0  0  0  0  0  0  0  0  0  0  0  0
   -3.1436   -2.6190    0.6606 C   0  0  0  0  0  0  0  0  0  0  0  0
   -3.8786   -1.8920    0.9996 H   0  0  0  0  0  0  0  0  0  0  0  0
   -3.2846   -2.8280   -0.3984 H   0  0  0  0  0  0  0  0  0  0  0  0
   -1.7586   -2.0580    0.8686 C   0  0  0  0  0  0  0  0  0  0  0  0
   -0.9666   -2.6340    1.6026 O   0  0  0  0  0  0  0  0  0  0  0  0
   -1.4866   -0.9220    0.2366 N   0  0  0  0  0  0  0  0  0  0  0  0
   -2.2166   -0.4790   -0.2994 H   0  0  0  0  0  0  0  0  0  0  0  0
   -0.1956   -0.2250    0.2596 C   0  0  1  0  0  0  0  0  0  0  0  0
    0.3927   -0.6026    1.0964 H   0  0  0  0  0  0  0  0  0  0  0  0
    0.5767   -0.5489   -1.0351 C   0  0  0  0  0  0  0  0  0  0  0  0
    0.9576   -1.5681   -0.9534 H   0  0  0  0  0  0  0  0  0  0  0  0
   -0.1077   -0.5037   -1.8835 H   0  0  0  0  0  0  0  0  0  0  0  0
    1.7628    0.3957   -1.2930 C   0  0  0  0  0  0  0  0  0  0  0  0
    1.5493    1.3683   -0.8433 H   0  0  0  0  0  0  0  0  0  0  0  0
    2.6450   -0.0184   -0.7975 H   0  0  0  0  0  0  0  0  0  0  0  0
    2.0682    0.5987   -2.7844 C   0  0  0  0  0  0  0  0  0  0  0  0
    1.4456   -0.0966   -3.6183 O   0  5  0  0  0  0  0  0  0  0  0  0
    2.9137    1.4757   -3.0696 O   0  0  0  0  0  0  0  0  0  0  0  0
   -0.3954    1.2887    0.4814 C   0  0  0  0  0  0  0  0  0  0  0  0
   -1.2761    1.9015   -0.1256 O   0  0  0  0  0  0  0  0  0  0  0  0
    0.4051    1.8919    1.3699 N   0  0  0  0  0  0  0  0  0  0  0  0
    1.1380    1.3380    1.7875 H   0  0  0  0  0  0  0  0  0  0  0  0
    0.3573    3.3183    1.6807 C   0  0  0  0  0  0  0  0  0  0  0  0
   -0.6670    3.6090    1.9198 H   0  0  0  0  0  0  0  0  0  0  0  0
    1.0066    3.5397    2.5289 H   0  0  0  0  0  0  0  0  0  0  0  0
    0.6896    3.8897    0.8118 H   0  0  0  0  0  0  0  0  0  0  0  0
  5  6  2  0  0  0  0
  5  7  1  0  0  0  0
  2  3  1  0  0  0  0
  2  4  1  0  0  0  0
  2  5  1  0  0  0  0
  1  2  1  0  0  0  0
 20 21  2  0  0  0  0
 20 22  1  0  0  0  0
 17 18  1  0  0  0  0
 17 19  2  0  0  0  0
 14 15  1  0  0  0  0
 14 16  1  0  0  0  0
 14 17  1  0  0  0  0
 11 12  1  0  0  0  0
 11 13  1  0  0  0  0
 11 14  1  0  0  0  0
  9 10  1  0  0  0  0
  9 11  1  0  0  0  0
  9 20  1  0  0  0  0
  7  8  1  0  0  0  0
  7  9  1  0  0  0  0
 24 25  1  0  0  0  0
 24 26  1  0  0  0  0
 24 27  1  0  0  0  0
 22 23  1  0  0  0  0
 22 24  1  0  0  0  0
M  CHG  1  18  -1
M  END
$$$$
default_name
  -OEChem-02102213163D

 27 26  0     1  0  0  0  0  0999 V2000
   -3.2406   -3.5400    1.2326 H   0  0  0  0  0  0  0  0  0  0  0  0
   -3.1436   -2.6190    0.6606 C   0  0  0  0  0  0  0  0  0  0  0  0
   -3.8786   -1.8920    0.9996 H   0  0  0  0  0  0  0  0  0  0  0  0
   -3.2846   -2.8280   -0.3984 H   0  0  0  0  0  0  0  0  0  0  0  0
   -1.7586   -2.0580    0.8686 C   0  0  0  0  0  0  0  0  0  0  0  0
   -0.9666   -2.6340    1.6026 O   0  0  0  0  0  0  0  0  0  0  0  0
   -1.4866   -0.9220    0.2366 N   0  0  0  0  0  0  0  0  0  0  0  0
   -2.2166   -0.4790   -0.2994 H   0  0  0  0  0  0  0  0  0  0  0  0
   -0.1956   -0.2250    0.2596 C   0  0  1  0  0  0  0  0  0  0  0  0
    0.3927   -0.6026    1.0964 H   0  0  0  0  0  0  0  0  0  0  0  0
    0.5767   -0.5489   -1.0351 C   0  0  0  0  0  0  0  0  0  0  0  0
    0.9576   -1.5681   -0.9534 H   0  0  0  0  0  0  0  0  0  0  0  0
   -0.1077   -0.5037   -1.8835 H   0  0  0  0  0  0  0  0  0  0  0  0
    1.7628    0.3957   -1.2930 C   0  0  0  0  0  0  0  0  0  0  0  0
    1.6796    1.2622   -0.6326 H   0  0  0  0  0  0  0  0  0  0  0  0
    2.6847   -0.1342   -1.0392 H   0  0  0  0  0  0  0  0  0  0  0  0
    1.8456    0.8890   -2.7451 C   0  0  0  0  0  0  0  0  0  0  0  0
    1.0613    0.3948   -3.5860 O   0  5  0  0  0  0  0  0  0  0  0  0
    2.6875    1.7823   -2.9870 O   0  0  0  0  0  0  0  0  0  0  0  0
   -0.3954    1.2887    0.4814 C   0  0  0  0  0  0  0  0  0  0  0  0
   -1.2761    1.9015   -0.1256 O   0  0  0  0  0  0  0  0  0  0  0  0
    0.4051    1.8919    1.3699 N   0  0  0  0  0  0  0  0  0  0  0  0
    1.1380    1.3380    1.7875 H   0  0  0  0  0  0  0  0  0  0  0  0
    0.3573    3.3183    1.6807 C   0  0  0  0  0  0  0  0  0  0  0  0
   -0.6670    3.6090    1.9198 H   0  0  0  0  0  0  0  0  0  0  0  0
    1.0066    3.5397    2.5289 H   0  0  0  0  0  0  0  0  0  0  0  0
    0.6896    3.8897    0.8118 H   0  0  0  0  0  0  0  0  0  0  0  0
  5  6  2  0  0  0  0
  5  7  1  0  0  0  0
  2  3  1  0  0  0  0
  2  4  1  0  0  0  0
  2  5  1  0  0  0  0
  1  2  1  0  0  0  0
 20 21  2  0  0  0  0
 20 22  1  0  0  0  0
 17 18  1  0  0  0  0
 17 19  2  0  0  0  0
 14 15  1  0  0  0  0
 14 16  1  0  0  0  0
 14 17  1  0  0  0  0
 11 12  1  0  0  0  0
 11 13  1  0  0  0  0
 11 14  1  0  0  0  0
  9 10  1  0  0  0  0
  9 11  1  0  0  0  0
  9 20  1  0  0  0  0
  7  8  1  0  0  0  0
  7  9  1  0  0  0  0
 24 25  1  0  0  0  0
 24 26  1  0  0  0  0
 24 27  1  0  0  0  0
 22 23  1  0  0  0  0
 22 24  1  0  0  0  0
M  CHG  1  18  -1
M  END
$$$$
default_name
  -OEChem-02102213163D

 27 26  0     1  0  0  0  0  0999 V2000
   -3.2406   -3.5400    1.2326 H   0  0  0  0  0  0  0  0  0  0  0  0
   -3.1436   -2.6190    0.6606 C   0  0  0  0  0  0  0  0  0  0  0  0
   -3.8786   -1.8920    0.9996 H   0  0  0  0  0  0  0  0  0  0  0  0
   -3.2846   -2.8280   -0.3984 H   0  0  0  0  0  0  0  0  0  0  0  0
   -1.7586   -2.0580    0.8686 C   0  0  0  0  0  0  0  0  0  0  0  0
   -0.9666   -2.6340    1.6026 O   0  0  0  0  0  0  0  0  0  0  0  0
   -1.4866   -0.9220    0.2366 N   0  0  0  0  0  0  0  0  0  0  0  0
   -2.2166   -0.4790   -0.2994 H   0  0  0  0  0  0  0  0  0  0  0  0
   -0.1956   -0.2250    0.2596 C   0  0  1  0  0  0  0  0  0  0  0  0
    0.3927   -0.6026    1.0964 H   0  0  0  0  0  0  0  0  0  0  0  0
    0.5767   -0.5489   -1.0351 C   0  0  0  0  0  0  0  0  0  0  0  0
    0.9576   -1.5681   -0.9534 H   0  0  0  0  0  0  0  0  0  0  0  0
   -0.1077   -0.5037   -1.8835 H   0  0  0  0  0  0  0  0  0  0  0  0
    1.7628    0.3957   -1.2930 C   0  0  0  0  0  0  0  0  0  0  0  0
    1.8344    1.1119   -0.4709 H   0  0  0  0  0  0  0  0  0  0  0  0
    2.6797   -0.1997   -1.3021 H   0  0  0  0  0  0  0  0  0  0  0  0
    1.6494    1.1712   -2.6138 C   0  0  0  0  0  0  0  0  0  0  0  0
    0.7166    0.8797   -3.3956 O   0  5  0  0  0  0  0  0  0  0  0  0
    2.4955    2.0717   -2.8100 O   0  0  0  0  0  0  0  0  0  0  0  0
   -0.3954    1.2887    0.4814 C   0  0  0  0  0  0  0  0  0  0  0  0
   -1.2761    1.9015   -0.1256 O   0  0  0  0  0  0  0  0  0  0  0  0
    0.4051    1.8919    1.3699 N   0  0  0  0  0  0  0  0  0  0  0  0
    1.1380    1.3380    1.7875 H   0  0  0  0  0  0  0  0  0  0  0  0
    0.3573    3.3183    1.6807 C   0  0  0  0  0  0  0  0  0  0  0  0
   -0.6670    3.6090    1.9198 H   0  0  0  0  0  0  0  0  0  0  0  0
    1.0066    3.5397    2.5289 H   0  0  0  0  0  0  0  0  0  0  0  0
    0.6896    3.8897    0.8118 H   0  0  0  0  0  0  0  0  0  0  0  0
  5  6  2  0  0  0  0
  5  7  1  0  0  0  0
  2  3  1  0  0  0  0
  2  4  1  0  0  0  0
  2  5  1  0  0  0  0
  1  2  1  0  0  0  0
 20 21  2  0  0  0  0
 20 22  1  0  0  0  0
 17 18  1  0  0  0  0
 17 19  2  0  0  0  0
 14 15  1  0  0  0  0
 14 16  1  0  0  0  0
 14 17  1  0  0  0  0
 11 12  1  0  0  0  0
 11 13  1  0  0  0  0
 11 14  1  0  0  0  0
  9 10  1  0  0  0  0
  9 11  1  0  0  0  0
  9 20  1  0  0  0  0
  7  8  1  0  0  0  0
  7  9  1  0  0  0  0
 24 25  1  0  0  0  0
 24 26  1  0  0  0  0
 24 27  1  0  0  0  0
 22 23  1  0  0  0  0
 22 24  1  0  0  0  0
M  CHG  1  18  -1
M  END
$$$$
default_name
  -OEChem-02102213163D

 27 26  0     1  0  0  0  0  0999 V2000
   -3.2406   -3.5400    1.2326 H   0  0  0  0  0  0  0  0  0  0  0  0
   -3.1436   -2.6190    0.6606 C   0  0  0  0  0  0  0  0  0  0  0  0
   -3.8786   -1.8920    0.9996 H   0  0  0  0  0  0  0  0  0  0  0  0
   -3.2846   -2.8280   -0.3984 H   0  0  0  0  0  0  0  0  0  0  0  0
   -1.7586   -2.0580    0.8686 C   0  0  0  0  0  0  0  0  0  0  0  0
   -0.9666   -2.6340    1.6026 O   0  0  0  0  0  0  0  0  0  0  0  0
   -1.4866   -0.9220    0.2366 N   0  0  0  0  0  0  0  0  0  0  0  0
   -2.2166   -0.4790   -0.2994 H   0  0  0  0  0  0  0  0  0  0  0  0
   -0.1956   -0.2250    0.2596 C   0  0  1  0  0  0  0  0  0  0  0  0
    0.3927   -0.6026    1.0964 H   0  0  0  0  0  0  0  0  0  0  0  0
    0.5767   -0.5489   -1.0351 C   0  0  0  0  0  0  0  0  0  0  0  0
    0.9576   -1.5681   -0.9534 H   0  0  0  0  0  0  0  0  0  0  0  0
   -0.1077   -0.5037   -1.8835 H   0  0  0  0  0  0  0  0  0  0  0  0
    1.7628    0.3957   -1.2930 C   0  0  0  0  0  0  0  0  0  0  0  0
    2.0031    0.9278   -0.3694 H   0  0  0  0  0  0  0  0  0  0  0  0
    2.6302   -0.2101   -1.5683 H   0  0  0  0  0  0  0  0  0  0  0  0
    1.4930    1.4261   -2.3994 C   0  0  0  0  0  0  0  0  0  0  0  0
    0.4349    1.3250   -3.0602 O   0  5  0  0  0  0  0  0  0  0  0  0
    2.3507    2.3243   -2.5508 O   0  0  0  0  0  0  0  0  0  0  0  0
   -0.3954    1.2887    0.4814 C   0  0  0  0  0  0  0  0  0  0  0  0
   -1.2761    1.9015   -0.1256 O   0  0  0  0  0  0  0  0  0  0  0  0
    0.4051    1.8919    1.3699 N   0  0  0  0  0  0  0  0  0  0  0  0
    1.1380    1.3380    1.7875 H   0  0  0  0  0  0  0  0  0  0  0  0
    0.3573    3.3183    1.6807 C   0  0  0  0  0  0  0  0  0  0  0  0
   -0.6670    3.6090    1.9198 H   0  0  0  0  0  0  0  0  0  0  0  0
    1.0066    3.5397    2.5289 H   0  0  0  0  0  0  0  0  0  0  0  0
    0.6896    3.8897    0.8118 H   0  0  0  0  0  0  0  0  0  0  0  0
  5  6  2  0  0  0  0
  5  7  1  0  0  0  0
  2  3  1  0  0  0  0
  2  4  1  0  0  0  0
  2  5  1  0  0  0  0
  1  2  1  0  0  0  0
 20 21  2  0  0  0  0
 20 22  1  0  0  0  0
 17 18  1  0  0  0  0
 17 19  2  0  0  0  0
 14 15  1  0  0  0  0
 14 16  1  0  0  0  0
 14 17  1  0  0  0  0
 11 12  1  0  0  0  0
 11 13  1  0  0  0  0
 11 14  1  0  0  0  0
  9 10  1  0  0  0  0
  9 11  1  0  0  0  0
  9 20  1  0  0  0  0
  7  8  1  0  0  0  0
  7  9  1  0  0  0  0
 24 25  1  0  0  0  0
 24 26  1  0  0  0  0
 24 27  1  0  0  0  0
 22 23  1  0  0  0  0
 22 24  1  0  0  0  0
M  CHG  1  18  -1
M  END
$$$$
default_name
  -OEChem-02102213163D

 27 26  0     1  0  0  0  0  0999 V2000
   -3.2406   -3.5400    1.2326 H   0  0  0  0  0  0  0  0  0  0  0  0
   -3.1436   -2.6190    0.6606 C   0  0  0  0  0  0  0  0  0  0  0  0
   -3.8786   -1.8920    0.9996 H   0  0  0  0  0  0  0  0  0  0  0  0
   -3.2846   -2.8280   -0.3984 H   0  0  0  0  0  0  0  0  0  0  0  0
   -1.7586   -2.0580    0.8686 C   0  0  0  0  0  0  0  0  0  0  0  0
   -0.9666   -2.6340    1.6026 O   0  0  0  0  0  0  0  0  0  0  0  0
   -1.4866   -0.9220    0.2366 N   0  0  0  0  0  0  0  0  0  0  0  0
   -2.2166   -0.4790   -0.2994 H   0  0  0  0  0  0  0  0  0  0  0  0
   -0.1956   -0.2250    0.2596 C   0  0  1  0  0  0  0  0  0  0  0  0
    0.3927   -0.6026    1.0964 H   0  0  0  0  0  0  0  0  0  0  0  0
    0.5767   -0.5489   -1.0351 C   0  0  0  0  0  0  0  0  0  0  0  0
    0.9576   -1.5681   -0.9534 H   0  0  0  0  0  0  0  0  0  0  0  0
   -0.1077   -0.5037   -1.8835 H   0  0  0  0  0  0  0  0  0  0  0  0
    1.7628    0.3957   -1.2930 C   0  0  0  0  0  0  0  0  0  0  0  0
    2.1742    0.7224   -0.3349 H   0  0  0  0  0  0  0  0  0  0  0  0
    2.5396   -0.1650   -1.8197 H   0  0  0  0  0  0  0  0  0  0  0  0
    1.3871    1.6363   -2.1167 C   0  0  0  0  0  0  0  0  0  0  0  0
    0.2354    1.7004   -2.6025 O   0  5  0  0  0  0  0  0  0  0  0  0
    2.2630    2.5228   -2.2270 O   0  0  0  0  0  0  0  0  0  0  0  0
   -0.3954    1.2887    0.4814 C   0  0  0  0  0  0  0  0  0  0  0  0
   -1.2761    1.9015   -0.1256 O   0  0  0  0  0  0  0  0  0  0  0  0
    0.4051    1.8919    1.3699 N   0  0  0  0  0  0  0  0  0  0  0  0
    1.1380    1.3380    1.7875 H   0  0  0  0  0  0  0  0  0  0  0  0
    0.3573    3.3183    1.6807 C   0  0  0  0  0  0  0  0  0  0  0  0
   -0.6670    3.6090    1.9198 H   0  0  0  0  0  0  0  0  0  0  0  0
    1.0066    3.5397    2.5289 H   0  0  0  0  0  0  0  0  0  0  0  0
    0.6896    3.8897    0.8118 H   0  0  0  0  0  0  0  0  0  0  0  0
  5  6  2  0  0  0  0
  5  7  1  0  0  0  0
  2  3  1  0  0  0  0
  2  4  1  0  0  0  0
  2  5  1  0  0  0  0
  1  2  1  0  0  0  0
 20 21  2  0  0  0  0
 20 22  1  0  0  0  0
 17 18  1  0  0  0  0
 17 19  2  0  0  0  0
 14 15  1  0  0  0  0
 14 16  1  0  0  0  0
 14 17  1  0  0  0  0
 11 12  1  0  0  0  0
 11 13  1  0  0  0  0
 11 14  1  0  0  0  0
  9 10  1  0  0  0  0
  9 11  1  0  0  0  0
  9 20  1  0  0  0  0
  7  8  1  0  0  0  0
  7  9  1  0  0  0  0
 24 25  1  0  0  0  0
 24 26  1  0  0  0  0
 24 27  1  0  0  0  0
 22 23  1  0  0  0  0
 22 24  1  0  0  0  0
M  CHG  1  18  -1
M  END
$$$$
default_name
  -OEChem-02102213163D

 27 26  0     1  0  0  0  0  0999 V2000
   -3.2406   -3.5400    1.2326 H   0  0  0  0  0  0  0  0  0  0  0  0
   -3.1436   -2.6190    0.6606 C   0  0  0  0  0  0  0  0  0  0  0  0
   -3.8786   -1.8920    0.9996 H   0  0  0  0  0  0  0  0  0  0  0  0
   -3.2846   -2.8280   -0.3984 H   0  0  0  0  0  0  0  0  0  0  0  0
   -1.7586   -2.0580    0.8686 C   0  0  0  0  0  0  0  0  0  0  0  0
   -0.9666   -2.6340    1.6026 O   0  0  0  0  0  0  0  0  0  0  0  0
   -1.4866   -0.9220    0.2366 N   0  0  0  0  0  0  0  0  0  0  0  0
   -2.2166   -0.4790   -0.2994 H   0  0  0  0  0  0  0  0  0  0  0  0
   -0.1956   -0.2250    0.2596 C   0  0  1  0  0  0  0  0  0  0  0  0
    0.3927   -0.6026    1.0964 H   0  0  0  0  0  0  0  0  0  0  0  0
    0.5767   -0.5489   -1.0351 C   0  0  0  0  0  0  0  0  0  0  0  0
    0.9576   -1.5681   -0.9534 H   0  0  0  0  0  0  0  0  0  0  0  0
   -0.1077   -0.5037   -1.8835 H   0  0  0  0  0  0  0  0  0  0  0  0
    1.7628    0.3957   -1.2930 C   0  0  0  0  0  0  0  0  0  0  0  0
    2.3360    0.5096   -0.3697 H   0  0  0  0  0  0  0  0  0  0  0  0
    2.4141   -0.0673   -2.0391 H   0  0  0  0  0  0  0  0  0  0  0  0
    1.3388    1.7875   -1.7847 C   0  0  0  0  0  0  0  0  0  0  0  0
    0.1318    1.9803   -2.0538 O   0  5  0  0  0  0  0  0  0  0  0  0
    2.2384    2.6538   -1.8606 O   0  0  0  0  0  0  0  0  0  0  0  0
   -0.3954    1.2887    0.4814 C   0  0  0  0  0  0  0  0  0  0  0  0
   -1.2761    1.9015   -0.1256 O   0  0  0  0  0  0  0  0  0  0  0  0
    0.4051    1.8919    1.3699 N   0  0  0  0  0  0  0  0  0  0  0  0
    1.1380    1.3380    1.7875 H   0  0  0  0  0  0  0  0  0  0  0  0
    0.3573    3.3183    1.6807 C   0  0  0  0  0  0  0  0  0  0  0  0
   -0.6670    3.6090    1.9198 H   0  0  0  0  0  0  0  0  0  0  0  0
    1.0066    3.5397    2.5289 H   0  0  0  0  0  0  0  0  0  0  0  0
    0.6896    3.8897    0.8118 H   0  0  0  0  0  0  0  0  0  0  0  0
  5  6  2  0  0  0  0
  5  7  1  0  0  0  0
  2  3  1  0  0  0  0
  2  4  1  0  0  0  0
  2  5  1  0  0  0  0
  1  2  1  0  0  0  0
 20 21  2  0  0  0  0
 20 22  1  0  0  0  0
 17 18  1  0  0  0  0
 17 19  2  0  0  0  0
 14 15  1  0  0  0  0
 14 16  1  0  0  0  0
 14 17  1  0  0  0  0
 11 12  1  0  0  0  0
 11 13  1  0  0  0  0
 11 14  1  0  0  0  0
  9 10  1  0  0  0  0
  9 11  1  0  0  0  0
  9 20  1  0  0  0  0
  7  8  1  0  0  0  0
  7  9  1  0  0  0  0
 24 25  1  0  0  0  0
 24 26  1  0  0  0  0
 24 27  1  0  0  0  0
 22 23  1  0  0  0  0
 22 24  1  0  0  0  0
M  CHG  1  18  -1
M  END
$$$$
default_name
  -OEChem-02102213163D

 27 26  0     1  0  0  0  0  0999 V2000
   -3.2406   -3.5400    1.2326 H   0  0  0  0  0  0  0  0  0  0  0  0
   -3.1436   -2.6190    0.6606 C   0  0  0  0  0  0  0  0  0  0  0  0
   -3.8786   -1.8920    0.9996 H   0  0  0  0  0  0  0  0  0  0  0  0
   -3.2846   -2.8280   -0.3984 H   0  0  0  0  0  0  0  0  0  0  0  0
   -1.7586   -2.0580    0.8686 C   0  0  0  0  0  0  0  0  0  0  0  0
   -0.9666   -2.6340    1.6026 O   0  0  0  0  0  0  0  0  0  0  0  0
   -1.4866   -0.9220    0.2366 N   0  0  0  0  0  0  0  0  0  0  0  0
   -2.2166   -0.4790   -0.2994 H   0  0  0  0  0  0  0  0  0  0  0  0
   -0.1956   -0.2250    0.2596 C   0  0  1  0  0  0  0  0  0  0  0  0
    0.3927   -0.6026    1.0964 H   0  0  0  0  0  0  0  0  0  0  0  0
    0.5767   -0.5489   -1.0351 C   0  0  0  0  0  0  0  0  0  0  0  0
    0.9576   -1.5681   -0.9534 H   0  0  0  0  0  0  0  0  0  0  0  0
   -0.1077   -0.5037   -1.8835 H   0  0  0  0  0  0  0  0  0  0  0  0
    1.7628    0.3957   -1.2930 C   0  0  0  0  0  0  0  0  0  0  0  0
    2.4776    0.3041   -0.4716 H   0  0  0  0  0  0  0  0  0  0  0  0
    2.2622    0.0763   -2.2115 H   0  0  0  0  0  0  0  0  0  0  0  0
    1.3515    1.8694   -1.4262 C   0  0  0  0  0  0  0  0  0  0  0  0
    0.1310    2.1456   -1.4514 O   0  5  0  0  0  0  0  0  0  0  0  0
    2.2785    2.7082   -1.4767 O   0  0  0  0  0  0  0  0  0  0  0  0
   -0.3954    1.2887    0.4814 C   0  0  0  0  0  0  0  0  0  0  0  0
   -1.2761    1.9015   -0.1256 O   0  0  0  0  0  0  0  0  0  0  0  0
    0.4051    1.8919    1.3699 N   0  0  0  0  0  0  0  0  0  0  0  0
    1.1380    1.3380    1.7875 H   0  0  0  0  0  0  0  0  0  0  0  0
    0.3573    3.3183    1.6807 C   0  0  0  0  0  0  0  0  0  0  0  0
   -0.6670    3.6090    1.9198 H   0  0  0  0  0  0  0  0  0  0  0  0
    1.0066    3.5397    2.5289 H   0  0  0  0  0  0  0  0  0  0  0  0
    0.6896    3.8897    0.8118 H   0  0  0  0  0  0  0  0  0  0  0  0
  5  6  2  0  0  0  0
  5  7  1  0  0  0  0
  2  3  1  0  0  0  0
  2  4  1  0  0  0  0
  2  5  1  0  0  0  0
  1  2  1  0  0  0  0
 20 21  2  0  0  0  0
 20 22  1  0  0  0  0
 17 18  1  0  0  0  0
 17 19  2  0  0  0  0
 14 15  1  0  0  0  0
 14 16  1  0  0  0  0
 14 17  1  0  0  0  0
 11 12  1  0  0  0  0
 11 13  1  0  0  0  0
 11 14  1  0  0  0  0
  9 10  1  0  0  0  0
  9 11  1  0  0  0  0
  9 20  1  0  0  0  0
  7  8  1  0  0  0  0
  7  9  1  0  0  0  0
 24 25  1  0  0  0  0
 24 26  1  0  0  0  0
 24 27  1  0  0  0  0
 22 23  1  0  0  0  0
 22 24  1  0  0  0  0
M  CHG  1  18  -1
M  END
$$$$
default_name
  -OEChem-02102213163D

 27 26  0     1  0  0  0  0  0999 V2000
   -3.2406   -3.5400    1.2326 H   0  0  0  0  0  0  0  0  0  0  0  0
   -3.1436   -2.6190    0.6606 C   0  0  0  0  0  0  0  0  0  0  0  0
   -3.8786   -1.8920    0.9996 H   0  0  0  0  0  0  0  0  0  0  0  0
   -3.2846   -2.8280   -0.3984 H   0  0  0  0  0  0  0  0  0  0  0  0
   -1.7586   -2.0580    0.8686 C   0  0  0  0  0  0  0  0  0  0  0  0
   -0.9666   -2.6340    1.6026 O   0  0  0  0  0  0  0  0  0  0  0  0
   -1.4866   -0.9220    0.2366 N   0  0  0  0  0  0  0  0  0  0  0  0
   -2.2166   -0.4790   -0.2994 H   0  0  0  0  0  0  0  0  0  0  0  0
   -0.1956   -0.2250    0.2596 C   0  0  1  0  0  0  0  0  0  0  0  0
    0.3927   -0.6026    1.0964 H   0  0  0  0  0  0  0  0  0  0  0  0
    0.5767   -0.5489   -1.0351 C   0  0  0  0  0  0  0  0  0  0  0  0
    0.9576   -1.5681   -0.9534 H   0  0  0  0  0  0  0  0  0  0  0  0
   -0.1077   -0.5037   -1.8835 H   0  0  0  0  0  0  0  0  0  0  0  0
    1.7628    0.3957   -1.2930 C   0  0  0  0  0  0  0  0  0  0  0  0
    2.5892    0.1197   -0.6335 H   0  0  0  0  0  0  0  0  0  0  0  0
    2.0944    0.2561   -2.3253 H   0  0  0  0  0  0  0  0  0  0  0  0
    1.4243    1.8764   -1.0656 C   0  0  0  0  0  0  0  0  0  0  0  0
    0.2333    2.1851   -0.8365 O   0  5  0  0  0  0  0  0  0  0  0  0
    2.3806    2.6824   -1.1014 O   0  0  0  0  0  0  0  0  0  0  0  0
   -0.3954    1.2887    0.4814 C   0  0  0  0  0  0  0  0  0  0  0  0
   -1.2761    1.9015   -0.1256 O   0  0  0  0  0  0  0  0  0  0  0  0
    0.4051    1.8919    1.3699 N   0  0  0  0  0  0  0  0  0  0  0  0
    1.1380    1.3380    1.7875 H   0  0  0  0  0  0  0  0  0  0  0  0
    0.3573    3.3183    1.6807 C   0  0  0  0  0  0  0  0  0  0  0  0
   -0.6670    3.6090    1.9198 H   0  0  0  0  0  0  0  0  0  0  0  0
    1.0066    3.5397    2.5289 H   0  0  0  0  0  0  0  0  0  0  0  0
    0.6896    3.8897    0.8118 H   0  0  0  0  0  0  0  0  0  0  0  0
  5  6  2  0  0  0  0
  5  7  1  0  0  0  0
  2  3  1  0  0  0  0
  2  4  1  0  0  0  0
  2  5  1  0  0  0  0
  1  2  1  0  0  0  0
 20 21  2  0  0  0  0
 20 22  1  0  0  0  0
 17 18  1  0  0  0  0
 17 19  2  0  0  0  0
 14 15  1  0  0  0  0
 14 16  1  0  0  0  0
 14 17  1  0  0  0  0
 11 12  1  0  0  0  0
 11 13  1  0  0  0  0
 11 14  1  0  0  0  0
  9 10  1  0  0  0  0
  9 11  1  0  0  0  0
  9 20  1  0  0  0  0
  7  8  1  0  0  0  0
  7  9  1  0  0  0  0
 24 25  1  0  0  0  0
 24 26  1  0  0  0  0
 24 27  1  0  0  0  0
 22 23  1  0  0  0  0
 22 24  1  0  0  0  0
M  CHG  1  18  -1
M  END
$$$$
default_name
  -OEChem-02102213163D

 27 26  0     1  0  0  0  0  0999 V2000
   -3.2406   -3.5400    1.2326 H   0  0  0  0  0  0  0  0  0  0  0  0
   -3.1436   -2.6190    0.6606 C   0  0  0  0  0  0  0  0  0  0  0  0
   -3.8786   -1.8920    0.9996 H   0  0  0  0  0  0  0  0  0  0  0  0
   -3.2846   -2.8280   -0.3984 H   0  0  0  0  0  0  0  0  0  0  0  0
   -1.7586   -2.0580    0.8686 C   0  0  0  0  0  0  0  0  0  0  0  0
   -0.9666   -2.6340    1.6026 O   0  0  0  0  0  0  0  0  0  0  0  0
   -1.4866   -0.9220    0.2366 N   0  0  0  0  0  0  0  0  0  0  0  0
   -2.2166   -0.4790   -0.2994 H   0  0  0  0  0  0  0  0  0  0  0  0
   -0.1956   -0.2250    0.2596 C   0  0  1  0  0  0  0  0  0  0  0  0
    0.3927   -0.6026    1.0964 H   0  0  0  0  0  0  0  0  0  0  0  0
    0.5767   -0.5489   -1.0351 C   0  0  0  0  0  0  0  0  0  0  0  0
    0.9576   -1.5681   -0.9534 H   0  0  0  0  0  0  0  0  0  0  0  0
   -0.1077   -0.5037   -1.8835 H   0  0  0  0  0  0  0  0  0  0  0  0
    1.7628    0.3957   -1.2930 C   0  0  0  0  0  0  0  0  0  0  0  0
    2.6633   -0.0309   -0.8444 H   0  0  0  0  0  0  0  0  0  0  0  0
    1.9219    0.4597   -2.3726 H   0  0  0  0  0  0  0  0  0  0  0  0
    1.5523    1.8081   -0.7275 C   0  0  0  0  0  0  0  0  0  0  0  0
    0.4314    2.0961   -0.2508 O   0  5  0  0  0  0  0  0  0  0  0  0
    2.5378    2.5781   -0.7602 O   0  0  0  0  0  0  0  0  0  0  0  0
   -0.3954    1.2887    0.4814 C   0  0  0  0  0  0  0  0  0  0  0  0
   -1.2761    1.9015   -0.1256 O   0  0  0  0  0  0  0  0  0  0  0  0
    0.4051    1.8919    1.3699 N   0  0  0  0  0  0  0  0  0  0  0  0
    1.1380    1.3380    1.7875 H   0  0  0  0  0  0  0  0  0  0  0  0
    0.3573    3.3183    1.6807 C   0  0  0  0  0  0  0  0  0  0  0  0
   -0.6670    3.6090    1.9198 H   0  0  0  0  0  0  0  0  0  0  0  0
    1.0066    3.5397    2.5289 H   0  0  0  0  0  0  0  0  0  0  0  0
    0.6896    3.8897    0.8118 H   0  0  0  0  0  0  0  0  0  0  0  0
  5  6  2  0  0  0  0
  5  7  1  0  0  0  0
  2  3  1  0  0  0  0
  2  4  1  0  0  0  0
  2  5  1  0  0  0  0
  1  2  1  0  0  0  0
 20 21  2  0  0  0  0
 20 22  1  0  0  0  0
 17 18  1  0  0  0  0
 17 19  2  0  0  0  0
 14 15  1  0  0  0  0
 14 16  1  0  0  0  0
 14 17  1  0  0  0  0
 11 12  1  0  0  0  0
 11 13  1  0  0  0  0
 11 14  1  0  0  0  0
  9 10  1  0  0  0  0
  9 11  1  0  0  0  0
  9 20  1  0  0  0  0
  7  8  1  0  0  0  0
  7  9  1  0  0  0  0
 24 25  1  0  0  0  0
 24 26  1  0  0  0  0
 24 27  1  0  0  0  0
 22 23  1  0  0  0  0
 22 24  1  0  0  0  0
M  CHG  1  18  -1
M  END
$$$$
default_name
  -OEChem-02102213163D

 27 26  0     1  0  0  0  0  0999 V2000
   -3.2406   -3.5400    1.2326 H   0  0  0  0  0  0  0  0  0  0  0  0
   -3.1436   -2.6190    0.6606 C   0  0  0  0  0  0  0  0  0  0  0  0
   -3.8786   -1.8920    0.9996 H   0  0  0  0  0  0  0  0  0  0  0  0
   -3.2846   -2.8280   -0.3984 H   0  0  0  0  0  0  0  0  0  0  0  0
   -1.7586   -2.0580    0.8686 C   0  0  0  0  0  0  0  0  0  0  0  0
   -0.9666   -2.6340    1.6026 O   0  0  0  0  0  0  0  0  0  0  0  0
   -1.4866   -0.9220    0.2366 N   0  0  0  0  0  0  0  0  0  0  0  0
   -2.2166   -0.4790   -0.2994 H   0  0  0  0  0  0  0  0  0  0  0  0
   -0.1956   -0.2250    0.2596 C   0  0  1  0  0  0  0  0  0  0  0  0
    0.3927   -0.6026    1.0964 H   0  0  0  0  0  0  0  0  0  0  0  0
    0.5767   -0.5489   -1.0351 C   0  0  0  0  0  0  0  0  0  0  0  0
    0.9576   -1.5681   -0.9534 H   0  0  0  0  0  0  0  0  0  0  0  0
   -0.1077   -0.5037   -1.8835 H   0  0  0  0  0  0  0  0  0  0  0  0
    1.7628    0.3957   -1.2930 C   0  0  0  0  0  0  0  0  0  0  0  0
    2.6947   -0.1375   -1.0900 H   0  0  0  0  0  0  0  0  0  0  0  0
    1.7567    0.6733   -2.3503 H   0  0  0  0  0  0  0  0  0  0  0  0
    1.7267    1.6690   -0.4349 C   0  0  0  0  0  0  0  0  0  0  0  0
    0.7121    1.8846    0.2656 O   0  5  0  0  0  0  0  0  0  0  0  0
    2.7393    2.4025   -0.4765 O   0  0  0  0  0  0  0  0  0  0  0  0
   -0.3954    1.2887    0.4814 C   0  0  0  0  0  0  0  0  0  0  0  0
   -1.2761    1.9015   -0.1256 O   0  0  0  0  0  0  0  0  0  0  0  0
    0.4051    1.8919    1.3699 N   0  0  0  0  0  0  0  0  0  0  0  0
    1.1380    1.3380    1.7875 H   0  0  0  0  0  0  0  0  0  0  0  0
    0.3573    3.3183    1.6807 C   0  0  0  0  0  0  0  0  0  0  0  0
   -0.6670    3.6090    1.9198 H   0  0  0  0  0  0  0  0  0  0  0  0
    1.0066    3.5397    2.5289 H   0  0  0  0  0  0  0  0  0  0  0  0
    0.6896    3.8897    0.8118 H   0  0  0  0  0  0  0  0  0  0  0  0
  5  6  2  0  0  0  0
  5  7  1  0  0  0  0
  2  3  1  0  0  0  0
  2  4  1  0  0  0  0
  2  5  1  0  0  0  0
  1  2  1  0  0  0  0
 20 21  2  0  0  0  0
 20 22  1  0  0  0  0
 17 18  1  0  0  0  0
 17 19  2  0  0  0  0
 14 15  1  0  0  0  0
 14 16  1  0  0  0  0
 14 17  1  0  0  0  0
 11 12  1  0  0  0  0
 11 13  1  0  0  0  0
 11 14  1  0  0  0  0
  9 10  1  0  0  0  0
  9 11  1  0  0  0  0
  9 20  1  0  0  0  0
  7  8  1  0  0  0  0
  7  9  1  0  0  0  0
 24 25  1  0  0  0  0
 24 26  1  0  0  0  0
 24 27  1  0  0  0  0
 22 23  1  0  0  0  0
 22 24  1  0  0  0  0
M  CHG  1  18  -1
M  END
$$$$
default_name
  -OEChem-02102213163D

 27 26  0     1  0  0  0  0  0999 V2000
   -3.2406   -3.5400    1.2326 H   0  0  0  0  0  0  0  0  0  0  0  0
   -3.1436   -2.6190    0.6606 C   0  0  0  0  0  0  0  0  0  0  0  0
   -3.8786   -1.8920    0.9996 H   0  0  0  0  0  0  0  0  0  0  0  0
   -3.2846   -2.8280   -0.3984 H   0  0  0  0  0  0  0  0  0  0  0  0
   -1.7586   -2.0580    0.8686 C   0  0  0  0  0  0  0  0  0  0  0  0
   -0.9666   -2.6340    1.6026 O   0  0  0  0  0  0  0  0  0  0  0  0
   -1.4866   -0.9220    0.2366 N   0  0  0  0  0  0  0  0  0  0  0  0
   -2.2166   -0.4790   -0.2994 H   0  0  0  0  0  0  0  0  0  0  0  0
   -0.1956   -0.2250    0.2596 C   0  0  1  0  0  0  0  0  0  0  0  0
    0.3927   -0.6026    1.0964 H   0  0  0  0  0  0  0  0  0  0  0  0
    0.5767   -0.5489   -1.0351 C   0  0  0  0  0  0  0  0  0  0  0  0
    0.9576   -1.5681   -0.9534 H   0  0  0  0  0  0  0  0  0  0  0  0
   -0.1077   -0.5037   -1.8835 H   0  0  0  0  0  0  0  0  0  0  0  0
    1.7628    0.3957   -1.2930 C   0  0  0  0  0  0  0  0  0  0  0  0
    2.6815   -0.1928   -1.3535 H   0  0  0  0  0  0  0  0  0  0  0  0
    1.6099    0.8823   -2.2599 H   0  0  0  0  0  0  0  0  0  0  0  0
    1.9356    1.4686   -0.2077 C   0  0  0  0  0  0  0  0  0  0  0  0
    1.0561    1.5651    0.6776 O   0  5  0  0  0  0  0  0  0  0  0  0
    2.9715    2.1674   -0.2696 O   0  0  0  0  0  0  0  0  0  0  0  0
   -0.3954    1.2887    0.4814 C   0  0  0  0  0  0  0  0  0  0  0  0
   -1.2761    1.9015   -0.1256 O   0  0  0  0  0  0  0  0  0  0  0  0
    0.4051    1.8919    1.3699 N   0  0  0  0  0  0  0  0  0  0  0  0
    1.1380    1.3380    1.7875 H   0  0  0  0  0  0  0  0  0  0  0  0
    0.3573    3.3183    1.6807 C   0  0  0  0  0  0  0  0  0  0  0  0
   -0.6670    3.6090    1.9198 H   0  0  0  0  0  0  0  0  0  0  0  0
    1.0066    3.5397    2.5289 H   0  0  0  0  0  0  0  0  0  0  0  0
    0.6896    3.8897    0.8118 H   0  0  0  0  0  0  0  0  0  0  0  0
  5  6  2  0  0  0  0
  5  7  1  0  0  0  0
  2  3  1  0  0  0  0
  2  4  1  0  0  0  0
  2  5  1  0  0  0  0
  1  2  1  0  0  0  0
 20 21  2  0  0  0  0
 20 22  1  0  0  0  0
 17 18  1  0  0  0  0
 17 19  2  0  0  0  0
 14 15  1  0  0  0  0
 14 16  1  0  0  0  0
 14 17  1  0  0  0  0
 11 12  1  0  0  0  0
 11 13  1  0  0  0  0
 11 14  1  0  0  0  0
  9 10  1  0  0  0  0
  9 11  1  0  0  0  0
  9 20  1  0  0  0  0
  7  8  1  0  0  0  0
  7  9  1  0  0  0  0
 24 25  1  0  0  0  0
 24 26  1  0  0  0  0
 24 27  1  0  0  0  0
 22 23  1  0  0  0  0
 22 24  1  0  0  0  0
M  CHG  1  18  -1
M  END
$$$$
default_name
  -OEChem-02102213163D

 27 26  0     1  0  0  0  0  0999 V2000
   -3.2406   -3.5400    1.2326 H   0  0  0  0  0  0  0  0  0  0  0  0
   -3.1436   -2.6190    0.6606 C   0  0  0  0  0  0  0  0  0  0  0  0
   -3.8786   -1.8920    0.9996 H   0  0  0  0  0  0  0  0  0  0  0  0
   -3.2846   -2.8280   -0.3984 H   0  0  0  0  0  0  0  0  0  0  0  0
   -1.7586   -2.0580    0.8686 C   0  0  0  0  0  0  0  0  0  0  0  0
   -0.9666   -2.6340    1.6026 O   0  0  0  0  0  0  0  0  0  0  0  0
   -1.4866   -0.9220    0.2366 N   0  0  0  0  0  0  0  0  0  0  0  0
   -2.2166   -0.4790   -0.2994 H   0  0  0  0  0  0  0  0  0  0  0  0
   -0.1956   -0.2250    0.2596 C   0  0  1  0  0  0  0  0  0  0  0  0
    0.3927   -0.6026    1.0964 H   0  0  0  0  0  0  0  0  0  0  0  0
    0.5767   -0.5489   -1.0351 C   0  0  0  0  0  0  0  0  0  0  0  0
    0.9576   -1.5681   -0.9534 H   0  0  0  0  0  0  0  0  0  0  0  0
   -0.1077   -0.5037   -1.8835 H   0  0  0  0  0  0  0  0  0  0  0  0
    1.7628    0.3957   -1.2930 C   0  0  0  0  0  0  0  0  0  0  0  0
    2.6244   -0.1930   -1.6170 H   0  0  0  0  0  0  0  0  0  0  0  0
    1.4916    1.0725   -2.1074 H   0  0  0  0  0  0  0  0  0  0  0  0
    2.1648    1.2207   -0.0615 C   0  0  0  0  0  0  0  0  0  0  0  0
    1.4400    1.1593    0.9571 O   0  5  0  0  0  0  0  0  0  0  0  0
    3.2184    1.8890   -0.1535 O   0  0  0  0  0  0  0  0  0  0  0  0
   -0.3954    1.2887    0.4814 C   0  0  0  0  0  0  0  0  0  0  0  0
   -1.2761    1.9015   -0.1256 O   0  0  0  0  0  0  0  0  0  0  0  0
    0.4051    1.8919    1.3699 N   0  0  0  0  0  0  0  0  0  0  0  0
    1.1380    1.3380    1.7875 H   0  0  0  0  0  0  0  0  0  0  0  0
    0.3573    3.3183    1.6807 C   0  0  0  0  0  0  0  0  0  0  0  0
   -0.6670    3.6090    1.9198 H   0  0  0  0  0  0  0  0  0  0  0  0
    1.0066    3.5397    2.5289 H   0  0  0  0  0  0  0  0  0  0  0  0
    0.6896    3.8897    0.8118 H   0  0  0  0  0  0  0  0  0  0  0  0
  5  6  2  0  0  0  0
  5  7  1  0  0  0  0
  2  3  1  0  0  0  0
  2  4  1  0  0  0  0
  2  5  1  0  0  0  0
  1  2  1  0  0  0  0
 20 21  2  0  0  0  0
 20 22  1  0  0  0  0
 17 18  1  0  0  0  0
 17 19  2  0  0  0  0
 14 15  1  0  0  0  0
 14 16  1  0  0  0  0
 14 17  1  0  0  0  0
 11 12  1  0  0  0  0
 11 13  1  0  0  0  0
 11 14  1  0  0  0  0
  9 10  1  0  0  0  0
  9 11  1  0  0  0  0
  9 20  1  0  0  0  0
  7  8  1  0  0  0  0
  7  9  1  0  0  0  0
 24 25  1  0  0  0  0
 24 26  1  0  0  0  0
 24 27  1  0  0  0  0
 22 23  1  0  0  0  0
 22 24  1  0  0  0  0
M  CHG  1  18  -1
M  END
$$$$
default_name
  -OEChem-02102213163D

 27 26  0     1  0  0  0  0  0999 V2000
   -3.2406   -3.5400    1.2326 H   0  0  0  0  0  0  0  0  0  0  0  0
   -3.1436   -2.6190    0.6606 C   0  0  0  0  0  0  0  0  0  0  0  0
   -3.8786   -1.8920    0.9996 H   0  0  0  0  0  0  0  0  0  0  0  0
   -3.2846   -2.8280   -0.3984 H   0  0  0  0  0  0  0  0  0  0  0  0
   -1.7586   -2.0580    0.8686 C   0  0  0  0  0  0  0  0  0  0  0  0
   -0.9666   -2.6340    1.6026 O   0  0  0  0  0  0  0  0  0  0  0  0
   -1.4866   -0.9220    0.2366 N   0  0  0  0  0  0  0  0  0  0  0  0
   -2.2166   -0.4790   -0.2994 H   0  0  0  0  0  0  0  0  0  0  0  0
   -0.1956   -0.2250    0.2596 C   0  0  1  0  0  0  0  0  0  0  0  0
    0.3927   -0.6026    1.0964 H   0  0  0  0  0  0  0  0  0  0  0  0
    0.5767   -0.5489   -1.0351 C   0  0  0  0  0  0  0  0  0  0  0  0
    0.9576   -1.5681   -0.9534 H   0  0  0  0  0  0  0  0  0  0  0  0
   -0.1077   -0.5037   -1.8835 H   0  0  0  0  0  0  0  0  0  0  0  0
    1.7628    0.3957   -1.2930 C   0  0  0  0  0  0  0  0  0  0  0  0
    2.5274   -0.1382   -1.8624 H   0  0  0  0  0  0  0  0  0  0  0  0
    1.4097    1.2310   -1.9034 H   0  0  0  0  0  0  0  0  0  0  0  0
    2.3987    0.9421   -0.0061 C   0  0  0  0  0  0  0  0  0  0  0  0
    1.8377    0.6949    1.0851 O   0  5  0  0  0  0  0  0  0  0  0  0
    3.4633    1.5862   -0.1361 O   0  0  0  0  0  0  0  0  0  0  0  0
   -0.3954    1.2887    0.4814 C   0  0  0  0  0  0  0  0  0  0  0  0
   -1.2761    1.9015   -0.1256 O   0  0  0  0  0  0  0  0  0  0  0  0
    0.4051    1.8919    1.3699 N   0  0  0  0  0  0  0  0  0  0  0  0
    1.1380    1.3380    1.7875 H   0  0  0  0  0  0  0  0  0  0  0  0
    0.3573    3.3183    1.6807 C   0  0  0  0  0  0  0  0  0  0  0  0
   -0.6670    3.6090    1.9198 H   0  0  0  0  0  0  0  0  0  0  0  0
    1.0066    3.5397    2.5289 H   0  0  0  0  0  0  0  0  0  0  0  0
    0.6896    3.8897    0.8118 H   0  0  0  0  0  0  0  0  0  0  0  0
  5  6  2  0  0  0  0
  5  7  1  0  0  0  0
  2  3  1  0  0  0  0
  2  4  1  0  0  0  0
  2  5  1  0  0  0  0
  1  2  1  0  0  0  0
 20 21  2  0  0  0  0
 20 22  1  0  0  0  0
 17 18  1  0  0  0  0
 17 19  2  0  0  0  0
 14 15  1  0  0  0  0
 14 16  1  0  0  0  0
 14 17  1  0  0  0  0
 11 12  1  0  0  0  0
 11 13  1  0  0  0  0
 11 14  1  0  0  0  0
  9 10  1  0  0  0  0
  9 11  1  0  0  0  0
  9 20  1  0  0  0  0
  7  8  1  0  0  0  0
  7  9  1  0  0  0  0
 24 25  1  0  0  0  0
 24 26  1  0  0  0  0
 24 27  1  0  0  0  0
 22 23  1  0  0  0  0
 22 24  1  0  0  0  0
M  CHG  1  18  -1
M  END
$$$$
default_name
  -OEChem-02102213163D

 27 26  0     1  0  0  0  0  0999 V2000
   -3.2406   -3.5400    1.2326 H   0  0  0  0  0  0  0  0  0  0  0  0
   -3.1436   -2.6190    0.6606 C   0  0  0  0  0  0  0  0  0  0  0  0
   -3.8786   -1.8920    0.9996 H   0  0  0  0  0  0  0  0  0  0  0  0
   -3.2846   -2.8280   -0.3984 H   0  0  0  0  0  0  0  0  0  0  0  0
   -1.7586   -2.0580    0.8686 C   0  0  0  0  0  0  0  0  0  0  0  0
   -0.9666   -2.6340    1.6026 O   0  0  0  0  0  0  0  0  0  0  0  0
   -1.4866   -0.9220    0.2366 N   0  0  0  0  0  0  0  0  0  0  0  0
   -2.2166   -0.4790   -0.2994 H   0  0  0  0  0  0  0  0  0  0  0  0
   -0.1956   -0.2250    0.2596 C   0  0  1  0  0  0  0  0  0  0  0  0
    0.3927   -0.6026    1.0964 H   0  0  0  0  0  0  0  0  0  0  0  0
    0.5767   -0.5489   -1.0351 C   0  0  0  0  0  0  0  0  0  0  0  0
    0.9576   -1.5681   -0.9534 H   0  0  0  0  0  0  0  0  0  0  0  0
   -0.1077   -0.5037   -1.8835 H   0  0  0  0  0  0  0  0  0  0  0  0
    1.7628    0.3957   -1.2930 C   0  0  0  0  0  0  0  0  0  0  0  0
    2.3971   -0.0320   -2.0732 H   0  0  0  0  0  0  0  0  0  0  0  0
    1.3700    1.3469   -1.6617 H   0  0  0  0  0  0  0  0  0  0  0  0
    2.6213    0.6518   -0.0454 C   0  0  0  0  0  0  0  0  0  0  0  0
    2.2220    0.2035    1.0528 O   0  5  0  0  0  0  0  0  0  0  0  0
    3.6895    1.2797   -0.2188 O   0  0  0  0  0  0  0  0  0  0  0  0
   -0.3954    1.2887    0.4814 C   0  0  0  0  0  0  0  0  0  0  0  0
   -1.2761    1.9015   -0.1256 O   0  0  0  0  0  0  0  0  0  0  0  0
    0.4051    1.8919    1.3699 N   0  0  0  0  0  0  0  0  0  0  0  0
    1.1380    1.3380    1.7875 H   0  0  0  0  0  0  0  0  0  0  0  0
    0.3573    3.3183    1.6807 C   0  0  0  0  0  0  0  0  0  0  0  0
   -0.6670    3.6090    1.9198 H   0  0  0  0  0  0  0  0  0  0  0  0
    1.0066    3.5397    2.5289 H   0  0  0  0  0  0  0  0  0  0  0  0
    0.6896    3.8897    0.8118 H   0  0  0  0  0  0  0  0  0  0  0  0
  5  6  2  0  0  0  0
  5  7  1  0  0  0  0
  2  3  1  0  0  0  0
  2  4  1  0  0  0  0
  2  5  1  0  0  0  0
  1  2  1  0  0  0  0
 20 21  2  0  0  0  0
 20 22  1  0  0  0  0
 17 18  1  0  0  0  0
 17 19  2  0  0  0  0
 14 15  1  0  0  0  0
 14 16  1  0  0  0  0
 14 17  1  0  0  0  0
 11 12  1  0  0  0  0
 11 13  1  0  0  0  0
 11 14  1  0  0  0  0
  9 10  1  0  0  0  0
  9 11  1  0  0  0  0
  9 20  1  0  0  0  0
  7  8  1  0  0  0  0
  7  9  1  0  0  0  0
 24 25  1  0  0  0  0
 24 26  1  0  0  0  0
 24 27  1  0  0  0  0
 22 23  1  0  0  0  0
 22 24  1  0  0  0  0
M  CHG  1  18  -1
M  END
$$$$
default_name
  -OEChem-02102213163D

 27 26  0     1  0  0  0  0  0999 V2000
   -3.2406   -3.5400    1.2326 H   0  0  0  0  0  0  0  0  0  0  0  0
   -3.1436   -2.6190    0.6606 C   0  0  0  0  0  0  0  0  0  0  0  0
   -3.8786   -1.8920    0.9996 H   0  0  0  0  0  0  0  0  0  0  0  0
   -3.2846   -2.8280   -0.3984 H   0  0  0  0  0  0  0  0  0  0  0  0
   -1.7586   -2.0580    0.8686 C   0  0  0  0  0  0  0  0  0  0  0  0
   -0.9666   -2.6340    1.6026 O   0  0  0  0  0  0  0  0  0  0  0  0
   -1.4866   -0.9220    0.2366 N   0  0  0  0  0  0  0  0  0  0  0  0
   -2.2166   -0.4790   -0.2994 H   0  0  0  0  0  0  0  0  0  0  0  0
   -0.1956   -0.2250    0.2596 C   0  0  1  0  0  0  0  0  0  0  0  0
    0.3927   -0.6026    1.0964 H   0  0  0  0  0  0  0  0  0  0  0  0
    0.5767   -0.5489   -1.0351 C   0  0  0  0  0  0  0  0  0  0  0  0
    0.9576   -1.5681   -0.9534 H   0  0  0  0  0  0  0  0  0  0  0  0
   -0.1077   -0.5037   -1.8835 H   0  0  0  0  0  0  0  0  0  0  0  0
    1.7628    0.3957   -1.2930 C   0  0  0  0  0  0  0  0  0  0  0  0
    2.2423    0.1182   -2.2348 H   0  0  0  0  0  0  0  0  0  0  0  0
    1.3750    1.4123   -1.3988 H   0  0  0  0  0  0  0  0  0  0  0  0
    2.8175    0.3696   -0.1767 C   0  0  0  0  0  0  0  0  0  0  0  0
    2.5667   -0.2814    0.8624 O   0  5  0  0  0  0  0  0  0  0  0  0
    3.8815    0.9902   -0.3957 O   0  0  0  0  0  0  0  0  0  0  0  0
   -0.3954    1.2887    0.4814 C   0  0  0  0  0  0  0  0  0  0  0  0
   -1.2761    1.9015   -0.1256 O   0  0  0  0  0  0  0  0  0  0  0  0
    0.4051    1.8919    1.3699 N   0  0  0  0  0  0  0  0  0  0  0  0
    1.1380    1.3380    1.7875 H   0  0  0  0  0  0  0  0  0  0  0  0
    0.3573    3.3183    1.6807 C   0  0  0  0  0  0  0  0  0  0  0  0
   -0.6670    3.6090    1.9198 H   0  0  0  0  0  0  0  0  0  0  0  0
    1.0066    3.5397    2.5289 H   0  0  0  0  0  0  0  0  0  0  0  0
    0.6896    3.8897    0.8118 H   0  0  0  0  0  0  0  0  0  0  0  0
  5  6  2  0  0  0  0
  5  7  1  0  0  0  0
  2  3  1  0  0  0  0
  2  4  1  0  0  0  0
  2  5  1  0  0  0  0
  1  2  1  0  0  0  0
 20 21  2  0  0  0  0
 20 22  1  0  0  0  0
 17 18  1  0  0  0  0
 17 19  2  0  0  0  0
 14 15  1  0  0  0  0
 14 16  1  0  0  0  0
 14 17  1  0  0  0  0
 11 12  1  0  0  0  0
 11 13  1  0  0  0  0
 11 14  1  0  0  0  0
  9 10  1  0  0  0  0
  9 11  1  0  0  0  0
  9 20  1  0  0  0  0
  7  8  1  0  0  0  0
  7  9  1  0  0  0  0
 24 25  1  0  0  0  0
 24 26  1  0  0  0  0
 24 27  1  0  0  0  0
 22 23  1  0  0  0  0
 22 24  1  0  0  0  0
M  CHG  1  18  -1
M  END
$$$$
default_name
  -OEChem-02102213163D

 27 26  0     1  0  0  0  0  0999 V2000
   -3.2406   -3.5400    1.2326 H   0  0  0  0  0  0  0  0  0  0  0  0
   -3.1436   -2.6190    0.6606 C   0  0  0  0  0  0  0  0  0  0  0  0
   -3.8786   -1.8920    0.9996 H   0  0  0  0  0  0  0  0  0  0  0  0
   -3.2846   -2.8280   -0.3984 H   0  0  0  0  0  0  0  0  0  0  0  0
   -1.7586   -2.0580    0.8686 C   0  0  0  0  0  0  0  0  0  0  0  0
   -0.9666   -2.6340    1.6026 O   0  0  0  0  0  0  0  0  0  0  0  0
   -1.4866   -0.9220    0.2366 N   0  0  0  0  0  0  0  0  0  0  0  0
   -2.2166   -0.4790   -0.2994 H   0  0  0  0  0  0  0  0  0  0  0  0
   -0.1956   -0.2250    0.2596 C   0  0  1  0  0  0  0  0  0  0  0  0
    0.3927   -0.6026    1.0964 H   0  0  0  0  0  0  0  0  0  0  0  0
    0.5767   -0.5489   -1.0351 C   0  0  0  0  0  0  0  0  0  0  0  0
    0.9576   -1.5681   -0.9534 H   0  0  0  0  0  0  0  0  0  0  0  0
   -0.1077   -0.5037   -1.8835 H   0  0  0  0  0  0  0  0  0  0  0  0
    1.7628    0.3957   -1.2930 C   0  0  0  0  0  0  0  0  0  0  0  0
    2.0736    0.3023   -2.3363 H   0  0  0  0  0  0  0  0  0  0  0  0
    1.4245    1.4228   -1.1326 H   0  0  0  0  0  0  0  0  0  0  0  0
    2.9739    0.1147   -0.3911 C   0  0  0  0  0  0  0  0  0  0  0  0
    2.8484   -0.7267    0.5269 O   0  5  0  0  0  0  0  0  0  0  0  0
    4.0263    0.7376   -0.6549 O   0  0  0  0  0  0  0  0  0  0  0  0
   -0.3954    1.2887    0.4814 C   0  0  0  0  0  0  0  0  0  0  0  0
   -1.2761    1.9015   -0.1256 O   0  0  0  0  0  0  0  0  0  0  0  0
    0.4051    1.8919    1.3699 N   0  0  0  0  0  0  0  0  0  0  0  0
    1.1380    1.3380    1.7875 H   0  0  0  0  0  0  0  0  0  0  0  0
    0.3573    3.3183    1.6807 C   0  0  0  0  0  0  0  0  0  0  0  0
   -0.6670    3.6090    1.9198 H   0  0  0  0  0  0  0  0  0  0  0  0
    1.0066    3.5397    2.5289 H   0  0  0  0  0  0  0  0  0  0  0  0
    0.6896    3.8897    0.8118 H   0  0  0  0  0  0  0  0  0  0  0  0
  5  6  2  0  0  0  0
  5  7  1  0  0  0  0
  2  3  1  0  0  0  0
  2  4  1  0  0  0  0
  2  5  1  0  0  0  0
  1  2  1  0  0  0  0
 20 21  2  0  0  0  0
 20 22  1  0  0  0  0
 17 18  1  0  0  0  0
 17 19  2  0  0  0  0
 14 15  1  0  0  0  0
 14 16  1  0  0  0  0
 14 17  1  0  0  0  0
 11 12  1  0  0  0  0
 11 13  1  0  0  0  0
 11 14  1  0  0  0  0
  9 10  1  0  0  0  0
  9 11  1  0  0  0  0
  9 20  1  0  0  0  0
  7  8  1  0  0  0  0
  7  9  1  0  0  0  0
 24 25  1  0  0  0  0
 24 26  1  0  0  0  0
 24 27  1  0  0  0  0
 22 23  1  0  0  0  0
 22 24  1  0  0  0  0
M  CHG  1  18  -1
M  END
$$$$
default_name
  -OEChem-02102213163D

 27 26  0     1  0  0  0  0  0999 V2000
   -3.2406   -3.5400    1.2326 H   0  0  0  0  0  0  0  0  0  0  0  0
   -3.1436   -2.6190    0.6606 C   0  0  0  0  0  0  0  0  0  0  0  0
   -3.8786   -1.8920    0.9996 H   0  0  0  0  0  0  0  0  0  0  0  0
   -3.2846   -2.8280   -0.3984 H   0  0  0  0  0  0  0  0  0  0  0  0
   -1.7586   -2.0580    0.8686 C   0  0  0  0  0  0  0  0  0  0  0  0
   -0.9666   -2.6340    1.6026 O   0  0  0  0  0  0  0  0  0  0  0  0
   -1.4866   -0.9220    0.2366 N   0  0  0  0  0  0  0  0  0  0  0  0
   -2.2166   -0.4790   -0.2994 H   0  0  0  0  0  0  0  0  0  0  0  0
   -0.1956   -0.2250    0.2596 C   0  0  1  0  0  0  0  0  0  0  0  0
    0.3927   -0.6026    1.0964 H   0  0  0  0  0  0  0  0  0  0  0  0
    0.5767   -0.5489   -1.0351 C   0  0  0  0  0  0  0  0  0  0  0  0
    0.9576   -1.5681   -0.9534 H   0  0  0  0  0  0  0  0  0  0  0  0
   -0.1077   -0.5037   -1.8835 H   0  0  0  0  0  0  0  0  0  0  0  0
    1.7628    0.3957   -1.2930 C   0  0  0  0  0  0  0  0  0  0  0  0
    1.9025    0.5078   -2.3708 H   0  0  0  0  0  0  0  0  0  0  0  0
    1.5151    1.3776   -0.8813 H   0  0  0  0  0  0  0  0  0  0  0  0
    3.0798   -0.0955   -0.6739 C   0  0  0  0  0  0  0  0  0  0  0  0
    3.0478   -1.1021    0.0693 O   0  5  0  0  0  0  0  0  0  0  0  0
    4.1140    0.5391   -0.9788 O   0  0  0  0  0  0  0  0  0  0  0  0
   -0.3954    1.2887    0.4814 C   0  0  0  0  0  0  0  0  0  0  0  0
   -1.2761    1.9015   -0.1256 O   0  0  0  0  0  0  0  0  0  0  0  0
    0.4051    1.8919    1.3699 N   0  0  0  0  0  0  0  0  0  0  0  0
    1.1380    1.3380    1.7875 H   0  0  0  0  0  0  0  0  0  0  0  0
    0.3573    3.3183    1.6807 C   0  0  0  0  0  0  0  0  0  0  0  0
   -0.6670    3.6090    1.9198 H   0  0  0  0  0  0  0  0  0  0  0  0
    1.0066    3.5397    2.5289 H   0  0  0  0  0  0  0  0  0  0  0  0
    0.6896    3.8897    0.8118 H   0  0  0  0  0  0  0  0  0  0  0  0
  5  6  2  0  0  0  0
  5  7  1  0  0  0  0
  2  3  1  0  0  0  0
  2  4  1  0  0  0  0
  2  5  1  0  0  0  0
  1  2  1  0  0  0  0
 20 21  2  0  0  0  0
 20 22  1  0  0  0  0
 17 18  1  0  0  0  0
 17 19  2  0  0  0  0
 14 15  1  0  0  0  0
 14 16  1  0  0  0  0
 14 17  1  0  0  0  0
 11 12  1  0  0  0  0
 11 13  1  0  0  0  0
 11 14  1  0  0  0  0
  9 10  1  0  0  0  0
  9 11  1  0  0  0  0
  9 20  1  0  0  0  0
  7  8  1  0  0  0  0
  7  9  1  0  0  0  0
 24 25  1  0  0  0  0
 24 26  1  0  0  0  0
 24 27  1  0  0  0  0
 22 23  1  0  0  0  0
 22 24  1  0  0  0  0
M  CHG  1  18  -1
M  END
$$$$
default_name
  -OEChem-02102213163D

 27 26  0     1  0  0  0  0  0999 V2000
   -3.2406   -3.5400    1.2326 H   0  0  0  0  0  0  0  0  0  0  0  0
   -3.1436   -2.6190    0.6606 C   0  0  0  0  0  0  0  0  0  0  0  0
   -3.8786   -1.8920    0.9996 H   0  0  0  0  0  0  0  0  0  0  0  0
   -3.2846   -2.8280   -0.3984 H   0  0  0  0  0  0  0  0  0  0  0  0
   -1.7586   -2.0580    0.8686 C   0  0  0  0  0  0  0  0  0  0  0  0
   -0.9666   -2.6340    1.6026 O   0  0  0  0  0  0  0  0  0  0  0  0
   -1.4866   -0.9220    0.2366 N   0  0  0  0  0  0  0  0  0  0  0  0
   -2.2166   -0.4790   -0.2994 H   0  0  0  0  0  0  0  0  0  0  0  0
   -0.1956   -0.2250    0.2596 C   0  0  1  0  0  0  0  0  0  0  0  0
    0.3927   -0.6026    1.0964 H   0  0  0  0  0  0  0  0  0  0  0  0
    0.5767   -0.5489   -1.0351 C   0  0  0  0  0  0  0  0  0  0  0  0
    0.9576   -1.5681   -0.9534 H   0  0  0  0  0  0  0  0  0  0  0  0
   -0.1077   -0.5037   -1.8835 H   0  0  0  0  0  0  0  0  0  0  0  0
    1.7628    0.3957   -1.2930 C   0  0  0  0  0  0  0  0  0  0  0  0
    1.7407    0.7205   -2.3360 H   0  0  0  0  0  0  0  0  0  0  0  0
    1.6406    1.2799   -0.6619 H   0  0  0  0  0  0  0  0  0  0  0  0
    3.1281   -0.2467   -1.0058 C   0  0  0  0  0  0  0  0  0  0  0  0
    3.1515   -1.3820   -0.4795 O   0  5  0  0  0  0  0  0  0  0  0  0
    4.1386    0.4082   -1.3451 O   0  0  0  0  0  0  0  0  0  0  0  0
   -0.3954    1.2887    0.4814 C   0  0  0  0  0  0  0  0  0  0  0  0
   -1.2761    1.9015   -0.1256 O   0  0  0  0  0  0  0  0  0  0  0  0
    0.4051    1.8919    1.3699 N   0  0  0  0  0  0  0  0  0  0  0  0
    1.1380    1.3380    1.7875 H   0  0  0  0  0  0  0  0  0  0  0  0
    0.3573    3.3183    1.6807 C   0  0  0  0  0  0  0  0  0  0  0  0
   -0.6670    3.6090    1.9198 H   0  0  0  0  0  0  0  0  0  0  0  0
    1.0066    3.5397    2.5289 H   0  0  0  0  0  0  0  0  0  0  0  0
    0.6896    3.8897    0.8118 H   0  0  0  0  0  0  0  0  0  0  0  0
  5  6  2  0  0  0  0
  5  7  1  0  0  0  0
  2  3  1  0  0  0  0
  2  4  1  0  0  0  0
  2  5  1  0  0  0  0
  1  2  1  0  0  0  0
 20 21  2  0  0  0  0
 20 22  1  0  0  0  0
 17 18  1  0  0  0  0
 17 19  2  0  0  0  0
 14 15  1  0  0  0  0
 14 16  1  0  0  0  0
 14 17  1  0  0  0  0
 11 12  1  0  0  0  0
 11 13  1  0  0  0  0
 11 14  1  0  0  0  0
  9 10  1  0  0  0  0
  9 11  1  0  0  0  0
  9 20  1  0  0  0  0
  7  8  1  0  0  0  0
  7  9  1  0  0  0  0
 24 25  1  0  0  0  0
 24 26  1  0  0  0  0
 24 27  1  0  0  0  0
 22 23  1  0  0  0  0
 22 24  1  0  0  0  0
M  CHG  1  18  -1
M  END
$$$$
default_name
  -OEChem-02102213163D

 27 26  0     1  0  0  0  0  0999 V2000
   -3.2406   -3.5400    1.2326 H   0  0  0  0  0  0  0  0  0  0  0  0
   -3.1436   -2.6190    0.6606 C   0  0  0  0  0  0  0  0  0  0  0  0
   -3.8786   -1.8920    0.9996 H   0  0  0  0  0  0  0  0  0  0  0  0
   -3.2846   -2.8280   -0.3984 H   0  0  0  0  0  0  0  0  0  0  0  0
   -1.7586   -2.0580    0.8686 C   0  0  0  0  0  0  0  0  0  0  0  0
   -0.9666   -2.6340    1.6026 O   0  0  0  0  0  0  0  0  0  0  0  0
   -1.4866   -0.9220    0.2366 N   0  0  0  0  0  0  0  0  0  0  0  0
   -2.2166   -0.4790   -0.2994 H   0  0  0  0  0  0  0  0  0  0  0  0
   -0.1956   -0.2250    0.2596 C   0  0  1  0  0  0  0  0  0  0  0  0
    0.3927   -0.6026    1.0964 H   0  0  0  0  0  0  0  0  0  0  0  0
    0.5767   -0.5489   -1.0351 C   0  0  0  0  0  0  0  0  0  0  0  0
    0.9576   -1.5681   -0.9534 H   0  0  0  0  0  0  0  0  0  0  0  0
   -0.1077   -0.5037   -1.8835 H   0  0  0  0  0  0  0  0  0  0  0  0
    1.7628    0.3957   -1.2930 C   0  0  0  0  0  0  0  0  0  0  0  0
    1.5991    0.9261   -2.2341 H   0  0  0  0  0  0  0  0  0  0  0  0
    1.7925    1.1363   -0.4894 H   0  0  0  0  0  0  0  0  0  0  0  0
    3.1153   -0.3286   -1.3643 C   0  0  0  0  0  0  0  0  0  0  0  0
    3.1522   -1.5473   -1.0818 O   0  5  0  0  0  0  0  0  0  0  0  0
    4.0985    0.3538   -1.7290 O   0  0  0  0  0  0  0  0  0  0  0  0
   -0.3954    1.2887    0.4814 C   0  0  0  0  0  0  0  0  0  0  0  0
   -1.2761    1.9015   -0.1256 O   0  0  0  0  0  0  0  0  0  0  0  0
    0.4051    1.8919    1.3699 N   0  0  0  0  0  0  0  0  0  0  0  0
    1.1380    1.3380    1.7875 H   0  0  0  0  0  0  0  0  0  0  0  0
    0.3573    3.3183    1.6807 C   0  0  0  0  0  0  0  0  0  0  0  0
   -0.6670    3.6090    1.9198 H   0  0  0  0  0  0  0  0  0  0  0  0
    1.0066    3.5397    2.5289 H   0  0  0  0  0  0  0  0  0  0  0  0
    0.6896    3.8897    0.8118 H   0  0  0  0  0  0  0  0  0  0  0  0
  5  6  2  0  0  0  0
  5  7  1  0  0  0  0
  2  3  1  0  0  0  0
  2  4  1  0  0  0  0
  2  5  1  0  0  0  0
  1  2  1  0  0  0  0
 20 21  2  0  0  0  0
 20 22  1  0  0  0  0
 17 18  1  0  0  0  0
 17 19  2  0  0  0  0
 14 15  1  0  0  0  0
 14 16  1  0  0  0  0
 14 17  1  0  0  0  0
 11 12  1  0  0  0  0
 11 13  1  0  0  0  0
 11 14  1  0  0  0  0
  9 10  1  0  0  0  0
  9 11  1  0  0  0  0
  9 20  1  0  0  0  0
  7  8  1  0  0  0  0
  7  9  1  0  0  0  0
 24 25  1  0  0  0  0
 24 26  1  0  0  0  0
 24 27  1  0  0  0  0
 22 23  1  0  0  0  0
 22 24  1  0  0  0  0
M  CHG  1  18  -1
M  END
$$$$
default_name
  -OEChem-02102213163D

 27 26  0     1  0  0  0  0  0999 V2000
   -3.2406   -3.5400    1.2326 H   0  0  0  0  0  0  0  0  0  0  0  0
   -3.1436   -2.6190    0.6606 C   0  0  0  0  0  0  0  0  0  0  0  0
   -3.8786   -1.8920    0.9996 H   0  0  0  0  0  0  0  0  0  0  0  0
   -3.2846   -2.8280   -0.3984 H   0  0  0  0  0  0  0  0  0  0  0  0
   -1.7586   -2.0580    0.8686 C   0  0  0  0  0  0  0  0  0  0  0  0
   -0.9666   -2.6340    1.6026 O   0  0  0  0  0  0  0  0  0  0  0  0
   -1.4866   -0.9220    0.2366 N   0  0  0  0  0  0  0  0  0  0  0  0
   -2.2166   -0.4790   -0.2994 H   0  0  0  0  0  0  0  0  0  0  0  0
   -0.1956   -0.2250    0.2596 C   0  0  1  0  0  0  0  0  0  0  0  0
    0.3927   -0.6026    1.0964 H   0  0  0  0  0  0  0  0  0  0  0  0
    0.5767   -0.5489   -1.0351 C   0  0  0  0  0  0  0  0  0  0  0  0
    0.9576   -1.5681   -0.9534 H   0  0  0  0  0  0  0  0  0  0  0  0
   -0.1077   -0.5037   -1.8835 H   0  0  0  0  0  0  0  0  0  0  0  0
    1.7628    0.3957   -1.2930 C   0  0  0  0  0  0  0  0  0  0  0  0
    1.4875    1.1104   -2.0722 H   0  0  0  0  0  0  0  0  0  0  0  0
    1.9603    0.9566   -0.3756 H   0  0  0  0  0  0  0  0  0  0  0  0
    3.0425   -0.3356   -1.7249 C   0  0  0  0  0  0  0  0  0  0  0  0
    3.0500   -1.5868   -1.6968 O   0  5  0  0  0  0  0  0  0  0  0  0
    3.9964    0.3796   -2.1043 O   0  0  0  0  0  0  0  0  0  0  0  0
   -0.3954    1.2887    0.4814 C   0  0  0  0  0  0  0  0  0  0  0  0
   -1.2761    1.9015   -0.1256 O   0  0  0  0  0  0  0  0  0  0  0  0
    0.4051    1.8919    1.3699 N   0  0  0  0  0  0  0  0  0  0  0  0
    1.1380    1.3380    1.7875 H   0  0  0  0  0  0  0  0  0  0  0  0
    0.3573    3.3183    1.6807 C   0  0  0  0  0  0  0  0  0  0  0  0
   -0.6670    3.6090    1.9198 H   0  0  0  0  0  0  0  0  0  0  0  0
    1.0066    3.5397    2.5289 H   0  0  0  0  0  0  0  0  0  0  0  0
    0.6896    3.8897    0.8118 H   0  0  0  0  0  0  0  0  0  0  0  0
  5  6  2  0  0  0  0
  5  7  1  0  0  0  0
  2  3  1  0  0  0  0
  2  4  1  0  0  0  0
  2  5  1  0  0  0  0
  1  2  1  0  0  0  0
 20 21  2  0  0  0  0
 20 22  1  0  0  0  0
 17 18  1  0  0  0  0
 17 19  2  0  0  0  0
 14 15  1  0  0  0  0
 14 16  1  0  0  0  0
 14 17  1  0  0  0  0
 11 12  1  0  0  0  0
 11 13  1  0  0  0  0
 11 14  1  0  0  0  0
  9 10  1  0  0  0  0
  9 11  1  0  0  0  0
  9 20  1  0  0  0  0
  7  8  1  0  0  0  0
  7  9  1  0  0  0  0
 24 25  1  0  0  0  0
 24 26  1  0  0  0  0
 24 27  1  0  0  0  0
 22 23  1  0  0  0  0
 22 24  1  0  0  0  0
M  CHG  1  18  -1
M  END
$$$$
default_name
  -OEChem-02102213163D

 27 26  0     1  0  0  0  0  0999 V2000
   -3.2406   -3.5400    1.2326 H   0  0  0  0  0  0  0  0  0  0  0  0
   -3.1436   -2.6190    0.6606 C   0  0  0  0  0  0  0  0  0  0  0  0
   -3.8786   -1.8920    0.9996 H   0  0  0  0  0  0  0  0  0  0  0  0
   -3.2846   -2.8280   -0.3984 H   0  0  0  0  0  0  0  0  0  0  0  0
   -1.7586   -2.0580    0.8686 C   0  0  0  0  0  0  0  0  0  0  0  0
   -0.9666   -2.6340    1.6026 O   0  0  0  0  0  0  0  0  0  0  0  0
   -1.4866   -0.9220    0.2366 N   0  0  0  0  0  0  0  0  0  0  0  0
   -2.2166   -0.4790   -0.2994 H   0  0  0  0  0  0  0  0  0  0  0  0
   -0.1956   -0.2250    0.2596 C   0  0  1  0  0  0  0  0  0  0  0  0
    0.3927   -0.6026    1.0964 H   0  0  0  0  0  0  0  0  0  0  0  0
    0.5767   -0.5489   -1.0351 C   0  0  0  0  0  0  0  0  0  0  0  0
    0.9576   -1.5681   -0.9534 H   0  0  0  0  0  0  0  0  0  0  0  0
   -0.1077   -0.5037   -1.8835 H   0  0  0  0  0  0  0  0  0  0  0  0
    1.7628    0.3957   -1.2930 C   0  0  0  0  0  0  0  0  0  0  0  0
    1.4134    1.2610   -1.8613 H   0  0  0  0  0  0  0  0  0  0  0  0
    2.1328    0.7530   -0.3283 H   0  0  0  0  0  0  0  0  0  0  0  0
    2.9146   -0.2672   -2.0630 C   0  0  0  0  0  0  0  0  0  0  0  0
    2.8518   -1.4978   -2.2824 O   0  5  0  0  0  0  0  0  0  0  0  0
    3.8392    0.4839   -2.4455 O   0  0  0  0  0  0  0  0  0  0  0  0
   -0.3954    1.2887    0.4814 C   0  0  0  0  0  0  0  0  0  0  0  0
   -1.2761    1.9015   -0.1256 O   0  0  0  0  0  0  0  0  0  0  0  0
    0.4051    1.8919    1.3699 N   0  0  0  0  0  0  0  0  0  0  0  0
    1.1380    1.3380    1.7875 H   0  0  0  0  0  0  0  0  0  0  0  0
    0.3573    3.3183    1.6807 C   0  0  0  0  0  0  0  0  0  0  0  0
   -0.6670    3.6090    1.9198 H   0  0  0  0  0  0  0  0  0  0  0  0
    1.0066    3.5397    2.5289 H   0  0  0  0  0  0  0  0  0  0  0  0
    0.6896    3.8897    0.8118 H   0  0  0  0  0  0  0  0  0  0  0  0
  5  6  2  0  0  0  0
  5  7  1  0  0  0  0
  2  3  1  0  0  0  0
  2  4  1  0  0  0  0
  2  5  1  0  0  0  0
  1  2  1  0  0  0  0
 20 21  2  0  0  0  0
 20 22  1  0  0  0  0
 17 18  1  0  0  0  0
 17 19  2  0  0  0  0
 14 15  1  0  0  0  0
 14 16  1  0  0  0  0
 14 17  1  0  0  0  0
 11 12  1  0  0  0  0
 11 13  1  0  0  0  0
 11 14  1  0  0  0  0
  9 10  1  0  0  0  0
  9 11  1  0  0  0  0
  9 20  1  0  0  0  0
  7  8  1  0  0  0  0
  7  9  1  0  0  0  0
 24 25  1  0  0  0  0
 24 26  1  0  0  0  0
 24 27  1  0  0  0  0
 22 23  1  0  0  0  0
 22 24  1  0  0  0  0
M  CHG  1  18  -1
M  END
$$$$
default_name
  -OEChem-02102213163D

 27 26  0     1  0  0  0  0  0999 V2000
   -3.2406   -3.5400    1.2326 H   0  0  0  0  0  0  0  0  0  0  0  0
   -3.1436   -2.6190    0.6606 C   0  0  0  0  0  0  0  0  0  0  0  0
   -3.8786   -1.8920    0.9996 H   0  0  0  0  0  0  0  0  0  0  0  0
   -3.2846   -2.8280   -0.3984 H   0  0  0  0  0  0  0  0  0  0  0  0
   -1.7586   -2.0580    0.8686 C   0  0  0  0  0  0  0  0  0  0  0  0
   -0.9666   -2.6340    1.6026 O   0  0  0  0  0  0  0  0  0  0  0  0
   -1.4866   -0.9220    0.2366 N   0  0  0  0  0  0  0  0  0  0  0  0
   -2.2166   -0.4790   -0.2994 H   0  0  0  0  0  0  0  0  0  0  0  0
   -0.1956   -0.2250    0.2596 C   0  0  1  0  0  0  0  0  0  0  0  0
    0.3927   -0.6026    1.0964 H   0  0  0  0  0  0  0  0  0  0  0  0
    0.5767   -0.5489   -1.0351 C   0  0  0  0  0  0  0  0  0  0  0  0
    0.9576   -1.5681   -0.9534 H   0  0  0  0  0  0  0  0  0  0  0  0
   -0.1077   -0.5037   -1.8835 H   0  0  0  0  0  0  0  0  0  0  0  0
    1.7628    0.3957   -1.2930 C   0  0  0  0  0  0  0  0  0  0  0  0
    1.3819    1.3676   -1.6157 H   0  0  0  0  0  0  0  0  0  0  0  0
    2.2980    0.5394   -0.3506 H   0  0  0  0  0  0  0  0  0  0  0  0
    2.7402   -0.1281   -2.3557 C   0  0  0  0  0  0  0  0  0  0  0  0
    2.5711   -1.2863   -2.7988 O   0  5  0  0  0  0  0  0  0  0  0  0
    3.6377    0.6595   -2.7292 O   0  0  0  0  0  0  0  0  0  0  0  0
   -0.3954    1.2887    0.4814 C   0  0  0  0  0  0  0  0  0  0  0  0
   -1.2761    1.9015   -0.1256 O   0  0  0  0  0  0  0  0  0  0  0  0
    0.4051    1.8919    1.3699 N   0  0  0  0  0  0  0  0  0  0  0  0
    1.1380    1.3380    1.7875 H   0  0  0  0  0  0  0  0  0  0  0  0
    0.3573    3.3183    1.6807 C   0  0  0  0  0  0  0  0  0  0  0  0
   -0.6670    3.6090    1.9198 H   0  0  0  0  0  0  0  0  0  0  0  0
    1.0066    3.5397    2.5289 H   0  0  0  0  0  0  0  0  0  0  0  0
    0.6896    3.8897    0.8118 H   0  0  0  0  0  0  0  0  0  0  0  0
  5  6  2  0  0  0  0
  5  7  1  0  0  0  0
  2  3  1  0  0  0  0
  2  4  1  0  0  0  0
  2  5  1  0  0  0  0
  1  2  1  0  0  0  0
 20 21  2  0  0  0  0
 20 22  1  0  0  0  0
 17 18  1  0  0  0  0
 17 19  2  0  0  0  0
 14 15  1  0  0  0  0
 14 16  1  0  0  0  0
 14 17  1  0  0  0  0
 11 12  1  0  0  0  0
 11 13  1  0  0  0  0
 11 14  1  0  0  0  0
  9 10  1  0  0  0  0
  9 11  1  0  0  0  0
  9 20  1  0  0  0  0
  7  8  1  0  0  0  0
  7  9  1  0  0  0  0
 24 25  1  0  0  0  0
 24 26  1  0  0  0  0
 24 27  1  0  0  0  0
 22 23  1  0  0  0  0
 22 24  1  0  0  0  0
M  CHG  1  18  -1
M  END
$$$$
