
  -OEChem-04042215583D

 27 26  0     1  0  0  0  0  0999 V2000
   -2.6917   -3.8581    0.3465 H   0  0  0  0  0  0  0  0  0  0  0  0
   -2.5444   -2.9352   -0.2218 C   0  0  0  0  0  0  0  0  0  0  0  0
   -3.3002   -2.2083    0.0860 H   0  0  0  0  0  0  0  0  0  0  0  0
   -2.6700   -3.1529   -1.2854 H   0  0  0  0  0  0  0  0  0  0  0  0
   -1.1550   -2.3781    0.0328 C   0  0  0  0  0  0  0  0  0  0  0  0
   -0.3881   -2.9825    0.7616 O   0  0  0  0  0  0  0  0  0  0  0  0
   -0.7755   -1.2060   -0.5880 N   0  0  0  0  0  0  0  0  0  0  0  0
   -1.4431   -0.7815   -1.2247 H   0  0  0  0  0  0  0  0  0  0  0  0
    0.5282   -0.5390   -0.4183 C   0  0  1  0  0  0  0  0  0  0  0  0
    1.3381   -1.2009   -0.7429 H   0  0  0  0  0  0  0  0  0  0  0  0
    0.4504    0.6777   -1.3564 C   0  0  0  0  0  0  0  0  0  0  0  0
    0.2710    0.3280   -2.3791 H   0  0  0  0  0  0  0  0  0  0  0  0
   -0.4023    1.3014   -1.0656 H   0  0  0  0  0  0  0  0  0  0  0  0
    1.7109    1.5520   -1.3632 C   0  0  0  0  0  0  0  0  0  0  0  0
    1.9108    1.9496   -0.3642 H   0  0  0  0  0  0  0  0  0  0  0  0
    2.5774    0.9579   -1.6690 H   0  0  0  0  0  0  0  0  0  0  0  0
    1.5133    2.7215   -2.3275 C   0  0  0  0  0  0  0  0  0  0  0  0
    0.6999    3.6173   -1.9861 O   0  5  0  0  0  0  0  0  0  0  0  0
    2.1086    2.6789   -3.4320 O   0  0  0  0  0  0  0  0  0  0  0  0
    0.8316   -0.1197    1.0392 C   0  0  0  0  0  0  0  0  0  0  0  0
    1.9284   -0.3380    1.5404 O   0  0  0  0  0  0  0  0  0  0  0  0
   -0.1456    0.5024    1.7961 N   0  0  0  0  0  0  0  0  0  0  0  0
   -0.9674    0.8123    1.2900 H   0  0  0  0  0  0  0  0  0  0  0  0
    0.1066    1.0439    3.1228 C   0  0  0  0  0  0  0  0  0  0  0  0
    0.8826    1.8149    3.0792 H   0  0  0  0  0  0  0  0  0  0  0  0
   -0.8065    1.4914    3.5259 H   0  0  0  0  0  0  0  0  0  0  0  0
    0.4320    0.2510    3.8039 H   0  0  0  0  0  0  0  0  0  0  0  0
  1  2  1  0  0  0  0
  2  3  1  0  0  0  0
  2  4  1  0  0  0  0
  2  5  1  0  0  0  0
  5  6  2  0  0  0  0
  5  7  1  0  0  0  0
  7  8  1  0  0  0  0
  7  9  1  0  0  0  0
  9 10  1  0  0  0  0
  9 11  1  0  0  0  0
  9 20  1  0  0  0  0
 11 12  1  0  0  0  0
 11 13  1  0  0  0  0
 11 14  1  0  0  0  0
 14 15  1  0  0  0  0
 14 16  1  0  0  0  0
 14 17  1  0  0  0  0
 17 18  1  0  0  0  0
 17 19  2  0  0  0  0
 20 21  2  0  0  0  0
 20 22  1  0  0  0  0
 22 23  1  0  0  0  0
 22 24  1  0  0  0  0
 24 25  1  0  0  0  0
 24 26  1  0  0  0  0
 24 27  1  0  0  0  0
M  CHG  1  18  -1
M  END
$$$$

  -OEChem-04042215583D

 27 26  0     1  0  0  0  0  0999 V2000
   -2.7942   -3.7657    0.4771 H   0  0  0  0  0  0  0  0  0  0  0  0
   -2.6443   -2.8486   -0.0997 C   0  0  0  0  0  0  0  0  0  0  0  0
   -3.3414   -2.0885    0.2614 H   0  0  0  0  0  0  0  0  0  0  0  0
   -2.8552   -3.0559   -1.1518 H   0  0  0  0  0  0  0  0  0  0  0  0
   -1.2153   -2.3585    0.0549 C   0  0  0  0  0  0  0  0  0  0  0  0
   -0.4175   -3.0189    0.6970 O   0  0  0  0  0  0  0  0  0  0  0  0
   -0.8342   -1.1892   -0.5698 N   0  0  0  0  0  0  0  0  0  0  0  0
   -1.5427   -0.6994   -1.1075 H   0  0  0  0  0  0  0  0  0  0  0  0
    0.4935   -0.5587   -0.4525 C   0  0  1  0  0  0  0  0  0  0  0  0
    1.2703   -1.2371   -0.8206 H   0  0  0  0  0  0  0  0  0  0  0  0
    0.3999    0.6686   -1.3770 C   0  0  0  0  0  0  0  0  0  0  0  0
    0.1517    0.3447   -2.3931 H   0  0  0  0  0  0  0  0  0  0  0  0
   -0.4270    1.2924   -1.0212 H   0  0  0  0  0  0  0  0  0  0  0  0
    1.6774    1.5254   -1.4453 C   0  0  0  0  0  0  0  0  0  0  0  0
    2.0854    1.7007   -0.4466 H   0  0  0  0  0  0  0  0  0  0  0  0
    2.4394    0.9962   -2.0252 H   0  0  0  0  0  0  0  0  0  0  0  0
    1.3920    2.8933   -2.0741 C   0  0  0  0  0  0  0  0  0  0  0  0
    2.0719    3.2256   -3.0756 O   0  5  0  0  0  0  0  0  0  0  0  0
    0.4544    3.5774   -1.5880 O   0  0  0  0  0  0  0  0  0  0  0  0
    0.8711   -0.1664    0.9953 C   0  0  0  0  0  0  0  0  0  0  0  0
    1.9764   -0.4403    1.4486 O   0  0  0  0  0  0  0  0  0  0  0  0
   -0.0534    0.4717    1.8038 N   0  0  0  0  0  0  0  0  0  0  0  0
   -0.8595    0.8572    1.3240 H   0  0  0  0  0  0  0  0  0  0  0  0
    0.2876    0.9987    3.1169 C   0  0  0  0  0  0  0  0  0  0  0  0
    1.0572    1.7725    3.0289 H   0  0  0  0  0  0  0  0  0  0  0  0
   -0.5970    1.4383    3.5866 H   0  0  0  0  0  0  0  0  0  0  0  0
    0.6608    0.1999    3.7661 H   0  0  0  0  0  0  0  0  0  0  0  0
  1  2  1  0  0  0  0
  2  3  1  0  0  0  0
  2  4  1  0  0  0  0
  2  5  1  0  0  0  0
  5  6  2  0  0  0  0
  5  7  1  0  0  0  0
  7  8  1  0  0  0  0
  7  9  1  0  0  0  0
  9 10  1  0  0  0  0
  9 11  1  0  0  0  0
  9 20  1  0  0  0  0
 11 12  1  0  0  0  0
 11 13  1  0  0  0  0
 11 14  1  0  0  0  0
 14 15  1  0  0  0  0
 14 16  1  0  0  0  0
 14 17  1  0  0  0  0
 17 18  1  0  0  0  0
 17 19  2  0  0  0  0
 20 21  2  0  0  0  0
 20 22  1  0  0  0  0
 22 23  1  0  0  0  0
 22 24  1  0  0  0  0
 24 25  1  0  0  0  0
 24 26  1  0  0  0  0
 24 27  1  0  0  0  0
M  CHG  1  18  -1
M  END
$$$$

  -OEChem-04042215583D

 27 26  0     1  0  0  0  0  0999 V2000
   -2.7505   -3.7669    0.5154 H   0  0  0  0  0  0  0  0  0  0  0  0
   -2.6192   -2.8341   -0.0402 C   0  0  0  0  0  0  0  0  0  0  0  0
   -3.2658   -2.0702    0.3985 H   0  0  0  0  0  0  0  0  0  0  0  0
   -2.9144   -2.9983   -1.0795 H   0  0  0  0  0  0  0  0  0  0  0  0
   -1.1701   -2.3847    0.0230 C   0  0  0  0  0  0  0  0  0  0  0  0
   -0.3480   -3.0784    0.5961 O   0  0  0  0  0  0  0  0  0  0  0  0
   -0.8014   -1.2123   -0.6032 N   0  0  0  0  0  0  0  0  0  0  0  0
   -1.5411   -0.6772   -1.0472 H   0  0  0  0  0  0  0  0  0  0  0  0
    0.5176   -0.5682   -0.4668 C   0  0  1  0  0  0  0  0  0  0  0  0
    1.3084   -1.2352   -0.8259 H   0  0  0  0  0  0  0  0  0  0  0  0
    0.4129    0.6597   -1.3894 C   0  0  0  0  0  0  0  0  0  0  0  0
    0.1766    0.3368   -2.4086 H   0  0  0  0  0  0  0  0  0  0  0  0
   -0.4322    1.2626   -1.0397 H   0  0  0  0  0  0  0  0  0  0  0  0
    1.6749    1.5429   -1.4484 C   0  0  0  0  0  0  0  0  0  0  0  0
    2.2234    1.5168   -0.5040 H   0  0  0  0  0  0  0  0  0  0  0  0
    2.3481    1.1680   -2.2254 H   0  0  0  0  0  0  0  0  0  0  0  0
    1.3042    3.0031   -1.7234 C   0  0  0  0  0  0  0  0  0  0  0  0
    1.7215    3.5210   -2.7879 O   0  5  0  0  0  0  0  0  0  0  0  0
    0.5378    3.5716   -0.9032 O   0  0  0  0  0  0  0  0  0  0  0  0
    0.8688   -0.1683    0.9860 C   0  0  0  0  0  0  0  0  0  0  0  0
    1.9526   -0.4749    1.4701 O   0  0  0  0  0  0  0  0  0  0  0  0
   -0.0751    0.4634    1.7769 N   0  0  0  0  0  0  0  0  0  0  0  0
   -0.8221    0.9182    1.2621 H   0  0  0  0  0  0  0  0  0  0  0  0
    0.2503    0.9866    3.0954 C   0  0  0  0  0  0  0  0  0  0  0  0
    1.0356    1.7459    3.0211 H   0  0  0  0  0  0  0  0  0  0  0  0
   -0.6349    1.4444    3.5465 H   0  0  0  0  0  0  0  0  0  0  0  0
    0.5952    0.1823    3.7532 H   0  0  0  0  0  0  0  0  0  0  0  0
  1  2  1  0  0  0  0
  2  3  1  0  0  0  0
  2  4  1  0  0  0  0
  2  5  1  0  0  0  0
  5  6  2  0  0  0  0
  5  7  1  0  0  0  0
  7  8  1  0  0  0  0
  7  9  1  0  0  0  0
  9 10  1  0  0  0  0
  9 11  1  0  0  0  0
  9 20  1  0  0  0  0
 11 12  1  0  0  0  0
 11 13  1  0  0  0  0
 11 14  1  0  0  0  0
 14 15  1  0  0  0  0
 14 16  1  0  0  0  0
 14 17  1  0  0  0  0
 17 18  1  0  0  0  0
 17 19  2  0  0  0  0
 20 21  2  0  0  0  0
 20 22  1  0  0  0  0
 22 23  1  0  0  0  0
 22 24  1  0  0  0  0
 24 25  1  0  0  0  0
 24 26  1  0  0  0  0
 24 27  1  0  0  0  0
M  CHG  1  18  -1
M  END
$$$$

  -OEChem-04042215583D

 27 26  0     1  0  0  0  0  0999 V2000
   -2.7041   -3.7951    0.5212 H   0  0  0  0  0  0  0  0  0  0  0  0
   -2.5920   -2.8412   -0.0017 C   0  0  0  0  0  0  0  0  0  0  0  0
   -3.2085   -2.0912    0.4998 H   0  0  0  0  0  0  0  0  0  0  0  0
   -2.9399   -2.9603   -1.0308 H   0  0  0  0  0  0  0  0  0  0  0  0
   -1.1373   -2.4057    0.0071 C   0  0  0  0  0  0  0  0  0  0  0  0
   -0.2976   -3.1176    0.5304 O   0  0  0  0  0  0  0  0  0  0  0  0
   -0.7827   -1.2342   -0.6287 N   0  0  0  0  0  0  0  0  0  0  0  0
   -1.5442   -0.6731   -0.9963 H   0  0  0  0  0  0  0  0  0  0  0  0
    0.5271   -0.5750   -0.4773 C   0  0  1  0  0  0  0  0  0  0  0  0
    1.3304   -1.2299   -0.8305 H   0  0  0  0  0  0  0  0  0  0  0  0
    0.4033    0.6518   -1.3975 C   0  0  0  0  0  0  0  0  0  0  0  0
    0.1956    0.3166   -2.4192 H   0  0  0  0  0  0  0  0  0  0  0  0
   -0.4683    1.2313   -1.0752 H   0  0  0  0  0  0  0  0  0  0  0  0
    1.6533    1.5557   -1.4428 C   0  0  0  0  0  0  0  0  0  0  0  0
    2.3448    1.3292   -0.6274 H   0  0  0  0  0  0  0  0  0  0  0  0
    2.1926    1.3777   -2.3782 H   0  0  0  0  0  0  0  0  0  0  0  0
    1.2640    3.0343   -1.3394 C   0  0  0  0  0  0  0  0  0  0  0  0
    1.6271    3.8009   -2.2643 O   0  5  0  0  0  0  0  0  0  0  0  0
    0.5361    3.3754   -0.3698 O   0  0  0  0  0  0  0  0  0  0  0  0
    0.8675   -0.1522    0.9723 C   0  0  0  0  0  0  0  0  0  0  0  0
    1.9278   -0.5016    1.4801 O   0  0  0  0  0  0  0  0  0  0  0  0
   -0.0847    0.4835    1.7497 N   0  0  0  0  0  0  0  0  0  0  0  0
   -0.7469    1.0315    1.2076 H   0  0  0  0  0  0  0  0  0  0  0  0
    0.2360    0.9823    3.0788 C   0  0  0  0  0  0  0  0  0  0  0  0
    1.0347    1.7294    3.0229 H   0  0  0  0  0  0  0  0  0  0  0  0
   -0.6465    1.4490    3.5258 H   0  0  0  0  0  0  0  0  0  0  0  0
    0.5601    0.1639    3.7297 H   0  0  0  0  0  0  0  0  0  0  0  0
  1  2  1  0  0  0  0
  2  3  1  0  0  0  0
  2  4  1  0  0  0  0
  2  5  1  0  0  0  0
  5  6  2  0  0  0  0
  5  7  1  0  0  0  0
  7  8  1  0  0  0  0
  7  9  1  0  0  0  0
  9 10  1  0  0  0  0
  9 11  1  0  0  0  0
  9 20  1  0  0  0  0
 11 12  1  0  0  0  0
 11 13  1  0  0  0  0
 11 14  1  0  0  0  0
 14 15  1  0  0  0  0
 14 16  1  0  0  0  0
 14 17  1  0  0  0  0
 17 18  1  0  0  0  0
 17 19  2  0  0  0  0
 20 21  2  0  0  0  0
 20 22  1  0  0  0  0
 22 23  1  0  0  0  0
 22 24  1  0  0  0  0
 24 25  1  0  0  0  0
 24 26  1  0  0  0  0
 24 27  1  0  0  0  0
M  CHG  1  18  -1
M  END
$$$$

  -OEChem-04042215583D

 27 26  0     1  0  0  0  0  0999 V2000
   -2.7097   -3.7191    0.5201 H   0  0  0  0  0  0  0  0  0  0  0  0
   -2.5708   -2.7844   -0.0304 C   0  0  0  0  0  0  0  0  0  0  0  0
   -3.1569   -2.0004    0.4554 H   0  0  0  0  0  0  0  0  0  0  0  0
   -2.9321   -2.9198   -1.0526 H   0  0  0  0  0  0  0  0  0  0  0  0
   -1.1026   -2.3971   -0.0464 C   0  0  0  0  0  0  0  0  0  0  0  0
   -0.2767   -3.1405    0.4557 O   0  0  0  0  0  0  0  0  0  0  0  0
   -0.7220   -1.2393   -0.6920 N   0  0  0  0  0  0  0  0  0  0  0  0
   -1.4824   -0.6471   -1.0091 H   0  0  0  0  0  0  0  0  0  0  0  0
    0.5716   -0.5740   -0.4576 C   0  0  1  0  0  0  0  0  0  0  0  0
    1.3984   -1.2325   -0.7436 H   0  0  0  0  0  0  0  0  0  0  0  0
    0.4953    0.6270   -1.4154 C   0  0  0  0  0  0  0  0  0  0  0  0
    0.3926    0.2445   -2.4364 H   0  0  0  0  0  0  0  0  0  0  0  0
   -0.4146    1.2017   -1.2101 H   0  0  0  0  0  0  0  0  0  0  0  0
    1.7385    1.5385   -1.3878 C   0  0  0  0  0  0  0  0  0  0  0  0
    2.4972    1.1599   -0.6974 H   0  0  0  0  0  0  0  0  0  0  0  0
    2.1895    1.5655   -2.3846 H   0  0  0  0  0  0  0  0  0  0  0  0
    1.3401    2.9603   -0.9717 C   0  0  0  0  0  0  0  0  0  0  0  0
    0.5894    3.0785    0.0351 O   0  5  0  0  0  0  0  0  0  0  0  0
    1.7316    3.9139   -1.6867 O   0  0  0  0  0  0  0  0  0  0  0  0
    0.8293   -0.1055    0.9959 C   0  0  0  0  0  0  0  0  0  0  0  0
    1.8031   -0.5435    1.6005 O   0  0  0  0  0  0  0  0  0  0  0  0
   -0.1635    0.5580    1.6946 N   0  0  0  0  0  0  0  0  0  0  0  0
   -0.5930    1.2840    1.1189 H   0  0  0  0  0  0  0  0  0  0  0  0
    0.0256    0.9146    3.0931 C   0  0  0  0  0  0  0  0  0  0  0  0
    0.8932    1.5732    3.2053 H   0  0  0  0  0  0  0  0  0  0  0  0
   -0.8589    1.4375    3.4679 H   0  0  0  0  0  0  0  0  0  0  0  0
    0.1794    0.0177    3.7015 H   0  0  0  0  0  0  0  0  0  0  0  0
  1  2  1  0  0  0  0
  2  3  1  0  0  0  0
  2  4  1  0  0  0  0
  2  5  1  0  0  0  0
  5  6  2  0  0  0  0
  5  7  1  0  0  0  0
  7  8  1  0  0  0  0
  7  9  1  0  0  0  0
  9 10  1  0  0  0  0
  9 11  1  0  0  0  0
  9 20  1  0  0  0  0
 11 12  1  0  0  0  0
 11 13  1  0  0  0  0
 11 14  1  0  0  0  0
 14 15  1  0  0  0  0
 14 16  1  0  0  0  0
 14 17  1  0  0  0  0
 17 18  1  0  0  0  0
 17 19  2  0  0  0  0
 20 21  2  0  0  0  0
 20 22  1  0  0  0  0
 22 23  1  0  0  0  0
 22 24  1  0  0  0  0
 24 25  1  0  0  0  0
 24 26  1  0  0  0  0
 24 27  1  0  0  0  0
M  CHG  1  18  -1
M  END
$$$$

  -OEChem-04042215583D

 27 26  0     1  0  0  0  0  0999 V2000
   -2.6670   -3.7141    0.5876 H   0  0  0  0  0  0  0  0  0  0  0  0
   -2.5519   -2.7779    0.0341 C   0  0  0  0  0  0  0  0  0  0  0  0
   -3.1143   -1.9947    0.5486 H   0  0  0  0  0  0  0  0  0  0  0  0
   -2.9589   -2.9092   -0.9716 H   0  0  0  0  0  0  0  0  0  0  0  0
   -1.0853   -2.3924   -0.0458 C   0  0  0  0  0  0  0  0  0  0  0  0
   -0.2386   -3.1478    0.4011 O   0  0  0  0  0  0  0  0  0  0  0  0
   -0.7329   -1.2250   -0.6898 N   0  0  0  0  0  0  0  0  0  0  0  0
   -1.5101   -0.6259   -0.9475 H   0  0  0  0  0  0  0  0  0  0  0  0
    0.5543   -0.5465   -0.4594 C   0  0  1  0  0  0  0  0  0  0  0  0
    1.3804   -1.2091   -0.7383 H   0  0  0  0  0  0  0  0  0  0  0  0
    0.4868    0.6312   -1.4504 C   0  0  0  0  0  0  0  0  0  0  0  0
    0.4181    0.2068   -2.4575 H   0  0  0  0  0  0  0  0  0  0  0  0
   -0.4319    1.2082   -1.2997 H   0  0  0  0  0  0  0  0  0  0  0  0
    1.7246    1.5494   -1.4303 C   0  0  0  0  0  0  0  0  0  0  0  0
    2.5685    1.0486   -0.9471 H   0  0  0  0  0  0  0  0  0  0  0  0
    2.0163    1.7693   -2.4617 H   0  0  0  0  0  0  0  0  0  0  0  0
    1.4382    2.8823   -0.7163 C   0  0  0  0  0  0  0  0  0  0  0  0
    0.5234    2.9161    0.1529 O   0  5  0  0  0  0  0  0  0  0  0  0
    2.1097    3.8777   -1.0780 O   0  0  0  0  0  0  0  0  0  0  0  0
    0.8226   -0.0849    0.9937 C   0  0  0  0  0  0  0  0  0  0  0  0
    1.7864   -0.5528    1.5925 O   0  0  0  0  0  0  0  0  0  0  0  0
   -0.1697    0.5627    1.7064 N   0  0  0  0  0  0  0  0  0  0  0  0
   -0.5176    1.3592    1.1633 H   0  0  0  0  0  0  0  0  0  0  0  0
    0.0003    0.8320    3.1267 C   0  0  0  0  0  0  0  0  0  0  0  0
    0.8799    1.4627    3.2931 H   0  0  0  0  0  0  0  0  0  0  0  0
   -0.8793    1.3526    3.5159 H   0  0  0  0  0  0  0  0  0  0  0  0
    0.1231   -0.1025    3.6837 H   0  0  0  0  0  0  0  0  0  0  0  0
  1  2  1  0  0  0  0
  2  3  1  0  0  0  0
  2  4  1  0  0  0  0
  2  5  1  0  0  0  0
  5  6  2  0  0  0  0
  5  7  1  0  0  0  0
  7  8  1  0  0  0  0
  7  9  1  0  0  0  0
  9 10  1  0  0  0  0
  9 11  1  0  0  0  0
  9 20  1  0  0  0  0
 11 12  1  0  0  0  0
 11 13  1  0  0  0  0
 11 14  1  0  0  0  0
 14 15  1  0  0  0  0
 14 16  1  0  0  0  0
 14 17  1  0  0  0  0
 17 18  1  0  0  0  0
 17 19  2  0  0  0  0
 20 21  2  0  0  0  0
 20 22  1  0  0  0  0
 22 23  1  0  0  0  0
 22 24  1  0  0  0  0
 24 25  1  0  0  0  0
 24 26  1  0  0  0  0
 24 27  1  0  0  0  0
M  CHG  1  18  -1
M  END
$$$$

  -OEChem-04042215583D

 27 26  0     1  0  0  0  0  0999 V2000
   -2.6389   -3.7182    0.6213 H   0  0  0  0  0  0  0  0  0  0  0  0
   -2.5372   -2.7784    0.0713 C   0  0  0  0  0  0  0  0  0  0  0  0
   -3.0864   -1.9984    0.6048 H   0  0  0  0  0  0  0  0  0  0  0  0
   -2.9688   -2.9036   -0.9247 H   0  0  0  0  0  0  0  0  0  0  0  0
   -1.0728   -2.3932   -0.0426 C   0  0  0  0  0  0  0  0  0  0  0  0
   -0.2158   -3.1567    0.3691 O   0  0  0  0  0  0  0  0  0  0  0  0
   -0.7357   -1.2180   -0.6806 N   0  0  0  0  0  0  0  0  0  0  0  0
   -1.5198   -0.6165   -0.9100 H   0  0  0  0  0  0  0  0  0  0  0  0
    0.5511   -0.5359   -0.4576 C   0  0  1  0  0  0  0  0  0  0  0  0
    1.3760   -1.1992   -0.7392 H   0  0  0  0  0  0  0  0  0  0  0  0
    0.4789    0.6321   -1.4632 C   0  0  0  0  0  0  0  0  0  0  0  0
    0.4105    0.1916   -2.4634 H   0  0  0  0  0  0  0  0  0  0  0  0
   -0.4408    1.2084   -1.3182 H   0  0  0  0  0  0  0  0  0  0  0  0
    1.7056    1.5648   -1.4699 C   0  0  0  0  0  0  0  0  0  0  0  0
    2.6096    0.9927   -1.2411 H   0  0  0  0  0  0  0  0  0  0  0  0
    1.8185    1.9818   -2.4747 H   0  0  0  0  0  0  0  0  0  0  0  0
    1.5794    2.7448   -0.4887 C   0  0  0  0  0  0  0  0  0  0  0  0
    0.5138    2.8715    0.1771 O   0  5  0  0  0  0  0  0  0  0  0  0
    2.5341    3.5564   -0.4584 O   0  0  0  0  0  0  0  0  0  0  0  0
    0.8245   -0.0907    0.9992 C   0  0  0  0  0  0  0  0  0  0  0  0
    1.7823   -0.5762    1.5927 O   0  0  0  0  0  0  0  0  0  0  0  0
   -0.1700    0.5422    1.7221 N   0  0  0  0  0  0  0  0  0  0  0  0
   -0.5121    1.3511    1.1934 H   0  0  0  0  0  0  0  0  0  0  0  0
   -0.0062    0.7820    3.1485 C   0  0  0  0  0  0  0  0  0  0  0  0
    0.8721    1.4098    3.3324 H   0  0  0  0  0  0  0  0  0  0  0  0
   -0.8882    1.2936    3.5445 H   0  0  0  0  0  0  0  0  0  0  0  0
    0.1148   -0.1636    3.6867 H   0  0  0  0  0  0  0  0  0  0  0  0
  1  2  1  0  0  0  0
  2  3  1  0  0  0  0
  2  4  1  0  0  0  0
  2  5  1  0  0  0  0
  5  6  2  0  0  0  0
  5  7  1  0  0  0  0
  7  8  1  0  0  0  0
  7  9  1  0  0  0  0
  9 10  1  0  0  0  0
  9 11  1  0  0  0  0
  9 20  1  0  0  0  0
 11 12  1  0  0  0  0
 11 13  1  0  0  0  0
 11 14  1  0  0  0  0
 14 15  1  0  0  0  0
 14 16  1  0  0  0  0
 14 17  1  0  0  0  0
 17 18  1  0  0  0  0
 17 19  2  0  0  0  0
 20 21  2  0  0  0  0
 20 22  1  0  0  0  0
 22 23  1  0  0  0  0
 22 24  1  0  0  0  0
 24 25  1  0  0  0  0
 24 26  1  0  0  0  0
 24 27  1  0  0  0  0
M  CHG  1  18  -1
M  END
$$$$

  -OEChem-04042215583D

 27 26  0     1  0  0  0  0  0999 V2000
   -2.6341   -3.7158    0.6204 H   0  0  0  0  0  0  0  0  0  0  0  0
   -2.5294   -2.7720    0.0781 C   0  0  0  0  0  0  0  0  0  0  0  0
   -3.0707   -1.9934    0.6213 H   0  0  0  0  0  0  0  0  0  0  0  0
   -2.9674   -2.8854   -0.9165 H   0  0  0  0  0  0  0  0  0  0  0  0
   -1.0635   -2.3946   -0.0402 C   0  0  0  0  0  0  0  0  0  0  0  0
   -0.2086   -3.1718    0.3496 O   0  0  0  0  0  0  0  0  0  0  0  0
   -0.7255   -1.2131   -0.6665 N   0  0  0  0  0  0  0  0  0  0  0  0
   -1.5103   -0.6068   -0.8796 H   0  0  0  0  0  0  0  0  0  0  0  0
    0.5627   -0.5335   -0.4402 C   0  0  1  0  0  0  0  0  0  0  0  0
    1.3871   -1.1989   -0.7189 H   0  0  0  0  0  0  0  0  0  0  0  0
    0.4909    0.6213   -1.4674 C   0  0  0  0  0  0  0  0  0  0  0  0
    0.4026    0.1704   -2.4613 H   0  0  0  0  0  0  0  0  0  0  0  0
   -0.4226    1.2036   -1.3043 H   0  0  0  0  0  0  0  0  0  0  0  0
    1.6949    1.5808   -1.5185 C   0  0  0  0  0  0  0  0  0  0  0  0
    2.6211    0.9987   -1.5387 H   0  0  0  0  0  0  0  0  0  0  0  0
    1.6409    2.1617   -2.4433 H   0  0  0  0  0  0  0  0  0  0  0  0
    1.7407    2.5702   -0.3440 C   0  0  0  0  0  0  0  0  0  0  0  0
    0.6545    2.8368    0.2420 O   0  5  0  0  0  0  0  0  0  0  0  0
    2.8366    3.1247   -0.0973 O   0  0  0  0  0  0  0  0  0  0  0  0
    0.8283   -0.1076    1.0240 C   0  0  0  0  0  0  0  0  0  0  0  0
    1.7647   -0.6268    1.6225 O   0  0  0  0  0  0  0  0  0  0  0  0
   -0.1718    0.5149    1.7488 N   0  0  0  0  0  0  0  0  0  0  0  0
   -0.5037    1.3340    1.2318 H   0  0  0  0  0  0  0  0  0  0  0  0
   -0.0141    0.7331    3.1794 C   0  0  0  0  0  0  0  0  0  0  0  0
    0.8717    1.3463    3.3760 H   0  0  0  0  0  0  0  0  0  0  0  0
   -0.8912    1.2515    3.5771 H   0  0  0  0  0  0  0  0  0  0  0  0
    0.0910   -0.2210    3.7055 H   0  0  0  0  0  0  0  0  0  0  0  0
  1  2  1  0  0  0  0
  2  3  1  0  0  0  0
  2  4  1  0  0  0  0
  2  5  1  0  0  0  0
  5  6  2  0  0  0  0
  5  7  1  0  0  0  0
  7  8  1  0  0  0  0
  7  9  1  0  0  0  0
  9 10  1  0  0  0  0
  9 11  1  0  0  0  0
  9 20  1  0  0  0  0
 11 12  1  0  0  0  0
 11 13  1  0  0  0  0
 11 14  1  0  0  0  0
 14 15  1  0  0  0  0
 14 16  1  0  0  0  0
 14 17  1  0  0  0  0
 17 18  1  0  0  0  0
 17 19  2  0  0  0  0
 20 21  2  0  0  0  0
 20 22  1  0  0  0  0
 22 23  1  0  0  0  0
 22 24  1  0  0  0  0
 24 25  1  0  0  0  0
 24 26  1  0  0  0  0
 24 27  1  0  0  0  0
M  CHG  1  18  -1
M  END
$$$$

  -OEChem-04042215583D

 27 26  0     1  0  0  0  0  0999 V2000
   -2.6296   -3.6991    0.6390 H   0  0  0  0  0  0  0  0  0  0  0  0
   -2.5211   -2.7555    0.0967 C   0  0  0  0  0  0  0  0  0  0  0  0
   -3.0504   -1.9732    0.6463 H   0  0  0  0  0  0  0  0  0  0  0  0
   -2.9689   -2.8632   -0.8942 H   0  0  0  0  0  0  0  0  0  0  0  0
   -1.0526   -2.3913   -0.0334 C   0  0  0  0  0  0  0  0  0  0  0  0
   -0.2025   -3.1823    0.3380 O   0  0  0  0  0  0  0  0  0  0  0  0
   -0.7088   -1.2069   -0.6517 N   0  0  0  0  0  0  0  0  0  0  0  0
   -1.4911   -0.5961   -0.8595 H   0  0  0  0  0  0  0  0  0  0  0  0
    0.5830   -0.5328   -0.4206 C   0  0  1  0  0  0  0  0  0  0  0  0
    1.4069   -1.2018   -0.6916 H   0  0  0  0  0  0  0  0  0  0  0  0
    0.5141    0.6080   -1.4712 C   0  0  0  0  0  0  0  0  0  0  0  0
    0.3941    0.1486   -2.4579 H   0  0  0  0  0  0  0  0  0  0  0  0
   -0.3885    1.1985   -1.2787 H   0  0  0  0  0  0  0  0  0  0  0  0
    1.6905    1.5976   -1.5801 C   0  0  0  0  0  0  0  0  0  0  0  0
    2.5931    1.0415   -1.8501 H   0  0  0  0  0  0  0  0  0  0  0  0
    1.4813    2.3084   -2.3843 H   0  0  0  0  0  0  0  0  0  0  0  0
    1.9637    2.3900   -0.2993 C   0  0  0  0  0  0  0  0  0  0  0  0
    0.9512    2.7814    0.3441 O   0  5  0  0  0  0  0  0  0  0  0  0
    3.1474    2.6981   -0.0296 O   0  0  0  0  0  0  0  0  0  0  0  0
    0.8311   -0.1247    1.0527 C   0  0  0  0  0  0  0  0  0  0  0  0
    1.7270   -0.6933    1.6680 O   0  0  0  0  0  0  0  0  0  0  0  0
   -0.1809    0.4906    1.7681 N   0  0  0  0  0  0  0  0  0  0  0  0
   -0.4809    1.3311    1.2700 H   0  0  0  0  0  0  0  0  0  0  0  0
   -0.0649    0.6550    3.2104 C   0  0  0  0  0  0  0  0  0  0  0  0
    0.8295    1.2369    3.4575 H   0  0  0  0  0  0  0  0  0  0  0  0
   -0.9410    1.1824    3.5983 H   0  0  0  0  0  0  0  0  0  0  0  0
   -0.0017   -0.3196    3.7053 H   0  0  0  0  0  0  0  0  0  0  0  0
  1  2  1  0  0  0  0
  2  3  1  0  0  0  0
  2  4  1  0  0  0  0
  2  5  1  0  0  0  0
  5  6  2  0  0  0  0
  5  7  1  0  0  0  0
  7  8  1  0  0  0  0
  7  9  1  0  0  0  0
  9 10  1  0  0  0  0
  9 11  1  0  0  0  0
  9 20  1  0  0  0  0
 11 12  1  0  0  0  0
 11 13  1  0  0  0  0
 11 14  1  0  0  0  0
 14 15  1  0  0  0  0
 14 16  1  0  0  0  0
 14 17  1  0  0  0  0
 17 18  1  0  0  0  0
 17 19  2  0  0  0  0
 20 21  2  0  0  0  0
 20 22  1  0  0  0  0
 22 23  1  0  0  0  0
 22 24  1  0  0  0  0
 24 25  1  0  0  0  0
 24 26  1  0  0  0  0
 24 27  1  0  0  0  0
M  CHG  1  18  -1
M  END
$$$$

  -OEChem-04042215583D

 27 26  0     1  0  0  0  0  0999 V2000
   -2.6469   -3.6938    0.6230 H   0  0  0  0  0  0  0  0  0  0  0  0
   -2.5294   -2.7414    0.0982 C   0  0  0  0  0  0  0  0  0  0  0  0
   -3.0426   -1.9619    0.6670 H   0  0  0  0  0  0  0  0  0  0  0  0
   -2.9868   -2.8243   -0.8907 H   0  0  0  0  0  0  0  0  0  0  0  0
   -1.0569   -2.3962   -0.0380 C   0  0  0  0  0  0  0  0  0  0  0  0
   -0.2164   -3.2056    0.3141 O   0  0  0  0  0  0  0  0  0  0  0  0
   -0.7014   -1.2100   -0.6470 N   0  0  0  0  0  0  0  0  0  0  0  0
   -1.4791   -0.5924   -0.8511 H   0  0  0  0  0  0  0  0  0  0  0  0
    0.5965   -0.5476   -0.4086 C   0  0  1  0  0  0  0  0  0  0  0  0
    1.4198   -1.2188   -0.6770 H   0  0  0  0  0  0  0  0  0  0  0  0
    0.5325    0.5969   -1.4600 C   0  0  0  0  0  0  0  0  0  0  0  0
    0.3780    0.1465   -2.4461 H   0  0  0  0  0  0  0  0  0  0  0  0
   -0.3574    1.1941   -1.2328 H   0  0  0  0  0  0  0  0  0  0  0  0
    1.6913    1.6048   -1.6058 C   0  0  0  0  0  0  0  0  0  0  0  0
    2.5122    1.1039   -2.1279 H   0  0  0  0  0  0  0  0  0  0  0  0
    1.3603    2.4363   -2.2342 H   0  0  0  0  0  0  0  0  0  0  0  0
    2.2408    2.1734   -0.3011 C   0  0  0  0  0  0  0  0  0  0  0  0
    1.3845    2.6802    0.4719 O   0  5  0  0  0  0  0  0  0  0  0  0
    3.4816    2.2198   -0.1340 O   0  0  0  0  0  0  0  0  0  0  0  0
    0.8215   -0.1610    1.0753 C   0  0  0  0  0  0  0  0  0  0  0  0
    1.6823   -0.7635    1.7074 O   0  0  0  0  0  0  0  0  0  0  0  0
   -0.2032    0.4503    1.7781 N   0  0  0  0  0  0  0  0  0  0  0  0
   -0.5338    1.2690    1.2713 H   0  0  0  0  0  0  0  0  0  0  0  0
   -0.1026    0.6240    3.2205 C   0  0  0  0  0  0  0  0  0  0  0  0
    0.7945    1.1987    3.4742 H   0  0  0  0  0  0  0  0  0  0  0  0
   -0.9781    1.1627    3.5942 H   0  0  0  0  0  0  0  0  0  0  0  0
   -0.0552   -0.3476    3.7227 H   0  0  0  0  0  0  0  0  0  0  0  0
  1  2  1  0  0  0  0
  2  3  1  0  0  0  0
  2  4  1  0  0  0  0
  2  5  1  0  0  0  0
  5  6  2  0  0  0  0
  5  7  1  0  0  0  0
  7  8  1  0  0  0  0
  7  9  1  0  0  0  0
  9 10  1  0  0  0  0
  9 11  1  0  0  0  0
  9 20  1  0  0  0  0
 11 12  1  0  0  0  0
 11 13  1  0  0  0  0
 11 14  1  0  0  0  0
 14 15  1  0  0  0  0
 14 16  1  0  0  0  0
 14 17  1  0  0  0  0
 17 18  1  0  0  0  0
 17 19  2  0  0  0  0
 20 21  2  0  0  0  0
 20 22  1  0  0  0  0
 22 23  1  0  0  0  0
 22 24  1  0  0  0  0
 24 25  1  0  0  0  0
 24 26  1  0  0  0  0
 24 27  1  0  0  0  0
M  CHG  1  18  -1
M  END
$$$$

  -OEChem-04042215583D

 27 26  0     1  0  0  0  0  0999 V2000
   -2.6337   -3.7450    0.6013 H   0  0  0  0  0  0  0  0  0  0  0  0
   -2.5165   -2.7888    0.0831 C   0  0  0  0  0  0  0  0  0  0  0  0
   -3.0496   -2.0179    0.6453 H   0  0  0  0  0  0  0  0  0  0  0  0
   -2.9533   -2.8715   -0.9150 H   0  0  0  0  0  0  0  0  0  0  0  0
   -1.0457   -2.4267   -0.0224 C   0  0  0  0  0  0  0  0  0  0  0  0
   -0.2043   -3.2231    0.3545 O   0  0  0  0  0  0  0  0  0  0  0  0
   -0.6930   -1.2381   -0.6286 N   0  0  0  0  0  0  0  0  0  0  0  0
   -1.4712   -0.6354   -0.8691 H   0  0  0  0  0  0  0  0  0  0  0  0
    0.6043   -0.5672   -0.4038 C   0  0  1  0  0  0  0  0  0  0  0  0
    1.4357   -1.2234   -0.6854 H   0  0  0  0  0  0  0  0  0  0  0  0
    0.5072    0.5936   -1.4348 C   0  0  0  0  0  0  0  0  0  0  0  0
    0.3201    0.1603   -2.4232 H   0  0  0  0  0  0  0  0  0  0  0  0
   -0.3789    1.1778   -1.1647 H   0  0  0  0  0  0  0  0  0  0  0  0
    1.6429    1.6258   -1.6066 C   0  0  0  0  0  0  0  0  0  0  0  0
    2.3233    1.2412   -2.3726 H   0  0  0  0  0  0  0  0  0  0  0  0
    1.2178    2.5567   -1.9932 H   0  0  0  0  0  0  0  0  0  0  0  0
    2.4834    1.9517   -0.3781 C   0  0  0  0  0  0  0  0  0  0  0  0
    1.8766    2.5498    0.5471 O   0  5  0  0  0  0  0  0  0  0  0  0
    3.7154    1.7230   -0.4083 O   0  0  0  0  0  0  0  0  0  0  0  0
    0.8209   -0.1902    1.0846 C   0  0  0  0  0  0  0  0  0  0  0  0
    1.6840   -0.7817    1.7227 O   0  0  0  0  0  0  0  0  0  0  0  0
   -0.2135    0.4059    1.7885 N   0  0  0  0  0  0  0  0  0  0  0  0
   -0.6746    1.1291    1.2479 H   0  0  0  0  0  0  0  0  0  0  0  0
   -0.0821    0.6654    3.2155 C   0  0  0  0  0  0  0  0  0  0  0  0
    0.7926    1.2956    3.4089 H   0  0  0  0  0  0  0  0  0  0  0  0
   -0.9720    1.1815    3.5866 H   0  0  0  0  0  0  0  0  0  0  0  0
    0.0279   -0.2728    3.7689 H   0  0  0  0  0  0  0  0  0  0  0  0
  1  2  1  0  0  0  0
  2  3  1  0  0  0  0
  2  4  1  0  0  0  0
  2  5  1  0  0  0  0
  5  6  2  0  0  0  0
  5  7  1  0  0  0  0
  7  8  1  0  0  0  0
  7  9  1  0  0  0  0
  9 10  1  0  0  0  0
  9 11  1  0  0  0  0
  9 20  1  0  0  0  0
 11 12  1  0  0  0  0
 11 13  1  0  0  0  0
 11 14  1  0  0  0  0
 14 15  1  0  0  0  0
 14 16  1  0  0  0  0
 14 17  1  0  0  0  0
 17 18  1  0  0  0  0
 17 19  2  0  0  0  0
 20 21  2  0  0  0  0
 20 22  1  0  0  0  0
 22 23  1  0  0  0  0
 22 24  1  0  0  0  0
 24 25  1  0  0  0  0
 24 26  1  0  0  0  0
 24 27  1  0  0  0  0
M  CHG  1  18  -1
M  END
$$$$

  -OEChem-04042215583D

 27 26  0     1  0  0  0  0  0999 V2000
   -2.6729   -3.7266    0.7959 H   0  0  0  0  0  0  0  0  0  0  0  0
   -2.5491   -2.8146    0.2050 C   0  0  0  0  0  0  0  0  0  0  0  0
   -3.1130   -2.0094    0.6821 H   0  0  0  0  0  0  0  0  0  0  0  0
   -2.9473   -2.9864   -0.7979 H   0  0  0  0  0  0  0  0  0  0  0  0
   -1.0800   -2.4393    0.1223 C   0  0  0  0  0  0  0  0  0  0  0  0
   -0.2440   -3.2017    0.5723 O   0  0  0  0  0  0  0  0  0  0  0  0
   -0.7254   -1.2808   -0.5393 N   0  0  0  0  0  0  0  0  0  0  0  0
   -1.4975   -0.7062   -0.8556 H   0  0  0  0  0  0  0  0  0  0  0  0
    0.5873   -0.6145   -0.4013 C   0  0  1  0  0  0  0  0  0  0  0  0
    1.4071   -1.2739   -0.7094 H   0  0  0  0  0  0  0  0  0  0  0  0
    0.4250    0.5379   -1.4328 C   0  0  0  0  0  0  0  0  0  0  0  0
    0.1800    0.0921   -2.4030 H   0  0  0  0  0  0  0  0  0  0  0  0
   -0.4453    1.1248   -1.1202 H   0  0  0  0  0  0  0  0  0  0  0  0
    1.5516    1.5635   -1.6874 C   0  0  0  0  0  0  0  0  0  0  0  0
    2.0054    1.3260   -2.6545 H   0  0  0  0  0  0  0  0  0  0  0  0
    1.1048    2.5572   -1.7873 H   0  0  0  0  0  0  0  0  0  0  0  0
    2.6827    1.6455   -0.6702 C   0  0  0  0  0  0  0  0  0  0  0  0
    2.4694    2.3680    0.3349 O   0  5  0  0  0  0  0  0  0  0  0  0
    3.7631    1.0670   -0.9349 O   0  0  0  0  0  0  0  0  0  0  0  0
    0.8657   -0.1822    1.0624 C   0  0  0  0  0  0  0  0  0  0  0  0
    1.7527   -0.7380    1.6978 O   0  0  0  0  0  0  0  0  0  0  0  0
   -0.1374    0.4500    1.7811 N   0  0  0  0  0  0  0  0  0  0  0  0
   -0.7176    1.0599    1.2194 H   0  0  0  0  0  0  0  0  0  0  0  0
    0.0628    0.8276    3.1733 C   0  0  0  0  0  0  0  0  0  0  0  0
    0.9479    1.4653    3.2719 H   0  0  0  0  0  0  0  0  0  0  0  0
   -0.8063    1.3797    3.5419 H   0  0  0  0  0  0  0  0  0  0  0  0
    0.1959   -0.0622    3.7970 H   0  0  0  0  0  0  0  0  0  0  0  0
  1  2  1  0  0  0  0
  2  3  1  0  0  0  0
  2  4  1  0  0  0  0
  2  5  1  0  0  0  0
  5  6  2  0  0  0  0
  5  7  1  0  0  0  0
  7  8  1  0  0  0  0
  7  9  1  0  0  0  0
  9 10  1  0  0  0  0
  9 11  1  0  0  0  0
  9 20  1  0  0  0  0
 11 12  1  0  0  0  0
 11 13  1  0  0  0  0
 11 14  1  0  0  0  0
 14 15  1  0  0  0  0
 14 16  1  0  0  0  0
 14 17  1  0  0  0  0
 17 18  1  0  0  0  0
 17 19  2  0  0  0  0
 20 21  2  0  0  0  0
 20 22  1  0  0  0  0
 22 23  1  0  0  0  0
 22 24  1  0  0  0  0
 24 25  1  0  0  0  0
 24 26  1  0  0  0  0
 24 27  1  0  0  0  0
M  CHG  1  18  -1
M  END
$$$$

  -OEChem-04042215583D

 27 26  0     1  0  0  0  0  0999 V2000
   -2.8693   -3.6955    0.6022 H   0  0  0  0  0  0  0  0  0  0  0  0
   -2.6651   -2.7924    0.0199 C   0  0  0  0  0  0  0  0  0  0  0  0
   -3.3332   -1.9968    0.3587 H   0  0  0  0  0  0  0  0  0  0  0  0
   -2.8629   -3.0017   -1.0342 H   0  0  0  0  0  0  0  0  0  0  0  0
   -1.2185   -2.3671    0.2013 C   0  0  0  0  0  0  0  0  0  0  0  0
   -0.4871   -3.0389    0.9042 O   0  0  0  0  0  0  0  0  0  0  0  0
   -0.7668   -1.2539   -0.4790 N   0  0  0  0  0  0  0  0  0  0  0  0
   -1.4358   -0.7903   -1.0824 H   0  0  0  0  0  0  0  0  0  0  0  0
    0.5788   -0.6514   -0.3592 C   0  0  1  0  0  0  0  0  0  0  0  0
    1.3724   -1.3433   -0.6665 H   0  0  0  0  0  0  0  0  0  0  0  0
    0.4565    0.5270   -1.3641 C   0  0  0  0  0  0  0  0  0  0  0  0
    0.2010    0.0973   -2.3386 H   0  0  0  0  0  0  0  0  0  0  0  0
   -0.3909    1.1486   -1.0559 H   0  0  0  0  0  0  0  0  0  0  0  0
    1.6418    1.4870   -1.6111 C   0  0  0  0  0  0  0  0  0  0  0  0
    1.8880    1.4604   -2.6767 H   0  0  0  0  0  0  0  0  0  0  0  0
    1.3068    2.5056   -1.3912 H   0  0  0  0  0  0  0  0  0  0  0  0
    2.9330    1.2364   -0.8391 C   0  0  0  0  0  0  0  0  0  0  0  0
    3.6241    0.2521   -1.1968 O   0  5  0  0  0  0  0  0  0  0  0  0
    3.2700    2.0906    0.0165 O   0  0  0  0  0  0  0  0  0  0  0  0
    0.8697   -0.1894    1.0935 C   0  0  0  0  0  0  0  0  0  0  0  0
    1.7873   -0.6733    1.7413 O   0  0  0  0  0  0  0  0  0  0  0  0
   -0.1053    0.5116    1.7859 N   0  0  0  0  0  0  0  0  0  0  0  0
   -0.8018    0.9722    1.2156 H   0  0  0  0  0  0  0  0  0  0  0  0
    0.0855    0.9651    3.1558 C   0  0  0  0  0  0  0  0  0  0  0  0
    0.9676    1.6104    3.2244 H   0  0  0  0  0  0  0  0  0  0  0  0
   -0.7882    1.5323    3.4889 H   0  0  0  0  0  0  0  0  0  0  0  0
    0.2188    0.1100    3.8265 H   0  0  0  0  0  0  0  0  0  0  0  0
  1  2  1  0  0  0  0
  2  3  1  0  0  0  0
  2  4  1  0  0  0  0
  2  5  1  0  0  0  0
  5  6  2  0  0  0  0
  5  7  1  0  0  0  0
  7  8  1  0  0  0  0
  7  9  1  0  0  0  0
  9 10  1  0  0  0  0
  9 11  1  0  0  0  0
  9 20  1  0  0  0  0
 11 12  1  0  0  0  0
 11 13  1  0  0  0  0
 11 14  1  0  0  0  0
 14 15  1  0  0  0  0
 14 16  1  0  0  0  0
 14 17  1  0  0  0  0
 17 18  1  0  0  0  0
 17 19  2  0  0  0  0
 20 21  2  0  0  0  0
 20 22  1  0  0  0  0
 22 23  1  0  0  0  0
 22 24  1  0  0  0  0
 24 25  1  0  0  0  0
 24 26  1  0  0  0  0
 24 27  1  0  0  0  0
M  CHG  1  18  -1
M  END
$$$$

  -OEChem-04042215583D

 27 26  0     1  0  0  0  0  0999 V2000
   -2.8509   -3.7429    0.4784 H   0  0  0  0  0  0  0  0  0  0  0  0
   -2.6423   -2.8470   -0.1133 C   0  0  0  0  0  0  0  0  0  0  0  0
   -3.4009   -2.0931    0.1106 H   0  0  0  0  0  0  0  0  0  0  0  0
   -2.6965   -3.1062   -1.1736 H   0  0  0  0  0  0  0  0  0  0  0  0
   -1.2619   -2.3077    0.2189 C   0  0  0  0  0  0  0  0  0  0  0  0
   -0.5989   -2.8653    1.0731 O   0  0  0  0  0  0  0  0  0  0  0  0
   -0.8040   -1.1994   -0.4657 N   0  0  0  0  0  0  0  0  0  0  0  0
   -1.3829   -0.8823   -1.2350 H   0  0  0  0  0  0  0  0  0  0  0  0
    0.5515   -0.6156   -0.3632 C   0  0  1  0  0  0  0  0  0  0  0  0
    1.3257   -1.3201   -0.6901 H   0  0  0  0  0  0  0  0  0  0  0  0
    0.4477    0.5952   -1.3276 C   0  0  0  0  0  0  0  0  0  0  0  0
    0.1948    0.1887   -2.3125 H   0  0  0  0  0  0  0  0  0  0  0  0
   -0.3894    1.2283   -1.0157 H   0  0  0  0  0  0  0  0  0  0  0  0
    1.6669    1.5197   -1.5484 C   0  0  0  0  0  0  0  0  0  0  0  0
    1.7335    1.7632   -2.6125 H   0  0  0  0  0  0  0  0  0  0  0  0
    1.4720    2.4558   -1.0158 H   0  0  0  0  0  0  0  0  0  0  0  0
    3.0343    1.0109   -1.0918 C   0  0  0  0  0  0  0  0  0  0  0  0
    3.4089   -0.0890   -1.5702 O   0  5  0  0  0  0  0  0  0  0  0  0
    3.7587    1.7982   -0.4356 O   0  0  0  0  0  0  0  0  0  0  0  0
    0.8752   -0.1596    1.0833 C   0  0  0  0  0  0  0  0  0  0  0  0
    1.8670   -0.5500    1.6815 O   0  0  0  0  0  0  0  0  0  0  0  0
   -0.0758    0.5524    1.7962 N   0  0  0  0  0  0  0  0  0  0  0  0
   -0.9239    0.7994    1.3034 H   0  0  0  0  0  0  0  0  0  0  0  0
    0.0851    0.9349    3.1906 C   0  0  0  0  0  0  0  0  0  0  0  0
    0.9962    1.5281    3.3208 H   0  0  0  0  0  0  0  0  0  0  0  0
   -0.7685    1.5356    3.5170 H   0  0  0  0  0  0  0  0  0  0  0  0
    0.1477    0.0449    3.8249 H   0  0  0  0  0  0  0  0  0  0  0  0
  1  2  1  0  0  0  0
  2  3  1  0  0  0  0
  2  4  1  0  0  0  0
  2  5  1  0  0  0  0
  5  6  2  0  0  0  0
  5  7  1  0  0  0  0
  7  8  1  0  0  0  0
  7  9  1  0  0  0  0
  9 10  1  0  0  0  0
  9 11  1  0  0  0  0
  9 20  1  0  0  0  0
 11 12  1  0  0  0  0
 11 13  1  0  0  0  0
 11 14  1  0  0  0  0
 14 15  1  0  0  0  0
 14 16  1  0  0  0  0
 14 17  1  0  0  0  0
 17 18  1  0  0  0  0
 17 19  2  0  0  0  0
 20 21  2  0  0  0  0
 20 22  1  0  0  0  0
 22 23  1  0  0  0  0
 22 24  1  0  0  0  0
 24 25  1  0  0  0  0
 24 26  1  0  0  0  0
 24 27  1  0  0  0  0
M  CHG  1  18  -1
M  END
$$$$

  -OEChem-04042215583D

 27 26  0     1  0  0  0  0  0999 V2000
   -2.7832   -3.8042    0.4396 H   0  0  0  0  0  0  0  0  0  0  0  0
   -2.6030   -2.9018   -0.1515 C   0  0  0  0  0  0  0  0  0  0  0  0
   -3.4193   -2.1969    0.0230 H   0  0  0  0  0  0  0  0  0  0  0  0
   -2.5851   -3.1743   -1.2096 H   0  0  0  0  0  0  0  0  0  0  0  0
   -1.2794   -2.2711    0.2440 C   0  0  0  0  0  0  0  0  0  0  0  0
   -0.6527   -2.7435    1.1742 O   0  0  0  0  0  0  0  0  0  0  0  0
   -0.8388   -1.1656   -0.4563 N   0  0  0  0  0  0  0  0  0  0  0  0
   -1.3760   -0.9336   -1.2846 H   0  0  0  0  0  0  0  0  0  0  0  0
    0.5179   -0.5828   -0.3726 C   0  0  1  0  0  0  0  0  0  0  0  0
    1.2787   -1.2987   -0.7041 H   0  0  0  0  0  0  0  0  0  0  0  0
    0.4257    0.6323   -1.3303 C   0  0  0  0  0  0  0  0  0  0  0  0
    0.1717    0.2349   -2.3187 H   0  0  0  0  0  0  0  0  0  0  0  0
   -0.3997    1.2805   -1.0180 H   0  0  0  0  0  0  0  0  0  0  0  0
    1.6719    1.5228   -1.5317 C   0  0  0  0  0  0  0  0  0  0  0  0
    1.6126    1.9962   -2.5157 H   0  0  0  0  0  0  0  0  0  0  0  0
    1.6350    2.3189   -0.7817 H   0  0  0  0  0  0  0  0  0  0  0  0
    3.0349    0.8375   -1.4028 C   0  0  0  0  0  0  0  0  0  0  0  0
    3.1669   -0.2683   -1.9877 O   0  5  0  0  0  0  0  0  0  0  0  0
    3.9758    1.5053   -0.9094 O   0  0  0  0  0  0  0  0  0  0  0  0
    0.8733   -0.1161    1.0619 C   0  0  0  0  0  0  0  0  0  0  0  0
    1.9189   -0.4334    1.6100 O   0  0  0  0  0  0  0  0  0  0  0  0
   -0.0597    0.6030    1.7903 N   0  0  0  0  0  0  0  0  0  0  0  0
   -0.9683    0.7185    1.3604 H   0  0  0  0  0  0  0  0  0  0  0  0
    0.1180    0.9544    3.1909 C   0  0  0  0  0  0  0  0  0  0  0  0
    1.0335    1.5401    3.3249 H   0  0  0  0  0  0  0  0  0  0  0  0
   -0.7287    1.5533    3.5384 H   0  0  0  0  0  0  0  0  0  0  0  0
    0.1823    0.0508    3.8057 H   0  0  0  0  0  0  0  0  0  0  0  0
  1  2  1  0  0  0  0
  2  3  1  0  0  0  0
  2  4  1  0  0  0  0
  2  5  1  0  0  0  0
  5  6  2  0  0  0  0
  5  7  1  0  0  0  0
  7  8  1  0  0  0  0
  7  9  1  0  0  0  0
  9 10  1  0  0  0  0
  9 11  1  0  0  0  0
  9 20  1  0  0  0  0
 11 12  1  0  0  0  0
 11 13  1  0  0  0  0
 11 14  1  0  0  0  0
 14 15  1  0  0  0  0
 14 16  1  0  0  0  0
 14 17  1  0  0  0  0
 17 18  1  0  0  0  0
 17 19  2  0  0  0  0
 20 21  2  0  0  0  0
 20 22  1  0  0  0  0
 22 23  1  0  0  0  0
 22 24  1  0  0  0  0
 24 25  1  0  0  0  0
 24 26  1  0  0  0  0
 24 27  1  0  0  0  0
M  CHG  1  18  -1
M  END
$$$$

  -OEChem-04042215583D

 27 26  0     1  0  0  0  0  0999 V2000
   -2.7533   -3.8193    0.4462 H   0  0  0  0  0  0  0  0  0  0  0  0
   -2.5720   -2.9375   -0.1750 C   0  0  0  0  0  0  0  0  0  0  0  0
   -3.4054   -2.2417   -0.0521 H   0  0  0  0  0  0  0  0  0  0  0  0
   -2.5184   -3.2506   -1.2207 H   0  0  0  0  0  0  0  0  0  0  0  0
   -1.2719   -2.2666    0.2325 C   0  0  0  0  0  0  0  0  0  0  0  0
   -0.6444   -2.7121    1.1757 O   0  0  0  0  0  0  0  0  0  0  0  0
   -0.8560   -1.1498   -0.4647 N   0  0  0  0  0  0  0  0  0  0  0  0
   -1.3853   -0.9438   -1.3053 H   0  0  0  0  0  0  0  0  0  0  0  0
    0.4956   -0.5555   -0.3893 C   0  0  1  0  0  0  0  0  0  0  0  0
    1.2553   -1.2673   -0.7318 H   0  0  0  0  0  0  0  0  0  0  0  0
    0.4014    0.6656   -1.3364 C   0  0  0  0  0  0  0  0  0  0  0  0
    0.1372    0.2911   -2.3311 H   0  0  0  0  0  0  0  0  0  0  0  0
   -0.4117    1.3199   -1.0054 H   0  0  0  0  0  0  0  0  0  0  0  0
    1.6670    1.5319   -1.5054 C   0  0  0  0  0  0  0  0  0  0  0  0
    1.5222    2.2043   -2.3553 H   0  0  0  0  0  0  0  0  0  0  0  0
    1.7852    2.1492   -0.6096 H   0  0  0  0  0  0  0  0  0  0  0  0
    2.9705    0.7538   -1.7192 C   0  0  0  0  0  0  0  0  0  0  0  0
    2.8986   -0.3184   -2.3748 O   0  5  0  0  0  0  0  0  0  0  0  0
    4.0409    1.3209   -1.3922 O   0  0  0  0  0  0  0  0  0  0  0  0
    0.8710   -0.0965    1.0418 C   0  0  0  0  0  0  0  0  0  0  0  0
    1.9548   -0.3569    1.5452 O   0  0  0  0  0  0  0  0  0  0  0  0
   -0.0548    0.6090    1.7919 N   0  0  0  0  0  0  0  0  0  0  0  0
   -0.9847    0.6760    1.3982 H   0  0  0  0  0  0  0  0  0  0  0  0
    0.1568    0.9707    3.1851 C   0  0  0  0  0  0  0  0  0  0  0  0
    1.0630    1.5762    3.2894 H   0  0  0  0  0  0  0  0  0  0  0  0
   -0.6914    1.5537    3.5553 H   0  0  0  0  0  0  0  0  0  0  0  0
    0.2585    0.0713    3.8010 H   0  0  0  0  0  0  0  0  0  0  0  0
  1  2  1  0  0  0  0
  2  3  1  0  0  0  0
  2  4  1  0  0  0  0
  2  5  1  0  0  0  0
  5  6  2  0  0  0  0
  5  7  1  0  0  0  0
  7  8  1  0  0  0  0
  7  9  1  0  0  0  0
  9 10  1  0  0  0  0
  9 11  1  0  0  0  0
  9 20  1  0  0  0  0
 11 12  1  0  0  0  0
 11 13  1  0  0  0  0
 11 14  1  0  0  0  0
 14 15  1  0  0  0  0
 14 16  1  0  0  0  0
 14 17  1  0  0  0  0
 17 18  1  0  0  0  0
 17 19  2  0  0  0  0
 20 21  2  0  0  0  0
 20 22  1  0  0  0  0
 22 23  1  0  0  0  0
 22 24  1  0  0  0  0
 24 25  1  0  0  0  0
 24 26  1  0  0  0  0
 24 27  1  0  0  0  0
M  CHG  1  18  -1
M  END
$$$$

  -OEChem-04042215583D

 27 26  0     1  0  0  0  0  0999 V2000
   -2.6976   -3.8587    0.3992 H   0  0  0  0  0  0  0  0  0  0  0  0
   -2.5461   -2.9539   -0.1963 C   0  0  0  0  0  0  0  0  0  0  0  0
   -3.3968   -2.2848   -0.0456 H   0  0  0  0  0  0  0  0  0  0  0  0
   -2.4935   -3.2346   -1.2513 H   0  0  0  0  0  0  0  0  0  0  0  0
   -1.2608   -2.2604    0.2196 C   0  0  0  0  0  0  0  0  0  0  0  0
   -0.6311   -2.6927    1.1681 O   0  0  0  0  0  0  0  0  0  0  0  0
   -0.8626   -1.1338   -0.4716 N   0  0  0  0  0  0  0  0  0  0  0  0
   -1.3873   -0.9419   -1.3188 H   0  0  0  0  0  0  0  0  0  0  0  0
    0.4836   -0.5289   -0.4005 C   0  0  1  0  0  0  0  0  0  0  0  0
    1.2465   -1.2334   -0.7522 H   0  0  0  0  0  0  0  0  0  0  0  0
    0.3870    0.6896   -1.3481 C   0  0  0  0  0  0  0  0  0  0  0  0
    0.1029    0.3356   -2.3450 H   0  0  0  0  0  0  0  0  0  0  0  0
   -0.4120    1.3502   -0.9968 H   0  0  0  0  0  0  0  0  0  0  0  0
    1.6684    1.5355   -1.4910 C   0  0  0  0  0  0  0  0  0  0  0  0
    1.4614    2.3656   -2.1720 H   0  0  0  0  0  0  0  0  0  0  0  0
    1.9345    1.9612   -0.5192 H   0  0  0  0  0  0  0  0  0  0  0  0
    2.8762    0.7619   -2.0381 C   0  0  0  0  0  0  0  0  0  0  0  0
    2.6585   -0.3045   -2.6714 O   0  5  0  0  0  0  0  0  0  0  0  0
    3.9978    1.3163   -1.9427 O   0  0  0  0  0  0  0  0  0  0  0  0
    0.8691   -0.0787    1.0304 C   0  0  0  0  0  0  0  0  0  0  0  0
    1.9753   -0.3004    1.5043 O   0  0  0  0  0  0  0  0  0  0  0  0
   -0.0548    0.6126    1.7956 N   0  0  0  0  0  0  0  0  0  0  0  0
   -0.9955    0.6486    1.4229 H   0  0  0  0  0  0  0  0  0  0  0  0
    0.1727    0.9711    3.1872 C   0  0  0  0  0  0  0  0  0  0  0  0
    1.0659    1.5976    3.2801 H   0  0  0  0  0  0  0  0  0  0  0  0
   -0.6827    1.5313    3.5758 H   0  0  0  0  0  0  0  0  0  0  0  0
    0.3059    0.0706    3.7953 H   0  0  0  0  0  0  0  0  0  0  0  0
  1  2  1  0  0  0  0
  2  3  1  0  0  0  0
  2  4  1  0  0  0  0
  2  5  1  0  0  0  0
  5  6  2  0  0  0  0
  5  7  1  0  0  0  0
  7  8  1  0  0  0  0
  7  9  1  0  0  0  0
  9 10  1  0  0  0  0
  9 11  1  0  0  0  0
  9 20  1  0  0  0  0
 11 12  1  0  0  0  0
 11 13  1  0  0  0  0
 11 14  1  0  0  0  0
 14 15  1  0  0  0  0
 14 16  1  0  0  0  0
 14 17  1  0  0  0  0
 17 18  1  0  0  0  0
 17 19  2  0  0  0  0
 20 21  2  0  0  0  0
 20 22  1  0  0  0  0
 22 23  1  0  0  0  0
 22 24  1  0  0  0  0
 24 25  1  0  0  0  0
 24 26  1  0  0  0  0
 24 27  1  0  0  0  0
M  CHG  1  18  -1
M  END
$$$$

  -OEChem-04042215583D

 27 26  0     1  0  0  0  0  0999 V2000
   -2.6931   -3.8580    0.3791 H   0  0  0  0  0  0  0  0  0  0  0  0
   -2.5402   -2.9561   -0.2206 C   0  0  0  0  0  0  0  0  0  0  0  0
   -3.3944   -2.2896   -0.0789 H   0  0  0  0  0  0  0  0  0  0  0  0
   -2.4803   -3.2421   -1.2738 H   0  0  0  0  0  0  0  0  0  0  0  0
   -1.2594   -2.2563    0.1996 C   0  0  0  0  0  0  0  0  0  0  0  0
   -0.6254   -2.6922    1.1438 O   0  0  0  0  0  0  0  0  0  0  0  0
   -0.8690   -1.1200   -0.4807 N   0  0  0  0  0  0  0  0  0  0  0  0
   -1.3943   -0.9247   -1.3270 H   0  0  0  0  0  0  0  0  0  0  0  0
    0.4763   -0.5130   -0.4081 C   0  0  1  0  0  0  0  0  0  0  0  0
    1.2400   -1.2122   -0.7692 H   0  0  0  0  0  0  0  0  0  0  0  0
    0.3845    0.7069   -1.3535 C   0  0  0  0  0  0  0  0  0  0  0  0
    0.0794    0.3745   -2.3517 H   0  0  0  0  0  0  0  0  0  0  0  0
   -0.4009    1.3725   -0.9815 H   0  0  0  0  0  0  0  0  0  0  0  0
    1.6773    1.5395   -1.4785 C   0  0  0  0  0  0  0  0  0  0  0  0
    1.4230    2.4939   -1.9483 H   0  0  0  0  0  0  0  0  0  0  0  0
    2.0891    1.7596   -0.4902 H   0  0  0  0  0  0  0  0  0  0  0  0
    2.7615    0.8719   -2.3385 C   0  0  0  0  0  0  0  0  0  0  0  0
    2.5353   -0.2669   -2.8259 O   0  5  0  0  0  0  0  0  0  0  0  0
    3.7850    1.5570   -2.5803 O   0  0  0  0  0  0  0  0  0  0  0  0
    0.8667   -0.0794    1.0269 C   0  0  0  0  0  0  0  0  0  0  0  0
    1.9829   -0.2872    1.4856 O   0  0  0  0  0  0  0  0  0  0  0  0
   -0.0555    0.6000    1.8043 N   0  0  0  0  0  0  0  0  0  0  0  0
   -1.0004    0.6286    1.4412 H   0  0  0  0  0  0  0  0  0  0  0  0
    0.1834    0.9605    3.1933 C   0  0  0  0  0  0  0  0  0  0  0  0
    1.0747    1.5908    3.2770 H   0  0  0  0  0  0  0  0  0  0  0  0
   -0.6709    1.5175    3.5886 H   0  0  0  0  0  0  0  0  0  0  0  0
    0.3260    0.0615    3.8013 H   0  0  0  0  0  0  0  0  0  0  0  0
  1  2  1  0  0  0  0
  2  3  1  0  0  0  0
  2  4  1  0  0  0  0
  2  5  1  0  0  0  0
  5  6  2  0  0  0  0
  5  7  1  0  0  0  0
  7  8  1  0  0  0  0
  7  9  1  0  0  0  0
  9 10  1  0  0  0  0
  9 11  1  0  0  0  0
  9 20  1  0  0  0  0
 11 12  1  0  0  0  0
 11 13  1  0  0  0  0
 11 14  1  0  0  0  0
 14 15  1  0  0  0  0
 14 16  1  0  0  0  0
 14 17  1  0  0  0  0
 17 18  1  0  0  0  0
 17 19  2  0  0  0  0
 20 21  2  0  0  0  0
 20 22  1  0  0  0  0
 22 23  1  0  0  0  0
 22 24  1  0  0  0  0
 24 25  1  0  0  0  0
 24 26  1  0  0  0  0
 24 27  1  0  0  0  0
M  CHG  1  18  -1
M  END
$$$$

  -OEChem-04042215583D

 27 26  0     1  0  0  0  0  0999 V2000
   -2.7037   -3.8344    0.3516 H   0  0  0  0  0  0  0  0  0  0  0  0
   -2.5448   -2.9282   -0.2398 C   0  0  0  0  0  0  0  0  0  0  0  0
   -3.3910   -2.2540   -0.0862 H   0  0  0  0  0  0  0  0  0  0  0  0
   -2.4940   -3.2037   -1.2963 H   0  0  0  0  0  0  0  0  0  0  0  0
   -1.2543   -2.2460    0.1792 C   0  0  0  0  0  0  0  0  0  0  0  0
   -0.6144   -2.7010    1.1104 O   0  0  0  0  0  0  0  0  0  0  0  0
   -0.8589   -1.1058   -0.4913 N   0  0  0  0  0  0  0  0  0  0  0  0
   -1.3886   -0.8942   -1.3309 H   0  0  0  0  0  0  0  0  0  0  0  0
    0.4873   -0.5023   -0.4124 C   0  0  1  0  0  0  0  0  0  0  0  0
    1.2526   -1.1969   -0.7792 H   0  0  0  0  0  0  0  0  0  0  0  0
    0.3986    0.7209   -1.3527 C   0  0  0  0  0  0  0  0  0  0  0  0
    0.0840    0.4002   -2.3522 H   0  0  0  0  0  0  0  0  0  0  0  0
   -0.3814    1.3869   -0.9698 H   0  0  0  0  0  0  0  0  0  0  0  0
    1.6957    1.5475   -1.4677 C   0  0  0  0  0  0  0  0  0  0  0  0
    1.4249    2.5857   -1.6817 H   0  0  0  0  0  0  0  0  0  0  0  0
    2.2582    1.5432   -0.5313 H   0  0  0  0  0  0  0  0  0  0  0  0
    2.5971    1.0441   -2.6031 C   0  0  0  0  0  0  0  0  0  0  0  0
    2.5864   -0.1842   -2.8762 O   0  5  0  0  0  0  0  0  0  0  0  0
    3.2522    1.9085   -3.2359 O   0  0  0  0  0  0  0  0  0  0  0  0
    0.8722   -0.0815    1.0286 C   0  0  0  0  0  0  0  0  0  0  0  0
    1.9840   -0.3011    1.4939 O   0  0  0  0  0  0  0  0  0  0  0  0
   -0.0519    0.5929    1.8081 N   0  0  0  0  0  0  0  0  0  0  0  0
   -0.9924    0.6390    1.4352 H   0  0  0  0  0  0  0  0  0  0  0  0
    0.1770    0.9329    3.2041 C   0  0  0  0  0  0  0  0  0  0  0  0
    1.0666    1.5633    3.3035 H   0  0  0  0  0  0  0  0  0  0  0  0
   -0.6809    1.4821    3.6026 H   0  0  0  0  0  0  0  0  0  0  0  0
    0.3175    0.0248    3.7992 H   0  0  0  0  0  0  0  0  0  0  0  0
  1  2  1  0  0  0  0
  2  3  1  0  0  0  0
  2  4  1  0  0  0  0
  2  5  1  0  0  0  0
  5  6  2  0  0  0  0
  5  7  1  0  0  0  0
  7  8  1  0  0  0  0
  7  9  1  0  0  0  0
  9 10  1  0  0  0  0
  9 11  1  0  0  0  0
  9 20  1  0  0  0  0
 11 12  1  0  0  0  0
 11 13  1  0  0  0  0
 11 14  1  0  0  0  0
 14 15  1  0  0  0  0
 14 16  1  0  0  0  0
 14 17  1  0  0  0  0
 17 18  1  0  0  0  0
 17 19  2  0  0  0  0
 20 21  2  0  0  0  0
 20 22  1  0  0  0  0
 22 23  1  0  0  0  0
 22 24  1  0  0  0  0
 24 25  1  0  0  0  0
 24 26  1  0  0  0  0
 24 27  1  0  0  0  0
M  CHG  1  18  -1
M  END
$$$$

  -OEChem-04042215583D

 27 26  0     1  0  0  0  0  0999 V2000
   -2.7038   -3.8312    0.3217 H   0  0  0  0  0  0  0  0  0  0  0  0
   -2.5657   -2.8977   -0.2311 C   0  0  0  0  0  0  0  0  0  0  0  0
   -3.3955   -2.2250   -0.0007 H   0  0  0  0  0  0  0  0  0  0  0  0
   -2.5719   -3.1206   -1.3010 H   0  0  0  0  0  0  0  0  0  0  0  0
   -1.2487   -2.2478    0.1558 C   0  0  0  0  0  0  0  0  0  0  0  0
   -0.5861   -2.7321    1.0559 O   0  0  0  0  0  0  0  0  0  0  0  0
   -0.8504   -1.1039   -0.5066 N   0  0  0  0  0  0  0  0  0  0  0  0
   -1.3984   -0.8602   -1.3257 H   0  0  0  0  0  0  0  0  0  0  0  0
    0.4946   -0.4993   -0.4208 C   0  0  1  0  0  0  0  0  0  0  0  0
    1.2613   -1.1916   -0.7890 H   0  0  0  0  0  0  0  0  0  0  0  0
    0.4129    0.7242   -1.3573 C   0  0  0  0  0  0  0  0  0  0  0  0
    0.1035    0.4001   -2.3576 H   0  0  0  0  0  0  0  0  0  0  0  0
   -0.3704    1.3912   -0.9832 H   0  0  0  0  0  0  0  0  0  0  0  0
    1.7144    1.5459   -1.4580 C   0  0  0  0  0  0  0  0  0  0  0  0
    1.4701    2.6104   -1.3902 H   0  0  0  0  0  0  0  0  0  0  0  0
    2.4025    1.3150   -0.6415 H   0  0  0  0  0  0  0  0  0  0  0  0
    2.4215    1.2826   -2.7910 C   0  0  0  0  0  0  0  0  0  0  0  0
    2.6260    0.0854   -3.1170 O   0  5  0  0  0  0  0  0  0  0  0  0
    2.6950    2.2755   -3.5099 O   0  0  0  0  0  0  0  0  0  0  0  0
    0.8746   -0.0855    1.0235 C   0  0  0  0  0  0  0  0  0  0  0  0
    1.9835   -0.3152    1.4913 O   0  0  0  0  0  0  0  0  0  0  0  0
   -0.0511    0.5838    1.8053 N   0  0  0  0  0  0  0  0  0  0  0  0
   -0.9868    0.6521    1.4237 H   0  0  0  0  0  0  0  0  0  0  0  0
    0.1752    0.9202    3.2024 C   0  0  0  0  0  0  0  0  0  0  0  0
    1.0524    1.5676    3.3029 H   0  0  0  0  0  0  0  0  0  0  0  0
   -0.6926    1.4494    3.6065 H   0  0  0  0  0  0  0  0  0  0  0  0
    0.3354    0.0117    3.7918 H   0  0  0  0  0  0  0  0  0  0  0  0
  1  2  1  0  0  0  0
  2  3  1  0  0  0  0
  2  4  1  0  0  0  0
  2  5  1  0  0  0  0
  5  6  2  0  0  0  0
  5  7  1  0  0  0  0
  7  8  1  0  0  0  0
  7  9  1  0  0  0  0
  9 10  1  0  0  0  0
  9 11  1  0  0  0  0
  9 20  1  0  0  0  0
 11 12  1  0  0  0  0
 11 13  1  0  0  0  0
 11 14  1  0  0  0  0
 14 15  1  0  0  0  0
 14 16  1  0  0  0  0
 14 17  1  0  0  0  0
 17 18  1  0  0  0  0
 17 19  2  0  0  0  0
 20 21  2  0  0  0  0
 20 22  1  0  0  0  0
 22 23  1  0  0  0  0
 22 24  1  0  0  0  0
 24 25  1  0  0  0  0
 24 26  1  0  0  0  0
 24 27  1  0  0  0  0
M  CHG  1  18  -1
M  END
$$$$

  -OEChem-04042215583D

 27 26  0     1  0  0  0  0  0999 V2000
   -2.7489   -3.8015    0.3516 H   0  0  0  0  0  0  0  0  0  0  0  0
   -2.5875   -2.8895   -0.2303 C   0  0  0  0  0  0  0  0  0  0  0  0
   -3.4011   -2.1903   -0.0226 H   0  0  0  0  0  0  0  0  0  0  0  0
   -2.5977   -3.1446   -1.2931 H   0  0  0  0  0  0  0  0  0  0  0  0
   -1.2555   -2.2604    0.1381 C   0  0  0  0  0  0  0  0  0  0  0  0
   -0.5698   -2.7745    1.0037 O   0  0  0  0  0  0  0  0  0  0  0  0
   -0.8568   -1.1123   -0.5161 N   0  0  0  0  0  0  0  0  0  0  0  0
   -1.4270   -0.8334   -1.3087 H   0  0  0  0  0  0  0  0  0  0  0  0
    0.4870   -0.5077   -0.4270 C   0  0  1  0  0  0  0  0  0  0  0  0
    1.2512   -1.1998   -0.7987 H   0  0  0  0  0  0  0  0  0  0  0  0
    0.4086    0.7202   -1.3547 C   0  0  0  0  0  0  0  0  0  0  0  0
    0.1183    0.3832   -2.3564 H   0  0  0  0  0  0  0  0  0  0  0  0
   -0.3839    1.3882   -1.0019 H   0  0  0  0  0  0  0  0  0  0  0  0
    1.7141    1.5362   -1.4423 C   0  0  0  0  0  0  0  0  0  0  0  0
    1.5370    2.5532   -1.0798 H   0  0  0  0  0  0  0  0  0  0  0  0
    2.4952    1.0956   -0.8172 H   0  0  0  0  0  0  0  0  0  0  0  0
    2.2298    1.5819   -2.8825 C   0  0  0  0  0  0  0  0  0  0  0  0
    2.5575    0.4930   -3.4178 O   0  5  0  0  0  0  0  0  0  0  0  0
    2.2212    2.6929   -3.4682 O   0  0  0  0  0  0  0  0  0  0  0  0
    0.8747   -0.1000    1.0161 C   0  0  0  0  0  0  0  0  0  0  0  0
    1.9871   -0.3349    1.4728 O   0  0  0  0  0  0  0  0  0  0  0  0
   -0.0442    0.5665    1.8079 N   0  0  0  0  0  0  0  0  0  0  0  0
   -0.9742    0.6767    1.4219 H   0  0  0  0  0  0  0  0  0  0  0  0
    0.2058    0.9375    3.1922 C   0  0  0  0  0  0  0  0  0  0  0  0
    1.0806    1.5925    3.2603 H   0  0  0  0  0  0  0  0  0  0  0  0
   -0.6576    1.4713    3.5999 H   0  0  0  0  0  0  0  0  0  0  0  0
    0.3829    0.0445    3.8004 H   0  0  0  0  0  0  0  0  0  0  0  0
  1  2  1  0  0  0  0
  2  3  1  0  0  0  0
  2  4  1  0  0  0  0
  2  5  1  0  0  0  0
  5  6  2  0  0  0  0
  5  7  1  0  0  0  0
  7  8  1  0  0  0  0
  7  9  1  0  0  0  0
  9 10  1  0  0  0  0
  9 11  1  0  0  0  0
  9 20  1  0  0  0  0
 11 12  1  0  0  0  0
 11 13  1  0  0  0  0
 11 14  1  0  0  0  0
 14 15  1  0  0  0  0
 14 16  1  0  0  0  0
 14 17  1  0  0  0  0
 17 18  1  0  0  0  0
 17 19  2  0  0  0  0
 20 21  2  0  0  0  0
 20 22  1  0  0  0  0
 22 23  1  0  0  0  0
 22 24  1  0  0  0  0
 24 25  1  0  0  0  0
 24 26  1  0  0  0  0
 24 27  1  0  0  0  0
M  CHG  1  18  -1
M  END
$$$$

  -OEChem-04042215583D

 27 26  0     1  0  0  0  0  0999 V2000
   -2.7882   -3.7676    0.3923 H   0  0  0  0  0  0  0  0  0  0  0  0
   -2.6144   -2.8698   -0.2076 C   0  0  0  0  0  0  0  0  0  0  0  0
   -3.3996   -2.1424    0.0122 H   0  0  0  0  0  0  0  0  0  0  0  0
   -2.6623   -3.1388   -1.2658 H   0  0  0  0  0  0  0  0  0  0  0  0
   -1.2540   -2.2776    0.1146 C   0  0  0  0  0  0  0  0  0  0  0  0
   -0.5424   -2.8226    0.9395 O   0  0  0  0  0  0  0  0  0  0  0  0
   -0.8561   -1.1254   -0.5322 N   0  0  0  0  0  0  0  0  0  0  0  0
   -1.4535   -0.8044   -1.2882 H   0  0  0  0  0  0  0  0  0  0  0  0
    0.4846   -0.5167   -0.4365 C   0  0  1  0  0  0  0  0  0  0  0  0
    1.2493   -1.2086   -0.8068 H   0  0  0  0  0  0  0  0  0  0  0  0
    0.4112    0.7143   -1.3580 C   0  0  0  0  0  0  0  0  0  0  0  0
    0.1545    0.3627   -2.3642 H   0  0  0  0  0  0  0  0  0  0  0  0
   -0.3940    1.3820   -1.0341 H   0  0  0  0  0  0  0  0  0  0  0  0
    1.7174    1.5252   -1.4275 C   0  0  0  0  0  0  0  0  0  0  0  0
    1.6339    2.4279   -0.8150 H   0  0  0  0  0  0  0  0  0  0  0  0
    2.5531    0.9372   -1.0361 H   0  0  0  0  0  0  0  0  0  0  0  0
    2.0399    1.8925   -2.8763 C   0  0  0  0  0  0  0  0  0  0  0  0
    2.5698    1.0119   -3.5984 O   0  5  0  0  0  0  0  0  0  0  0  0
    1.6624    3.0198   -3.2823 O   0  0  0  0  0  0  0  0  0  0  0  0
    0.8749   -0.1115    1.0053 C   0  0  0  0  0  0  0  0  0  0  0  0
    1.9896   -0.3480    1.4553 O   0  0  0  0  0  0  0  0  0  0  0  0
   -0.0417    0.5506    1.8027 N   0  0  0  0  0  0  0  0  0  0  0  0
   -0.9578    0.7134    1.4023 H   0  0  0  0  0  0  0  0  0  0  0  0
    0.2236    0.9492    3.1762 C   0  0  0  0  0  0  0  0  0  0  0  0
    1.0498    1.6665    3.2119 H   0  0  0  0  0  0  0  0  0  0  0  0
   -0.6639    1.4198    3.6093 H   0  0  0  0  0  0  0  0  0  0  0  0
    0.4844    0.0765    3.7839 H   0  0  0  0  0  0  0  0  0  0  0  0
  1  2  1  0  0  0  0
  2  3  1  0  0  0  0
  2  4  1  0  0  0  0
  2  5  1  0  0  0  0
  5  6  2  0  0  0  0
  5  7  1  0  0  0  0
  7  8  1  0  0  0  0
  7  9  1  0  0  0  0
  9 10  1  0  0  0  0
  9 11  1  0  0  0  0
  9 20  1  0  0  0  0
 11 12  1  0  0  0  0
 11 13  1  0  0  0  0
 11 14  1  0  0  0  0
 14 15  1  0  0  0  0
 14 16  1  0  0  0  0
 14 17  1  0  0  0  0
 17 18  1  0  0  0  0
 17 19  2  0  0  0  0
 20 21  2  0  0  0  0
 20 22  1  0  0  0  0
 22 23  1  0  0  0  0
 22 24  1  0  0  0  0
 24 25  1  0  0  0  0
 24 26  1  0  0  0  0
 24 27  1  0  0  0  0
M  CHG  1  18  -1
M  END
$$$$

  -OEChem-04042215583D

 27 26  0     1  0  0  0  0  0999 V2000
   -2.6728   -3.8803    0.3662 H   0  0  0  0  0  0  0  0  0  0  0  0
   -2.5227   -2.9733   -0.2264 C   0  0  0  0  0  0  0  0  0  0  0  0
   -3.3164   -2.2613    0.0130 H   0  0  0  0  0  0  0  0  0  0  0  0
   -2.5819   -3.2314   -1.2868 H   0  0  0  0  0  0  0  0  0  0  0  0
   -1.1675   -2.3624    0.0831 C   0  0  0  0  0  0  0  0  0  0  0  0
   -0.4268   -2.9119    0.8791 O   0  0  0  0  0  0  0  0  0  0  0  0
   -0.7968   -1.1967   -0.5549 N   0  0  0  0  0  0  0  0  0  0  0  0
   -1.4233   -0.8501   -1.2754 H   0  0  0  0  0  0  0  0  0  0  0  0
    0.5116   -0.5303   -0.4188 C   0  0  1  0  0  0  0  0  0  0  0  0
    1.3148   -1.1920   -0.7606 H   0  0  0  0  0  0  0  0  0  0  0  0
    0.4115    0.6901   -1.3496 C   0  0  0  0  0  0  0  0  0  0  0  0
    0.2168    0.3194   -2.3626 H   0  0  0  0  0  0  0  0  0  0  0  0
   -0.4367    1.3214   -1.0640 H   0  0  0  0  0  0  0  0  0  0  0  0
    1.6776    1.5596   -1.3836 C   0  0  0  0  0  0  0  0  0  0  0  0
    1.6380    2.3166   -0.5953 H   0  0  0  0  0  0  0  0  0  0  0  0
    2.5626    0.9396   -1.2085 H   0  0  0  0  0  0  0  0  0  0  0  0
    1.8146    2.2330   -2.7502 C   0  0  0  0  0  0  0  0  0  0  0  0
    0.9340    3.0761   -3.0580 O   0  5  0  0  0  0  0  0  0  0  0  0
    2.7473    1.8647   -3.5053 O   0  0  0  0  0  0  0  0  0  0  0  0
    0.8458   -0.0991    1.0287 C   0  0  0  0  0  0  0  0  0  0  0  0
    1.9599   -0.2831    1.5040 O   0  0  0  0  0  0  0  0  0  0  0  0
   -0.1167    0.5299    1.7986 N   0  0  0  0  0  0  0  0  0  0  0  0
   -0.9971    0.7367    1.3418 H   0  0  0  0  0  0  0  0  0  0  0  0
    0.1367    1.0526    3.1326 C   0  0  0  0  0  0  0  0  0  0  0  0
    0.9135    1.8232    3.0990 H   0  0  0  0  0  0  0  0  0  0  0  0
   -0.7753    1.4964    3.5425 H   0  0  0  0  0  0  0  0  0  0  0  0
    0.4619    0.2498    3.8022 H   0  0  0  0  0  0  0  0  0  0  0  0
  1  2  1  0  0  0  0
  2  3  1  0  0  0  0
  2  4  1  0  0  0  0
  2  5  1  0  0  0  0
  5  6  2  0  0  0  0
  5  7  1  0  0  0  0
  7  8  1  0  0  0  0
  7  9  1  0  0  0  0
  9 10  1  0  0  0  0
  9 11  1  0  0  0  0
  9 20  1  0  0  0  0
 11 12  1  0  0  0  0
 11 13  1  0  0  0  0
 11 14  1  0  0  0  0
 14 15  1  0  0  0  0
 14 16  1  0  0  0  0
 14 17  1  0  0  0  0
 17 18  1  0  0  0  0
 17 19  2  0  0  0  0
 20 21  2  0  0  0  0
 20 22  1  0  0  0  0
 22 23  1  0  0  0  0
 22 24  1  0  0  0  0
 24 25  1  0  0  0  0
 24 26  1  0  0  0  0
 24 27  1  0  0  0  0
M  CHG  1  18  -1
M  END
$$$$

  -OEChem-04042215583D

 27 26  0     1  0  0  0  0  0999 V2000
   -2.6845   -3.8761    0.3488 H   0  0  0  0  0  0  0  0  0  0  0  0
   -2.5366   -2.9606   -0.2309 C   0  0  0  0  0  0  0  0  0  0  0  0
   -3.3134   -2.2422    0.0420 H   0  0  0  0  0  0  0  0  0  0  0  0
   -2.6275   -3.1986   -1.2936 H   0  0  0  0  0  0  0  0  0  0  0  0
   -1.1649   -2.3749    0.0541 C   0  0  0  0  0  0  0  0  0  0  0  0
   -0.4115   -2.9508    0.8191 O   0  0  0  0  0  0  0  0  0  0  0  0
   -0.7903   -1.2042   -0.5726 N   0  0  0  0  0  0  0  0  0  0  0  0
   -1.4359   -0.8203   -1.2563 H   0  0  0  0  0  0  0  0  0  0  0  0
    0.5160   -0.5373   -0.4199 C   0  0  1  0  0  0  0  0  0  0  0  0
    1.3221   -1.1981   -0.7563 H   0  0  0  0  0  0  0  0  0  0  0  0
    0.4273    0.6857   -1.3484 C   0  0  0  0  0  0  0  0  0  0  0  0
    0.2441    0.3284   -2.3680 H   0  0  0  0  0  0  0  0  0  0  0  0
   -0.4223    1.3145   -1.0609 H   0  0  0  0  0  0  0  0  0  0  0  0
    1.6926    1.5535   -1.3632 C   0  0  0  0  0  0  0  0  0  0  0  0
    1.7692    2.1331   -0.4386 H   0  0  0  0  0  0  0  0  0  0  0  0
    2.5803    0.9176   -1.4366 H   0  0  0  0  0  0  0  0  0  0  0  0
    1.6517    2.5033   -2.5610 C   0  0  0  0  0  0  0  0  0  0  0  0
    0.7694    3.3990   -2.5489 O   0  5  0  0  0  0  0  0  0  0  0  0
    2.4461    2.2940   -3.5103 O   0  0  0  0  0  0  0  0  0  0  0  0
    0.8373   -0.1156    1.0328 C   0  0  0  0  0  0  0  0  0  0  0  0
    1.9466   -0.3099    1.5156 O   0  0  0  0  0  0  0  0  0  0  0  0
   -0.1320    0.5077    1.7988 N   0  0  0  0  0  0  0  0  0  0  0  0
   -0.9867    0.7634    1.3177 H   0  0  0  0  0  0  0  0  0  0  0  0
    0.1295    1.0597    3.1193 C   0  0  0  0  0  0  0  0  0  0  0  0
    0.8729    1.8610    3.0570 H   0  0  0  0  0  0  0  0  0  0  0  0
   -0.7909    1.4707    3.5439 H   0  0  0  0  0  0  0  0  0  0  0  0
    0.5026    0.2812    3.7927 H   0  0  0  0  0  0  0  0  0  0  0  0
  1  2  1  0  0  0  0
  2  3  1  0  0  0  0
  2  4  1  0  0  0  0
  2  5  1  0  0  0  0
  5  6  2  0  0  0  0
  5  7  1  0  0  0  0
  7  8  1  0  0  0  0
  7  9  1  0  0  0  0
  9 10  1  0  0  0  0
  9 11  1  0  0  0  0
  9 20  1  0  0  0  0
 11 12  1  0  0  0  0
 11 13  1  0  0  0  0
 11 14  1  0  0  0  0
 14 15  1  0  0  0  0
 14 16  1  0  0  0  0
 14 17  1  0  0  0  0
 17 18  1  0  0  0  0
 17 19  2  0  0  0  0
 20 21  2  0  0  0  0
 20 22  1  0  0  0  0
 22 23  1  0  0  0  0
 22 24  1  0  0  0  0
 24 25  1  0  0  0  0
 24 26  1  0  0  0  0
 24 27  1  0  0  0  0
M  CHG  1  18  -1
M  END
$$$$

  -OEChem-04042215583D

 27 26  0     1  0  0  0  0  0999 V2000
   -2.6857   -3.8920    0.3276 H   0  0  0  0  0  0  0  0  0  0  0  0
   -2.5444   -2.9700   -0.2435 C   0  0  0  0  0  0  0  0  0  0  0  0
   -3.3274   -2.2603    0.0347 H   0  0  0  0  0  0  0  0  0  0  0  0
   -2.6314   -3.1990   -1.3085 H   0  0  0  0  0  0  0  0  0  0  0  0
   -1.1781   -2.3753    0.0489 C   0  0  0  0  0  0  0  0  0  0  0  0
   -0.4251   -2.9458    0.8183 O   0  0  0  0  0  0  0  0  0  0  0  0
   -0.8070   -1.2037   -0.5776 N   0  0  0  0  0  0  0  0  0  0  0  0
   -1.4512   -0.8241   -1.2647 H   0  0  0  0  0  0  0  0  0  0  0  0
    0.4960   -0.5320   -0.4203 C   0  0  1  0  0  0  0  0  0  0  0  0
    1.2947   -1.2049   -0.7499 H   0  0  0  0  0  0  0  0  0  0  0  0
    0.4271    0.6805   -1.3638 C   0  0  0  0  0  0  0  0  0  0  0  0
    0.0110    0.3659   -2.3275 H   0  0  0  0  0  0  0  0  0  0  0  0
   -0.2471    1.4350   -0.9439 H   0  0  0  0  0  0  0  0  0  0  0  0
    1.7936    1.3178   -1.6374 C   0  0  0  0  0  0  0  0  0  0  0  0
    2.2459    1.6650   -0.7038 H   0  0  0  0  0  0  0  0  0  0  0  0
    2.4699    0.5839   -2.0859 H   0  0  0  0  0  0  0  0  0  0  0  0
    1.6178    2.5071   -2.5812 C   0  0  0  0  0  0  0  0  0  0  0  0
    1.1499    3.5679   -2.0969 O   0  5  0  0  0  0  0  0  0  0  0  0
    1.8597    2.3227   -3.7997 O   0  0  0  0  0  0  0  0  0  0  0  0
    0.8273   -0.1012    1.0271 C   0  0  0  0  0  0  0  0  0  0  0  0
    1.9387   -0.2997    1.5033 O   0  0  0  0  0  0  0  0  0  0  0  0
   -0.1357    0.5248    1.7986 N   0  0  0  0  0  0  0  0  0  0  0  0
   -0.9905    0.7872    1.3216 H   0  0  0  0  0  0  0  0  0  0  0  0
    0.1330    1.0714    3.1199 C   0  0  0  0  0  0  0  0  0  0  0  0
    0.8729    1.8758    3.0570 H   0  0  0  0  0  0  0  0  0  0  0  0
   -0.7862    1.4766    3.5528 H   0  0  0  0  0  0  0  0  0  0  0  0
    0.5131    0.2909    3.7870 H   0  0  0  0  0  0  0  0  0  0  0  0
  1  2  1  0  0  0  0
  2  3  1  0  0  0  0
  2  4  1  0  0  0  0
  2  5  1  0  0  0  0
  5  6  2  0  0  0  0
  5  7  1  0  0  0  0
  7  8  1  0  0  0  0
  7  9  1  0  0  0  0
  9 10  1  0  0  0  0
  9 11  1  0  0  0  0
  9 20  1  0  0  0  0
 11 12  1  0  0  0  0
 11 13  1  0  0  0  0
 11 14  1  0  0  0  0
 14 15  1  0  0  0  0
 14 16  1  0  0  0  0
 14 17  1  0  0  0  0
 17 18  1  0  0  0  0
 17 19  2  0  0  0  0
 20 21  2  0  0  0  0
 20 22  1  0  0  0  0
 22 23  1  0  0  0  0
 22 24  1  0  0  0  0
 24 25  1  0  0  0  0
 24 26  1  0  0  0  0
 24 27  1  0  0  0  0
M  CHG  1  18  -1
M  END
$$$$

  -OEChem-04042215583D

 27 26  0     1  0  0  0  0  0999 V2000
   -2.7847   -3.8089    0.4589 H   0  0  0  0  0  0  0  0  0  0  0  0
   -2.6618   -2.8614   -0.0734 C   0  0  0  0  0  0  0  0  0  0  0  0
   -3.3663   -2.1335    0.3366 H   0  0  0  0  0  0  0  0  0  0  0  0
   -2.8871   -3.0201   -1.1309 H   0  0  0  0  0  0  0  0  0  0  0  0
   -1.2400   -2.3514    0.0833 C   0  0  0  0  0  0  0  0  0  0  0  0
   -0.4396   -2.9892    0.7445 O   0  0  0  0  0  0  0  0  0  0  0  0
   -0.8727   -1.1807   -0.5468 N   0  0  0  0  0  0  0  0  0  0  0  0
   -1.5757   -0.7217   -1.1185 H   0  0  0  0  0  0  0  0  0  0  0  0
    0.4579   -0.5513   -0.4664 C   0  0  1  0  0  0  0  0  0  0  0  0
    1.2145   -1.2378   -0.8611 H   0  0  0  0  0  0  0  0  0  0  0  0
    0.3508    0.6782   -1.3849 C   0  0  0  0  0  0  0  0  0  0  0  0
   -0.1560    0.4056   -2.3171 H   0  0  0  0  0  0  0  0  0  0  0  0
   -0.2687    1.4284   -0.8810 H   0  0  0  0  0  0  0  0  0  0  0  0
    1.7072    1.3030   -1.7585 C   0  0  0  0  0  0  0  0  0  0  0  0
    2.3327    1.3825   -0.8648 H   0  0  0  0  0  0  0  0  0  0  0  0
    2.2264    0.6560   -2.4710 H   0  0  0  0  0  0  0  0  0  0  0  0
    1.5703    2.7106   -2.3589 C   0  0  0  0  0  0  0  0  0  0  0  0
    2.6327    3.3458   -2.5633 O   0  5  0  0  0  0  0  0  0  0  0  0
    0.4196    3.1421   -2.6345 O   0  0  0  0  0  0  0  0  0  0  0  0
    0.8914   -0.1590    0.9648 C   0  0  0  0  0  0  0  0  0  0  0  0
    2.0171   -0.4155    1.3740 O   0  0  0  0  0  0  0  0  0  0  0  0
   -0.0026    0.4803    1.8055 N   0  0  0  0  0  0  0  0  0  0  0  0
   -0.8700    0.7912    1.3831 H   0  0  0  0  0  0  0  0  0  0  0  0
    0.3641    0.9858    3.1198 C   0  0  0  0  0  0  0  0  0  0  0  0
    1.1636    1.7290    3.0341 H   0  0  0  0  0  0  0  0  0  0  0  0
   -0.5005    1.4583    3.5951 H   0  0  0  0  0  0  0  0  0  0  0  0
    0.7073    0.1679    3.7616 H   0  0  0  0  0  0  0  0  0  0  0  0
  1  2  1  0  0  0  0
  2  3  1  0  0  0  0
  2  4  1  0  0  0  0
  2  5  1  0  0  0  0
  5  6  2  0  0  0  0
  5  7  1  0  0  0  0
  7  8  1  0  0  0  0
  7  9  1  0  0  0  0
  9 10  1  0  0  0  0
  9 11  1  0  0  0  0
  9 20  1  0  0  0  0
 11 12  1  0  0  0  0
 11 13  1  0  0  0  0
 11 14  1  0  0  0  0
 14 15  1  0  0  0  0
 14 16  1  0  0  0  0
 14 17  1  0  0  0  0
 17 18  1  0  0  0  0
 17 19  2  0  0  0  0
 20 21  2  0  0  0  0
 20 22  1  0  0  0  0
 22 23  1  0  0  0  0
 22 24  1  0  0  0  0
 24 25  1  0  0  0  0
 24 26  1  0  0  0  0
 24 27  1  0  0  0  0
M  CHG  1  18  -1
M  END
$$$$

  -OEChem-04042215583D

 27 26  0     1  0  0  0  0  0999 V2000
   -2.7456   -3.8177    0.4844 H   0  0  0  0  0  0  0  0  0  0  0  0
   -2.6234   -2.8892   -0.0804 C   0  0  0  0  0  0  0  0  0  0  0  0
   -3.3167   -2.1434    0.3164 H   0  0  0  0  0  0  0  0  0  0  0  0
   -2.8656   -3.0806   -1.1287 H   0  0  0  0  0  0  0  0  0  0  0  0
   -1.1952   -2.3867    0.0383 C   0  0  0  0  0  0  0  0  0  0  0  0
   -0.3753   -3.0446    0.6545 O   0  0  0  0  0  0  0  0  0  0  0  0
   -0.8416   -1.2084   -0.5861 N   0  0  0  0  0  0  0  0  0  0  0  0
   -1.5723   -0.7130   -1.0871 H   0  0  0  0  0  0  0  0  0  0  0  0
    0.4737   -0.5532   -0.4670 C   0  0  1  0  0  0  0  0  0  0  0  0
    1.2533   -1.2258   -0.8404 H   0  0  0  0  0  0  0  0  0  0  0  0
    0.3697    0.6727   -1.3907 C   0  0  0  0  0  0  0  0  0  0  0  0
   -0.0967    0.3907   -2.3405 H   0  0  0  0  0  0  0  0  0  0  0  0
   -0.2933    1.4007   -0.9118 H   0  0  0  0  0  0  0  0  0  0  0  0
    1.7286    1.3183   -1.7180 C   0  0  0  0  0  0  0  0  0  0  0  0
    2.4263    1.1852   -0.8867 H   0  0  0  0  0  0  0  0  0  0  0  0
    2.1655    0.8273   -2.5927 H   0  0  0  0  0  0  0  0  0  0  0  0
    1.5910    2.8245   -1.9666 C   0  0  0  0  0  0  0  0  0  0  0  0
    2.0082    3.2662   -3.0653 O   0  5  0  0  0  0  0  0  0  0  0  0
    1.0047    3.5167   -1.0951 O   0  0  0  0  0  0  0  0  0  0  0  0
    0.8681   -0.1470    0.9723 C   0  0  0  0  0  0  0  0  0  0  0  0
    1.9702   -0.4406    1.4212 O   0  0  0  0  0  0  0  0  0  0  0  0
   -0.0525    0.4806    1.7931 N   0  0  0  0  0  0  0  0  0  0  0  0
   -0.8415    0.8989    1.3131 H   0  0  0  0  0  0  0  0  0  0  0  0
    0.3077    1.0055    3.1017 C   0  0  0  0  0  0  0  0  0  0  0  0
    1.0931    1.7624    3.0061 H   0  0  0  0  0  0  0  0  0  0  0  0
   -0.5647    1.4664    3.5740 H   0  0  0  0  0  0  0  0  0  0  0  0
    0.6673    0.2015    3.7518 H   0  0  0  0  0  0  0  0  0  0  0  0
  1  2  1  0  0  0  0
  2  3  1  0  0  0  0
  2  4  1  0  0  0  0
  2  5  1  0  0  0  0
  5  6  2  0  0  0  0
  5  7  1  0  0  0  0
  7  8  1  0  0  0  0
  7  9  1  0  0  0  0
  9 10  1  0  0  0  0
  9 11  1  0  0  0  0
  9 20  1  0  0  0  0
 11 12  1  0  0  0  0
 11 13  1  0  0  0  0
 11 14  1  0  0  0  0
 14 15  1  0  0  0  0
 14 16  1  0  0  0  0
 14 17  1  0  0  0  0
 17 18  1  0  0  0  0
 17 19  2  0  0  0  0
 20 21  2  0  0  0  0
 20 22  1  0  0  0  0
 22 23  1  0  0  0  0
 22 24  1  0  0  0  0
 24 25  1  0  0  0  0
 24 26  1  0  0  0  0
 24 27  1  0  0  0  0
M  CHG  1  18  -1
M  END
$$$$

  -OEChem-04042215583D

 27 26  0     1  0  0  0  0  0999 V2000
   -2.7346   -3.8395    0.4100 H   0  0  0  0  0  0  0  0  0  0  0  0
   -2.6071   -2.8937   -0.1244 C   0  0  0  0  0  0  0  0  0  0  0  0
   -3.3085   -2.1619    0.2839 H   0  0  0  0  0  0  0  0  0  0  0  0
   -2.8326   -3.0538   -1.1816 H   0  0  0  0  0  0  0  0  0  0  0  0
   -1.1829   -2.3900    0.0317 C   0  0  0  0  0  0  0  0  0  0  0  0
   -0.3803   -3.0430    0.6750 O   0  0  0  0  0  0  0  0  0  0  0  0
   -0.8144   -1.2146   -0.5894 N   0  0  0  0  0  0  0  0  0  0  0  0
   -1.5284   -0.7323   -1.1261 H   0  0  0  0  0  0  0  0  0  0  0  0
    0.4965   -0.5550   -0.4460 C   0  0  1  0  0  0  0  0  0  0  0  0
    1.2852   -1.2291   -0.7971 H   0  0  0  0  0  0  0  0  0  0  0  0
    0.4054    0.6590   -1.3886 C   0  0  0  0  0  0  0  0  0  0  0  0
   -0.0438    0.3591   -2.3414 H   0  0  0  0  0  0  0  0  0  0  0  0
   -0.2702    1.3926   -0.9340 H   0  0  0  0  0  0  0  0  0  0  0  0
    1.7582    1.3230   -1.7074 C   0  0  0  0  0  0  0  0  0  0  0  0
    2.5254    0.9805   -1.0064 H   0  0  0  0  0  0  0  0  0  0  0  0
    2.0820    1.0419   -2.7135 H   0  0  0  0  0  0  0  0  0  0  0  0
    1.6494    2.8484   -1.6113 C   0  0  0  0  0  0  0  0  0  0  0  0
    0.7725    3.4001   -2.3249 O   0  5  0  0  0  0  0  0  0  0  0  0
    2.4105    3.4556   -0.8210 O   0  0  0  0  0  0  0  0  0  0  0  0
    0.8601   -0.1391    0.9982 C   0  0  0  0  0  0  0  0  0  0  0  0
    1.9445   -0.4470    1.4776 O   0  0  0  0  0  0  0  0  0  0  0  0
   -0.0790    0.4911    1.7960 N   0  0  0  0  0  0  0  0  0  0  0  0
   -0.8778    0.8779    1.3069 H   0  0  0  0  0  0  0  0  0  0  0  0
    0.2488    1.0228    3.1107 C   0  0  0  0  0  0  0  0  0  0  0  0
    1.0163    1.7993    3.0271 H   0  0  0  0  0  0  0  0  0  0  0  0
   -0.6412    1.4608    3.5712 H   0  0  0  0  0  0  0  0  0  0  0  0
    0.6191    0.2273    3.7655 H   0  0  0  0  0  0  0  0  0  0  0  0
  1  2  1  0  0  0  0
  2  3  1  0  0  0  0
  2  4  1  0  0  0  0
  2  5  1  0  0  0  0
  5  6  2  0  0  0  0
  5  7  1  0  0  0  0
  7  8  1  0  0  0  0
  7  9  1  0  0  0  0
  9 10  1  0  0  0  0
  9 11  1  0  0  0  0
  9 20  1  0  0  0  0
 11 12  1  0  0  0  0
 11 13  1  0  0  0  0
 11 14  1  0  0  0  0
 14 15  1  0  0  0  0
 14 16  1  0  0  0  0
 14 17  1  0  0  0  0
 17 18  1  0  0  0  0
 17 19  2  0  0  0  0
 20 21  2  0  0  0  0
 20 22  1  0  0  0  0
 22 23  1  0  0  0  0
 22 24  1  0  0  0  0
 24 25  1  0  0  0  0
 24 26  1  0  0  0  0
 24 27  1  0  0  0  0
M  CHG  1  18  -1
M  END
$$$$

  -OEChem-04042215583D

 27 26  0     1  0  0  0  0  0999 V2000
   -2.7296   -3.8075    0.4400 H   0  0  0  0  0  0  0  0  0  0  0  0
   -2.5968   -2.8695   -0.1064 C   0  0  0  0  0  0  0  0  0  0  0  0
   -3.2459   -2.1102    0.3369 H   0  0  0  0  0  0  0  0  0  0  0  0
   -2.8864   -3.0244   -1.1487 H   0  0  0  0  0  0  0  0  0  0  0  0
   -1.1484   -2.4191   -0.0320 C   0  0  0  0  0  0  0  0  0  0  0  0
   -0.3290   -3.1186    0.5375 O   0  0  0  0  0  0  0  0  0  0  0  0
   -0.7785   -1.2472   -0.6582 N   0  0  0  0  0  0  0  0  0  0  0  0
   -1.5282   -0.6996   -1.0666 H   0  0  0  0  0  0  0  0  0  0  0  0
    0.5124   -0.5684   -0.4444 C   0  0  1  0  0  0  0  0  0  0  0  0
    1.3249   -1.2388   -0.7446 H   0  0  0  0  0  0  0  0  0  0  0  0
    0.4532    0.6296   -1.4081 C   0  0  0  0  0  0  0  0  0  0  0  0
    0.1034    0.2775   -2.3843 H   0  0  0  0  0  0  0  0  0  0  0  0
   -0.2922    1.3496   -1.0546 H   0  0  0  0  0  0  0  0  0  0  0  0
    1.8198    1.3026   -1.6426 C   0  0  0  0  0  0  0  0  0  0  0  0
    2.6051    0.7890   -1.0803 H   0  0  0  0  0  0  0  0  0  0  0  0
    2.0790    1.2379   -2.7038 H   0  0  0  0  0  0  0  0  0  0  0  0
    1.7948    2.7757   -1.2130 C   0  0  0  0  0  0  0  0  0  0  0  0
    1.2338    3.0644   -0.1234 O   0  5  0  0  0  0  0  0  0  0  0  0
    2.2833    3.6155   -2.0078 O   0  0  0  0  0  0  0  0  0  0  0  0
    0.8132   -0.1133    1.0034 C   0  0  0  0  0  0  0  0  0  0  0  0
    1.8353   -0.5026    1.5585 O   0  0  0  0  0  0  0  0  0  0  0  0
   -0.1615    0.5297    1.7463 N   0  0  0  0  0  0  0  0  0  0  0  0
   -0.7788    1.1011    1.1786 H   0  0  0  0  0  0  0  0  0  0  0  0
    0.1265    1.0256    3.0845 C   0  0  0  0  0  0  0  0  0  0  0  0
    0.9252    1.7741    3.0485 H   0  0  0  0  0  0  0  0  0  0  0  0
   -0.7668    1.4891    3.5127 H   0  0  0  0  0  0  0  0  0  0  0  0
    0.4371    0.2067    3.7414 H   0  0  0  0  0  0  0  0  0  0  0  0
  1  2  1  0  0  0  0
  2  3  1  0  0  0  0
  2  4  1  0  0  0  0
  2  5  1  0  0  0  0
  5  6  2  0  0  0  0
  5  7  1  0  0  0  0
  7  8  1  0  0  0  0
  7  9  1  0  0  0  0
  9 10  1  0  0  0  0
  9 11  1  0  0  0  0
  9 20  1  0  0  0  0
 11 12  1  0  0  0  0
 11 13  1  0  0  0  0
 11 14  1  0  0  0  0
 14 15  1  0  0  0  0
 14 16  1  0  0  0  0
 14 17  1  0  0  0  0
 17 18  1  0  0  0  0
 17 19  2  0  0  0  0
 20 21  2  0  0  0  0
 20 22  1  0  0  0  0
 22 23  1  0  0  0  0
 22 24  1  0  0  0  0
 24 25  1  0  0  0  0
 24 26  1  0  0  0  0
 24 27  1  0  0  0  0
M  CHG  1  18  -1
M  END
$$$$

  -OEChem-04042215583D

 27 26  0     1  0  0  0  0  0999 V2000
   -2.6938   -3.7837    0.5146 H   0  0  0  0  0  0  0  0  0  0  0  0
   -2.5782   -2.8414   -0.0284 C   0  0  0  0  0  0  0  0  0  0  0  0
   -3.1876   -2.0775    0.4609 H   0  0  0  0  0  0  0  0  0  0  0  0
   -2.9315   -2.9794   -1.0531 H   0  0  0  0  0  0  0  0  0  0  0  0
   -1.1207   -2.4149   -0.0351 C   0  0  0  0  0  0  0  0  0  0  0  0
   -0.2802   -3.1388    0.4698 O   0  0  0  0  0  0  0  0  0  0  0  0
   -0.7692   -1.2414   -0.6688 N   0  0  0  0  0  0  0  0  0  0  0  0
   -1.5400   -0.6708   -0.9986 H   0  0  0  0  0  0  0  0  0  0  0  0
    0.5178   -0.5553   -0.4544 C   0  0  1  0  0  0  0  0  0  0  0  0
    1.3330   -1.2253   -0.7483 H   0  0  0  0  0  0  0  0  0  0  0  0
    0.4497    0.6289   -1.4377 C   0  0  0  0  0  0  0  0  0  0  0  0
    0.1268    0.2373   -2.4082 H   0  0  0  0  0  0  0  0  0  0  0  0
   -0.3187    1.3441   -1.1271 H   0  0  0  0  0  0  0  0  0  0  0  0
    1.8074    1.3168   -1.6822 C   0  0  0  0  0  0  0  0  0  0  0  0
    2.6279    0.6687   -1.3607 H   0  0  0  0  0  0  0  0  0  0  0  0
    1.9240    1.4924   -2.7559 H   0  0  0  0  0  0  0  0  0  0  0  0
    1.9208    2.6705   -0.9609 C   0  0  0  0  0  0  0  0  0  0  0  0
    1.1583    2.9037    0.0154 O   0  5  0  0  0  0  0  0  0  0  0  0
    2.7391    3.4948   -1.4354 O   0  0  0  0  0  0  0  0  0  0  0  0
    0.8188   -0.0952    0.9918 C   0  0  0  0  0  0  0  0  0  0  0  0
    1.8063   -0.5427    1.5661 O   0  0  0  0  0  0  0  0  0  0  0  0
   -0.1608    0.5456    1.7296 N   0  0  0  0  0  0  0  0  0  0  0  0
   -0.6655    1.2256    1.1673 H   0  0  0  0  0  0  0  0  0  0  0  0
    0.0869    0.9337    3.1107 C   0  0  0  0  0  0  0  0  0  0  0  0
    0.9312    1.6291    3.1652 H   0  0  0  0  0  0  0  0  0  0  0  0
   -0.7975    1.4259    3.5254 H   0  0  0  0  0  0  0  0  0  0  0  0
    0.3107    0.0550    3.7241 H   0  0  0  0  0  0  0  0  0  0  0  0
  1  2  1  0  0  0  0
  2  3  1  0  0  0  0
  2  4  1  0  0  0  0
  2  5  1  0  0  0  0
  5  6  2  0  0  0  0
  5  7  1  0  0  0  0
  7  8  1  0  0  0  0
  7  9  1  0  0  0  0
  9 10  1  0  0  0  0
  9 11  1  0  0  0  0
  9 20  1  0  0  0  0
 11 12  1  0  0  0  0
 11 13  1  0  0  0  0
 11 14  1  0  0  0  0
 14 15  1  0  0  0  0
 14 16  1  0  0  0  0
 14 17  1  0  0  0  0
 17 18  1  0  0  0  0
 17 19  2  0  0  0  0
 20 21  2  0  0  0  0
 20 22  1  0  0  0  0
 22 23  1  0  0  0  0
 22 24  1  0  0  0  0
 24 25  1  0  0  0  0
 24 26  1  0  0  0  0
 24 27  1  0  0  0  0
M  CHG  1  18  -1
M  END
$$$$

  -OEChem-04042215583D

 27 26  0     1  0  0  0  0  0999 V2000
   -2.6735   -3.7743    0.5572 H   0  0  0  0  0  0  0  0  0  0  0  0
   -2.5658   -2.8346    0.0081 C   0  0  0  0  0  0  0  0  0  0  0  0
   -3.1568   -2.0648    0.5106 H   0  0  0  0  0  0  0  0  0  0  0  0
   -2.9467   -2.9733   -1.0066 H   0  0  0  0  0  0  0  0  0  0  0  0
   -1.1061   -2.4182   -0.0381 C   0  0  0  0  0  0  0  0  0  0  0  0
   -0.2557   -3.1576    0.4261 O   0  0  0  0  0  0  0  0  0  0  0  0
   -0.7654   -1.2398   -0.6691 N   0  0  0  0  0  0  0  0  0  0  0  0
   -1.5446   -0.6598   -0.9598 H   0  0  0  0  0  0  0  0  0  0  0  0
    0.5221   -0.5525   -0.4585 C   0  0  1  0  0  0  0  0  0  0  0  0
    1.3390   -1.2185   -0.7573 H   0  0  0  0  0  0  0  0  0  0  0  0
    0.4429    0.6302   -1.4454 C   0  0  0  0  0  0  0  0  0  0  0  0
    0.1177    0.2312   -2.4122 H   0  0  0  0  0  0  0  0  0  0  0  0
   -0.3269    1.3430   -1.1328 H   0  0  0  0  0  0  0  0  0  0  0  0
    1.7881    1.3335   -1.7098 C   0  0  0  0  0  0  0  0  0  0  0  0
    2.6055    0.6081   -1.6611 H   0  0  0  0  0  0  0  0  0  0  0  0
    1.7693    1.7484   -2.7216 H   0  0  0  0  0  0  0  0  0  0  0  0
    2.0733    2.4938   -0.7410 C   0  0  0  0  0  0  0  0  0  0  0  0
    1.1643    2.8570    0.0541 O   0  5  0  0  0  0  0  0  0  0  0  0
    3.1789    3.0720   -0.8678 O   0  0  0  0  0  0  0  0  0  0  0  0
    0.8221   -0.1048    0.9917 C   0  0  0  0  0  0  0  0  0  0  0  0
    1.7968   -0.5753    1.5684 O   0  0  0  0  0  0  0  0  0  0  0  0
   -0.1607    0.5267    1.7335 N   0  0  0  0  0  0  0  0  0  0  0  0
   -0.6482    1.2264    1.1797 H   0  0  0  0  0  0  0  0  0  0  0  0
    0.0817    0.8888    3.1227 C   0  0  0  0  0  0  0  0  0  0  0  0
    0.9315    1.5760    3.1944 H   0  0  0  0  0  0  0  0  0  0  0  0
   -0.8007    1.3817    3.5405 H   0  0  0  0  0  0  0  0  0  0  0  0
    0.2945   -0.0020    3.7223 H   0  0  0  0  0  0  0  0  0  0  0  0
  1  2  1  0  0  0  0
  2  3  1  0  0  0  0
  2  4  1  0  0  0  0
  2  5  1  0  0  0  0
  5  6  2  0  0  0  0
  5  7  1  0  0  0  0
  7  8  1  0  0  0  0
  7  9  1  0  0  0  0
  9 10  1  0  0  0  0
  9 11  1  0  0  0  0
  9 20  1  0  0  0  0
 11 12  1  0  0  0  0
 11 13  1  0  0  0  0
 11 14  1  0  0  0  0
 14 15  1  0  0  0  0
 14 16  1  0  0  0  0
 14 17  1  0  0  0  0
 17 18  1  0  0  0  0
 17 19  2  0  0  0  0
 20 21  2  0  0  0  0
 20 22  1  0  0  0  0
 22 23  1  0  0  0  0
 22 24  1  0  0  0  0
 24 25  1  0  0  0  0
 24 26  1  0  0  0  0
 24 27  1  0  0  0  0
M  CHG  1  18  -1
M  END
$$$$

  -OEChem-04042215583D

 27 26  0     1  0  0  0  0  0999 V2000
   -2.6667   -3.7623    0.5678 H   0  0  0  0  0  0  0  0  0  0  0  0
   -2.5570   -2.8198    0.0241 C   0  0  0  0  0  0  0  0  0  0  0  0
   -3.1359   -2.0487    0.5385 H   0  0  0  0  0  0  0  0  0  0  0  0
   -2.9503   -2.9479   -0.9873 H   0  0  0  0  0  0  0  0  0  0  0  0
   -1.0943   -2.4152   -0.0347 C   0  0  0  0  0  0  0  0  0  0  0  0
   -0.2451   -3.1674    0.4103 O   0  0  0  0  0  0  0  0  0  0  0  0
   -0.7520   -1.2331   -0.6579 N   0  0  0  0  0  0  0  0  0  0  0  0
   -1.5309   -0.6497   -0.9421 H   0  0  0  0  0  0  0  0  0  0  0  0
    0.5389   -0.5498   -0.4494 C   0  0  1  0  0  0  0  0  0  0  0  0
    1.3563   -1.2156   -0.7472 H   0  0  0  0  0  0  0  0  0  0  0  0
    0.4540    0.6239   -1.4525 C   0  0  0  0  0  0  0  0  0  0  0  0
    0.1048    0.2247   -2.4107 H   0  0  0  0  0  0  0  0  0  0  0  0
   -0.2992    1.3447   -1.1177 H   0  0  0  0  0  0  0  0  0  0  0  0
    1.7787    1.3484   -1.7530 C   0  0  0  0  0  0  0  0  0  0  0  0
    2.5592    0.6100   -1.9590 H   0  0  0  0  0  0  0  0  0  0  0  0
    1.6480    1.9582   -2.6512 H   0  0  0  0  0  0  0  0  0  0  0  0
    2.2403    2.2766   -0.6216 C   0  0  0  0  0  0  0  0  0  0  0  0
    1.3529    2.7731    0.1236 O   0  5  0  0  0  0  0  0  0  0  0  0
    3.4557    2.5822   -0.5865 O   0  0  0  0  0  0  0  0  0  0  0  0
    0.8267   -0.1220    1.0101 C   0  0  0  0  0  0  0  0  0  0  0  0
    1.7781   -0.6246    1.5979 O   0  0  0  0  0  0  0  0  0  0  0  0
   -0.1648    0.4985    1.7504 N   0  0  0  0  0  0  0  0  0  0  0  0
   -0.6522    1.2018    1.2030 H   0  0  0  0  0  0  0  0  0  0  0  0
    0.0610    0.8361    3.1486 C   0  0  0  0  0  0  0  0  0  0  0  0
    0.9208    1.5079    3.2438 H   0  0  0  0  0  0  0  0  0  0  0  0
   -0.8198    1.3372    3.5597 H   0  0  0  0  0  0  0  0  0  0  0  0
    0.2498   -0.0670    3.7381 H   0  0  0  0  0  0  0  0  0  0  0  0
  1  2  1  0  0  0  0
  2  3  1  0  0  0  0
  2  4  1  0  0  0  0
  2  5  1  0  0  0  0
  5  6  2  0  0  0  0
  5  7  1  0  0  0  0
  7  8  1  0  0  0  0
  7  9  1  0  0  0  0
  9 10  1  0  0  0  0
  9 11  1  0  0  0  0
  9 20  1  0  0  0  0
 11 12  1  0  0  0  0
 11 13  1  0  0  0  0
 11 14  1  0  0  0  0
 14 15  1  0  0  0  0
 14 16  1  0  0  0  0
 14 17  1  0  0  0  0
 17 18  1  0  0  0  0
 17 19  2  0  0  0  0
 20 21  2  0  0  0  0
 20 22  1  0  0  0  0
 22 23  1  0  0  0  0
 22 24  1  0  0  0  0
 24 25  1  0  0  0  0
 24 26  1  0  0  0  0
 24 27  1  0  0  0  0
M  CHG  1  18  -1
M  END
$$$$

  -OEChem-04042215583D

 27 26  0     1  0  0  0  0  0999 V2000
   -2.6658   -3.7606    0.5550 H   0  0  0  0  0  0  0  0  0  0  0  0
   -2.5511   -2.8061    0.0333 C   0  0  0  0  0  0  0  0  0  0  0  0
   -3.1200   -2.0429    0.5700 H   0  0  0  0  0  0  0  0  0  0  0  0
   -2.9512   -2.9065   -0.9785 H   0  0  0  0  0  0  0  0  0  0  0  0
   -1.0854   -2.4130   -0.0248 C   0  0  0  0  0  0  0  0  0  0  0  0
   -0.2428   -3.1782    0.4097 O   0  0  0  0  0  0  0  0  0  0  0  0
   -0.7358   -1.2298   -0.6426 N   0  0  0  0  0  0  0  0  0  0  0  0
   -1.5121   -0.6419   -0.9238 H   0  0  0  0  0  0  0  0  0  0  0  0
    0.5597   -0.5530   -0.4353 C   0  0  1  0  0  0  0  0  0  0  0  0
    1.3787   -1.2186   -0.7302 H   0  0  0  0  0  0  0  0  0  0  0  0
    0.4697    0.6140   -1.4524 C   0  0  0  0  0  0  0  0  0  0  0  0
    0.0863    0.2206   -2.4000 H   0  0  0  0  0  0  0  0  0  0  0  0
   -0.2614    1.3422   -1.0852 H   0  0  0  0  0  0  0  0  0  0  0  0
    1.7702    1.3631   -1.7955 C   0  0  0  0  0  0  0  0  0  0  0  0
    2.4739    0.6571   -2.2470 H   0  0  0  0  0  0  0  0  0  0  0  0
    1.5476    2.1340   -2.5386 H   0  0  0  0  0  0  0  0  0  0  0  0
    2.4442    2.0353   -0.5987 C   0  0  0  0  0  0  0  0  0  0  0  0
    1.6837    2.6342    0.2072 O   0  5  0  0  0  0  0  0  0  0  0  0
    3.6969    2.0724   -0.5693 O   0  0  0  0  0  0  0  0  0  0  0  0
    0.8267   -0.1436    1.0348 C   0  0  0  0  0  0  0  0  0  0  0  0
    1.7447   -0.6819    1.6429 O   0  0  0  0  0  0  0  0  0  0  0  0
   -0.1783    0.4693    1.7646 N   0  0  0  0  0  0  0  0  0  0  0  0
   -0.6766    1.1629    1.2175 H   0  0  0  0  0  0  0  0  0  0  0  0
    0.0192    0.7891    3.1715 C   0  0  0  0  0  0  0  0  0  0  0  0
    0.8904    1.4413    3.2947 H   0  0  0  0  0  0  0  0  0  0  0  0
   -0.8608    1.3051    3.5661 H   0  0  0  0  0  0  0  0  0  0  0  0
    0.1740   -0.1237    3.7559 H   0  0  0  0  0  0  0  0  0  0  0  0
  1  2  1  0  0  0  0
  2  3  1  0  0  0  0
  2  4  1  0  0  0  0
  2  5  1  0  0  0  0
  5  6  2  0  0  0  0
  5  7  1  0  0  0  0
  7  8  1  0  0  0  0
  7  9  1  0  0  0  0
  9 10  1  0  0  0  0
  9 11  1  0  0  0  0
  9 20  1  0  0  0  0
 11 12  1  0  0  0  0
 11 13  1  0  0  0  0
 11 14  1  0  0  0  0
 14 15  1  0  0  0  0
 14 16  1  0  0  0  0
 14 17  1  0  0  0  0
 17 18  1  0  0  0  0
 17 19  2  0  0  0  0
 20 21  2  0  0  0  0
 20 22  1  0  0  0  0
 22 23  1  0  0  0  0
 22 24  1  0  0  0  0
 24 25  1  0  0  0  0
 24 26  1  0  0  0  0
 24 27  1  0  0  0  0
M  CHG  1  18  -1
M  END
$$$$

  -OEChem-04042215583D

 27 26  0     1  0  0  0  0  0999 V2000
   -2.6878   -3.7372    0.5805 H   0  0  0  0  0  0  0  0  0  0  0  0
   -2.5572   -2.8015    0.0296 C   0  0  0  0  0  0  0  0  0  0  0  0
   -3.1314   -2.0175    0.5292 H   0  0  0  0  0  0  0  0  0  0  0  0
   -2.9381   -2.9336   -0.9860 H   0  0  0  0  0  0  0  0  0  0  0  0
   -1.0882   -2.4193   -0.0126 C   0  0  0  0  0  0  0  0  0  0  0  0
   -0.2572   -3.1891    0.4349 O   0  0  0  0  0  0  0  0  0  0  0  0
   -0.7239   -1.2391   -0.6283 N   0  0  0  0  0  0  0  0  0  0  0  0
   -1.4919   -0.6526   -0.9335 H   0  0  0  0  0  0  0  0  0  0  0  0
    0.5771   -0.5704   -0.4216 C   0  0  1  0  0  0  0  0  0  0  0  0
    1.3975   -1.2347   -0.7161 H   0  0  0  0  0  0  0  0  0  0  0  0
    0.4800    0.6019   -1.4356 C   0  0  0  0  0  0  0  0  0  0  0  0
    0.0640    0.2243   -2.3760 H   0  0  0  0  0  0  0  0  0  0  0  0
   -0.2325    1.3296   -1.0335 H   0  0  0  0  0  0  0  0  0  0  0  0
    1.7589    1.3732   -1.8123 C   0  0  0  0  0  0  0  0  0  0  0  0
    2.3421    0.7503   -2.4975 H   0  0  0  0  0  0  0  0  0  0  0  0
    1.4777    2.2816   -2.3524 H   0  0  0  0  0  0  0  0  0  0  0  0
    2.6610    1.7640   -0.6460 C   0  0  0  0  0  0  0  0  0  0  0  0
    2.1191    2.4507    0.2578 O   0  5  0  0  0  0  0  0  0  0  0  0
    3.8852    1.5049   -0.7230 O   0  0  0  0  0  0  0  0  0  0  0  0
    0.8249   -0.1706    1.0555 C   0  0  0  0  0  0  0  0  0  0  0  0
    1.7188   -0.7236    1.6846 O   0  0  0  0  0  0  0  0  0  0  0  0
   -0.1919    0.4419    1.7708 N   0  0  0  0  0  0  0  0  0  0  0  0
   -0.7377    1.0865    1.2120 H   0  0  0  0  0  0  0  0  0  0  0  0
   -0.0135    0.7840    3.1749 C   0  0  0  0  0  0  0  0  0  0  0  0
    0.8457    1.4522    3.2975 H   0  0  0  0  0  0  0  0  0  0  0  0
   -0.9060    1.2896    3.5542 H   0  0  0  0  0  0  0  0  0  0  0  0
    0.1514   -0.1180    3.7730 H   0  0  0  0  0  0  0  0  0  0  0  0
  1  2  1  0  0  0  0
  2  3  1  0  0  0  0
  2  4  1  0  0  0  0
  2  5  1  0  0  0  0
  5  6  2  0  0  0  0
  5  7  1  0  0  0  0
  7  8  1  0  0  0  0
  7  9  1  0  0  0  0
  9 10  1  0  0  0  0
  9 11  1  0  0  0  0
  9 20  1  0  0  0  0
 11 12  1  0  0  0  0
 11 13  1  0  0  0  0
 11 14  1  0  0  0  0
 14 15  1  0  0  0  0
 14 16  1  0  0  0  0
 14 17  1  0  0  0  0
 17 18  1  0  0  0  0
 17 19  2  0  0  0  0
 20 21  2  0  0  0  0
 20 22  1  0  0  0  0
 22 23  1  0  0  0  0
 22 24  1  0  0  0  0
 24 25  1  0  0  0  0
 24 26  1  0  0  0  0
 24 27  1  0  0  0  0
M  CHG  1  18  -1
M  END
$$$$

  -OEChem-04042215583D

 27 26  0     1  0  0  0  0  0999 V2000
   -2.7184   -3.7508    0.6238 H   0  0  0  0  0  0  0  0  0  0  0  0
   -2.5720   -2.8252    0.0598 C   0  0  0  0  0  0  0  0  0  0  0  0
   -3.1776   -2.0378    0.5149 H   0  0  0  0  0  0  0  0  0  0  0  0
   -2.9033   -2.9834   -0.9693 H   0  0  0  0  0  0  0  0  0  0  0  0
   -1.1068   -2.4264    0.0773 C   0  0  0  0  0  0  0  0  0  0  0  0
   -0.2954   -3.1635    0.6065 O   0  0  0  0  0  0  0  0  0  0  0  0
   -0.7258   -1.2687   -0.5703 N   0  0  0  0  0  0  0  0  0  0  0  0
   -1.4766   -0.7158   -0.9662 H   0  0  0  0  0  0  0  0  0  0  0  0
    0.5826   -0.6024   -0.3996 C   0  0  1  0  0  0  0  0  0  0  0  0
    1.4013   -1.2695   -0.6937 H   0  0  0  0  0  0  0  0  0  0  0  0
    0.4592    0.5608   -1.4231 C   0  0  0  0  0  0  0  0  0  0  0  0
    0.0072    0.1795   -2.3453 H   0  0  0  0  0  0  0  0  0  0  0  0
   -0.2374    1.2919   -1.0003 H   0  0  0  0  0  0  0  0  0  0  0  0
    1.7185    1.3380   -1.8540 C   0  0  0  0  0  0  0  0  0  0  0  0
    2.1349    0.8385   -2.7341 H   0  0  0  0  0  0  0  0  0  0  0  0
    1.4249    2.3446   -2.1660 H   0  0  0  0  0  0  0  0  0  0  0  0
    2.8354    1.4521   -0.8236 C   0  0  0  0  0  0  0  0  0  0  0  0
    2.6172    2.2310    0.1373 O   0  5  0  0  0  0  0  0  0  0  0  0
    3.9167    0.8576   -1.0473 O   0  0  0  0  0  0  0  0  0  0  0  0
    0.8413   -0.1630    1.0654 C   0  0  0  0  0  0  0  0  0  0  0  0
    1.7330   -0.6951    1.7139 O   0  0  0  0  0  0  0  0  0  0  0  0
   -0.1698    0.4745    1.7684 N   0  0  0  0  0  0  0  0  0  0  0  0
   -0.7799    1.0427    1.1954 H   0  0  0  0  0  0  0  0  0  0  0  0
    0.0123    0.8758    3.1562 C   0  0  0  0  0  0  0  0  0  0  0  0
    0.8743    1.5450    3.2481 H   0  0  0  0  0  0  0  0  0  0  0  0
   -0.8771    1.4007    3.5163 H   0  0  0  0  0  0  0  0  0  0  0  0
    0.1753   -0.0009    3.7914 H   0  0  0  0  0  0  0  0  0  0  0  0
  1  2  1  0  0  0  0
  2  3  1  0  0  0  0
  2  4  1  0  0  0  0
  2  5  1  0  0  0  0
  5  6  2  0  0  0  0
  5  7  1  0  0  0  0
  7  8  1  0  0  0  0
  7  9  1  0  0  0  0
  9 10  1  0  0  0  0
  9 11  1  0  0  0  0
  9 20  1  0  0  0  0
 11 12  1  0  0  0  0
 11 13  1  0  0  0  0
 11 14  1  0  0  0  0
 14 15  1  0  0  0  0
 14 16  1  0  0  0  0
 14 17  1  0  0  0  0
 17 18  1  0  0  0  0
 17 19  2  0  0  0  0
 20 21  2  0  0  0  0
 20 22  1  0  0  0  0
 22 23  1  0  0  0  0
 22 24  1  0  0  0  0
 24 25  1  0  0  0  0
 24 26  1  0  0  0  0
 24 27  1  0  0  0  0
M  CHG  1  18  -1
M  END
$$$$

  -OEChem-04042215583D

 27 26  0     1  0  0  0  0  0999 V2000
   -2.8099   -3.7610    0.5712 H   0  0  0  0  0  0  0  0  0  0  0  0
   -2.6267   -2.8549   -0.0137 C   0  0  0  0  0  0  0  0  0  0  0  0
   -3.3435   -2.0886    0.2912 H   0  0  0  0  0  0  0  0  0  0  0  0
   -2.7752   -3.0840   -1.0720 H   0  0  0  0  0  0  0  0  0  0  0  0
   -1.2093   -2.3603    0.2165 C   0  0  0  0  0  0  0  0  0  0  0  0
   -0.4845   -2.9751    0.9759 O   0  0  0  0  0  0  0  0  0  0  0  0
   -0.7785   -1.2423   -0.4697 N   0  0  0  0  0  0  0  0  0  0  0  0
   -1.4286   -0.8421   -1.1361 H   0  0  0  0  0  0  0  0  0  0  0  0
    0.5601   -0.6217   -0.3650 C   0  0  1  0  0  0  0  0  0  0  0  0
    1.3486   -1.3162   -0.6793 H   0  0  0  0  0  0  0  0  0  0  0  0
    0.4343    0.5566   -1.3701 C   0  0  0  0  0  0  0  0  0  0  0  0
   -0.0712    0.1950   -2.2721 H   0  0  0  0  0  0  0  0  0  0  0  0
   -0.2200    1.3096   -0.9192 H   0  0  0  0  0  0  0  0  0  0  0  0
    1.7030    1.2865   -1.8597 C   0  0  0  0  0  0  0  0  0  0  0  0
    1.8947    0.9734   -2.8906 H   0  0  0  0  0  0  0  0  0  0  0  0
    1.4973    2.3608   -1.8911 H   0  0  0  0  0  0  0  0  0  0  0  0
    2.9940    1.0594   -1.0803 C   0  0  0  0  0  0  0  0  0  0  0  0
    3.6566    0.0310   -1.3603 O   0  5  0  0  0  0  0  0  0  0  0  0
    3.3566    1.9675   -0.2937 O   0  0  0  0  0  0  0  0  0  0  0  0
    0.8728   -0.1493    1.0800 C   0  0  0  0  0  0  0  0  0  0  0  0
    1.8282   -0.5864    1.7052 O   0  0  0  0  0  0  0  0  0  0  0  0
   -0.0969    0.5429    1.7886 N   0  0  0  0  0  0  0  0  0  0  0  0
   -0.8592    0.9274    1.2469 H   0  0  0  0  0  0  0  0  0  0  0  0
    0.0907    0.9849    3.1624 C   0  0  0  0  0  0  0  0  0  0  0  0
    0.9589    1.6483    3.2347 H   0  0  0  0  0  0  0  0  0  0  0  0
   -0.7932    1.5294    3.5064 H   0  0  0  0  0  0  0  0  0  0  0  0
    0.2455    0.1252    3.8223 H   0  0  0  0  0  0  0  0  0  0  0  0
  1  2  1  0  0  0  0
  2  3  1  0  0  0  0
  2  4  1  0  0  0  0
  2  5  1  0  0  0  0
  5  6  2  0  0  0  0
  5  7  1  0  0  0  0
  7  8  1  0  0  0  0
  7  9  1  0  0  0  0
  9 10  1  0  0  0  0
  9 11  1  0  0  0  0
  9 20  1  0  0  0  0
 11 12  1  0  0  0  0
 11 13  1  0  0  0  0
 11 14  1  0  0  0  0
 14 15  1  0  0  0  0
 14 16  1  0  0  0  0
 14 17  1  0  0  0  0
 17 18  1  0  0  0  0
 17 19  2  0  0  0  0
 20 21  2  0  0  0  0
 20 22  1  0  0  0  0
 22 23  1  0  0  0  0
 22 24  1  0  0  0  0
 24 25  1  0  0  0  0
 24 26  1  0  0  0  0
 24 27  1  0  0  0  0
M  CHG  1  18  -1
M  END
$$$$

  -OEChem-04042215583D

 27 26  0     1  0  0  0  0  0999 V2000
   -2.8277   -3.7686    0.4736 H   0  0  0  0  0  0  0  0  0  0  0  0
   -2.6301   -2.8746   -0.1250 C   0  0  0  0  0  0  0  0  0  0  0  0
   -3.4277   -2.1488    0.0513 H   0  0  0  0  0  0  0  0  0  0  0  0
   -2.6271   -3.1542   -1.1815 H   0  0  0  0  0  0  0  0  0  0  0  0
   -1.2885   -2.2731    0.2563 C   0  0  0  0  0  0  0  0  0  0  0  0
   -0.6595   -2.7650    1.1743 O   0  0  0  0  0  0  0  0  0  0  0  0
   -0.8336   -1.1745   -0.4462 N   0  0  0  0  0  0  0  0  0  0  0  0
   -1.3796   -0.9211   -1.2621 H   0  0  0  0  0  0  0  0  0  0  0  0
    0.5258   -0.5966   -0.3556 C   0  0  1  0  0  0  0  0  0  0  0  0
    1.2801   -1.3252   -0.6742 H   0  0  0  0  0  0  0  0  0  0  0  0
    0.4487    0.6039   -1.3378 C   0  0  0  0  0  0  0  0  0  0  0  0
   -0.0580    0.2577   -2.2449 H   0  0  0  0  0  0  0  0  0  0  0  0
   -0.1898    1.3745   -0.8941 H   0  0  0  0  0  0  0  0  0  0  0  0
    1.7474    1.2886   -1.8259 C   0  0  0  0  0  0  0  0  0  0  0  0
    1.7705    1.2404   -2.9187 H   0  0  0  0  0  0  0  0  0  0  0  0
    1.6893    2.3479   -1.5573 H   0  0  0  0  0  0  0  0  0  0  0  0
    3.0842    0.7475   -1.3198 C   0  0  0  0  0  0  0  0  0  0  0  0
    3.3985   -0.4087   -1.6987 O   0  5  0  0  0  0  0  0  0  0  0  0
    3.8476    1.5450   -0.7230 O   0  0  0  0  0  0  0  0  0  0  0  0
    0.8720   -0.1211    1.0798 C   0  0  0  0  0  0  0  0  0  0  0  0
    1.8858   -0.4800    1.6603 O   0  0  0  0  0  0  0  0  0  0  0  0
   -0.0657    0.6076    1.7933 N   0  0  0  0  0  0  0  0  0  0  0  0
   -0.9587    0.7532    1.3409 H   0  0  0  0  0  0  0  0  0  0  0  0
    0.0899    0.9539    3.1979 C   0  0  0  0  0  0  0  0  0  0  0  0
    1.0189    1.5123    3.3529 H   0  0  0  0  0  0  0  0  0  0  0  0
   -0.7459    1.5779    3.5268 H   0  0  0  0  0  0  0  0  0  0  0  0
    0.1134    0.0487    3.8131 H   0  0  0  0  0  0  0  0  0  0  0  0
  1  2  1  0  0  0  0
  2  3  1  0  0  0  0
  2  4  1  0  0  0  0
  2  5  1  0  0  0  0
  5  6  2  0  0  0  0
  5  7  1  0  0  0  0
  7  8  1  0  0  0  0
  7  9  1  0  0  0  0
  9 10  1  0  0  0  0
  9 11  1  0  0  0  0
  9 20  1  0  0  0  0
 11 12  1  0  0  0  0
 11 13  1  0  0  0  0
 11 14  1  0  0  0  0
 14 15  1  0  0  0  0
 14 16  1  0  0  0  0
 14 17  1  0  0  0  0
 17 18  1  0  0  0  0
 17 19  2  0  0  0  0
 20 21  2  0  0  0  0
 20 22  1  0  0  0  0
 22 23  1  0  0  0  0
 22 24  1  0  0  0  0
 24 25  1  0  0  0  0
 24 26  1  0  0  0  0
 24 27  1  0  0  0  0
M  CHG  1  18  -1
M  END
$$$$

  -OEChem-04042215583D

 27 26  0     1  0  0  0  0  0999 V2000
   -2.7942   -3.8099    0.4579 H   0  0  0  0  0  0  0  0  0  0  0  0
   -2.6110   -2.9177   -0.1479 C   0  0  0  0  0  0  0  0  0  0  0  0
   -3.4408   -2.2205   -0.0095 H   0  0  0  0  0  0  0  0  0  0  0  0
   -2.5626   -3.2127   -1.1992 H   0  0  0  0  0  0  0  0  0  0  0  0
   -1.3061   -2.2604    0.2664 C   0  0  0  0  0  0  0  0  0  0  0  0
   -0.7046   -2.6940    1.2316 O   0  0  0  0  0  0  0  0  0  0  0  0
   -0.8619   -1.1636   -0.4453 N   0  0  0  0  0  0  0  0  0  0  0  0
   -1.3770   -0.9661   -1.2964 H   0  0  0  0  0  0  0  0  0  0  0  0
    0.4981   -0.5875   -0.3618 C   0  0  1  0  0  0  0  0  0  0  0  0
    1.2409   -1.3274   -0.6786 H   0  0  0  0  0  0  0  0  0  0  0  0
    0.4371    0.6210   -1.3336 C   0  0  0  0  0  0  0  0  0  0  0  0
   -0.0513    0.2680   -2.2482 H   0  0  0  0  0  0  0  0  0  0  0  0
   -0.2083    1.3955   -0.9073 H   0  0  0  0  0  0  0  0  0  0  0  0
    1.7495    1.2891   -1.8090 C   0  0  0  0  0  0  0  0  0  0  0  0
    1.6596    1.5181   -2.8747 H   0  0  0  0  0  0  0  0  0  0  0  0
    1.8397    2.2438   -1.2814 H   0  0  0  0  0  0  0  0  0  0  0  0
    3.0595    0.5267   -1.5977 C   0  0  0  0  0  0  0  0  0  0  0  0
    3.1232   -0.6254   -2.0980 O   0  5  0  0  0  0  0  0  0  0  0  0
    4.0350    1.1602   -1.1271 O   0  0  0  0  0  0  0  0  0  0  0  0
    0.8637   -0.1054    1.0649 C   0  0  0  0  0  0  0  0  0  0  0  0
    1.9225   -0.3967    1.6016 O   0  0  0  0  0  0  0  0  0  0  0  0
   -0.0617    0.6292    1.7878 N   0  0  0  0  0  0  0  0  0  0  0  0
   -0.9846    0.6996    1.3783 H   0  0  0  0  0  0  0  0  0  0  0  0
    0.1222    0.9828    3.1874 C   0  0  0  0  0  0  0  0  0  0  0  0
    1.0414    1.5635    3.3173 H   0  0  0  0  0  0  0  0  0  0  0  0
   -0.7199    1.5874    3.5364 H   0  0  0  0  0  0  0  0  0  0  0  0
    0.1834    0.0801    3.8038 H   0  0  0  0  0  0  0  0  0  0  0  0
  1  2  1  0  0  0  0
  2  3  1  0  0  0  0
  2  4  1  0  0  0  0
  2  5  1  0  0  0  0
  5  6  2  0  0  0  0
  5  7  1  0  0  0  0
  7  8  1  0  0  0  0
  7  9  1  0  0  0  0
  9 10  1  0  0  0  0
  9 11  1  0  0  0  0
  9 20  1  0  0  0  0
 11 12  1  0  0  0  0
 11 13  1  0  0  0  0
 11 14  1  0  0  0  0
 14 15  1  0  0  0  0
 14 16  1  0  0  0  0
 14 17  1  0  0  0  0
 17 18  1  0  0  0  0
 17 19  2  0  0  0  0
 20 21  2  0  0  0  0
 20 22  1  0  0  0  0
 22 23  1  0  0  0  0
 22 24  1  0  0  0  0
 24 25  1  0  0  0  0
 24 26  1  0  0  0  0
 24 27  1  0  0  0  0
M  CHG  1  18  -1
M  END
$$$$

  -OEChem-04042215583D

 27 26  0     1  0  0  0  0  0999 V2000
   -2.7742   -3.8246    0.4600 H   0  0  0  0  0  0  0  0  0  0  0  0
   -2.5824   -2.9580   -0.1792 C   0  0  0  0  0  0  0  0  0  0  0  0
   -3.4318   -2.2741   -0.1104 H   0  0  0  0  0  0  0  0  0  0  0  0
   -2.4813   -3.3002   -1.2123 H   0  0  0  0  0  0  0  0  0  0  0  0
   -1.3102   -2.2535    0.2585 C   0  0  0  0  0  0  0  0  0  0  0  0
   -0.7171   -2.6560    1.2428 O   0  0  0  0  0  0  0  0  0  0  0  0
   -0.8876   -1.1464   -0.4502 N   0  0  0  0  0  0  0  0  0  0  0  0
   -1.3876   -0.9809   -1.3173 H   0  0  0  0  0  0  0  0  0  0  0  0
    0.4709   -0.5672   -0.3773 C   0  0  1  0  0  0  0  0  0  0  0  0
    1.2075   -1.3072   -0.7067 H   0  0  0  0  0  0  0  0  0  0  0  0
    0.4120    0.6563   -1.3291 C   0  0  0  0  0  0  0  0  0  0  0  0
   -0.0776    0.3204   -2.2493 H   0  0  0  0  0  0  0  0  0  0  0  0
   -0.2231    1.4336   -0.8924 H   0  0  0  0  0  0  0  0  0  0  0  0
    1.7403    1.3026   -1.7850 C   0  0  0  0  0  0  0  0  0  0  0  0
    1.5830    1.7902   -2.7510 H   0  0  0  0  0  0  0  0  0  0  0  0
    1.9949    2.0827   -1.0608 H   0  0  0  0  0  0  0  0  0  0  0  0
    2.9529    0.3740   -1.9015 C   0  0  0  0  0  0  0  0  0  0  0  0
    2.7696   -0.7170   -2.5016 O   0  5  0  0  0  0  0  0  0  0  0  0
    4.0742    0.8277   -1.5691 O   0  0  0  0  0  0  0  0  0  0  0  0
    0.8609   -0.0982    1.0464 C   0  0  0  0  0  0  0  0  0  0  0  0
    1.9577   -0.3337    1.5329 O   0  0  0  0  0  0  0  0  0  0  0  0
   -0.0526    0.6266    1.7934 N   0  0  0  0  0  0  0  0  0  0  0  0
   -0.9958    0.6496    1.4260 H   0  0  0  0  0  0  0  0  0  0  0  0
    0.1758    0.9999    3.1812 C   0  0  0  0  0  0  0  0  0  0  0  0
    1.0892    1.5969    3.2713 H   0  0  0  0  0  0  0  0  0  0  0  0
   -0.6627    1.5956    3.5534 H   0  0  0  0  0  0  0  0  0  0  0  0
    0.2738    0.1059    3.8053 H   0  0  0  0  0  0  0  0  0  0  0  0
  1  2  1  0  0  0  0
  2  3  1  0  0  0  0
  2  4  1  0  0  0  0
  2  5  1  0  0  0  0
  5  6  2  0  0  0  0
  5  7  1  0  0  0  0
  7  8  1  0  0  0  0
  7  9  1  0  0  0  0
  9 10  1  0  0  0  0
  9 11  1  0  0  0  0
  9 20  1  0  0  0  0
 11 12  1  0  0  0  0
 11 13  1  0  0  0  0
 11 14  1  0  0  0  0
 14 15  1  0  0  0  0
 14 16  1  0  0  0  0
 14 17  1  0  0  0  0
 17 18  1  0  0  0  0
 17 19  2  0  0  0  0
 20 21  2  0  0  0  0
 20 22  1  0  0  0  0
 22 23  1  0  0  0  0
 22 24  1  0  0  0  0
 24 25  1  0  0  0  0
 24 26  1  0  0  0  0
 24 27  1  0  0  0  0
M  CHG  1  18  -1
M  END
$$$$

  -OEChem-04042215583D

 27 26  0     1  0  0  0  0  0999 V2000
   -2.7231   -3.8595    0.4312 H   0  0  0  0  0  0  0  0  0  0  0  0
   -2.5511   -2.9844   -0.2019 C   0  0  0  0  0  0  0  0  0  0  0  0
   -3.4156   -2.3202   -0.1292 H   0  0  0  0  0  0  0  0  0  0  0  0
   -2.4417   -3.3171   -1.2373 H   0  0  0  0  0  0  0  0  0  0  0  0
   -1.2958   -2.2538    0.2417 C   0  0  0  0  0  0  0  0  0  0  0  0
   -0.7001   -2.6407    1.2311 O   0  0  0  0  0  0  0  0  0  0  0  0
   -0.8960   -1.1347   -0.4608 N   0  0  0  0  0  0  0  0  0  0  0  0
   -1.3903   -0.9866   -1.3348 H   0  0  0  0  0  0  0  0  0  0  0  0
    0.4561   -0.5427   -0.3936 C   0  0  1  0  0  0  0  0  0  0  0  0
    1.1966   -1.2734   -0.7363 H   0  0  0  0  0  0  0  0  0  0  0  0
    0.3882    0.6859   -1.3353 C   0  0  0  0  0  0  0  0  0  0  0  0
   -0.1106    0.3718   -2.2585 H   0  0  0  0  0  0  0  0  0  0  0  0
   -0.2323    1.4649   -0.8812 H   0  0  0  0  0  0  0  0  0  0  0  0
    1.7328    1.3101   -1.7651 C   0  0  0  0  0  0  0  0  0  0  0  0
    1.5521    2.0088   -2.5866 H   0  0  0  0  0  0  0  0  0  0  0  0
    2.1303    1.8831   -0.9218 H   0  0  0  0  0  0  0  0  0  0  0  0
    2.8069    0.3083   -2.2054 C   0  0  0  0  0  0  0  0  0  0  0  0
    2.4164   -0.7129   -2.8303 O   0  5  0  0  0  0  0  0  0  0  0  0
    4.0082    0.6376   -2.0578 O   0  0  0  0  0  0  0  0  0  0  0  0
    0.8615   -0.0827    1.0281 C   0  0  0  0  0  0  0  0  0  0  0  0
    1.9824   -0.2770    1.4782 O   0  0  0  0  0  0  0  0  0  0  0  0
   -0.0473    0.6265    1.7950 N   0  0  0  0  0  0  0  0  0  0  0  0
   -1.0004    0.6236    1.4526 H   0  0  0  0  0  0  0  0  0  0  0  0
    0.2071    1.0079    3.1759 C   0  0  0  0  0  0  0  0  0  0  0  0
    1.1073    1.6274    3.2419 H   0  0  0  0  0  0  0  0  0  0  0  0
   -0.6362    1.5831    3.5685 H   0  0  0  0  0  0  0  0  0  0  0  0
    0.3430    0.1178    3.7987 H   0  0  0  0  0  0  0  0  0  0  0  0
  1  2  1  0  0  0  0
  2  3  1  0  0  0  0
  2  4  1  0  0  0  0
  2  5  1  0  0  0  0
  5  6  2  0  0  0  0
  5  7  1  0  0  0  0
  7  8  1  0  0  0  0
  7  9  1  0  0  0  0
  9 10  1  0  0  0  0
  9 11  1  0  0  0  0
  9 20  1  0  0  0  0
 11 12  1  0  0  0  0
 11 13  1  0  0  0  0
 11 14  1  0  0  0  0
 14 15  1  0  0  0  0
 14 16  1  0  0  0  0
 14 17  1  0  0  0  0
 17 18  1  0  0  0  0
 17 19  2  0  0  0  0
 20 21  2  0  0  0  0
 20 22  1  0  0  0  0
 22 23  1  0  0  0  0
 22 24  1  0  0  0  0
 24 25  1  0  0  0  0
 24 26  1  0  0  0  0
 24 27  1  0  0  0  0
M  CHG  1  18  -1
M  END
$$$$

  -OEChem-04042215583D

 27 26  0     1  0  0  0  0  0999 V2000
   -2.6725   -3.8905    0.3901 H   0  0  0  0  0  0  0  0  0  0  0  0
   -2.5224   -3.0029   -0.2311 C   0  0  0  0  0  0  0  0  0  0  0  0
   -3.4031   -2.3612   -0.1500 H   0  0  0  0  0  0  0  0  0  0  0  0
   -2.4049   -3.3194   -1.2707 H   0  0  0  0  0  0  0  0  0  0  0  0
   -1.2860   -2.2469    0.2227 C   0  0  0  0  0  0  0  0  0  0  0  0
   -0.6883   -2.6230    1.2156 O   0  0  0  0  0  0  0  0  0  0  0  0
   -0.9063   -1.1157   -0.4715 N   0  0  0  0  0  0  0  0  0  0  0  0
   -1.3958   -0.9789   -1.3505 H   0  0  0  0  0  0  0  0  0  0  0  0
    0.4408   -0.5137   -0.4082 C   0  0  1  0  0  0  0  0  0  0  0  0
    1.1851   -1.2335   -0.7670 H   0  0  0  0  0  0  0  0  0  0  0  0
    0.3679    0.7162   -1.3445 C   0  0  0  0  0  0  0  0  0  0  0  0
   -0.1495    0.4325   -2.2673 H   0  0  0  0  0  0  0  0  0  0  0  0
   -0.2296    1.4999   -0.8687 H   0  0  0  0  0  0  0  0  0  0  0  0
    1.7331    1.3101   -1.7444 C   0  0  0  0  0  0  0  0  0  0  0  0
    1.5622    2.1782   -2.3867 H   0  0  0  0  0  0  0  0  0  0  0  0
    2.2519    1.6559   -0.8455 H   0  0  0  0  0  0  0  0  0  0  0  0
    2.6471    0.3308   -2.4955 C   0  0  0  0  0  0  0  0  0  0  0  0
    2.1135   -0.6568   -3.0675 O   0  5  0  0  0  0  0  0  0  0  0  0
    3.8602    0.6358   -2.5894 O   0  0  0  0  0  0  0  0  0  0  0  0
    0.8593   -0.0659    1.0132 C   0  0  0  0  0  0  0  0  0  0  0  0
    1.9948   -0.2382    1.4373 O   0  0  0  0  0  0  0  0  0  0  0  0
   -0.0458    0.6275    1.7979 N   0  0  0  0  0  0  0  0  0  0  0  0
   -1.0055    0.6044    1.4744 H   0  0  0  0  0  0  0  0  0  0  0  0
    0.2260    1.0043    3.1766 C   0  0  0  0  0  0  0  0  0  0  0  0
    1.1182    1.6366    3.2314 H   0  0  0  0  0  0  0  0  0  0  0  0
   -0.6191    1.5650    3.5863 H   0  0  0  0  0  0  0  0  0  0  0  0
    0.3853    0.1124    3.7913 H   0  0  0  0  0  0  0  0  0  0  0  0
  1  2  1  0  0  0  0
  2  3  1  0  0  0  0
  2  4  1  0  0  0  0
  2  5  1  0  0  0  0
  5  6  2  0  0  0  0
  5  7  1  0  0  0  0
  7  8  1  0  0  0  0
  7  9  1  0  0  0  0
  9 10  1  0  0  0  0
  9 11  1  0  0  0  0
  9 20  1  0  0  0  0
 11 12  1  0  0  0  0
 11 13  1  0  0  0  0
 11 14  1  0  0  0  0
 14 15  1  0  0  0  0
 14 16  1  0  0  0  0
 14 17  1  0  0  0  0
 17 18  1  0  0  0  0
 17 19  2  0  0  0  0
 20 21  2  0  0  0  0
 20 22  1  0  0  0  0
 22 23  1  0  0  0  0
 22 24  1  0  0  0  0
 24 25  1  0  0  0  0
 24 26  1  0  0  0  0
 24 27  1  0  0  0  0
M  CHG  1  18  -1
M  END
$$$$

  -OEChem-04042215583D

 27 26  0     1  0  0  0  0  0999 V2000
   -2.6711   -3.8844    0.3645 H   0  0  0  0  0  0  0  0  0  0  0  0
   -2.5195   -2.9974   -0.2573 C   0  0  0  0  0  0  0  0  0  0  0  0
   -3.4021   -2.3579   -0.1812 H   0  0  0  0  0  0  0  0  0  0  0  0
   -2.3960   -3.3145   -1.2960 H   0  0  0  0  0  0  0  0  0  0  0  0
   -1.2869   -2.2386    0.2015 C   0  0  0  0  0  0  0  0  0  0  0  0
   -0.6834   -2.6224    1.1881 O   0  0  0  0  0  0  0  0  0  0  0  0
   -0.9132   -1.0997   -0.4827 N   0  0  0  0  0  0  0  0  0  0  0  0
   -1.4011   -0.9601   -1.3625 H   0  0  0  0  0  0  0  0  0  0  0  0
    0.4325   -0.4962   -0.4159 C   0  0  1  0  0  0  0  0  0  0  0  0
    1.1782   -1.2103   -0.7842 H   0  0  0  0  0  0  0  0  0  0  0  0
    0.3622    0.7312   -1.3524 C   0  0  0  0  0  0  0  0  0  0  0  0
   -0.1691    0.4697   -2.2740 H   0  0  0  0  0  0  0  0  0  0  0  0
   -0.2187    1.5181   -0.8615 H   0  0  0  0  0  0  0  0  0  0  0  0
    1.7414    1.3050   -1.7318 C   0  0  0  0  0  0  0  0  0  0  0  0
    1.5937    2.3002   -2.1607 H   0  0  0  0  0  0  0  0  0  0  0  0
    2.3600    1.4175   -0.8372 H   0  0  0  0  0  0  0  0  0  0  0  0
    2.4989    0.4552   -2.7648 C   0  0  0  0  0  0  0  0  0  0  0  0
    1.9872   -0.6281   -3.1541 O   0  5  0  0  0  0  0  0  0  0  0  0
    3.5645    0.9390   -3.2177 O   0  0  0  0  0  0  0  0  0  0  0  0
    0.8564   -0.0611    1.0081 C   0  0  0  0  0  0  0  0  0  0  0  0
    1.9954   -0.2354    1.4237 O   0  0  0  0  0  0  0  0  0  0  0  0
   -0.0449    0.6239    1.8044 N   0  0  0  0  0  0  0  0  0  0  0  0
   -1.0061    0.6059    1.4846 H   0  0  0  0  0  0  0  0  0  0  0  0
    0.2341    0.9887    3.1849 C   0  0  0  0  0  0  0  0  0  0  0  0
    1.1248    1.6232    3.2405 H   0  0  0  0  0  0  0  0  0  0  0  0
   -0.6100    1.5431    3.6051 H   0  0  0  0  0  0  0  0  0  0  0  0
    0.3993    0.0915    3.7901 H   0  0  0  0  0  0  0  0  0  0  0  0
  1  2  1  0  0  0  0
  2  3  1  0  0  0  0
  2  4  1  0  0  0  0
  2  5  1  0  0  0  0
  5  6  2  0  0  0  0
  5  7  1  0  0  0  0
  7  8  1  0  0  0  0
  7  9  1  0  0  0  0
  9 10  1  0  0  0  0
  9 11  1  0  0  0  0
  9 20  1  0  0  0  0
 11 12  1  0  0  0  0
 11 13  1  0  0  0  0
 11 14  1  0  0  0  0
 14 15  1  0  0  0  0
 14 16  1  0  0  0  0
 14 17  1  0  0  0  0
 17 18  1  0  0  0  0
 17 19  2  0  0  0  0
 20 21  2  0  0  0  0
 20 22  1  0  0  0  0
 22 23  1  0  0  0  0
 22 24  1  0  0  0  0
 24 25  1  0  0  0  0
 24 26  1  0  0  0  0
 24 27  1  0  0  0  0
M  CHG  1  18  -1
M  END
$$$$

  -OEChem-04042215583D

 27 26  0     1  0  0  0  0  0999 V2000
   -2.6720   -3.8796    0.3071 H   0  0  0  0  0  0  0  0  0  0  0  0
   -2.5325   -2.9696   -0.2833 C   0  0  0  0  0  0  0  0  0  0  0  0
   -3.4132   -2.3336   -0.1659 H   0  0  0  0  0  0  0  0  0  0  0  0
   -2.4300   -3.2472   -1.3356 H   0  0  0  0  0  0  0  0  0  0  0  0
   -1.2905   -2.2283    0.1798 C   0  0  0  0  0  0  0  0  0  0  0  0
   -0.6856   -2.6306    1.1581 O   0  0  0  0  0  0  0  0  0  0  0  0
   -0.9072   -1.0865   -0.4945 N   0  0  0  0  0  0  0  0  0  0  0  0
   -1.4004   -0.9271   -1.3677 H   0  0  0  0  0  0  0  0  0  0  0  0
    0.4403   -0.4882   -0.4189 C   0  0  1  0  0  0  0  0  0  0  0  0
    1.1862   -1.2001   -0.7924 H   0  0  0  0  0  0  0  0  0  0  0  0
    0.3782    0.7400   -1.3528 C   0  0  0  0  0  0  0  0  0  0  0  0
   -0.1544    0.4882   -2.2768 H   0  0  0  0  0  0  0  0  0  0  0  0
   -0.1974    1.5283   -0.8577 H   0  0  0  0  0  0  0  0  0  0  0  0
    1.7659    1.3010   -1.7168 C   0  0  0  0  0  0  0  0  0  0  0  0
    1.6718    2.3765   -1.8947 H   0  0  0  0  0  0  0  0  0  0  0  0
    2.4722    1.1638   -0.8939 H   0  0  0  0  0  0  0  0  0  0  0  0
    2.3281    0.6465   -2.9858 C   0  0  0  0  0  0  0  0  0  0  0  0
    2.1005   -0.5770   -3.1741 O   0  5  0  0  0  0  0  0  0  0  0  0
    2.9387    1.3892   -3.7932 O   0  0  0  0  0  0  0  0  0  0  0  0
    0.8601   -0.0635    1.0100 C   0  0  0  0  0  0  0  0  0  0  0  0
    1.9960   -0.2478    1.4310 O   0  0  0  0  0  0  0  0  0  0  0  0
   -0.0418    0.6196    1.8072 N   0  0  0  0  0  0  0  0  0  0  0  0
   -1.0005    0.6171    1.4792 H   0  0  0  0  0  0  0  0  0  0  0  0
    0.2314    0.9740    3.1917 C   0  0  0  0  0  0  0  0  0  0  0  0
    1.1239    1.6049    3.2567 H   0  0  0  0  0  0  0  0  0  0  0  0
   -0.6131    1.5282    3.6113 H   0  0  0  0  0  0  0  0  0  0  0  0
    0.3902    0.0721    3.7916 H   0  0  0  0  0  0  0  0  0  0  0  0
  1  2  1  0  0  0  0
  2  3  1  0  0  0  0
  2  4  1  0  0  0  0
  2  5  1  0  0  0  0
  5  6  2  0  0  0  0
  5  7  1  0  0  0  0
  7  8  1  0  0  0  0
  7  9  1  0  0  0  0
  9 10  1  0  0  0  0
  9 11  1  0  0  0  0
  9 20  1  0  0  0  0
 11 12  1  0  0  0  0
 11 13  1  0  0  0  0
 11 14  1  0  0  0  0
 14 15  1  0  0  0  0
 14 16  1  0  0  0  0
 14 17  1  0  0  0  0
 17 18  1  0  0  0  0
 17 19  2  0  0  0  0
 20 21  2  0  0  0  0
 20 22  1  0  0  0  0
 22 23  1  0  0  0  0
 22 24  1  0  0  0  0
 24 25  1  0  0  0  0
 24 26  1  0  0  0  0
 24 27  1  0  0  0  0
M  CHG  1  18  -1
M  END
$$$$

  -OEChem-04042215583D

 27 26  0     1  0  0  0  0  0999 V2000
   -2.7093   -3.8473    0.3267 H   0  0  0  0  0  0  0  0  0  0  0  0
   -2.5577   -2.9433   -0.2698 C   0  0  0  0  0  0  0  0  0  0  0  0
   -3.4156   -2.2810   -0.1311 H   0  0  0  0  0  0  0  0  0  0  0  0
   -2.4910   -3.2257   -1.3236 H   0  0  0  0  0  0  0  0  0  0  0  0
   -1.2827   -2.2381    0.1583 C   0  0  0  0  0  0  0  0  0  0  0  0
   -0.6445   -2.6757    1.0997 O   0  0  0  0  0  0  0  0  0  0  0  0
   -0.8990   -1.0918   -0.5079 N   0  0  0  0  0  0  0  0  0  0  0  0
   -1.4168   -0.8970   -1.3598 H   0  0  0  0  0  0  0  0  0  0  0  0
    0.4458   -0.4887   -0.4276 C   0  0  1  0  0  0  0  0  0  0  0  0
    1.1939   -1.1955   -0.8061 H   0  0  0  0  0  0  0  0  0  0  0  0
    0.3863    0.7387   -1.3583 C   0  0  0  0  0  0  0  0  0  0  0  0
   -0.1443    0.4837   -2.2829 H   0  0  0  0  0  0  0  0  0  0  0  0
   -0.1935    1.5278   -0.8691 H   0  0  0  0  0  0  0  0  0  0  0  0
    1.7794    1.2957   -1.7081 C   0  0  0  0  0  0  0  0  0  0  0  0
    1.7606    2.3860   -1.6185 H   0  0  0  0  0  0  0  0  0  0  0  0
    2.5408    0.9228   -1.0177 H   0  0  0  0  0  0  0  0  0  0  0  0
    2.1707    0.9211   -3.1407 C   0  0  0  0  0  0  0  0  0  0  0  0
    2.0977   -0.2928   -3.4627 O   0  5  0  0  0  0  0  0  0  0  0  0
    2.4798    1.8514   -3.9255 O   0  0  0  0  0  0  0  0  0  0  0  0
    0.8637   -0.0687    1.0028 C   0  0  0  0  0  0  0  0  0  0  0  0
    1.9979   -0.2607    1.4248 O   0  0  0  0  0  0  0  0  0  0  0  0
   -0.0398    0.6078    1.8035 N   0  0  0  0  0  0  0  0  0  0  0  0
   -0.9946    0.6318    1.4652 H   0  0  0  0  0  0  0  0  0  0  0  0
    0.2326    0.9662    3.1869 C   0  0  0  0  0  0  0  0  0  0  0  0
    1.1223    1.6012    3.2499 H   0  0  0  0  0  0  0  0  0  0  0  0
   -0.6141    1.5175    3.6059 H   0  0  0  0  0  0  0  0  0  0  0  0
    0.3958    0.0663    3.7887 H   0  0  0  0  0  0  0  0  0  0  0  0
  1  2  1  0  0  0  0
  2  3  1  0  0  0  0
  2  4  1  0  0  0  0
  2  5  1  0  0  0  0
  5  6  2  0  0  0  0
  5  7  1  0  0  0  0
  7  8  1  0  0  0  0
  7  9  1  0  0  0  0
  9 10  1  0  0  0  0
  9 11  1  0  0  0  0
  9 20  1  0  0  0  0
 11 12  1  0  0  0  0
 11 13  1  0  0  0  0
 11 14  1  0  0  0  0
 14 15  1  0  0  0  0
 14 16  1  0  0  0  0
 14 17  1  0  0  0  0
 17 18  1  0  0  0  0
 17 19  2  0  0  0  0
 20 21  2  0  0  0  0
 20 22  1  0  0  0  0
 22 23  1  0  0  0  0
 22 24  1  0  0  0  0
 24 25  1  0  0  0  0
 24 26  1  0  0  0  0
 24 27  1  0  0  0  0
M  CHG  1  18  -1
M  END
$$$$

  -OEChem-04042215583D

 27 26  0     1  0  0  0  0  0999 V2000
   -2.7383   -3.8356    0.3305 H   0  0  0  0  0  0  0  0  0  0  0  0
   -2.5867   -2.9243   -0.2550 C   0  0  0  0  0  0  0  0  0  0  0  0
   -3.4259   -2.2473   -0.0778 H   0  0  0  0  0  0  0  0  0  0  0  0
   -2.5590   -3.1890   -1.3151 H   0  0  0  0  0  0  0  0  0  0  0  0
   -1.2848   -2.2523    0.1447 C   0  0  0  0  0  0  0  0  0  0  0  0
   -0.6195   -2.7234    1.0504 O   0  0  0  0  0  0  0  0  0  0  0  0
   -0.8970   -1.1038   -0.5147 N   0  0  0  0  0  0  0  0  0  0  0  0
   -1.4409   -0.8698   -1.3402 H   0  0  0  0  0  0  0  0  0  0  0  0
    0.4457   -0.4977   -0.4301 C   0  0  1  0  0  0  0  0  0  0  0  0
    1.1930   -1.2063   -0.8054 H   0  0  0  0  0  0  0  0  0  0  0  0
    0.3904    0.7281   -1.3607 C   0  0  0  0  0  0  0  0  0  0  0  0
   -0.1231    0.4493   -2.2880 H   0  0  0  0  0  0  0  0  0  0  0  0
   -0.2064    1.5189   -0.8949 H   0  0  0  0  0  0  0  0  0  0  0  0
    1.7834    1.2897   -1.7050 C   0  0  0  0  0  0  0  0  0  0  0  0
    1.8600    2.3209   -1.3476 H   0  0  0  0  0  0  0  0  0  0  0  0
    2.5703    0.7133   -1.2100 H   0  0  0  0  0  0  0  0  0  0  0  0
    2.0266    1.2488   -3.2153 C   0  0  0  0  0  0  0  0  0  0  0  0
    2.0717    0.1173   -3.7616 O   0  5  0  0  0  0  0  0  0  0  0  0
    2.0885    2.3427   -3.8290 O   0  0  0  0  0  0  0  0  0  0  0  0
    0.8663   -0.0783    0.9986 C   0  0  0  0  0  0  0  0  0  0  0  0
    2.0022   -0.2733    1.4146 O   0  0  0  0  0  0  0  0  0  0  0  0
   -0.0347    0.5961    1.8035 N   0  0  0  0  0  0  0  0  0  0  0  0
   -0.9860    0.6480    1.4586 H   0  0  0  0  0  0  0  0  0  0  0  0
    0.2471    0.9743    3.1796 C   0  0  0  0  0  0  0  0  0  0  0  0
    1.1268    1.6245    3.2251 H   0  0  0  0  0  0  0  0  0  0  0  0
   -0.6042    1.5161    3.6016 H   0  0  0  0  0  0  0  0  0  0  0  0
    0.4316    0.0842    3.7896 H   0  0  0  0  0  0  0  0  0  0  0  0
  1  2  1  0  0  0  0
  2  3  1  0  0  0  0
  2  4  1  0  0  0  0
  2  5  1  0  0  0  0
  5  6  2  0  0  0  0
  5  7  1  0  0  0  0
  7  8  1  0  0  0  0
  7  9  1  0  0  0  0
  9 10  1  0  0  0  0
  9 11  1  0  0  0  0
  9 20  1  0  0  0  0
 11 12  1  0  0  0  0
 11 13  1  0  0  0  0
 11 14  1  0  0  0  0
 14 15  1  0  0  0  0
 14 16  1  0  0  0  0
 14 17  1  0  0  0  0
 17 18  1  0  0  0  0
 17 19  2  0  0  0  0
 20 21  2  0  0  0  0
 20 22  1  0  0  0  0
 22 23  1  0  0  0  0
 22 24  1  0  0  0  0
 24 25  1  0  0  0  0
 24 26  1  0  0  0  0
 24 27  1  0  0  0  0
M  CHG  1  18  -1
M  END
$$$$

  -OEChem-04042215583D

 27 26  0     1  0  0  0  0  0999 V2000
   -2.7881   -3.7912    0.3919 H   0  0  0  0  0  0  0  0  0  0  0  0
   -2.6124   -2.9101   -0.2317 C   0  0  0  0  0  0  0  0  0  0  0  0
   -3.4244   -2.1969   -0.0702 H   0  0  0  0  0  0  0  0  0  0  0  0
   -2.6096   -3.2168   -1.2808 H   0  0  0  0  0  0  0  0  0  0  0  0
   -1.2818   -2.2713    0.1256 C   0  0  0  0  0  0  0  0  0  0  0  0
   -0.5855   -2.7769    0.9882 O   0  0  0  0  0  0  0  0  0  0  0  0
   -0.8945   -1.1190   -0.5272 N   0  0  0  0  0  0  0  0  0  0  0  0
   -1.4674   -0.8417   -1.3190 H   0  0  0  0  0  0  0  0  0  0  0  0
    0.4460   -0.5095   -0.4364 C   0  0  1  0  0  0  0  0  0  0  0  0
    1.1937   -1.2190   -0.8083 H   0  0  0  0  0  0  0  0  0  0  0  0
    0.3949    0.7193   -1.3621 C   0  0  0  0  0  0  0  0  0  0  0  0
   -0.0923    0.4192   -2.2970 H   0  0  0  0  0  0  0  0  0  0  0  0
   -0.2200    1.5095   -0.9194 H   0  0  0  0  0  0  0  0  0  0  0  0
    1.7859    1.2858   -1.6980 C   0  0  0  0  0  0  0  0  0  0  0  0
    1.9756    2.1867   -1.1067 H   0  0  0  0  0  0  0  0  0  0  0  0
    2.5657    0.5602   -1.4477 H   0  0  0  0  0  0  0  0  0  0  0  0
    1.8915    1.5991   -3.1912 C   0  0  0  0  0  0  0  0  0  0  0  0
    2.0632    0.6324   -3.9755 O   0  5  0  0  0  0  0  0  0  0  0  0
    1.7052    2.7881   -3.5506 O   0  0  0  0  0  0  0  0  0  0  0  0
    0.8659   -0.0935    0.9927 C   0  0  0  0  0  0  0  0  0  0  0  0
    2.0006   -0.2976    1.4075 O   0  0  0  0  0  0  0  0  0  0  0  0
   -0.0332    0.5768    1.8030 N   0  0  0  0  0  0  0  0  0  0  0  0
   -0.9741    0.6823    1.4421 H   0  0  0  0  0  0  0  0  0  0  0  0
    0.2618    0.9860    3.1674 C   0  0  0  0  0  0  0  0  0  0  0  0
    1.1059    1.6830    3.1828 H   0  0  0  0  0  0  0  0  0  0  0  0
   -0.6069    1.4851    3.6067 H   0  0  0  0  0  0  0  0  0  0  0  0
    0.5095    0.1144    3.7817 H   0  0  0  0  0  0  0  0  0  0  0  0
  1  2  1  0  0  0  0
  2  3  1  0  0  0  0
  2  4  1  0  0  0  0
  2  5  1  0  0  0  0
  5  6  2  0  0  0  0
  5  7  1  0  0  0  0
  7  8  1  0  0  0  0
  7  9  1  0  0  0  0
  9 10  1  0  0  0  0
  9 11  1  0  0  0  0
  9 20  1  0  0  0  0
 11 12  1  0  0  0  0
 11 13  1  0  0  0  0
 11 14  1  0  0  0  0
 14 15  1  0  0  0  0
 14 16  1  0  0  0  0
 14 17  1  0  0  0  0
 17 18  1  0  0  0  0
 17 19  2  0  0  0  0
 20 21  2  0  0  0  0
 20 22  1  0  0  0  0
 22 23  1  0  0  0  0
 22 24  1  0  0  0  0
 24 25  1  0  0  0  0
 24 26  1  0  0  0  0
 24 27  1  0  0  0  0
M  CHG  1  18  -1
M  END
$$$$

  -OEChem-04042215583D

 27 26  0     1  0  0  0  0  0999 V2000
   -2.5964   -3.9426    0.3462 H   0  0  0  0  0  0  0  0  0  0  0  0
   -2.4771   -3.0294   -0.2437 C   0  0  0  0  0  0  0  0  0  0  0  0
   -3.3212   -2.3659   -0.0402 H   0  0  0  0  0  0  0  0  0  0  0  0
   -2.4784   -3.2939   -1.3042 H   0  0  0  0  0  0  0  0  0  0  0  0
   -1.1741   -2.3377    0.1167 C   0  0  0  0  0  0  0  0  0  0  0  0
   -0.4590   -2.8153    0.9800 O   0  0  0  0  0  0  0  0  0  0  0  0
   -0.8282   -1.1738   -0.5387 N   0  0  0  0  0  0  0  0  0  0  0  0
   -1.4143   -0.9089   -1.3250 H   0  0  0  0  0  0  0  0  0  0  0  0
    0.4747   -0.4925   -0.4208 C   0  0  1  0  0  0  0  0  0  0  0  0
    1.2676   -1.1683   -0.7594 H   0  0  0  0  0  0  0  0  0  0  0  0
    0.3853    0.7130   -1.3724 C   0  0  0  0  0  0  0  0  0  0  0  0
   -0.0464    0.3633   -2.3172 H   0  0  0  0  0  0  0  0  0  0  0  0
   -0.2882    1.4767   -0.9701 H   0  0  0  0  0  0  0  0  0  0  0  0
    1.7515    1.3465   -1.6781 C   0  0  0  0  0  0  0  0  0  0  0  0
    1.9914    2.1015   -0.9233 H   0  0  0  0  0  0  0  0  0  0  0  0
    2.5389    0.5875   -1.6466 H   0  0  0  0  0  0  0  0  0  0  0  0
    1.7492    1.9704   -3.0744 C   0  0  0  0  0  0  0  0  0  0  0  0
    1.5847    3.2124   -3.1572 O   0  5  0  0  0  0  0  0  0  0  0  0
    1.8131    1.1896   -4.0573 O   0  0  0  0  0  0  0  0  0  0  0  0
    0.8371   -0.0370    1.0110 C   0  0  0  0  0  0  0  0  0  0  0  0
    1.9691   -0.1861    1.4554 O   0  0  0  0  0  0  0  0  0  0  0  0
   -0.1134    0.5947    1.7925 N   0  0  0  0  0  0  0  0  0  0  0  0
   -1.0431    0.6768    1.3980 H   0  0  0  0  0  0  0  0  0  0  0  0
    0.1303    1.0377    3.1565 C   0  0  0  0  0  0  0  0  0  0  0  0
    0.9471    1.7663    3.1812 H   0  0  0  0  0  0  0  0  0  0  0  0
   -0.7677    1.5105    3.5648 H   0  0  0  0  0  0  0  0  0  0  0  0
    0.3947    0.1864    3.7920 H   0  0  0  0  0  0  0  0  0  0  0  0
  1  2  1  0  0  0  0
  2  3  1  0  0  0  0
  2  4  1  0  0  0  0
  2  5  1  0  0  0  0
  5  6  2  0  0  0  0
  5  7  1  0  0  0  0
  7  8  1  0  0  0  0
  7  9  1  0  0  0  0
  9 10  1  0  0  0  0
  9 11  1  0  0  0  0
  9 20  1  0  0  0  0
 11 12  1  0  0  0  0
 11 13  1  0  0  0  0
 11 14  1  0  0  0  0
 14 15  1  0  0  0  0
 14 16  1  0  0  0  0
 14 17  1  0  0  0  0
 17 18  1  0  0  0  0
 17 19  2  0  0  0  0
 20 21  2  0  0  0  0
 20 22  1  0  0  0  0
 22 23  1  0  0  0  0
 22 24  1  0  0  0  0
 24 25  1  0  0  0  0
 24 26  1  0  0  0  0
 24 27  1  0  0  0  0
M  CHG  1  18  -1
M  END
$$$$

  -OEChem-04042215583D

 27 26  0     1  0  0  0  0  0999 V2000
   -2.6869   -3.8975    0.3402 H   0  0  0  0  0  0  0  0  0  0  0  0
   -2.5373   -2.9893   -0.2506 C   0  0  0  0  0  0  0  0  0  0  0  0
   -3.3329   -2.2793   -0.0116 H   0  0  0  0  0  0  0  0  0  0  0  0
   -2.5949   -3.2462   -1.3114 H   0  0  0  0  0  0  0  0  0  0  0  0
   -1.1834   -2.3761    0.0613 C   0  0  0  0  0  0  0  0  0  0  0  0
   -0.4388   -2.9293    0.8513 O   0  0  0  0  0  0  0  0  0  0  0  0
   -0.8172   -1.2038   -0.5667 N   0  0  0  0  0  0  0  0  0  0  0  0
   -1.4471   -0.8492   -1.2801 H   0  0  0  0  0  0  0  0  0  0  0  0
    0.4877   -0.5333   -0.4213 C   0  0  1  0  0  0  0  0  0  0  0  0
    1.2828   -1.2047   -0.7628 H   0  0  0  0  0  0  0  0  0  0  0  0
    0.4081    0.6887   -1.3516 C   0  0  0  0  0  0  0  0  0  0  0  0
   -0.0128    0.3676   -2.3112 H   0  0  0  0  0  0  0  0  0  0  0  0
   -0.2665    1.4434   -0.9334 H   0  0  0  0  0  0  0  0  0  0  0  0
    1.7728    1.3271   -1.6367 C   0  0  0  0  0  0  0  0  0  0  0  0
    2.1242    1.8792   -0.7601 H   0  0  0  0  0  0  0  0  0  0  0  0
    2.5109    0.5516   -1.8635 H   0  0  0  0  0  0  0  0  0  0  0  0
    1.6568    2.2737   -2.8316 C   0  0  0  0  0  0  0  0  0  0  0  0
    0.9876    3.3253   -2.6703 O   0  5  0  0  0  0  0  0  0  0  0  0
    2.1621    1.9074   -3.9211 O   0  0  0  0  0  0  0  0  0  0  0  0
    0.8339   -0.1051    1.0230 C   0  0  0  0  0  0  0  0  0  0  0  0
    1.9584   -0.2738    1.4793 O   0  0  0  0  0  0  0  0  0  0  0  0
   -0.1225    0.5200    1.8033 N   0  0  0  0  0  0  0  0  0  0  0  0
   -1.0027    0.7354    1.3496 H   0  0  0  0  0  0  0  0  0  0  0  0
    0.1563    1.0808    3.1165 C   0  0  0  0  0  0  0  0  0  0  0  0
    0.8929    1.8869    3.0377 H   0  0  0  0  0  0  0  0  0  0  0  0
   -0.7603    1.4880    3.5531 H   0  0  0  0  0  0  0  0  0  0  0  0
    0.5454    0.3088    3.7883 H   0  0  0  0  0  0  0  0  0  0  0  0
  1  2  1  0  0  0  0
  2  3  1  0  0  0  0
  2  4  1  0  0  0  0
  2  5  1  0  0  0  0
  5  6  2  0  0  0  0
  5  7  1  0  0  0  0
  7  8  1  0  0  0  0
  7  9  1  0  0  0  0
  9 10  1  0  0  0  0
  9 11  1  0  0  0  0
  9 20  1  0  0  0  0
 11 12  1  0  0  0  0
 11 13  1  0  0  0  0
 11 14  1  0  0  0  0
 14 15  1  0  0  0  0
 14 16  1  0  0  0  0
 14 17  1  0  0  0  0
 17 18  1  0  0  0  0
 17 19  2  0  0  0  0
 20 21  2  0  0  0  0
 20 22  1  0  0  0  0
 22 23  1  0  0  0  0
 22 24  1  0  0  0  0
 24 25  1  0  0  0  0
 24 26  1  0  0  0  0
 24 27  1  0  0  0  0
M  CHG  1  18  -1
M  END
$$$$

  -OEChem-04042215583D

 27 26  0     1  0  0  0  0  0999 V2000
   -2.6936   -3.9045    0.3689 H   0  0  0  0  0  0  0  0  0  0  0  0
   -2.5765   -2.9751   -0.1960 C   0  0  0  0  0  0  0  0  0  0  0  0
   -3.3735   -2.2852    0.0921 H   0  0  0  0  0  0  0  0  0  0  0  0
   -2.6649   -3.1983   -1.2622 H   0  0  0  0  0  0  0  0  0  0  0  0
   -1.2218   -2.3524    0.0913 C   0  0  0  0  0  0  0  0  0  0  0  0
   -0.4579   -2.9019    0.8654 O   0  0  0  0  0  0  0  0  0  0  0  0
   -0.8722   -1.1797   -0.5454 N   0  0  0  0  0  0  0  0  0  0  0  0
   -1.5221   -0.8215   -1.2394 H   0  0  0  0  0  0  0  0  0  0  0  0
    0.4401   -0.5151   -0.4399 C   0  0  1  0  0  0  0  0  0  0  0  0
    1.2133   -1.2028   -0.7987 H   0  0  0  0  0  0  0  0  0  0  0  0
    0.3643    0.7044   -1.3780 C   0  0  0  0  0  0  0  0  0  0  0  0
   -0.3061    0.4803   -2.2152 H   0  0  0  0  0  0  0  0  0  0  0  0
   -0.0579    1.5618   -0.8425 H   0  0  0  0  0  0  0  0  0  0  0  0
    1.7290    1.0864   -1.9753 C   0  0  0  0  0  0  0  0  0  0  0  0
    2.4266    1.3145   -1.1640 H   0  0  0  0  0  0  0  0  0  0  0  0
    2.1275    0.2383   -2.5395 H   0  0  0  0  0  0  0  0  0  0  0  0
    1.6502    2.3021   -2.9109 C   0  0  0  0  0  0  0  0  0  0  0  0
    0.5186    2.7738   -3.1982 O   0  5  0  0  0  0  0  0  0  0  0  0
    2.7358    2.7384   -3.3642 O   0  0  0  0  0  0  0  0  0  0  0  0
    0.8384   -0.0910    0.9919 C   0  0  0  0  0  0  0  0  0  0  0  0
    1.9763   -0.2679    1.4089 O   0  0  0  0  0  0  0  0  0  0  0  0
   -0.0861    0.5373    1.8072 N   0  0  0  0  0  0  0  0  0  0  0  0
   -0.9997    0.7156    1.4063 H   0  0  0  0  0  0  0  0  0  0  0  0
    0.2216    1.0340    3.1397 C   0  0  0  0  0  0  0  0  0  0  0  0
    1.0349    1.7658    3.0968 H   0  0  0  0  0  0  0  0  0  0  0  0
   -0.6581    1.5192    3.5725 H   0  0  0  0  0  0  0  0  0  0  0  0
    0.5207    0.2092    3.7945 H   0  0  0  0  0  0  0  0  0  0  0  0
  1  2  1  0  0  0  0
  2  3  1  0  0  0  0
  2  4  1  0  0  0  0
  2  5  1  0  0  0  0
  5  6  2  0  0  0  0
  5  7  1  0  0  0  0
  7  8  1  0  0  0  0
  7  9  1  0  0  0  0
  9 10  1  0  0  0  0
  9 11  1  0  0  0  0
  9 20  1  0  0  0  0
 11 12  1  0  0  0  0
 11 13  1  0  0  0  0
 11 14  1  0  0  0  0
 14 15  1  0  0  0  0
 14 16  1  0  0  0  0
 14 17  1  0  0  0  0
 17 18  1  0  0  0  0
 17 19  2  0  0  0  0
 20 21  2  0  0  0  0
 20 22  1  0  0  0  0
 22 23  1  0  0  0  0
 22 24  1  0  0  0  0
 24 25  1  0  0  0  0
 24 26  1  0  0  0  0
 24 27  1  0  0  0  0
M  CHG  1  18  -1
M  END
$$$$

  -OEChem-04042215583D

 27 26  0     1  0  0  0  0  0999 V2000
   -2.7377   -3.8660    0.3834 H   0  0  0  0  0  0  0  0  0  0  0  0
   -2.6052   -2.9399   -0.1832 C   0  0  0  0  0  0  0  0  0  0  0  0
   -3.3768   -2.2282    0.1202 H   0  0  0  0  0  0  0  0  0  0  0  0
   -2.7202   -3.1589   -1.2478 H   0  0  0  0  0  0  0  0  0  0  0  0
   -1.2287   -2.3554    0.0794 C   0  0  0  0  0  0  0  0  0  0  0  0
   -0.4600   -2.9354    0.8257 O   0  0  0  0  0  0  0  0  0  0  0  0
   -0.8667   -1.1828   -0.5503 N   0  0  0  0  0  0  0  0  0  0  0  0
   -1.5260   -0.7969   -1.2197 H   0  0  0  0  0  0  0  0  0  0  0  0
    0.4511   -0.5302   -0.4419 C   0  0  1  0  0  0  0  0  0  0  0  0
    1.2199   -1.2204   -0.8060 H   0  0  0  0  0  0  0  0  0  0  0  0
    0.3763    0.6900   -1.3795 C   0  0  0  0  0  0  0  0  0  0  0  0
   -0.3044    0.4867   -2.2136 H   0  0  0  0  0  0  0  0  0  0  0  0
   -0.0330    1.5439   -0.8285 H   0  0  0  0  0  0  0  0  0  0  0  0
    1.7363    1.0718   -1.9831 C   0  0  0  0  0  0  0  0  0  0  0  0
    2.5024    1.0547   -1.2016 H   0  0  0  0  0  0  0  0  0  0  0  0
    2.0186    0.3458   -2.7505 H   0  0  0  0  0  0  0  0  0  0  0  0
    1.6919    2.4752   -2.5985 C   0  0  0  0  0  0  0  0  0  0  0  0
    0.6708    2.7829   -3.2669 O   0  5  0  0  0  0  0  0  0  0  0  0
    2.6792    3.2284   -2.4200 O   0  0  0  0  0  0  0  0  0  0  0  0
    0.8526   -0.1170    0.9922 C   0  0  0  0  0  0  0  0  0  0  0  0
    1.9827   -0.3264    1.4153 O   0  0  0  0  0  0  0  0  0  0  0  0
   -0.0674    0.5152    1.8096 N   0  0  0  0  0  0  0  0  0  0  0  0
   -0.9572    0.7543    1.3877 H   0  0  0  0  0  0  0  0  0  0  0  0
    0.2582    1.0356    3.1287 C   0  0  0  0  0  0  0  0  0  0  0  0
    1.0232    1.8150    3.0527 H   0  0  0  0  0  0  0  0  0  0  0  0
   -0.6333    1.4673    3.5929 H   0  0  0  0  0  0  0  0  0  0  0  0
    0.6308    0.2345    3.7753 H   0  0  0  0  0  0  0  0  0  0  0  0
  1  2  1  0  0  0  0
  2  3  1  0  0  0  0
  2  4  1  0  0  0  0
  2  5  1  0  0  0  0
  5  6  2  0  0  0  0
  5  7  1  0  0  0  0
  7  8  1  0  0  0  0
  7  9  1  0  0  0  0
  9 10  1  0  0  0  0
  9 11  1  0  0  0  0
  9 20  1  0  0  0  0
 11 12  1  0  0  0  0
 11 13  1  0  0  0  0
 11 14  1  0  0  0  0
 14 15  1  0  0  0  0
 14 16  1  0  0  0  0
 14 17  1  0  0  0  0
 17 18  1  0  0  0  0
 17 19  2  0  0  0  0
 20 21  2  0  0  0  0
 20 22  1  0  0  0  0
 22 23  1  0  0  0  0
 22 24  1  0  0  0  0
 24 25  1  0  0  0  0
 24 26  1  0  0  0  0
 24 27  1  0  0  0  0
M  CHG  1  18  -1
M  END
$$$$

  -OEChem-04042215583D

 27 26  0     1  0  0  0  0  0999 V2000
   -2.7289   -3.8673    0.3985 H   0  0  0  0  0  0  0  0  0  0  0  0
   -2.6040   -2.9351   -0.1597 C   0  0  0  0  0  0  0  0  0  0  0  0
   -3.3546   -2.2176    0.1811 H   0  0  0  0  0  0  0  0  0  0  0  0
   -2.7598   -3.1381   -1.2221 H   0  0  0  0  0  0  0  0  0  0  0  0
   -1.2109   -2.3729    0.0619 C   0  0  0  0  0  0  0  0  0  0  0  0
   -0.4238   -2.9756    0.7700 O   0  0  0  0  0  0  0  0  0  0  0  0
   -0.8540   -1.1964   -0.5637 N   0  0  0  0  0  0  0  0  0  0  0  0
   -1.5383   -0.7775   -1.1861 H   0  0  0  0  0  0  0  0  0  0  0  0
    0.4590   -0.5355   -0.4465 C   0  0  1  0  0  0  0  0  0  0  0  0
    1.2337   -1.2209   -0.8069 H   0  0  0  0  0  0  0  0  0  0  0  0
    0.3798    0.6837   -1.3867 C   0  0  0  0  0  0  0  0  0  0  0  0
   -0.2996    0.4859   -2.2227 H   0  0  0  0  0  0  0  0  0  0  0  0
   -0.0395    1.5271   -0.8265 H   0  0  0  0  0  0  0  0  0  0  0  0
    1.7383    1.0841   -1.9880 C   0  0  0  0  0  0  0  0  0  0  0  0
    2.5395    0.8331   -1.2858 H   0  0  0  0  0  0  0  0  0  0  0  0
    1.9142    0.5269   -2.9123 H   0  0  0  0  0  0  0  0  0  0  0  0
    1.8017    2.5898   -2.2702 C   0  0  0  0  0  0  0  0  0  0  0  0
    0.7887    3.1198   -2.7968 O   0  5  0  0  0  0  0  0  0  0  0  0
    2.8621    3.2004   -1.9938 O   0  0  0  0  0  0  0  0  0  0  0  0
    0.8506   -0.1223    0.9905 C   0  0  0  0  0  0  0  0  0  0  0  0
    1.9696   -0.3566    1.4289 O   0  0  0  0  0  0  0  0  0  0  0  0
   -0.0762    0.5033    1.8057 N   0  0  0  0  0  0  0  0  0  0  0  0
   -0.9456    0.7820    1.3660 H   0  0  0  0  0  0  0  0  0  0  0  0
    0.2505    1.0283    3.1228 C   0  0  0  0  0  0  0  0  0  0  0  0
    1.0442    1.7790    3.0486 H   0  0  0  0  0  0  0  0  0  0  0  0
   -0.6309    1.4975    3.5694 H   0  0  0  0  0  0  0  0  0  0  0  0
    0.5855    0.2221    3.7833 H   0  0  0  0  0  0  0  0  0  0  0  0
  1  2  1  0  0  0  0
  2  3  1  0  0  0  0
  2  4  1  0  0  0  0
  2  5  1  0  0  0  0
  5  6  2  0  0  0  0
  5  7  1  0  0  0  0
  7  8  1  0  0  0  0
  7  9  1  0  0  0  0
  9 10  1  0  0  0  0
  9 11  1  0  0  0  0
  9 20  1  0  0  0  0
 11 12  1  0  0  0  0
 11 13  1  0  0  0  0
 11 14  1  0  0  0  0
 14 15  1  0  0  0  0
 14 16  1  0  0  0  0
 14 17  1  0  0  0  0
 17 18  1  0  0  0  0
 17 19  2  0  0  0  0
 20 21  2  0  0  0  0
 20 22  1  0  0  0  0
 22 23  1  0  0  0  0
 22 24  1  0  0  0  0
 24 25  1  0  0  0  0
 24 26  1  0  0  0  0
 24 27  1  0  0  0  0
M  CHG  1  18  -1
M  END
$$$$

  -OEChem-04042215583D

 27 26  0     1  0  0  0  0  0999 V2000
   -2.7247   -3.8634    0.4218 H   0  0  0  0  0  0  0  0  0  0  0  0
   -2.6021   -2.9317   -0.1379 C   0  0  0  0  0  0  0  0  0  0  0  0
   -3.3309   -2.2041    0.2274 H   0  0  0  0  0  0  0  0  0  0  0  0
   -2.7932   -3.1291   -1.1958 H   0  0  0  0  0  0  0  0  0  0  0  0
   -1.1944   -2.3915    0.0435 C   0  0  0  0  0  0  0  0  0  0  0  0
   -0.3915   -3.0168    0.7131 O   0  0  0  0  0  0  0  0  0  0  0  0
   -0.8418   -1.2115   -0.5780 N   0  0  0  0  0  0  0  0  0  0  0  0
   -1.5499   -0.7585   -1.1470 H   0  0  0  0  0  0  0  0  0  0  0  0
    0.4664   -0.5425   -0.4492 C   0  0  1  0  0  0  0  0  0  0  0  0
    1.2467   -1.2241   -0.8054 H   0  0  0  0  0  0  0  0  0  0  0  0
    0.3819    0.6778   -1.3889 C   0  0  0  0  0  0  0  0  0  0  0  0
   -0.2863    0.4676   -2.2307 H   0  0  0  0  0  0  0  0  0  0  0  0
   -0.0637    1.5091   -0.8315 H   0  0  0  0  0  0  0  0  0  0  0  0
    1.7385    1.1008   -1.9880 C   0  0  0  0  0  0  0  0  0  0  0  0
    2.5531    0.6246   -1.4336 H   0  0  0  0  0  0  0  0  0  0  0  0
    1.8021    0.7647   -3.0267 H   0  0  0  0  0  0  0  0  0  0  0  0
    1.9468    2.6195   -1.9333 C   0  0  0  0  0  0  0  0  0  0  0  0
    0.9714    3.3474   -2.2546 O   0  5  0  0  0  0  0  0  0  0  0  0
    3.0852    3.0492   -1.6283 O   0  0  0  0  0  0  0  0  0  0  0  0
    0.8470   -0.1281    0.9906 C   0  0  0  0  0  0  0  0  0  0  0  0
    1.9523   -0.3913    1.4466 O   0  0  0  0  0  0  0  0  0  0  0  0
   -0.0877    0.4922    1.8014 N   0  0  0  0  0  0  0  0  0  0  0  0
   -0.9265    0.8227    1.3389 H   0  0  0  0  0  0  0  0  0  0  0  0
    0.2393    1.0193    3.1179 C   0  0  0  0  0  0  0  0  0  0  0  0
    1.0283    1.7748    3.0416 H   0  0  0  0  0  0  0  0  0  0  0  0
   -0.6438    1.4829    3.5669 H   0  0  0  0  0  0  0  0  0  0  0  0
    0.5808    0.2153    3.7778 H   0  0  0  0  0  0  0  0  0  0  0  0
  1  2  1  0  0  0  0
  2  3  1  0  0  0  0
  2  4  1  0  0  0  0
  2  5  1  0  0  0  0
  5  6  2  0  0  0  0
  5  7  1  0  0  0  0
  7  8  1  0  0  0  0
  7  9  1  0  0  0  0
  9 10  1  0  0  0  0
  9 11  1  0  0  0  0
  9 20  1  0  0  0  0
 11 12  1  0  0  0  0
 11 13  1  0  0  0  0
 11 14  1  0  0  0  0
 14 15  1  0  0  0  0
 14 16  1  0  0  0  0
 14 17  1  0  0  0  0
 17 18  1  0  0  0  0
 17 19  2  0  0  0  0
 20 21  2  0  0  0  0
 20 22  1  0  0  0  0
 22 23  1  0  0  0  0
 22 24  1  0  0  0  0
 24 25  1  0  0  0  0
 24 26  1  0  0  0  0
 24 27  1  0  0  0  0
M  CHG  1  18  -1
M  END
$$$$

  -OEChem-04042215583D

 27 26  0     1  0  0  0  0  0999 V2000
   -2.7121   -3.8803    0.4013 H   0  0  0  0  0  0  0  0  0  0  0  0
   -2.5980   -2.9314   -0.1307 C   0  0  0  0  0  0  0  0  0  0  0  0
   -3.3196   -2.2152    0.2697 H   0  0  0  0  0  0  0  0  0  0  0  0
   -2.8069   -3.0949   -1.1909 H   0  0  0  0  0  0  0  0  0  0  0  0
   -1.1863   -2.3987    0.0431 C   0  0  0  0  0  0  0  0  0  0  0  0
   -0.3808   -3.0338    0.7000 O   0  0  0  0  0  0  0  0  0  0  0  0
   -0.8332   -1.2188   -0.5786 N   0  0  0  0  0  0  0  0  0  0  0  0
   -1.5512   -0.7510   -1.1220 H   0  0  0  0  0  0  0  0  0  0  0  0
    0.4724   -0.5453   -0.4431 C   0  0  1  0  0  0  0  0  0  0  0  0
    1.2557   -1.2265   -0.7922 H   0  0  0  0  0  0  0  0  0  0  0  0
    0.3841    0.6729   -1.3874 C   0  0  0  0  0  0  0  0  0  0  0  0
   -0.2645    0.4307   -2.2359 H   0  0  0  0  0  0  0  0  0  0  0  0
   -0.0985    1.4982   -0.8541 H   0  0  0  0  0  0  0  0  0  0  0  0
    1.7374    1.1129   -1.9894 C   0  0  0  0  0  0  0  0  0  0  0  0
    2.5350    0.4431   -1.6535 H   0  0  0  0  0  0  0  0  0  0  0  0
    1.6843    1.0381   -3.0793 H   0  0  0  0  0  0  0  0  0  0  0  0
    2.1186    2.5550   -1.6274 C   0  0  0  0  0  0  0  0  0  0  0  0
    1.2122    3.4272   -1.6743 O   0  5  0  0  0  0  0  0  0  0  0  0
    3.3258    2.7972   -1.3890 O   0  0  0  0  0  0  0  0  0  0  0  0
    0.8451   -0.1256    0.9970 C   0  0  0  0  0  0  0  0  0  0  0  0
    1.9351   -0.4199    1.4702 O   0  0  0  0  0  0  0  0  0  0  0  0
   -0.0944    0.4950    1.8021 N   0  0  0  0  0  0  0  0  0  0  0  0
   -0.9073    0.8655    1.3241 H   0  0  0  0  0  0  0  0  0  0  0  0
    0.2267    1.0072    3.1263 C   0  0  0  0  0  0  0  0  0  0  0  0
    0.9942    1.7851    3.0584 H   0  0  0  0  0  0  0  0  0  0  0  0
   -0.6660    1.4376    3.5895 H   0  0  0  0  0  0  0  0  0  0  0  0
    0.5943    0.2015    3.7703 H   0  0  0  0  0  0  0  0  0  0  0  0
  1  2  1  0  0  0  0
  2  3  1  0  0  0  0
  2  4  1  0  0  0  0
  2  5  1  0  0  0  0
  5  6  2  0  0  0  0
  5  7  1  0  0  0  0
  7  8  1  0  0  0  0
  7  9  1  0  0  0  0
  9 10  1  0  0  0  0
  9 11  1  0  0  0  0
  9 20  1  0  0  0  0
 11 12  1  0  0  0  0
 11 13  1  0  0  0  0
 11 14  1  0  0  0  0
 14 15  1  0  0  0  0
 14 16  1  0  0  0  0
 14 17  1  0  0  0  0
 17 18  1  0  0  0  0
 17 19  2  0  0  0  0
 20 21  2  0  0  0  0
 20 22  1  0  0  0  0
 22 23  1  0  0  0  0
 22 24  1  0  0  0  0
 24 25  1  0  0  0  0
 24 26  1  0  0  0  0
 24 27  1  0  0  0  0
M  CHG  1  18  -1
M  END
$$$$

  -OEChem-04042215583D

 27 26  0     1  0  0  0  0  0999 V2000
   -2.7122   -3.8564    0.4353 H   0  0  0  0  0  0  0  0  0  0  0  0
   -2.5970   -2.9057   -0.0929 C   0  0  0  0  0  0  0  0  0  0  0  0
   -3.2659   -2.1693    0.3591 H   0  0  0  0  0  0  0  0  0  0  0  0
   -2.8759   -3.0482   -1.1398 H   0  0  0  0  0  0  0  0  0  0  0  0
   -1.1595   -2.4247   -0.0010 C   0  0  0  0  0  0  0  0  0  0  0  0
   -0.3335   -3.1073    0.5784 O   0  0  0  0  0  0  0  0  0  0  0  0
   -0.8095   -1.2447   -0.6237 N   0  0  0  0  0  0  0  0  0  0  0  0
   -1.5622   -0.7203   -1.0556 H   0  0  0  0  0  0  0  0  0  0  0  0
    0.4814   -0.5542   -0.4422 C   0  0  1  0  0  0  0  0  0  0  0  0
    1.2818   -1.2334   -0.7542 H   0  0  0  0  0  0  0  0  0  0  0  0
    0.4117    0.6444   -1.4135 C   0  0  0  0  0  0  0  0  0  0  0  0
   -0.1658    0.3383   -2.2922 H   0  0  0  0  0  0  0  0  0  0  0  0
   -0.1437    1.4733   -0.9635 H   0  0  0  0  0  0  0  0  0  0  0  0
    1.7845    1.0912   -1.9608 C   0  0  0  0  0  0  0  0  0  0  0  0
    2.5280    0.3020   -1.8193 H   0  0  0  0  0  0  0  0  0  0  0  0
    1.6879    1.2631   -3.0371 H   0  0  0  0  0  0  0  0  0  0  0  0
    2.3111    2.3888   -1.3272 C   0  0  0  0  0  0  0  0  0  0  0  0
    1.7483    2.8407   -0.2960 O   0  5  0  0  0  0  0  0  0  0  0  0
    3.2488    2.9618   -1.9339 O   0  0  0  0  0  0  0  0  0  0  0  0
    0.8168   -0.1085    0.9999 C   0  0  0  0  0  0  0  0  0  0  0  0
    1.8451   -0.5054    1.5364 O   0  0  0  0  0  0  0  0  0  0  0  0
   -0.1473    0.5176    1.7714 N   0  0  0  0  0  0  0  0  0  0  0  0
   -0.8301    1.0368    1.2324 H   0  0  0  0  0  0  0  0  0  0  0  0
    0.1598    1.0115    3.1060 C   0  0  0  0  0  0  0  0  0  0  0  0
    0.9635    1.7541    3.0612 H   0  0  0  0  0  0  0  0  0  0  0  0
   -0.7248    1.4811    3.5454 H   0  0  0  0  0  0  0  0  0  0  0  0
    0.4726    0.1896    3.7581 H   0  0  0  0  0  0  0  0  0  0  0  0
  1  2  1  0  0  0  0
  2  3  1  0  0  0  0
  2  4  1  0  0  0  0
  2  5  1  0  0  0  0
  5  6  2  0  0  0  0
  5  7  1  0  0  0  0
  7  8  1  0  0  0  0
  7  9  1  0  0  0  0
  9 10  1  0  0  0  0
  9 11  1  0  0  0  0
  9 20  1  0  0  0  0
 11 12  1  0  0  0  0
 11 13  1  0  0  0  0
 11 14  1  0  0  0  0
 14 15  1  0  0  0  0
 14 16  1  0  0  0  0
 14 17  1  0  0  0  0
 17 18  1  0  0  0  0
 17 19  2  0  0  0  0
 20 21  2  0  0  0  0
 20 22  1  0  0  0  0
 22 23  1  0  0  0  0
 22 24  1  0  0  0  0
 24 25  1  0  0  0  0
 24 26  1  0  0  0  0
 24 27  1  0  0  0  0
M  CHG  1  18  -1
M  END
$$$$

  -OEChem-04042215583D

 27 26  0     1  0  0  0  0  0999 V2000
   -2.7089   -3.8235    0.5067 H   0  0  0  0  0  0  0  0  0  0  0  0
   -2.5888   -2.9013   -0.0689 C   0  0  0  0  0  0  0  0  0  0  0  0
   -3.2514   -2.1389    0.3482 H   0  0  0  0  0  0  0  0  0  0  0  0
   -2.8728   -3.0938   -1.1064 H   0  0  0  0  0  0  0  0  0  0  0  0
   -1.1473   -2.4275   -0.0051 C   0  0  0  0  0  0  0  0  0  0  0  0
   -0.3128   -3.1205    0.5490 O   0  0  0  0  0  0  0  0  0  0  0  0
   -0.8043   -1.2437   -0.6252 N   0  0  0  0  0  0  0  0  0  0  0  0
   -1.5645   -0.7114   -1.0334 H   0  0  0  0  0  0  0  0  0  0  0  0
    0.4891   -0.5545   -0.4512 C   0  0  1  0  0  0  0  0  0  0  0  0
    1.2918   -1.2257   -0.7752 H   0  0  0  0  0  0  0  0  0  0  0  0
    0.4026    0.6525   -1.4121 C   0  0  0  0  0  0  0  0  0  0  0  0
   -0.1858    0.3511   -2.2852 H   0  0  0  0  0  0  0  0  0  0  0  0
   -0.1439    1.4787   -0.9467 H   0  0  0  0  0  0  0  0  0  0  0  0
    1.7609    1.1123   -1.9779 C   0  0  0  0  0  0  0  0  0  0  0  0
    2.4225    0.2520   -2.1148 H   0  0  0  0  0  0  0  0  0  0  0  0
    1.5885    1.5564   -2.9624 H   0  0  0  0  0  0  0  0  0  0  0  0
    2.4682    2.1742   -1.1226 C   0  0  0  0  0  0  0  0  0  0  0  0
    1.7917    2.8160   -0.2765 O   0  5  0  0  0  0  0  0  0  0  0  0
    3.6668    2.4135   -1.4058 O   0  0  0  0  0  0  0  0  0  0  0  0
    0.8258   -0.1223    0.9952 C   0  0  0  0  0  0  0  0  0  0  0  0
    1.8458   -0.5362    1.5336 O   0  0  0  0  0  0  0  0  0  0  0  0
   -0.1398    0.4955    1.7719 N   0  0  0  0  0  0  0  0  0  0  0  0
   -0.8177    1.0257    1.2377 H   0  0  0  0  0  0  0  0  0  0  0  0
    0.1646    0.9694    3.1142 C   0  0  0  0  0  0  0  0  0  0  0  0
    0.9926    1.6858    3.0866 H   0  0  0  0  0  0  0  0  0  0  0  0
   -0.7103    1.4648    3.5448 H   0  0  0  0  0  0  0  0  0  0  0  0
    0.4413    0.1325    3.7634 H   0  0  0  0  0  0  0  0  0  0  0  0
  1  2  1  0  0  0  0
  2  3  1  0  0  0  0
  2  4  1  0  0  0  0
  2  5  1  0  0  0  0
  5  6  2  0  0  0  0
  5  7  1  0  0  0  0
  7  8  1  0  0  0  0
  7  9  1  0  0  0  0
  9 10  1  0  0  0  0
  9 11  1  0  0  0  0
  9 20  1  0  0  0  0
 11 12  1  0  0  0  0
 11 13  1  0  0  0  0
 11 14  1  0  0  0  0
 14 15  1  0  0  0  0
 14 16  1  0  0  0  0
 14 17  1  0  0  0  0
 17 18  1  0  0  0  0
 17 19  2  0  0  0  0
 20 21  2  0  0  0  0
 20 22  1  0  0  0  0
 22 23  1  0  0  0  0
 22 24  1  0  0  0  0
 24 25  1  0  0  0  0
 24 26  1  0  0  0  0
 24 27  1  0  0  0  0
M  CHG  1  18  -1
M  END
$$$$

  -OEChem-04042215583D

 27 26  0     1  0  0  0  0  0999 V2000
   -2.6936   -3.8160    0.5098 H   0  0  0  0  0  0  0  0  0  0  0  0
   -2.5783   -2.8798   -0.0438 C   0  0  0  0  0  0  0  0  0  0  0  0
   -3.2213   -2.1221    0.4106 H   0  0  0  0  0  0  0  0  0  0  0  0
   -2.8903   -3.0410   -1.0786 H   0  0  0  0  0  0  0  0  0  0  0  0
   -1.1309   -2.4224   -0.0043 C   0  0  0  0  0  0  0  0  0  0  0  0
   -0.2942   -3.1310    0.5256 O   0  0  0  0  0  0  0  0  0  0  0  0
   -0.7873   -1.2384   -0.6238 N   0  0  0  0  0  0  0  0  0  0  0  0
   -1.5512   -0.6982   -1.0135 H   0  0  0  0  0  0  0  0  0  0  0  0
    0.5082   -0.5514   -0.4517 C   0  0  1  0  0  0  0  0  0  0  0  0
    1.3149   -1.2185   -0.7750 H   0  0  0  0  0  0  0  0  0  0  0  0
    0.4113    0.6478   -1.4257 C   0  0  0  0  0  0  0  0  0  0  0  0
   -0.1960    0.3528   -2.2877 H   0  0  0  0  0  0  0  0  0  0  0  0
   -0.1100    1.4824   -0.9450 H   0  0  0  0  0  0  0  0  0  0  0  0
    1.7541    1.1194   -2.0109 C   0  0  0  0  0  0  0  0  0  0  0  0
    2.3173    0.2556   -2.3768 H   0  0  0  0  0  0  0  0  0  0  0  0
    1.5514    1.7716   -2.8649 H   0  0  0  0  0  0  0  0  0  0  0  0
    2.6155    1.9092   -1.0203 C   0  0  0  0  0  0  0  0  0  0  0  0
    2.0188    2.6329   -0.1809 O   0  5  0  0  0  0  0  0  0  0  0  0
    3.8573    1.8894   -1.1961 O   0  0  0  0  0  0  0  0  0  0  0  0
    0.8306   -0.1290    1.0022 C   0  0  0  0  0  0  0  0  0  0  0  0
    1.8187   -0.5860    1.5635 O   0  0  0  0  0  0  0  0  0  0  0  0
   -0.1454    0.4834    1.7712 N   0  0  0  0  0  0  0  0  0  0  0  0
   -0.8047    1.0339    1.2350 H   0  0  0  0  0  0  0  0  0  0  0  0
    0.1334    0.9200    3.1319 C   0  0  0  0  0  0  0  0  0  0  0  0
    0.9614    1.6368    3.1393 H   0  0  0  0  0  0  0  0  0  0  0  0
   -0.7493    1.4031    3.5602 H   0  0  0  0  0  0  0  0  0  0  0  0
    0.3987    0.0656    3.7631 H   0  0  0  0  0  0  0  0  0  0  0  0
  1  2  1  0  0  0  0
  2  3  1  0  0  0  0
  2  4  1  0  0  0  0
  2  5  1  0  0  0  0
  5  6  2  0  0  0  0
  5  7  1  0  0  0  0
  7  8  1  0  0  0  0
  7  9  1  0  0  0  0
  9 10  1  0  0  0  0
  9 11  1  0  0  0  0
  9 20  1  0  0  0  0
 11 12  1  0  0  0  0
 11 13  1  0  0  0  0
 11 14  1  0  0  0  0
 14 15  1  0  0  0  0
 14 16  1  0  0  0  0
 14 17  1  0  0  0  0
 17 18  1  0  0  0  0
 17 19  2  0  0  0  0
 20 21  2  0  0  0  0
 20 22  1  0  0  0  0
 22 23  1  0  0  0  0
 22 24  1  0  0  0  0
 24 25  1  0  0  0  0
 24 26  1  0  0  0  0
 24 27  1  0  0  0  0
M  CHG  1  18  -1
M  END
$$$$

  -OEChem-04042215583D

 27 26  0     1  0  0  0  0  0999 V2000
   -2.6924   -3.8020    0.5128 H   0  0  0  0  0  0  0  0  0  0  0  0
   -2.5714   -2.8585   -0.0271 C   0  0  0  0  0  0  0  0  0  0  0  0
   -3.2030   -2.1014    0.4439 H   0  0  0  0  0  0  0  0  0  0  0  0
   -2.8924   -3.0003   -1.0620 H   0  0  0  0  0  0  0  0  0  0  0  0
   -1.1190   -2.4165    0.0092 C   0  0  0  0  0  0  0  0  0  0  0  0
   -0.2893   -3.1354    0.5357 O   0  0  0  0  0  0  0  0  0  0  0  0
   -0.7665   -1.2360   -0.6125 N   0  0  0  0  0  0  0  0  0  0  0  0
   -1.5270   -0.6929   -1.0043 H   0  0  0  0  0  0  0  0  0  0  0  0
    0.5341   -0.5557   -0.4444 C   0  0  1  0  0  0  0  0  0  0  0  0
    1.3434   -1.2210   -0.7664 H   0  0  0  0  0  0  0  0  0  0  0  0
    0.4249    0.6402   -1.4271 C   0  0  0  0  0  0  0  0  0  0  0  0
   -0.2132    0.3608   -2.2723 H   0  0  0  0  0  0  0  0  0  0  0  0
   -0.0643    1.4777   -0.9188 H   0  0  0  0  0  0  0  0  0  0  0  0
    1.7446    1.1324   -2.0439 C   0  0  0  0  0  0  0  0  0  0  0  0
    2.1856    0.3201   -2.6298 H   0  0  0  0  0  0  0  0  0  0  0  0
    1.5275    1.9571   -2.7284 H   0  0  0  0  0  0  0  0  0  0  0  0
    2.7696    1.6194   -1.0207 C   0  0  0  0  0  0  0  0  0  0  0  0
    2.3455    2.3997   -0.1301 O   0  5  0  0  0  0  0  0  0  0  0  0
    3.9746    1.3290   -1.2124 O   0  0  0  0  0  0  0  0  0  0  0  0
    0.8384   -0.1411    1.0173 C   0  0  0  0  0  0  0  0  0  0  0  0
    1.7919   -0.6327    1.6078 O   0  0  0  0  0  0  0  0  0  0  0  0
   -0.1522    0.4705    1.7691 N   0  0  0  0  0  0  0  0  0  0  0  0
   -0.8057    1.0204    1.2264 H   0  0  0  0  0  0  0  0  0  0  0  0
    0.0825    0.8734    3.1482 C   0  0  0  0  0  0  0  0  0  0  0  0
    0.9189    1.5783    3.2017 H   0  0  0  0  0  0  0  0  0  0  0  0
   -0.8095    1.3584    3.5548 H   0  0  0  0  0  0  0  0  0  0  0  0
    0.3135    0.0019    3.7692 H   0  0  0  0  0  0  0  0  0  0  0  0
  1  2  1  0  0  0  0
  2  3  1  0  0  0  0
  2  4  1  0  0  0  0
  2  5  1  0  0  0  0
  5  6  2  0  0  0  0
  5  7  1  0  0  0  0
  7  8  1  0  0  0  0
  7  9  1  0  0  0  0
  9 10  1  0  0  0  0
  9 11  1  0  0  0  0
  9 20  1  0  0  0  0
 11 12  1  0  0  0  0
 11 13  1  0  0  0  0
 11 14  1  0  0  0  0
 14 15  1  0  0  0  0
 14 16  1  0  0  0  0
 14 17  1  0  0  0  0
 17 18  1  0  0  0  0
 17 19  2  0  0  0  0
 20 21  2  0  0  0  0
 20 22  1  0  0  0  0
 22 23  1  0  0  0  0
 22 24  1  0  0  0  0
 24 25  1  0  0  0  0
 24 26  1  0  0  0  0
 24 27  1  0  0  0  0
M  CHG  1  18  -1
M  END
$$$$

  -OEChem-04042215583D

 27 26  0     1  0  0  0  0  0999 V2000
   -2.7350   -3.7929    0.4908 H   0  0  0  0  0  0  0  0  0  0  0  0
   -2.5822   -2.8710   -0.0778 C   0  0  0  0  0  0  0  0  0  0  0  0
   -3.2573   -2.1040    0.3093 H   0  0  0  0  0  0  0  0  0  0  0  0
   -2.8193   -3.0610   -1.1275 H   0  0  0  0  0  0  0  0  0  0  0  0
   -1.1419   -2.4072    0.0520 C   0  0  0  0  0  0  0  0  0  0  0  0
   -0.3468   -3.0995    0.6600 O   0  0  0  0  0  0  0  0  0  0  0  0
   -0.7631   -1.2367   -0.5734 N   0  0  0  0  0  0  0  0  0  0  0  0
   -1.4904   -0.7326   -1.0668 H   0  0  0  0  0  0  0  0  0  0  0  0
    0.5466   -0.5691   -0.4180 C   0  0  1  0  0  0  0  0  0  0  0  0
    1.3531   -1.2360   -0.7451 H   0  0  0  0  0  0  0  0  0  0  0  0
    0.4244    0.6321   -1.3974 C   0  0  0  0  0  0  0  0  0  0  0  0
   -0.2488    0.3743   -2.2218 H   0  0  0  0  0  0  0  0  0  0  0  0
   -0.0334    1.4680   -0.8585 H   0  0  0  0  0  0  0  0  0  0  0  0
    1.7180    1.1429   -2.0540 C   0  0  0  0  0  0  0  0  0  0  0  0
    2.0025    0.4390   -2.8421 H   0  0  0  0  0  0  0  0  0  0  0  0
    1.5181    2.1063   -2.5316 H   0  0  0  0  0  0  0  0  0  0  0  0
    2.9048    1.3044   -1.1099 C   0  0  0  0  0  0  0  0  0  0  0  0
    2.7640    2.1406   -0.1832 O   0  5  0  0  0  0  0  0  0  0  0  0
    3.9661    0.6939   -1.3828 O   0  0  0  0  0  0  0  0  0  0  0  0
    0.8493   -0.1520    1.0448 C   0  0  0  0  0  0  0  0  0  0  0  0
    1.7948   -0.6413    1.6484 O   0  0  0  0  0  0  0  0  0  0  0  0
   -0.1397    0.4715    1.7897 N   0  0  0  0  0  0  0  0  0  0  0  0
   -0.8337    0.9707    1.2490 H   0  0  0  0  0  0  0  0  0  0  0  0
    0.0791    0.8787    3.1702 C   0  0  0  0  0  0  0  0  0  0  0  0
    0.9369    1.5564    3.2359 H   0  0  0  0  0  0  0  0  0  0  0  0
   -0.8042    1.3970    3.5542 H   0  0  0  0  0  0  0  0  0  0  0  0
    0.2683    0.0050    3.8023 H   0  0  0  0  0  0  0  0  0  0  0  0
  1  2  1  0  0  0  0
  2  3  1  0  0  0  0
  2  4  1  0  0  0  0
  2  5  1  0  0  0  0
  5  6  2  0  0  0  0
  5  7  1  0  0  0  0
  7  8  1  0  0  0  0
  7  9  1  0  0  0  0
  9 10  1  0  0  0  0
  9 11  1  0  0  0  0
  9 20  1  0  0  0  0
 11 12  1  0  0  0  0
 11 13  1  0  0  0  0
 11 14  1  0  0  0  0
 14 15  1  0  0  0  0
 14 16  1  0  0  0  0
 14 17  1  0  0  0  0
 17 18  1  0  0  0  0
 17 19  2  0  0  0  0
 20 21  2  0  0  0  0
 20 22  1  0  0  0  0
 22 23  1  0  0  0  0
 22 24  1  0  0  0  0
 24 25  1  0  0  0  0
 24 26  1  0  0  0  0
 24 27  1  0  0  0  0
M  CHG  1  18  -1
M  END
$$$$

  -OEChem-04042215583D

 27 26  0     1  0  0  0  0  0999 V2000
   -2.7451   -3.8318    0.3787 H   0  0  0  0  0  0  0  0  0  0  0  0
   -2.5817   -2.9015   -0.1729 C   0  0  0  0  0  0  0  0  0  0  0  0
   -3.3572   -2.1849    0.1081 H   0  0  0  0  0  0  0  0  0  0  0  0
   -2.6573   -3.1105   -1.2428 H   0  0  0  0  0  0  0  0  0  0  0  0
   -1.2102   -2.3341    0.1496 C   0  0  0  0  0  0  0  0  0  0  0  0
   -0.5127   -2.9035    0.9677 O   0  0  0  0  0  0  0  0  0  0  0  0
   -0.7989   -1.1877   -0.5012 N   0  0  0  0  0  0  0  0  0  0  0  0
   -1.4054   -0.8547   -1.2419 H   0  0  0  0  0  0  0  0  0  0  0  0
    0.5360   -0.5593   -0.3890 C   0  0  1  0  0  0  0  0  0  0  0  0
    1.3176   -1.2480   -0.7326 H   0  0  0  0  0  0  0  0  0  0  0  0
    0.4252    0.6643   -1.3436 C   0  0  0  0  0  0  0  0  0  0  0  0
   -0.2960    0.4517   -2.1396 H   0  0  0  0  0  0  0  0  0  0  0  0
    0.0222    1.5045   -0.7689 H   0  0  0  0  0  0  0  0  0  0  0  0
    1.7032    1.1552   -2.0511 C   0  0  0  0  0  0  0  0  0  0  0  0
    1.7810    0.6299   -3.0081 H   0  0  0  0  0  0  0  0  0  0  0  0
    1.5917    2.2188   -2.2822 H   0  0  0  0  0  0  0  0  0  0  0  0
    3.0233    0.9469   -1.3161 C   0  0  0  0  0  0  0  0  0  0  0  0
    3.4310    1.8890   -0.5944 O   0  5  0  0  0  0  0  0  0  0  0  0
    3.6580   -0.1072   -1.5645 O   0  0  0  0  0  0  0  0  0  0  0  0
    0.8682   -0.1354    1.0667 C   0  0  0  0  0  0  0  0  0  0  0  0
    1.8703   -0.5292    1.6451 O   0  0  0  0  0  0  0  0  0  0  0  0
   -0.0955    0.5221    1.8148 N   0  0  0  0  0  0  0  0  0  0  0  0
   -0.9447    0.7863    1.3330 H   0  0  0  0  0  0  0  0  0  0  0  0
    0.0744    0.8705    3.2173 C   0  0  0  0  0  0  0  0  0  0  0  0
    0.9435    1.5241    3.3450 H   0  0  0  0  0  0  0  0  0  0  0  0
   -0.8120    1.3955    3.5844 H   0  0  0  0  0  0  0  0  0  0  0  0
    0.2178   -0.0322    3.8200 H   0  0  0  0  0  0  0  0  0  0  0  0
  1  2  1  0  0  0  0
  2  3  1  0  0  0  0
  2  4  1  0  0  0  0
  2  5  1  0  0  0  0
  5  6  2  0  0  0  0
  5  7  1  0  0  0  0
  7  8  1  0  0  0  0
  7  9  1  0  0  0  0
  9 10  1  0  0  0  0
  9 11  1  0  0  0  0
  9 20  1  0  0  0  0
 11 12  1  0  0  0  0
 11 13  1  0  0  0  0
 11 14  1  0  0  0  0
 14 15  1  0  0  0  0
 14 16  1  0  0  0  0
 14 17  1  0  0  0  0
 17 18  1  0  0  0  0
 17 19  2  0  0  0  0
 20 21  2  0  0  0  0
 20 22  1  0  0  0  0
 22 23  1  0  0  0  0
 22 24  1  0  0  0  0
 24 25  1  0  0  0  0
 24 26  1  0  0  0  0
 24 27  1  0  0  0  0
M  CHG  1  18  -1
M  END
$$$$

  -OEChem-04042215583D

 27 26  0     1  0  0  0  0  0999 V2000
   -2.7878   -3.7960    0.4824 H   0  0  0  0  0  0  0  0  0  0  0  0
   -2.6063   -2.9038   -0.1240 C   0  0  0  0  0  0  0  0  0  0  0  0
   -3.4266   -2.1990    0.0313 H   0  0  0  0  0  0  0  0  0  0  0  0
   -2.5793   -3.1954   -1.1768 H   0  0  0  0  0  0  0  0  0  0  0  0
   -1.2882   -2.2606    0.2702 C   0  0  0  0  0  0  0  0  0  0  0  0
   -0.6705   -2.7092    1.2177 O   0  0  0  0  0  0  0  0  0  0  0  0
   -0.8498   -1.1619   -0.4425 N   0  0  0  0  0  0  0  0  0  0  0  0
   -1.3804   -0.9511   -1.2805 H   0  0  0  0  0  0  0  0  0  0  0  0
    0.5054   -0.5726   -0.3610 C   0  0  1  0  0  0  0  0  0  0  0  0
    1.2530   -1.3126   -0.6677 H   0  0  0  0  0  0  0  0  0  0  0  0
    0.4485    0.6204   -1.3589 C   0  0  0  0  0  0  0  0  0  0  0  0
   -0.2793    0.3970   -2.1457 H   0  0  0  0  0  0  0  0  0  0  0  0
    0.0654    1.4940   -0.8218 H   0  0  0  0  0  0  0  0  0  0  0  0
    1.7381    1.0522   -2.0944 C   0  0  0  0  0  0  0  0  0  0  0  0
    1.6586    0.7172   -3.1329 H   0  0  0  0  0  0  0  0  0  0  0  0
    1.7703    2.1457   -2.1189 H   0  0  0  0  0  0  0  0  0  0  0  0
    3.0777    0.5362   -1.5704 C   0  0  0  0  0  0  0  0  0  0  0  0
    3.3697   -0.6550   -1.8440 O   0  5  0  0  0  0  0  0  0  0  0  0
    3.8564    1.3698   -1.0478 O   0  0  0  0  0  0  0  0  0  0  0  0
    0.8603   -0.0848    1.0682 C   0  0  0  0  0  0  0  0  0  0  0  0
    1.9023   -0.3941    1.6268 O   0  0  0  0  0  0  0  0  0  0  0  0
   -0.0773    0.6410    1.7846 N   0  0  0  0  0  0  0  0  0  0  0  0
   -0.9913    0.7236    1.3585 H   0  0  0  0  0  0  0  0  0  0  0  0
    0.0848    0.9815    3.1901 C   0  0  0  0  0  0  0  0  0  0  0  0
    1.0040    1.5574    3.3403 H   0  0  0  0  0  0  0  0  0  0  0  0
   -0.7605    1.5866    3.5304 H   0  0  0  0  0  0  0  0  0  0  0  0
    0.1320    0.0731    3.7995 H   0  0  0  0  0  0  0  0  0  0  0  0
  1  2  1  0  0  0  0
  2  3  1  0  0  0  0
  2  4  1  0  0  0  0
  2  5  1  0  0  0  0
  5  6  2  0  0  0  0
  5  7  1  0  0  0  0
  7  8  1  0  0  0  0
  7  9  1  0  0  0  0
  9 10  1  0  0  0  0
  9 11  1  0  0  0  0
  9 20  1  0  0  0  0
 11 12  1  0  0  0  0
 11 13  1  0  0  0  0
 11 14  1  0  0  0  0
 14 15  1  0  0  0  0
 14 16  1  0  0  0  0
 14 17  1  0  0  0  0
 17 18  1  0  0  0  0
 17 19  2  0  0  0  0
 20 21  2  0  0  0  0
 20 22  1  0  0  0  0
 22 23  1  0  0  0  0
 22 24  1  0  0  0  0
 24 25  1  0  0  0  0
 24 26  1  0  0  0  0
 24 27  1  0  0  0  0
M  CHG  1  18  -1
M  END
$$$$

  -OEChem-04042215583D

 27 26  0     1  0  0  0  0  0999 V2000
   -2.7790   -3.8298    0.4671 H   0  0  0  0  0  0  0  0  0  0  0  0
   -2.5942   -2.9522   -0.1591 C   0  0  0  0  0  0  0  0  0  0  0  0
   -3.4446   -2.2714   -0.0728 H   0  0  0  0  0  0  0  0  0  0  0  0
   -2.5001   -3.2777   -1.1982 H   0  0  0  0  0  0  0  0  0  0  0  0
   -1.3209   -2.2516    0.2816 C   0  0  0  0  0  0  0  0  0  0  0  0
   -0.7415   -2.6447    1.2774 O   0  0  0  0  0  0  0  0  0  0  0  0
   -0.8860   -1.1552   -0.4364 N   0  0  0  0  0  0  0  0  0  0  0  0
   -1.3796   -0.9974   -1.3085 H   0  0  0  0  0  0  0  0  0  0  0  0
    0.4738   -0.5775   -0.3568 C   0  0  1  0  0  0  0  0  0  0  0  0
    1.2049   -1.3331   -0.6607 H   0  0  0  0  0  0  0  0  0  0  0  0
    0.4409    0.6282   -1.3404 C   0  0  0  0  0  0  0  0  0  0  0  0
   -0.2746    0.3971   -2.1363 H   0  0  0  0  0  0  0  0  0  0  0  0
    0.0438    1.5020   -0.8140 H   0  0  0  0  0  0  0  0  0  0  0  0
    1.7359    1.0571   -2.0747 C   0  0  0  0  0  0  0  0  0  0  0  0
    1.5478    1.0181   -3.1516 H   0  0  0  0  0  0  0  0  0  0  0  0
    1.9276    2.1053   -1.8252 H   0  0  0  0  0  0  0  0  0  0  0  0
    3.0217    0.2709   -1.8117 C   0  0  0  0  0  0  0  0  0  0  0  0
    3.0405   -0.9209   -2.2124 O   0  5  0  0  0  0  0  0  0  0  0  0
    4.0197    0.9027   -1.3887 O   0  0  0  0  0  0  0  0  0  0  0  0
    0.8467   -0.0908    1.0668 C   0  0  0  0  0  0  0  0  0  0  0  0
    1.9268   -0.3401    1.5818 O   0  0  0  0  0  0  0  0  0  0  0  0
   -0.0760    0.6449    1.7918 N   0  0  0  0  0  0  0  0  0  0  0  0
   -1.0119    0.6718    1.4063 H   0  0  0  0  0  0  0  0  0  0  0  0
    0.1266    1.0178    3.1838 C   0  0  0  0  0  0  0  0  0  0  0  0
    1.0448    1.6041    3.2931 H   0  0  0  0  0  0  0  0  0  0  0  0
   -0.7128    1.6237    3.5367 H   0  0  0  0  0  0  0  0  0  0  0  0
    0.2005    0.1234    3.8107 H   0  0  0  0  0  0  0  0  0  0  0  0
  1  2  1  0  0  0  0
  2  3  1  0  0  0  0
  2  4  1  0  0  0  0
  2  5  1  0  0  0  0
  5  6  2  0  0  0  0
  5  7  1  0  0  0  0
  7  8  1  0  0  0  0
  7  9  1  0  0  0  0
  9 10  1  0  0  0  0
  9 11  1  0  0  0  0
  9 20  1  0  0  0  0
 11 12  1  0  0  0  0
 11 13  1  0  0  0  0
 11 14  1  0  0  0  0
 14 15  1  0  0  0  0
 14 16  1  0  0  0  0
 14 17  1  0  0  0  0
 17 18  1  0  0  0  0
 17 19  2  0  0  0  0
 20 21  2  0  0  0  0
 20 22  1  0  0  0  0
 22 23  1  0  0  0  0
 22 24  1  0  0  0  0
 24 25  1  0  0  0  0
 24 26  1  0  0  0  0
 24 27  1  0  0  0  0
M  CHG  1  18  -1
M  END
$$$$

  -OEChem-04042215583D

 27 26  0     1  0  0  0  0  0999 V2000
   -2.7915   -3.8202    0.4922 H   0  0  0  0  0  0  0  0  0  0  0  0
   -2.5819   -2.9793   -0.1751 C   0  0  0  0  0  0  0  0  0  0  0  0
   -3.4389   -2.3016   -0.1682 H   0  0  0  0  0  0  0  0  0  0  0  0
   -2.4375   -3.3633   -1.1882 H   0  0  0  0  0  0  0  0  0  0  0  0
   -1.3336   -2.2448    0.2817 C   0  0  0  0  0  0  0  0  0  0  0  0
   -0.7658   -2.6101    1.2953 O   0  0  0  0  0  0  0  0  0  0  0  0
   -0.9122   -1.1431   -0.4362 N   0  0  0  0  0  0  0  0  0  0  0  0
   -1.3919   -1.0129   -1.3208 H   0  0  0  0  0  0  0  0  0  0  0  0
    0.4501   -0.5709   -0.3688 C   0  0  1  0  0  0  0  0  0  0  0  0
    1.1712   -1.3316   -0.6818 H   0  0  0  0  0  0  0  0  0  0  0  0
    0.4256    0.6521   -1.3308 C   0  0  0  0  0  0  0  0  0  0  0  0
   -0.2821    0.4192   -2.1332 H   0  0  0  0  0  0  0  0  0  0  0  0
    0.0236    1.5251   -0.8068 H   0  0  0  0  0  0  0  0  0  0  0  0
    1.7250    1.0701   -2.0634 C   0  0  0  0  0  0  0  0  0  0  0  0
    1.4766    1.3380   -3.0943 H   0  0  0  0  0  0  0  0  0  0  0  0
    2.0967    1.9771   -1.5765 H   0  0  0  0  0  0  0  0  0  0  0  0
    2.8812    0.0672   -2.0979 C   0  0  0  0  0  0  0  0  0  0  0  0
    2.6285   -1.0563   -2.6053 O   0  5  0  0  0  0  0  0  0  0  0  0
    4.0276    0.4716   -1.7893 O   0  0  0  0  0  0  0  0  0  0  0  0
    0.8478   -0.0963    1.0514 C   0  0  0  0  0  0  0  0  0  0  0  0
    1.9588   -0.2993    1.5199 O   0  0  0  0  0  0  0  0  0  0  0  0
   -0.0603    0.6370    1.7966 N   0  0  0  0  0  0  0  0  0  0  0  0
   -1.0117    0.6257    1.4496 H   0  0  0  0  0  0  0  0  0  0  0  0
    0.1806    1.0256    3.1781 C   0  0  0  0  0  0  0  0  0  0  0  0
    1.0901    1.6306    3.2524 H   0  0  0  0  0  0  0  0  0  0  0  0
   -0.6585    1.6185    3.5534 H   0  0  0  0  0  0  0  0  0  0  0  0
    0.2925    0.1384    3.8099 H   0  0  0  0  0  0  0  0  0  0  0  0
  1  2  1  0  0  0  0
  2  3  1  0  0  0  0
  2  4  1  0  0  0  0
  2  5  1  0  0  0  0
  5  6  2  0  0  0  0
  5  7  1  0  0  0  0
  7  8  1  0  0  0  0
  7  9  1  0  0  0  0
  9 10  1  0  0  0  0
  9 11  1  0  0  0  0
  9 20  1  0  0  0  0
 11 12  1  0  0  0  0
 11 13  1  0  0  0  0
 11 14  1  0  0  0  0
 14 15  1  0  0  0  0
 14 16  1  0  0  0  0
 14 17  1  0  0  0  0
 17 18  1  0  0  0  0
 17 19  2  0  0  0  0
 20 21  2  0  0  0  0
 20 22  1  0  0  0  0
 22 23  1  0  0  0  0
 22 24  1  0  0  0  0
 24 25  1  0  0  0  0
 24 26  1  0  0  0  0
 24 27  1  0  0  0  0
M  CHG  1  18  -1
M  END
$$$$

  -OEChem-04042215583D

 27 26  0     1  0  0  0  0  0999 V2000
   -2.0351   -3.9110   -0.3922 H   0  0  0  0  0  0  0  0  0  0  0  0
   -2.2490   -2.8765   -0.6758 C   0  0  0  0  0  0  0  0  0  0  0  0
   -3.2883   -2.6487   -0.4275 H   0  0  0  0  0  0  0  0  0  0  0  0
   -2.1067   -2.7742   -1.7546 H   0  0  0  0  0  0  0  0  0  0  0  0
   -1.3160   -1.9303    0.0588 C   0  0  0  0  0  0  0  0  0  0  0  0
   -0.6207   -2.3507    0.9663 O   0  0  0  0  0  0  0  0  0  0  0  0
   -1.4621   -0.5668   -0.1017 N   0  0  0  0  0  0  0  0  0  0  0  0
   -2.2265   -0.3371   -0.7269 H   0  0  0  0  0  0  0  0  0  0  0  0
   -0.3009    0.3455   -0.2444 C   0  0  1  0  0  0  0  0  0  0  0  0
   -0.6857    1.3664   -0.1692 H   0  0  0  0  0  0  0  0  0  0  0  0
    0.1229    0.2048   -1.7537 C   0  0  0  0  0  0  0  0  0  0  0  0
   -0.1378   -0.8156   -2.0508 H   0  0  0  0  0  0  0  0  0  0  0  0
   -0.5291    0.8686   -2.3296 H   0  0  0  0  0  0  0  0  0  0  0  0
    1.5476    0.3545   -2.3487 C   0  0  0  0  0  0  0  0  0  0  0  0
    1.5911   -0.2172   -3.2802 H   0  0  0  0  0  0  0  0  0  0  0  0
    1.6633    1.4099   -2.6136 H   0  0  0  0  0  0  0  0  0  0  0  0
    2.7767   -0.0182   -1.5199 C   0  0  0  0  0  0  0  0  0  0  0  0
    2.7530   -1.1640   -0.9996 O   0  5  0  0  0  0  0  0  0  0  0  0
    3.8120    0.6804   -1.6740 O   0  0  0  0  0  0  0  0  0  0  0  0
    0.6942    0.3496    0.9444 C   0  0  0  0  0  0  0  0  0  0  0  0
    1.6750    1.0751    0.8751 O   0  0  0  0  0  0  0  0  0  0  0  0
    0.1096    0.3811    2.2012 N   0  0  0  0  0  0  0  0  0  0  0  0
   -0.6174   -0.3249    2.2858 H   0  0  0  0  0  0  0  0  0  0  0  0
    0.8700    0.6821    3.4090 C   0  0  0  0  0  0  0  0  0  0  0  0
    1.2071    1.7238    3.4026 H   0  0  0  0  0  0  0  0  0  0  0  0
    0.2442    0.5294    4.2930 H   0  0  0  0  0  0  0  0  0  0  0  0
    1.7445    0.0274    3.4838 H   0  0  0  0  0  0  0  0  0  0  0  0
  1  2  1  0  0  0  0
  2  3  1  0  0  0  0
  2  4  1  0  0  0  0
  2  5  1  0  0  0  0
  5  6  2  0  0  0  0
  5  7  1  0  0  0  0
  7  8  1  0  0  0  0
  7  9  1  0  0  0  0
  9 10  1  0  0  0  0
  9 11  1  0  0  0  0
  9 20  1  0  0  0  0
 11 12  1  0  0  0  0
 11 13  1  0  0  0  0
 11 14  1  0  0  0  0
 14 15  1  0  0  0  0
 14 16  1  0  0  0  0
 14 17  1  0  0  0  0
 17 18  1  0  0  0  0
 17 19  2  0  0  0  0
 20 21  2  0  0  0  0
 20 22  1  0  0  0  0
 22 23  1  0  0  0  0
 22 24  1  0  0  0  0
 24 25  1  0  0  0  0
 24 26  1  0  0  0  0
 24 27  1  0  0  0  0
M  CHG  1  18  -1
M  END
$$$$

  -OEChem-04042215583D

 27 26  0     1  0  0  0  0  0999 V2000
   -2.6965   -3.8843    0.4293 H   0  0  0  0  0  0  0  0  0  0  0  0
   -2.5188   -3.0299   -0.2299 C   0  0  0  0  0  0  0  0  0  0  0  0
   -3.4071   -2.3935   -0.2307 H   0  0  0  0  0  0  0  0  0  0  0  0
   -2.3432   -3.3999   -1.2434 H   0  0  0  0  0  0  0  0  0  0  0  0
   -1.3133   -2.2394    0.2472 C   0  0  0  0  0  0  0  0  0  0  0  0
   -0.7466   -2.5756    1.2725 O   0  0  0  0  0  0  0  0  0  0  0  0
   -0.9338   -1.1147   -0.4573 N   0  0  0  0  0  0  0  0  0  0  0  0
   -1.3945   -1.0198   -1.3577 H   0  0  0  0  0  0  0  0  0  0  0  0
    0.4187   -0.5245   -0.4002 C   0  0  1  0  0  0  0  0  0  0  0  0
    1.1448   -1.2693   -0.7421 H   0  0  0  0  0  0  0  0  0  0  0  0
    0.3781    0.7134   -1.3371 C   0  0  0  0  0  0  0  0  0  0  0  0
   -0.3342    0.5104   -2.1439 H   0  0  0  0  0  0  0  0  0  0  0  0
    0.0012    1.5851   -0.7931 H   0  0  0  0  0  0  0  0  0  0  0  0
    1.7045    1.0861   -2.0324 C   0  0  0  0  0  0  0  0  0  0  0  0
    1.5011    1.8168   -2.8200 H   0  0  0  0  0  0  0  0  0  0  0  0
    2.3569    1.5625   -1.2944 H   0  0  0  0  0  0  0  0  0  0  0  0
    2.4624   -0.0975   -2.6458 C   0  0  0  0  0  0  0  0  0  0  0  0
    1.7701   -1.0106   -3.1697 O   0  5  0  0  0  0  0  0  0  0  0  0
    3.7142   -0.0380   -2.6900 O   0  0  0  0  0  0  0  0  0  0  0  0
    0.8511   -0.0714    1.0154 C   0  0  0  0  0  0  0  0  0  0  0  0
    1.9994   -0.2127    1.4156 O   0  0  0  0  0  0  0  0  0  0  0  0
   -0.0426    0.6354    1.8016 N   0  0  0  0  0  0  0  0  0  0  0  0
   -1.0097    0.5817    1.5035 H   0  0  0  0  0  0  0  0  0  0  0  0
    0.2499    1.0280    3.1718 C   0  0  0  0  0  0  0  0  0  0  0  0
    1.1384    1.6668    3.2052 H   0  0  0  0  0  0  0  0  0  0  0  0
   -0.5919    1.5870    3.5903 H   0  0  0  0  0  0  0  0  0  0  0  0
    0.4256    0.1435    3.7926 H   0  0  0  0  0  0  0  0  0  0  0  0
  1  2  1  0  0  0  0
  2  3  1  0  0  0  0
  2  4  1  0  0  0  0
  2  5  1  0  0  0  0
  5  6  2  0  0  0  0
  5  7  1  0  0  0  0
  7  8  1  0  0  0  0
  7  9  1  0  0  0  0
  9 10  1  0  0  0  0
  9 11  1  0  0  0  0
  9 20  1  0  0  0  0
 11 12  1  0  0  0  0
 11 13  1  0  0  0  0
 11 14  1  0  0  0  0
 14 15  1  0  0  0  0
 14 16  1  0  0  0  0
 14 17  1  0  0  0  0
 17 18  1  0  0  0  0
 17 19  2  0  0  0  0
 20 21  2  0  0  0  0
 20 22  1  0  0  0  0
 22 23  1  0  0  0  0
 22 24  1  0  0  0  0
 24 25  1  0  0  0  0
 24 26  1  0  0  0  0
 24 27  1  0  0  0  0
M  CHG  1  18  -1
M  END
$$$$

  -OEChem-04042215583D

 27 26  0     1  0  0  0  0  0999 V2000
   -2.6470   -3.9155    0.3685 H   0  0  0  0  0  0  0  0  0  0  0  0
   -2.4952   -3.0407   -0.2700 C   0  0  0  0  0  0  0  0  0  0  0  0
   -3.3993   -2.4273   -0.2507 H   0  0  0  0  0  0  0  0  0  0  0  0
   -2.3159   -3.3807   -1.2933 H   0  0  0  0  0  0  0  0  0  0  0  0
   -1.3073   -2.2318    0.2209 C   0  0  0  0  0  0  0  0  0  0  0  0
   -0.7374   -2.5677    1.2449 O   0  0  0  0  0  0  0  0  0  0  0  0
   -0.9438   -1.0942   -0.4706 N   0  0  0  0  0  0  0  0  0  0  0  0
   -1.3989   -1.0025   -1.3748 H   0  0  0  0  0  0  0  0  0  0  0  0
    0.4038   -0.4954   -0.4120 C   0  0  1  0  0  0  0  0  0  0  0  0
    1.1336   -1.2281   -0.7735 H   0  0  0  0  0  0  0  0  0  0  0  0
    0.3552    0.7416   -1.3441 C   0  0  0  0  0  0  0  0  0  0  0  0
   -0.3691    0.5680   -2.1473 H   0  0  0  0  0  0  0  0  0  0  0  0
    0.0043    1.6144   -0.7846 H   0  0  0  0  0  0  0  0  0  0  0  0
    1.7032    1.0782   -2.0103 C   0  0  0  0  0  0  0  0  0  0  0  0
    1.5777    1.9701   -2.6300 H   0  0  0  0  0  0  0  0  0  0  0  0
    2.4378    1.3089   -1.2328 H   0  0  0  0  0  0  0  0  0  0  0  0
    2.2544   -0.0507   -2.8950 C   0  0  0  0  0  0  0  0  0  0  0  0
    1.4449   -0.9170   -3.3231 O   0  5  0  0  0  0  0  0  0  0  0  0
    3.4679    0.0026   -3.2073 O   0  0  0  0  0  0  0  0  0  0  0  0
    0.8492   -0.0566    1.0034 C   0  0  0  0  0  0  0  0  0  0  0  0
    2.0064   -0.1886    1.3823 O   0  0  0  0  0  0  0  0  0  0  0  0
   -0.0393    0.6351    1.8082 N   0  0  0  0  0  0  0  0  0  0  0  0
   -1.0101    0.5745    1.5230 H   0  0  0  0  0  0  0  0  0  0  0  0
    0.2689    1.0201    3.1770 C   0  0  0  0  0  0  0  0  0  0  0  0
    1.1525    1.6660    3.2034 H   0  0  0  0  0  0  0  0  0  0  0  0
   -0.5716    1.5691    3.6112 H   0  0  0  0  0  0  0  0  0  0  0  0
    0.4603    0.1326    3.7886 H   0  0  0  0  0  0  0  0  0  0  0  0
  1  2  1  0  0  0  0
  2  3  1  0  0  0  0
  2  4  1  0  0  0  0
  2  5  1  0  0  0  0
  5  6  2  0  0  0  0
  5  7  1  0  0  0  0
  7  8  1  0  0  0  0
  7  9  1  0  0  0  0
  9 10  1  0  0  0  0
  9 11  1  0  0  0  0
  9 20  1  0  0  0  0
 11 12  1  0  0  0  0
 11 13  1  0  0  0  0
 11 14  1  0  0  0  0
 14 15  1  0  0  0  0
 14 16  1  0  0  0  0
 14 17  1  0  0  0  0
 17 18  1  0  0  0  0
 17 19  2  0  0  0  0
 20 21  2  0  0  0  0
 20 22  1  0  0  0  0
 22 23  1  0  0  0  0
 22 24  1  0  0  0  0
 24 25  1  0  0  0  0
 24 26  1  0  0  0  0
 24 27  1  0  0  0  0
M  CHG  1  18  -1
M  END
$$$$

  -OEChem-04042215583D

 27 26  0     1  0  0  0  0  0999 V2000
   -2.6492   -3.9089    0.3338 H   0  0  0  0  0  0  0  0  0  0  0  0
   -2.4985   -3.0285   -0.2972 C   0  0  0  0  0  0  0  0  0  0  0  0
   -3.4031   -2.4161   -0.2718 H   0  0  0  0  0  0  0  0  0  0  0  0
   -2.3191   -3.3592   -1.3236 H   0  0  0  0  0  0  0  0  0  0  0  0
   -1.3112   -2.2227    0.1996 C   0  0  0  0  0  0  0  0  0  0  0  0
   -0.7386   -2.5674    1.2194 O   0  0  0  0  0  0  0  0  0  0  0  0
   -0.9508   -1.0782   -0.4816 N   0  0  0  0  0  0  0  0  0  0  0  0
   -1.4029   -0.9830   -1.3873 H   0  0  0  0  0  0  0  0  0  0  0  0
    0.3957   -0.4791   -0.4190 C   0  0  1  0  0  0  0  0  0  0  0  0
    1.1255   -1.2066   -0.7927 H   0  0  0  0  0  0  0  0  0  0  0  0
    0.3499    0.7555   -1.3504 C   0  0  0  0  0  0  0  0  0  0  0  0
   -0.3832    0.6076   -2.1511 H   0  0  0  0  0  0  0  0  0  0  0  0
    0.0205    1.6294   -0.7799 H   0  0  0  0  0  0  0  0  0  0  0  0
    1.7141    1.0639   -1.9945 C   0  0  0  0  0  0  0  0  0  0  0  0
    1.6813    2.0748   -2.4106 H   0  0  0  0  0  0  0  0  0  0  0  0
    2.4979    1.0408   -1.2317 H   0  0  0  0  0  0  0  0  0  0  0  0
    2.0832    0.0935   -3.1292 C   0  0  0  0  0  0  0  0  0  0  0  0
    1.3251   -0.8864   -3.3621 O   0  5  0  0  0  0  0  0  0  0  0  0
    3.1067    0.3722   -3.7991 O   0  0  0  0  0  0  0  0  0  0  0  0
    0.8459   -0.0527    0.9985 C   0  0  0  0  0  0  0  0  0  0  0  0
    2.0059   -0.1865    1.3697 O   0  0  0  0  0  0  0  0  0  0  0  0
   -0.0400    0.6312    1.8124 N   0  0  0  0  0  0  0  0  0  0  0  0
   -1.0119    0.5707    1.5308 H   0  0  0  0  0  0  0  0  0  0  0  0
    0.2731    1.0074    3.1825 C   0  0  0  0  0  0  0  0  0  0  0  0
    1.1571    1.6530    3.2096 H   0  0  0  0  0  0  0  0  0  0  0  0
   -0.5657    1.5539    3.6231 H   0  0  0  0  0  0  0  0  0  0  0  0
    0.4660    0.1158    3.7878 H   0  0  0  0  0  0  0  0  0  0  0  0
  1  2  1  0  0  0  0
  2  3  1  0  0  0  0
  2  4  1  0  0  0  0
  2  5  1  0  0  0  0
  5  6  2  0  0  0  0
  5  7  1  0  0  0  0
  7  8  1  0  0  0  0
  7  9  1  0  0  0  0
  9 10  1  0  0  0  0
  9 11  1  0  0  0  0
  9 20  1  0  0  0  0
 11 12  1  0  0  0  0
 11 13  1  0  0  0  0
 11 14  1  0  0  0  0
 14 15  1  0  0  0  0
 14 16  1  0  0  0  0
 14 17  1  0  0  0  0
 17 18  1  0  0  0  0
 17 19  2  0  0  0  0
 20 21  2  0  0  0  0
 20 22  1  0  0  0  0
 22 23  1  0  0  0  0
 22 24  1  0  0  0  0
 24 25  1  0  0  0  0
 24 26  1  0  0  0  0
 24 27  1  0  0  0  0
M  CHG  1  18  -1
M  END
$$$$

  -OEChem-04042215583D

 27 26  0     1  0  0  0  0  0999 V2000
   -2.6783   -3.8793    0.3112 H   0  0  0  0  0  0  0  0  0  0  0  0
   -2.5136   -3.0019   -0.3204 C   0  0  0  0  0  0  0  0  0  0  0  0
   -3.4107   -2.3784   -0.3007 H   0  0  0  0  0  0  0  0  0  0  0  0
   -2.3333   -3.3362   -1.3455 H   0  0  0  0  0  0  0  0  0  0  0  0
   -1.3189   -2.2098    0.1805 C   0  0  0  0  0  0  0  0  0  0  0  0
   -0.7433   -2.5695    1.1935 O   0  0  0  0  0  0  0  0  0  0  0  0
   -0.9500   -1.0635   -0.4929 N   0  0  0  0  0  0  0  0  0  0  0  0
   -1.4087   -0.9500   -1.3930 H   0  0  0  0  0  0  0  0  0  0  0  0
    0.3985   -0.4697   -0.4223 C   0  0  1  0  0  0  0  0  0  0  0  0
    1.1260   -1.1982   -0.7995 H   0  0  0  0  0  0  0  0  0  0  0  0
    0.3637    0.7614   -1.3550 C   0  0  0  0  0  0  0  0  0  0  0  0
   -0.3685    0.6228   -2.1583 H   0  0  0  0  0  0  0  0  0  0  0  0
    0.0412    1.6375   -0.7835 H   0  0  0  0  0  0  0  0  0  0  0  0
    1.7391    1.0508   -1.9816 C   0  0  0  0  0  0  0  0  0  0  0  0
    1.8196    2.1255   -2.1701 H   0  0  0  0  0  0  0  0  0  0  0  0
    2.5438    0.7730   -1.2948 H   0  0  0  0  0  0  0  0  0  0  0  0
    1.9158    0.3089   -3.3138 C   0  0  0  0  0  0  0  0  0  0  0  0
    1.4218   -0.8450   -3.4188 O   0  5  0  0  0  0  0  0  0  0  0  0
    2.5073    0.9163   -4.2393 O   0  0  0  0  0  0  0  0  0  0  0  0
    0.8480   -0.0507    0.9977 C   0  0  0  0  0  0  0  0  0  0  0  0
    2.0055   -0.1966    1.3729 O   0  0  0  0  0  0  0  0  0  0  0  0
   -0.0362    0.6336    1.8129 N   0  0  0  0  0  0  0  0  0  0  0  0
   -1.0068    0.5897    1.5235 H   0  0  0  0  0  0  0  0  0  0  0  0
    0.2719    0.9930    3.1886 C   0  0  0  0  0  0  0  0  0  0  0  0
    1.1545    1.6396    3.2268 H   0  0  0  0  0  0  0  0  0  0  0  0
   -0.5697    1.5322    3.6329 H   0  0  0  0  0  0  0  0  0  0  0  0
    0.4644    0.0943    3.7834 H   0  0  0  0  0  0  0  0  0  0  0  0
  1  2  1  0  0  0  0
  2  3  1  0  0  0  0
  2  4  1  0  0  0  0
  2  5  1  0  0  0  0
  5  6  2  0  0  0  0
  5  7  1  0  0  0  0
  7  8  1  0  0  0  0
  7  9  1  0  0  0  0
  9 10  1  0  0  0  0
  9 11  1  0  0  0  0
  9 20  1  0  0  0  0
 11 12  1  0  0  0  0
 11 13  1  0  0  0  0
 11 14  1  0  0  0  0
 14 15  1  0  0  0  0
 14 16  1  0  0  0  0
 14 17  1  0  0  0  0
 17 18  1  0  0  0  0
 17 19  2  0  0  0  0
 20 21  2  0  0  0  0
 20 22  1  0  0  0  0
 22 23  1  0  0  0  0
 22 24  1  0  0  0  0
 24 25  1  0  0  0  0
 24 26  1  0  0  0  0
 24 27  1  0  0  0  0
M  CHG  1  18  -1
M  END
$$$$

  -OEChem-04042215583D

 27 26  0     1  0  0  0  0  0999 V2000
   -2.6806   -3.8920    0.2705 H   0  0  0  0  0  0  0  0  0  0  0  0
   -2.5492   -2.9756   -0.3117 C   0  0  0  0  0  0  0  0  0  0  0  0
   -3.4368   -2.3496   -0.1921 H   0  0  0  0  0  0  0  0  0  0  0  0
   -2.4405   -3.2436   -1.3659 H   0  0  0  0  0  0  0  0  0  0  0  0
   -1.3166   -2.2249    0.1605 C   0  0  0  0  0  0  0  0  0  0  0  0
   -0.7069   -2.6261    1.1370 O   0  0  0  0  0  0  0  0  0  0  0  0
   -0.9396   -1.0762   -0.5039 N   0  0  0  0  0  0  0  0  0  0  0  0
   -1.4231   -0.9231   -1.3851 H   0  0  0  0  0  0  0  0  0  0  0  0
    0.4069   -0.4788   -0.4232 C   0  0  1  0  0  0  0  0  0  0  0  0
    1.1357   -1.2066   -0.7998 H   0  0  0  0  0  0  0  0  0  0  0  0
    0.3750    0.7478   -1.3588 C   0  0  0  0  0  0  0  0  0  0  0  0
   -0.3550    0.6012   -2.1630 H   0  0  0  0  0  0  0  0  0  0  0  0
    0.0425    1.6249   -0.7948 H   0  0  0  0  0  0  0  0  0  0  0  0
    1.7546    1.0427   -1.9756 C   0  0  0  0  0  0  0  0  0  0  0  0
    1.9468    2.1185   -1.9212 H   0  0  0  0  0  0  0  0  0  0  0  0
    2.5525    0.5392   -1.4222 H   0  0  0  0  0  0  0  0  0  0  0  0
    1.7897    0.6068   -3.4435 C   0  0  0  0  0  0  0  0  0  0  0  0
    1.4408   -0.5747   -3.7012 O   0  5  0  0  0  0  0  0  0  0  0  0
    2.1057    1.4626   -4.3058 O   0  0  0  0  0  0  0  0  0  0  0  0
    0.8517   -0.0607    0.9981 C   0  0  0  0  0  0  0  0  0  0  0  0
    2.0068   -0.2145    1.3774 O   0  0  0  0  0  0  0  0  0  0  0  0
   -0.0346    0.6211    1.8128 N   0  0  0  0  0  0  0  0  0  0  0  0
   -1.0017    0.6088    1.5093 H   0  0  0  0  0  0  0  0  0  0  0  0
    0.2729    1.0023    3.1828 C   0  0  0  0  0  0  0  0  0  0  0  0
    1.1579    1.6464    3.2120 H   0  0  0  0  0  0  0  0  0  0  0  0
   -0.5673    1.5517    3.6172 H   0  0  0  0  0  0  0  0  0  0  0  0
    0.4607    0.1130    3.7929 H   0  0  0  0  0  0  0  0  0  0  0  0
  1  2  1  0  0  0  0
  2  3  1  0  0  0  0
  2  4  1  0  0  0  0
  2  5  1  0  0  0  0
  5  6  2  0  0  0  0
  5  7  1  0  0  0  0
  7  8  1  0  0  0  0
  7  9  1  0  0  0  0
  9 10  1  0  0  0  0
  9 11  1  0  0  0  0
  9 20  1  0  0  0  0
 11 12  1  0  0  0  0
 11 13  1  0  0  0  0
 11 14  1  0  0  0  0
 14 15  1  0  0  0  0
 14 16  1  0  0  0  0
 14 17  1  0  0  0  0
 17 18  1  0  0  0  0
 17 19  2  0  0  0  0
 20 21  2  0  0  0  0
 20 22  1  0  0  0  0
 22 23  1  0  0  0  0
 22 24  1  0  0  0  0
 24 25  1  0  0  0  0
 24 26  1  0  0  0  0
 24 27  1  0  0  0  0
M  CHG  1  18  -1
M  END
$$$$

  -OEChem-04042215583D

 27 26  0     1  0  0  0  0  0999 V2000
   -2.7082   -3.8767    0.3034 H   0  0  0  0  0  0  0  0  0  0  0  0
   -2.5808   -2.9554   -0.2720 C   0  0  0  0  0  0  0  0  0  0  0  0
   -3.4466   -2.3107   -0.1028 H   0  0  0  0  0  0  0  0  0  0  0  0
   -2.5271   -3.2098   -1.3337 H   0  0  0  0  0  0  0  0  0  0  0  0
   -1.3103   -2.2410    0.1542 C   0  0  0  0  0  0  0  0  0  0  0  0
   -0.6596   -2.6786    1.0875 O   0  0  0  0  0  0  0  0  0  0  0  0
   -0.9337   -1.0909   -0.5087 N   0  0  0  0  0  0  0  0  0  0  0  0
   -1.4533   -0.8946   -1.3603 H   0  0  0  0  0  0  0  0  0  0  0  0
    0.4099   -0.4865   -0.4284 C   0  0  1  0  0  0  0  0  0  0  0  0
    1.1387   -1.2169   -0.7977 H   0  0  0  0  0  0  0  0  0  0  0  0
    0.3819    0.7363   -1.3685 C   0  0  0  0  0  0  0  0  0  0  0  0
   -0.3382    0.5612   -2.1760 H   0  0  0  0  0  0  0  0  0  0  0  0
    0.0280    1.6176   -0.8242 H   0  0  0  0  0  0  0  0  0  0  0  0
    1.7607    1.0434   -1.9864 C   0  0  0  0  0  0  0  0  0  0  0  0
    2.0770    2.0466   -1.6852 H   0  0  0  0  0  0  0  0  0  0  0  0
    2.5199    0.3432   -1.6262 H   0  0  0  0  0  0  0  0  0  0  0  0
    1.7010    0.9638   -3.5137 C   0  0  0  0  0  0  0  0  0  0  0  0
    1.3919   -0.1460   -4.0188 O   0  5  0  0  0  0  0  0  0  0  0  0
    1.8980    2.0171   -4.1679 O   0  0  0  0  0  0  0  0  0  0  0  0
    0.8528   -0.0648    0.9914 C   0  0  0  0  0  0  0  0  0  0  0  0
    2.0056   -0.2286    1.3732 O   0  0  0  0  0  0  0  0  0  0  0  0
   -0.0345    0.6136    1.8076 N   0  0  0  0  0  0  0  0  0  0  0  0
   -0.9979    0.6299    1.4928 H   0  0  0  0  0  0  0  0  0  0  0  0
    0.2725    0.9969    3.1770 C   0  0  0  0  0  0  0  0  0  0  0  0
    1.1502    1.6509    3.2037 H   0  0  0  0  0  0  0  0  0  0  0  0
   -0.5723    1.5363    3.6149 H   0  0  0  0  0  0  0  0  0  0  0  0
    0.4728    0.1089    3.7852 H   0  0  0  0  0  0  0  0  0  0  0  0
  1  2  1  0  0  0  0
  2  3  1  0  0  0  0
  2  4  1  0  0  0  0
  2  5  1  0  0  0  0
  5  6  2  0  0  0  0
  5  7  1  0  0  0  0
  7  8  1  0  0  0  0
  7  9  1  0  0  0  0
  9 10  1  0  0  0  0
  9 11  1  0  0  0  0
  9 20  1  0  0  0  0
 11 12  1  0  0  0  0
 11 13  1  0  0  0  0
 11 14  1  0  0  0  0
 14 15  1  0  0  0  0
 14 16  1  0  0  0  0
 14 17  1  0  0  0  0
 17 18  1  0  0  0  0
 17 19  2  0  0  0  0
 20 21  2  0  0  0  0
 20 22  1  0  0  0  0
 22 23  1  0  0  0  0
 22 24  1  0  0  0  0
 24 25  1  0  0  0  0
 24 26  1  0  0  0  0
 24 27  1  0  0  0  0
M  CHG  1  18  -1
M  END
$$$$

  -OEChem-04042215583D

 27 26  0     1  0  0  0  0  0999 V2000
   -2.7782   -3.8126    0.3873 H   0  0  0  0  0  0  0  0  0  0  0  0
   -2.6086   -2.9303   -0.2364 C   0  0  0  0  0  0  0  0  0  0  0  0
   -3.4363   -2.2319   -0.0909 H   0  0  0  0  0  0  0  0  0  0  0  0
   -2.5827   -3.2398   -1.2843 H   0  0  0  0  0  0  0  0  0  0  0  0
   -1.2961   -2.2655    0.1392 C   0  0  0  0  0  0  0  0  0  0  0  0
   -0.6106   -2.7454    1.0252 O   0  0  0  0  0  0  0  0  0  0  0  0
   -0.9165   -1.1136   -0.5183 N   0  0  0  0  0  0  0  0  0  0  0  0
   -1.4719   -0.8684   -1.3335 H   0  0  0  0  0  0  0  0  0  0  0  0
    0.4233   -0.5017   -0.4334 C   0  0  1  0  0  0  0  0  0  0  0  0
    1.1578   -1.2289   -0.7960 H   0  0  0  0  0  0  0  0  0  0  0  0
    0.3923    0.7221   -1.3725 C   0  0  0  0  0  0  0  0  0  0  0  0
   -0.3079    0.5142   -2.1897 H   0  0  0  0  0  0  0  0  0  0  0  0
    0.0091    1.6033   -0.8479 H   0  0  0  0  0  0  0  0  0  0  0  0
    1.7655    1.0478   -1.9904 C   0  0  0  0  0  0  0  0  0  0  0  0
    2.2086    1.9059   -1.4761 H   0  0  0  0  0  0  0  0  0  0  0  0
    2.4544    0.2066   -1.8727 H   0  0  0  0  0  0  0  0  0  0  0  0
    1.6287    1.3396   -3.4859 C   0  0  0  0  0  0  0  0  0  0  0  0
    1.3908    0.3639   -4.2423 O   0  5  0  0  0  0  0  0  0  0  0  0
    1.6810    2.5376   -3.8581 O   0  0  0  0  0  0  0  0  0  0  0  0
    0.8577   -0.0791    0.9883 C   0  0  0  0  0  0  0  0  0  0  0  0
    2.0061   -0.2524    1.3784 O   0  0  0  0  0  0  0  0  0  0  0  0
   -0.0346    0.5937    1.8037 N   0  0  0  0  0  0  0  0  0  0  0  0
   -0.9900    0.6498    1.4701 H   0  0  0  0  0  0  0  0  0  0  0  0
    0.2710    0.9990    3.1670 C   0  0  0  0  0  0  0  0  0  0  0  0
    1.1250    1.6839    3.1793 H   0  0  0  0  0  0  0  0  0  0  0  0
   -0.5888    1.5111    3.6085 H   0  0  0  0  0  0  0  0  0  0  0  0
    0.5083    0.1243    3.7811 H   0  0  0  0  0  0  0  0  0  0  0  0
  1  2  1  0  0  0  0
  2  3  1  0  0  0  0
  2  4  1  0  0  0  0
  2  5  1  0  0  0  0
  5  6  2  0  0  0  0
  5  7  1  0  0  0  0
  7  8  1  0  0  0  0
  7  9  1  0  0  0  0
  9 10  1  0  0  0  0
  9 11  1  0  0  0  0
  9 20  1  0  0  0  0
 11 12  1  0  0  0  0
 11 13  1  0  0  0  0
 11 14  1  0  0  0  0
 14 15  1  0  0  0  0
 14 16  1  0  0  0  0
 14 17  1  0  0  0  0
 17 18  1  0  0  0  0
 17 19  2  0  0  0  0
 20 21  2  0  0  0  0
 20 22  1  0  0  0  0
 22 23  1  0  0  0  0
 22 24  1  0  0  0  0
 24 25  1  0  0  0  0
 24 26  1  0  0  0  0
 24 27  1  0  0  0  0
M  CHG  1  18  -1
M  END
$$$$

  -OEChem-04042215583D

 27 26  0     1  0  0  0  0  0999 V2000
   -2.5900   -3.9595    0.3531 H   0  0  0  0  0  0  0  0  0  0  0  0
   -2.4709   -3.0557   -0.2513 C   0  0  0  0  0  0  0  0  0  0  0  0
   -3.3284   -2.4006   -0.0785 H   0  0  0  0  0  0  0  0  0  0  0  0
   -2.4455   -3.3394   -1.3065 H   0  0  0  0  0  0  0  0  0  0  0  0
   -1.1858   -2.3384    0.1230 C   0  0  0  0  0  0  0  0  0  0  0  0
   -0.4739   -2.7967    0.9994 O   0  0  0  0  0  0  0  0  0  0  0  0
   -0.8536   -1.1709   -0.5327 N   0  0  0  0  0  0  0  0  0  0  0  0
   -1.4283   -0.9318   -1.3361 H   0  0  0  0  0  0  0  0  0  0  0  0
    0.4475   -0.4836   -0.4242 C   0  0  1  0  0  0  0  0  0  0  0  0
    1.2304   -1.1703   -0.7626 H   0  0  0  0  0  0  0  0  0  0  0  0
    0.3686    0.7259   -1.3778 C   0  0  0  0  0  0  0  0  0  0  0  0
   -0.2910    0.4622   -2.2121 H   0  0  0  0  0  0  0  0  0  0  0  0
   -0.0812    1.5900   -0.8780 H   0  0  0  0  0  0  0  0  0  0  0  0
    1.7344    1.1205   -1.9660 C   0  0  0  0  0  0  0  0  0  0  0  0
    2.2393    1.8201   -1.2933 H   0  0  0  0  0  0  0  0  0  0  0  0
    2.3774    0.2417   -2.0686 H   0  0  0  0  0  0  0  0  0  0  0  0
    1.5678    1.7413   -3.3547 C   0  0  0  0  0  0  0  0  0  0  0  0
    1.7337    2.9804   -3.4680 O   0  5  0  0  0  0  0  0  0  0  0  0
    1.1972    0.9809   -4.2852 O   0  0  0  0  0  0  0  0  0  0  0  0
    0.8279   -0.0279    1.0024 C   0  0  0  0  0  0  0  0  0  0  0  0
    1.9726   -0.1503    1.4215 O   0  0  0  0  0  0  0  0  0  0  0  0
   -0.1154    0.5992    1.7963 N   0  0  0  0  0  0  0  0  0  0  0  0
   -1.0598    0.6365    1.4305 H   0  0  0  0  0  0  0  0  0  0  0  0
    0.1433    1.0378    3.1590 C   0  0  0  0  0  0  0  0  0  0  0  0
    0.9633    1.7628    3.1779 H   0  0  0  0  0  0  0  0  0  0  0  0
   -0.7485    1.5139    3.5767 H   0  0  0  0  0  0  0  0  0  0  0  0
    0.4098    0.1839    3.7901 H   0  0  0  0  0  0  0  0  0  0  0  0
  1  2  1  0  0  0  0
  2  3  1  0  0  0  0
  2  4  1  0  0  0  0
  2  5  1  0  0  0  0
  5  6  2  0  0  0  0
  5  7  1  0  0  0  0
  7  8  1  0  0  0  0
  7  9  1  0  0  0  0
  9 10  1  0  0  0  0
  9 11  1  0  0  0  0
  9 20  1  0  0  0  0
 11 12  1  0  0  0  0
 11 13  1  0  0  0  0
 11 14  1  0  0  0  0
 14 15  1  0  0  0  0
 14 16  1  0  0  0  0
 14 17  1  0  0  0  0
 17 18  1  0  0  0  0
 17 19  2  0  0  0  0
 20 21  2  0  0  0  0
 20 22  1  0  0  0  0
 22 23  1  0  0  0  0
 22 24  1  0  0  0  0
 24 25  1  0  0  0  0
 24 26  1  0  0  0  0
 24 27  1  0  0  0  0
M  CHG  1  18  -1
M  END
$$$$

  -OEChem-04042215583D

 27 26  0     1  0  0  0  0  0999 V2000
   -2.6060   -3.9551    0.3307 H   0  0  0  0  0  0  0  0  0  0  0  0
   -2.4902   -3.0382   -0.2540 C   0  0  0  0  0  0  0  0  0  0  0  0
   -3.3308   -2.3741   -0.0384 H   0  0  0  0  0  0  0  0  0  0  0  0
   -2.5011   -3.2953   -1.3161 H   0  0  0  0  0  0  0  0  0  0  0  0
   -1.1828   -2.3515    0.0988 C   0  0  0  0  0  0  0  0  0  0  0  0
   -0.4552   -2.8414    0.9447 O   0  0  0  0  0  0  0  0  0  0  0  0
   -0.8420   -1.1820   -0.5488 N   0  0  0  0  0  0  0  0  0  0  0  0
   -1.4390   -0.9026   -1.3222 H   0  0  0  0  0  0  0  0  0  0  0  0
    0.4577   -0.4954   -0.4251 C   0  0  1  0  0  0  0  0  0  0  0  0
    1.2467   -1.1781   -0.7579 H   0  0  0  0  0  0  0  0  0  0  0  0
    0.3866    0.7145   -1.3772 C   0  0  0  0  0  0  0  0  0  0  0  0
   -0.2598    0.4587   -2.2243 H   0  0  0  0  0  0  0  0  0  0  0  0
   -0.0646    1.5769   -0.8756 H   0  0  0  0  0  0  0  0  0  0  0  0
    1.7568    1.1065   -1.9468 C   0  0  0  0  0  0  0  0  0  0  0  0
    2.3593    1.5895   -1.1714 H   0  0  0  0  0  0  0  0  0  0  0  0
    2.2972    0.2171   -2.2837 H   0  0  0  0  0  0  0  0  0  0  0  0
    1.5819    2.0454   -3.1417 C   0  0  0  0  0  0  0  0  0  0  0  0
    1.8228    3.2657   -2.9717 O   0  5  0  0  0  0  0  0  0  0  0  0
    1.1266    1.5466   -4.2024 O   0  0  0  0  0  0  0  0  0  0  0  0
    0.8222   -0.0449    1.0071 C   0  0  0  0  0  0  0  0  0  0  0  0
    1.9572   -0.1892    1.4447 O   0  0  0  0  0  0  0  0  0  0  0  0
   -0.1285    0.5801    1.7939 N   0  0  0  0  0  0  0  0  0  0  0  0
   -1.0553    0.6780    1.3958 H   0  0  0  0  0  0  0  0  0  0  0  0
    0.1267    1.0516    3.1463 C   0  0  0  0  0  0  0  0  0  0  0  0
    0.9561    1.7665    3.1531 H   0  0  0  0  0  0  0  0  0  0  0  0
   -0.7620    1.5502    3.5441 H   0  0  0  0  0  0  0  0  0  0  0  0
    0.3774    0.2114    3.8016 H   0  0  0  0  0  0  0  0  0  0  0  0
  1  2  1  0  0  0  0
  2  3  1  0  0  0  0
  2  4  1  0  0  0  0
  2  5  1  0  0  0  0
  5  6  2  0  0  0  0
  5  7  1  0  0  0  0
  7  8  1  0  0  0  0
  7  9  1  0  0  0  0
  9 10  1  0  0  0  0
  9 11  1  0  0  0  0
  9 20  1  0  0  0  0
 11 12  1  0  0  0  0
 11 13  1  0  0  0  0
 11 14  1  0  0  0  0
 14 15  1  0  0  0  0
 14 16  1  0  0  0  0
 14 17  1  0  0  0  0
 17 18  1  0  0  0  0
 17 19  2  0  0  0  0
 20 21  2  0  0  0  0
 20 22  1  0  0  0  0
 22 23  1  0  0  0  0
 22 24  1  0  0  0  0
 24 25  1  0  0  0  0
 24 26  1  0  0  0  0
 24 27  1  0  0  0  0
M  CHG  1  18  -1
M  END
$$$$

  -OEChem-04042215583D

 27 26  0     1  0  0  0  0  0999 V2000
   -2.7516   -3.8480    0.4025 H   0  0  0  0  0  0  0  0  0  0  0  0
   -2.6126   -2.9399   -0.1909 C   0  0  0  0  0  0  0  0  0  0  0  0
   -3.4125   -2.2356    0.0507 H   0  0  0  0  0  0  0  0  0  0  0  0
   -2.6732   -3.1994   -1.2509 H   0  0  0  0  0  0  0  0  0  0  0  0
   -1.2619   -2.3156    0.1121 C   0  0  0  0  0  0  0  0  0  0  0  0
   -0.5151   -2.8531    0.9109 O   0  0  0  0  0  0  0  0  0  0  0  0
   -0.9031   -1.1487   -0.5303 N   0  0  0  0  0  0  0  0  0  0  0  0
   -1.5251   -0.8272   -1.2667 H   0  0  0  0  0  0  0  0  0  0  0  0
    0.4249   -0.5112   -0.4494 C   0  0  1  0  0  0  0  0  0  0  0  0
    1.1754   -1.2199   -0.8158 H   0  0  0  0  0  0  0  0  0  0  0  0
    0.3699    0.7135   -1.3885 C   0  0  0  0  0  0  0  0  0  0  0  0
   -0.4986    0.6463   -2.0530 H   0  0  0  0  0  0  0  0  0  0  0  0
    0.2546    1.6329   -0.8040 H   0  0  0  0  0  0  0  0  0  0  0  0
    1.6195    0.8271   -2.2691 C   0  0  0  0  0  0  0  0  0  0  0  0
    2.5119    0.9129   -1.6411 H   0  0  0  0  0  0  0  0  0  0  0  0
    1.7268   -0.0688   -2.8877 H   0  0  0  0  0  0  0  0  0  0  0  0
    1.5078    2.0531   -3.1763 C   0  0  0  0  0  0  0  0  0  0  0  0
    0.6836    1.9841   -4.1235 O   0  5  0  0  0  0  0  0  0  0  0  0
    2.1985    3.0640   -2.9010 O   0  0  0  0  0  0  0  0  0  0  0  0
    0.8586   -0.0995    0.9755 C   0  0  0  0  0  0  0  0  0  0  0  0
    2.0050   -0.2861    1.3644 O   0  0  0  0  0  0  0  0  0  0  0  0
   -0.0386    0.5444    1.8086 N   0  0  0  0  0  0  0  0  0  0  0  0
   -0.9702    0.6997    1.4413 H   0  0  0  0  0  0  0  0  0  0  0  0
    0.2948    1.0154    3.1439 C   0  0  0  0  0  0  0  0  0  0  0  0
    1.0979    1.7580    3.0972 H   0  0  0  0  0  0  0  0  0  0  0  0
   -0.5802    1.4796    3.6079 H   0  0  0  0  0  0  0  0  0  0  0  0
    0.6193    0.1806    3.7734 H   0  0  0  0  0  0  0  0  0  0  0  0
  1  2  1  0  0  0  0
  2  3  1  0  0  0  0
  2  4  1  0  0  0  0
  2  5  1  0  0  0  0
  5  6  2  0  0  0  0
  5  7  1  0  0  0  0
  7  8  1  0  0  0  0
  7  9  1  0  0  0  0
  9 10  1  0  0  0  0
  9 11  1  0  0  0  0
  9 20  1  0  0  0  0
 11 12  1  0  0  0  0
 11 13  1  0  0  0  0
 11 14  1  0  0  0  0
 14 15  1  0  0  0  0
 14 16  1  0  0  0  0
 14 17  1  0  0  0  0
 17 18  1  0  0  0  0
 17 19  2  0  0  0  0
 20 21  2  0  0  0  0
 20 22  1  0  0  0  0
 22 23  1  0  0  0  0
 22 24  1  0  0  0  0
 24 25  1  0  0  0  0
 24 26  1  0  0  0  0
 24 27  1  0  0  0  0
M  CHG  1  18  -1
M  END
$$$$

  -OEChem-04042215583D

 27 26  0     1  0  0  0  0  0999 V2000
   -2.7197   -3.8768    0.3963 H   0  0  0  0  0  0  0  0  0  0  0  0
   -2.5972   -2.9532   -0.1765 C   0  0  0  0  0  0  0  0  0  0  0  0
   -3.3835   -2.2521    0.1137 H   0  0  0  0  0  0  0  0  0  0  0  0
   -2.6984   -3.1831   -1.2401 H   0  0  0  0  0  0  0  0  0  0  0  0
   -1.2330   -2.3441    0.0949 C   0  0  0  0  0  0  0  0  0  0  0  0
   -0.4662   -2.9012    0.8605 O   0  0  0  0  0  0  0  0  0  0  0  0
   -0.8830   -1.1712   -0.5412 N   0  0  0  0  0  0  0  0  0  0  0  0
   -1.5312   -0.8180   -1.2389 H   0  0  0  0  0  0  0  0  0  0  0  0
    0.4349   -0.5147   -0.4490 C   0  0  1  0  0  0  0  0  0  0  0  0
    1.1993   -1.2105   -0.8117 H   0  0  0  0  0  0  0  0  0  0  0  0
    0.3658    0.7097   -1.3876 C   0  0  0  0  0  0  0  0  0  0  0  0
   -0.5004    0.6422   -2.0547 H   0  0  0  0  0  0  0  0  0  0  0  0
    0.2378    1.6196   -0.7905 H   0  0  0  0  0  0  0  0  0  0  0  0
    1.6183    0.8532   -2.2658 C   0  0  0  0  0  0  0  0  0  0  0  0
    2.5120    0.7026   -1.6520 H   0  0  0  0  0  0  0  0  0  0  0  0
    1.6110    0.0902   -3.0491 H   0  0  0  0  0  0  0  0  0  0  0  0
    1.6930    2.2432   -2.9071 C   0  0  0  0  0  0  0  0  0  0  0  0
    0.6263    2.7259   -3.3687 O   0  5  0  0  0  0  0  0  0  0  0  0
    2.8144    2.8024   -2.9711 O   0  0  0  0  0  0  0  0  0  0  0  0
    0.8481   -0.1003    0.9813 C   0  0  0  0  0  0  0  0  0  0  0  0
    1.9886   -0.2851    1.3871 O   0  0  0  0  0  0  0  0  0  0  0  0
   -0.0670    0.5285    1.8067 N   0  0  0  0  0  0  0  0  0  0  0  0
   -0.9833    0.7116    1.4143 H   0  0  0  0  0  0  0  0  0  0  0  0
    0.2528    1.0145    3.1402 C   0  0  0  0  0  0  0  0  0  0  0  0
    1.0506    1.7627    3.0931 H   0  0  0  0  0  0  0  0  0  0  0  0
   -0.6291    1.4758    3.5939 H   0  0  0  0  0  0  0  0  0  0  0  0
    0.5792    0.1879    3.7795 H   0  0  0  0  0  0  0  0  0  0  0  0
  1  2  1  0  0  0  0
  2  3  1  0  0  0  0
  2  4  1  0  0  0  0
  2  5  1  0  0  0  0
  5  6  2  0  0  0  0
  5  7  1  0  0  0  0
  7  8  1  0  0  0  0
  7  9  1  0  0  0  0
  9 10  1  0  0  0  0
  9 11  1  0  0  0  0
  9 20  1  0  0  0  0
 11 12  1  0  0  0  0
 11 13  1  0  0  0  0
 11 14  1  0  0  0  0
 14 15  1  0  0  0  0
 14 16  1  0  0  0  0
 14 17  1  0  0  0  0
 17 18  1  0  0  0  0
 17 19  2  0  0  0  0
 20 21  2  0  0  0  0
 20 22  1  0  0  0  0
 22 23  1  0  0  0  0
 22 24  1  0  0  0  0
 24 25  1  0  0  0  0
 24 26  1  0  0  0  0
 24 27  1  0  0  0  0
M  CHG  1  18  -1
M  END
$$$$

  -OEChem-04042215583D

 27 26  0     1  0  0  0  0  0999 V2000
   -2.7245   -3.8777    0.4008 H   0  0  0  0  0  0  0  0  0  0  0  0
   -2.6012   -2.9528   -0.1699 C   0  0  0  0  0  0  0  0  0  0  0  0
   -3.3739   -2.2440    0.1379 H   0  0  0  0  0  0  0  0  0  0  0  0
   -2.7238   -3.1760   -1.2327 H   0  0  0  0  0  0  0  0  0  0  0  0
   -1.2250   -2.3615    0.0799 C   0  0  0  0  0  0  0  0  0  0  0  0
   -0.4461   -2.9399    0.8166 O   0  0  0  0  0  0  0  0  0  0  0  0
   -0.8755   -1.1841   -0.5484 N   0  0  0  0  0  0  0  0  0  0  0  0
   -1.5430   -0.8002   -1.2101 H   0  0  0  0  0  0  0  0  0  0  0  0
    0.4398   -0.5238   -0.4473 C   0  0  1  0  0  0  0  0  0  0  0  0
    1.2061   -1.2185   -0.8084 H   0  0  0  0  0  0  0  0  0  0  0  0
    0.3670    0.7013   -1.3869 C   0  0  0  0  0  0  0  0  0  0  0  0
   -0.4994    0.6421   -2.0541 H   0  0  0  0  0  0  0  0  0  0  0  0
    0.2320    1.6015   -0.7767 H   0  0  0  0  0  0  0  0  0  0  0  0
    1.6192    0.8644   -2.2676 C   0  0  0  0  0  0  0  0  0  0  0  0
    2.4939    0.4776   -1.7353 H   0  0  0  0  0  0  0  0  0  0  0  0
    1.5025    0.2872   -3.1889 H   0  0  0  0  0  0  0  0  0  0  0  0
    1.8862    2.3347   -2.6089 C   0  0  0  0  0  0  0  0  0  0  0  0
    0.8950    3.0388   -2.9344 O   0  5  0  0  0  0  0  0  0  0  0  0
    3.0746    2.7370   -2.6006 O   0  0  0  0  0  0  0  0  0  0  0  0
    0.8463   -0.1152    0.9869 C   0  0  0  0  0  0  0  0  0  0  0  0
    1.9795   -0.3182    1.4034 O   0  0  0  0  0  0  0  0  0  0  0  0
   -0.0737    0.5071    1.8120 N   0  0  0  0  0  0  0  0  0  0  0  0
   -0.9685    0.7400    1.3974 H   0  0  0  0  0  0  0  0  0  0  0  0
    0.2539    1.0176    3.1346 C   0  0  0  0  0  0  0  0  0  0  0  0
    1.0346    1.7821    3.0659 H   0  0  0  0  0  0  0  0  0  0  0  0
   -0.6318    1.4655    3.5944 H   0  0  0  0  0  0  0  0  0  0  0  0
    0.6066    0.2072    3.7807 H   0  0  0  0  0  0  0  0  0  0  0  0
  1  2  1  0  0  0  0
  2  3  1  0  0  0  0
  2  4  1  0  0  0  0
  2  5  1  0  0  0  0
  5  6  2  0  0  0  0
  5  7  1  0  0  0  0
  7  8  1  0  0  0  0
  7  9  1  0  0  0  0
  9 10  1  0  0  0  0
  9 11  1  0  0  0  0
  9 20  1  0  0  0  0
 11 12  1  0  0  0  0
 11 13  1  0  0  0  0
 11 14  1  0  0  0  0
 14 15  1  0  0  0  0
 14 16  1  0  0  0  0
 14 17  1  0  0  0  0
 17 18  1  0  0  0  0
 17 19  2  0  0  0  0
 20 21  2  0  0  0  0
 20 22  1  0  0  0  0
 22 23  1  0  0  0  0
 22 24  1  0  0  0  0
 24 25  1  0  0  0  0
 24 26  1  0  0  0  0
 24 27  1  0  0  0  0
M  CHG  1  18  -1
M  END
$$$$

  -OEChem-04042215583D

 27 26  0     1  0  0  0  0  0999 V2000
   -2.7208   -3.8785    0.4078 H   0  0  0  0  0  0  0  0  0  0  0  0
   -2.5998   -2.9488   -0.1558 C   0  0  0  0  0  0  0  0  0  0  0  0
   -3.3610   -2.2368    0.1725 H   0  0  0  0  0  0  0  0  0  0  0  0
   -2.7427   -3.1607   -1.2183 H   0  0  0  0  0  0  0  0  0  0  0  0
   -1.2148   -2.3710    0.0759 C   0  0  0  0  0  0  0  0  0  0  0  0
   -0.4294   -2.9621    0.7952 O   0  0  0  0  0  0  0  0  0  0  0  0
   -0.8649   -1.1935   -0.5522 N   0  0  0  0  0  0  0  0  0  0  0  0
   -1.5430   -0.7949   -1.1936 H   0  0  0  0  0  0  0  0  0  0  0  0
    0.4491   -0.5303   -0.4462 C   0  0  1  0  0  0  0  0  0  0  0  0
    1.2173   -1.2249   -0.8020 H   0  0  0  0  0  0  0  0  0  0  0  0
    0.3719    0.6960   -1.3871 C   0  0  0  0  0  0  0  0  0  0  0  0
   -0.4925    0.6260   -2.0556 H   0  0  0  0  0  0  0  0  0  0  0  0
    0.2162    1.5908   -0.7740 H   0  0  0  0  0  0  0  0  0  0  0  0
    1.6202    0.8809   -2.2756 C   0  0  0  0  0  0  0  0  0  0  0  0
    2.4441    0.2711   -1.8929 H   0  0  0  0  0  0  0  0  0  0  0  0
    1.3997    0.5414   -3.2914 H   0  0  0  0  0  0  0  0  0  0  0  0
    2.0965    2.3375   -2.3205 C   0  0  0  0  0  0  0  0  0  0  0  0
    1.2193    3.2259   -2.4790 O   0  5  0  0  0  0  0  0  0  0  0  0
    3.3313    2.5550   -2.2738 O   0  0  0  0  0  0  0  0  0  0  0  0
    0.8473   -0.1197    0.9902 C   0  0  0  0  0  0  0  0  0  0  0  0
    1.9676   -0.3527    1.4249 O   0  0  0  0  0  0  0  0  0  0  0  0
   -0.0779    0.5018    1.8104 N   0  0  0  0  0  0  0  0  0  0  0  0
   -0.9543    0.7698    1.3787 H   0  0  0  0  0  0  0  0  0  0  0  0
    0.2433    1.0054    3.1373 C   0  0  0  0  0  0  0  0  0  0  0  0
    1.0283    1.7663    3.0774 H   0  0  0  0  0  0  0  0  0  0  0  0
   -0.6435    1.4556    3.5928 H   0  0  0  0  0  0  0  0  0  0  0  0
    0.5874    0.1905    3.7824 H   0  0  0  0  0  0  0  0  0  0  0  0
  1  2  1  0  0  0  0
  2  3  1  0  0  0  0
  2  4  1  0  0  0  0
  2  5  1  0  0  0  0
  5  6  2  0  0  0  0
  5  7  1  0  0  0  0
  7  8  1  0  0  0  0
  7  9  1  0  0  0  0
  9 10  1  0  0  0  0
  9 11  1  0  0  0  0
  9 20  1  0  0  0  0
 11 12  1  0  0  0  0
 11 13  1  0  0  0  0
 11 14  1  0  0  0  0
 14 15  1  0  0  0  0
 14 16  1  0  0  0  0
 14 17  1  0  0  0  0
 17 18  1  0  0  0  0
 17 19  2  0  0  0  0
 20 21  2  0  0  0  0
 20 22  1  0  0  0  0
 22 23  1  0  0  0  0
 22 24  1  0  0  0  0
 24 25  1  0  0  0  0
 24 26  1  0  0  0  0
 24 27  1  0  0  0  0
M  CHG  1  18  -1
M  END
$$$$

  -OEChem-04042215583D

 27 26  0     1  0  0  0  0  0999 V2000
   -2.7154   -3.8793    0.4199 H   0  0  0  0  0  0  0  0  0  0  0  0
   -2.5965   -2.9480   -0.1412 C   0  0  0  0  0  0  0  0  0  0  0  0
   -3.3472   -2.2321    0.2022 H   0  0  0  0  0  0  0  0  0  0  0  0
   -2.7575   -3.1539   -1.2022 H   0  0  0  0  0  0  0  0  0  0  0  0
   -1.2037   -2.3816    0.0719 C   0  0  0  0  0  0  0  0  0  0  0  0
   -0.4125   -2.9829    0.7760 O   0  0  0  0  0  0  0  0  0  0  0  0
   -0.8549   -1.2034   -0.5558 N   0  0  0  0  0  0  0  0  0  0  0  0
   -1.5435   -0.7908   -1.1764 H   0  0  0  0  0  0  0  0  0  0  0  0
    0.4573   -0.5360   -0.4450 C   0  0  1  0  0  0  0  0  0  0  0  0
    1.2292   -1.2293   -0.7952 H   0  0  0  0  0  0  0  0  0  0  0  0
    0.3772    0.6942   -1.3837 C   0  0  0  0  0  0  0  0  0  0  0  0
   -0.4777    0.5960   -2.0606 H   0  0  0  0  0  0  0  0  0  0  0  0
    0.1855    1.5885   -0.7813 H   0  0  0  0  0  0  0  0  0  0  0  0
    1.6223    0.8991   -2.2769 C   0  0  0  0  0  0  0  0  0  0  0  0
    2.3495    0.0998   -2.1090 H   0  0  0  0  0  0  0  0  0  0  0  0
    1.3187    0.8475   -3.3262 H   0  0  0  0  0  0  0  0  0  0  0  0
    2.3169    2.2468   -2.0473 C   0  0  0  0  0  0  0  0  0  0  0  0
    1.5896    3.2726   -2.0002 O   0  5  0  0  0  0  0  0  0  0  0  0
    3.5710    2.2606   -2.0208 O   0  0  0  0  0  0  0  0  0  0  0  0
    0.8453   -0.1247    0.9940 C   0  0  0  0  0  0  0  0  0  0  0  0
    1.9521   -0.3848    1.4471 O   0  0  0  0  0  0  0  0  0  0  0  0
   -0.0869    0.4940    1.8088 N   0  0  0  0  0  0  0  0  0  0  0  0
   -0.9441    0.7954    1.3613 H   0  0  0  0  0  0  0  0  0  0  0  0
    0.2290    0.9918    3.1391 C   0  0  0  0  0  0  0  0  0  0  0  0
    1.0218    1.7452    3.0869 H   0  0  0  0  0  0  0  0  0  0  0  0
   -0.6566    1.4497    3.5889 H   0  0  0  0  0  0  0  0  0  0  0  0
    0.5604    0.1722    3.7849 H   0  0  0  0  0  0  0  0  0  0  0  0
  1  2  1  0  0  0  0
  2  3  1  0  0  0  0
  2  4  1  0  0  0  0
  2  5  1  0  0  0  0
  5  6  2  0  0  0  0
  5  7  1  0  0  0  0
  7  8  1  0  0  0  0
  7  9  1  0  0  0  0
  9 10  1  0  0  0  0
  9 11  1  0  0  0  0
  9 20  1  0  0  0  0
 11 12  1  0  0  0  0
 11 13  1  0  0  0  0
 11 14  1  0  0  0  0
 14 15  1  0  0  0  0
 14 16  1  0  0  0  0
 14 17  1  0  0  0  0
 17 18  1  0  0  0  0
 17 19  2  0  0  0  0
 20 21  2  0  0  0  0
 20 22  1  0  0  0  0
 22 23  1  0  0  0  0
 22 24  1  0  0  0  0
 24 25  1  0  0  0  0
 24 26  1  0  0  0  0
 24 27  1  0  0  0  0
M  CHG  1  18  -1
M  END
$$$$

  -OEChem-04042215583D

 27 26  0     1  0  0  0  0  0999 V2000
   -2.7113   -3.8780    0.4283 H   0  0  0  0  0  0  0  0  0  0  0  0
   -2.5917   -2.9451   -0.1299 C   0  0  0  0  0  0  0  0  0  0  0  0
   -3.3309   -2.2240    0.2277 H   0  0  0  0  0  0  0  0  0  0  0  0
   -2.7691   -3.1442   -1.1897 H   0  0  0  0  0  0  0  0  0  0  0  0
   -1.1909   -2.3923    0.0663 C   0  0  0  0  0  0  0  0  0  0  0  0
   -0.3940   -3.0067    0.7522 O   0  0  0  0  0  0  0  0  0  0  0  0
   -0.8425   -1.2137   -0.5608 N   0  0  0  0  0  0  0  0  0  0  0  0
   -1.5413   -0.7872   -1.1597 H   0  0  0  0  0  0  0  0  0  0  0  0
    0.4666   -0.5407   -0.4435 C   0  0  1  0  0  0  0  0  0  0  0  0
    1.2475   -1.2261   -0.7898 H   0  0  0  0  0  0  0  0  0  0  0  0
    0.3804    0.6918   -1.3795 C   0  0  0  0  0  0  0  0  0  0  0  0
   -0.4608    0.5634   -2.0681 H   0  0  0  0  0  0  0  0  0  0  0  0
    0.1546    1.5886   -0.7937 H   0  0  0  0  0  0  0  0  0  0  0  0
    1.6246    0.9076   -2.2701 C   0  0  0  0  0  0  0  0  0  0  0  0
    2.2119   -0.0125   -2.3397 H   0  0  0  0  0  0  0  0  0  0  0  0
    1.2852    1.1507   -3.2810 H   0  0  0  0  0  0  0  0  0  0  0  0
    2.5283    2.0592   -1.8129 C   0  0  0  0  0  0  0  0  0  0  0  0
    1.9761    3.1298   -1.4497 O   0  5  0  0  0  0  0  0  0  0  0  0
    3.7662    1.9051   -1.9467 O   0  0  0  0  0  0  0  0  0  0  0  0
    0.8412   -0.1272    0.9989 C   0  0  0  0  0  0  0  0  0  0  0  0
    1.9304   -0.4181    1.4747 O   0  0  0  0  0  0  0  0  0  0  0  0
   -0.1008    0.4884    1.8052 N   0  0  0  0  0  0  0  0  0  0  0  0
   -0.9298    0.8325    1.3364 H   0  0  0  0  0  0  0  0  0  0  0  0
    0.2069    0.9816    3.1393 C   0  0  0  0  0  0  0  0  0  0  0  0
    1.0005    1.7346    3.0942 H   0  0  0  0  0  0  0  0  0  0  0  0
   -0.6813    1.4379    3.5857 H   0  0  0  0  0  0  0  0  0  0  0  0
    0.5342    0.1600    3.7846 H   0  0  0  0  0  0  0  0  0  0  0  0
  1  2  1  0  0  0  0
  2  3  1  0  0  0  0
  2  4  1  0  0  0  0
  2  5  1  0  0  0  0
  5  6  2  0  0  0  0
  5  7  1  0  0  0  0
  7  8  1  0  0  0  0
  7  9  1  0  0  0  0
  9 10  1  0  0  0  0
  9 11  1  0  0  0  0
  9 20  1  0  0  0  0
 11 12  1  0  0  0  0
 11 13  1  0  0  0  0
 11 14  1  0  0  0  0
 14 15  1  0  0  0  0
 14 16  1  0  0  0  0
 14 17  1  0  0  0  0
 17 18  1  0  0  0  0
 17 19  2  0  0  0  0
 20 21  2  0  0  0  0
 20 22  1  0  0  0  0
 22 23  1  0  0  0  0
 22 24  1  0  0  0  0
 24 25  1  0  0  0  0
 24 26  1  0  0  0  0
 24 27  1  0  0  0  0
M  CHG  1  18  -1
M  END
$$$$

  -OEChem-04042215583D

 27 26  0     1  0  0  0  0  0999 V2000
   -2.7087   -3.8720    0.4331 H   0  0  0  0  0  0  0  0  0  0  0  0
   -2.5872   -2.9380   -0.1229 C   0  0  0  0  0  0  0  0  0  0  0  0
   -3.3163   -2.2122    0.2455 H   0  0  0  0  0  0  0  0  0  0  0  0
   -2.7770   -3.1311   -1.1815 H   0  0  0  0  0  0  0  0  0  0  0  0
   -1.1802   -2.3971    0.0604 C   0  0  0  0  0  0  0  0  0  0  0  0
   -0.3805   -3.0237    0.7314 O   0  0  0  0  0  0  0  0  0  0  0  0
   -0.8320   -1.2178   -0.5656 N   0  0  0  0  0  0  0  0  0  0  0  0
   -1.5399   -0.7790   -1.1440 H   0  0  0  0  0  0  0  0  0  0  0  0
    0.4744   -0.5396   -0.4436 C   0  0  1  0  0  0  0  0  0  0  0  0
    1.2629   -1.2175   -0.7883 H   0  0  0  0  0  0  0  0  0  0  0  0
    0.3798    0.6883   -1.3853 C   0  0  0  0  0  0  0  0  0  0  0  0
   -0.4537    0.5443   -2.0803 H   0  0  0  0  0  0  0  0  0  0  0  0
    0.1449    1.5918   -0.8131 H   0  0  0  0  0  0  0  0  0  0  0  0
    1.6243    0.9037   -2.2695 C   0  0  0  0  0  0  0  0  0  0  0  0
    2.0607   -0.0597   -2.5491 H   0  0  0  0  0  0  0  0  0  0  0  0
    1.3058    1.3961   -3.1926 H   0  0  0  0  0  0  0  0  0  0  0  0
    2.6963    1.7967   -1.6356 C   0  0  0  0  0  0  0  0  0  0  0  0
    2.3137    2.8169   -1.0071 O   0  5  0  0  0  0  0  0  0  0  0  0
    3.8930    1.5246   -1.8972 O   0  0  0  0  0  0  0  0  0  0  0  0
    0.8413   -0.1231    1.0005 C   0  0  0  0  0  0  0  0  0  0  0  0
    1.9086   -0.4550    1.4985 O   0  0  0  0  0  0  0  0  0  0  0  0
   -0.1075    0.4903    1.8011 N   0  0  0  0  0  0  0  0  0  0  0  0
   -0.9143    0.8663    1.3190 H   0  0  0  0  0  0  0  0  0  0  0  0
    0.1911    0.9690    3.1427 C   0  0  0  0  0  0  0  0  0  0  0  0
    0.9900    1.7173    3.1115 H   0  0  0  0  0  0  0  0  0  0  0  0
   -0.6982    1.4272    3.5851 H   0  0  0  0  0  0  0  0  0  0  0  0
    0.5068    0.1395    3.7838 H   0  0  0  0  0  0  0  0  0  0  0  0
  1  2  1  0  0  0  0
  2  3  1  0  0  0  0
  2  4  1  0  0  0  0
  2  5  1  0  0  0  0
  5  6  2  0  0  0  0
  5  7  1  0  0  0  0
  7  8  1  0  0  0  0
  7  9  1  0  0  0  0
  9 10  1  0  0  0  0
  9 11  1  0  0  0  0
  9 20  1  0  0  0  0
 11 12  1  0  0  0  0
 11 13  1  0  0  0  0
 11 14  1  0  0  0  0
 14 15  1  0  0  0  0
 14 16  1  0  0  0  0
 14 17  1  0  0  0  0
 17 18  1  0  0  0  0
 17 19  2  0  0  0  0
 20 21  2  0  0  0  0
 20 22  1  0  0  0  0
 22 23  1  0  0  0  0
 22 24  1  0  0  0  0
 24 25  1  0  0  0  0
 24 26  1  0  0  0  0
 24 27  1  0  0  0  0
M  CHG  1  18  -1
M  END
$$$$

  -OEChem-04042215583D

 27 26  0     1  0  0  0  0  0999 V2000
   -2.7076   -3.8557    0.4463 H   0  0  0  0  0  0  0  0  0  0  0  0
   -2.5801   -2.9257   -0.1151 C   0  0  0  0  0  0  0  0  0  0  0  0
   -3.3033   -2.1927    0.2504 H   0  0  0  0  0  0  0  0  0  0  0  0
   -2.7736   -3.1236   -1.1722 H   0  0  0  0  0  0  0  0  0  0  0  0
   -1.1686   -2.3945    0.0635 C   0  0  0  0  0  0  0  0  0  0  0  0
   -0.3731   -3.0278    0.7328 O   0  0  0  0  0  0  0  0  0  0  0  0
   -0.8148   -1.2180   -0.5650 N   0  0  0  0  0  0  0  0  0  0  0  0
   -1.5220   -0.7778   -1.1426 H   0  0  0  0  0  0  0  0  0  0  0  0
    0.4931   -0.5410   -0.4437 C   0  0  1  0  0  0  0  0  0  0  0  0
    1.2877   -1.2113   -0.7906 H   0  0  0  0  0  0  0  0  0  0  0  0
    0.3821    0.6842   -1.3898 C   0  0  0  0  0  0  0  0  0  0  0  0
   -0.4636    0.5492   -2.0717 H   0  0  0  0  0  0  0  0  0  0  0  0
    0.1726    1.5901   -0.8109 H   0  0  0  0  0  0  0  0  0  0  0  0
    1.6136    0.9074   -2.2835 C   0  0  0  0  0  0  0  0  0  0  0  0
    1.8978   -0.0364   -2.7586 H   0  0  0  0  0  0  0  0  0  0  0  0
    1.3429    1.6083   -3.0781 H   0  0  0  0  0  0  0  0  0  0  0  0
    2.8163    1.4950   -1.5429 C   0  0  0  0  0  0  0  0  0  0  0  0
    2.6014    2.4720   -0.7815 O   0  5  0  0  0  0  0  0  0  0  0  0
    3.9512    1.0508   -1.8412 O   0  0  0  0  0  0  0  0  0  0  0  0
    0.8494   -0.1237    1.0043 C   0  0  0  0  0  0  0  0  0  0  0  0
    1.8859   -0.5033    1.5324 O   0  0  0  0  0  0  0  0  0  0  0  0
   -0.1086    0.4911    1.7937 N   0  0  0  0  0  0  0  0  0  0  0  0
   -0.8951    0.8915    1.2987 H   0  0  0  0  0  0  0  0  0  0  0  0
    0.1673    0.9425    3.1496 C   0  0  0  0  0  0  0  0  0  0  0  0
    0.9902    1.6650    3.1510 H   0  0  0  0  0  0  0  0  0  0  0  0
   -0.7190    1.4234    3.5733 H   0  0  0  0  0  0  0  0  0  0  0  0
    0.4385    0.0949    3.7874 H   0  0  0  0  0  0  0  0  0  0  0  0
  1  2  1  0  0  0  0
  2  3  1  0  0  0  0
  2  4  1  0  0  0  0
  2  5  1  0  0  0  0
  5  6  2  0  0  0  0
  5  7  1  0  0  0  0
  7  8  1  0  0  0  0
  7  9  1  0  0  0  0
  9 10  1  0  0  0  0
  9 11  1  0  0  0  0
  9 20  1  0  0  0  0
 11 12  1  0  0  0  0
 11 13  1  0  0  0  0
 11 14  1  0  0  0  0
 14 15  1  0  0  0  0
 14 16  1  0  0  0  0
 14 17  1  0  0  0  0
 17 18  1  0  0  0  0
 17 19  2  0  0  0  0
 20 21  2  0  0  0  0
 20 22  1  0  0  0  0
 22 23  1  0  0  0  0
 22 24  1  0  0  0  0
 24 25  1  0  0  0  0
 24 26  1  0  0  0  0
 24 27  1  0  0  0  0
M  CHG  1  18  -1
M  END
$$$$

  -OEChem-04042215583D

 27 26  0     1  0  0  0  0  0999 V2000
   -2.7083   -3.8610    0.4068 H   0  0  0  0  0  0  0  0  0  0  0  0
   -2.5718   -2.9288   -0.1490 C   0  0  0  0  0  0  0  0  0  0  0  0
   -3.3278   -2.2107    0.1779 H   0  0  0  0  0  0  0  0  0  0  0  0
   -2.7069   -3.1322   -1.2141 H   0  0  0  0  0  0  0  0  0  0  0  0
   -1.1825   -2.3681    0.1001 C   0  0  0  0  0  0  0  0  0  0  0  0
   -0.4235   -2.9673    0.8389 O   0  0  0  0  0  0  0  0  0  0  0  0
   -0.8136   -1.2005   -0.5371 N   0  0  0  0  0  0  0  0  0  0  0  0
   -1.4776   -0.8176   -1.2004 H   0  0  0  0  0  0  0  0  0  0  0  0
    0.5037   -0.5377   -0.4283 C   0  0  1  0  0  0  0  0  0  0  0  0
    1.2938   -1.2123   -0.7794 H   0  0  0  0  0  0  0  0  0  0  0  0
    0.3851    0.6876   -1.3774 C   0  0  0  0  0  0  0  0  0  0  0  0
   -0.4857    0.5815   -2.0322 H   0  0  0  0  0  0  0  0  0  0  0  0
    0.2235    1.5927   -0.7820 H   0  0  0  0  0  0  0  0  0  0  0  0
    1.5940    0.9163   -2.2975 C   0  0  0  0  0  0  0  0  0  0  0  0
    1.7085    0.0484   -2.9543 H   0  0  0  0  0  0  0  0  0  0  0  0
    1.3957    1.7850   -2.9317 H   0  0  0  0  0  0  0  0  0  0  0  0
    2.9071    1.1573   -1.5571 C   0  0  0  0  0  0  0  0  0  0  0  0
    2.9451    2.1453   -0.7827 O   0  5  0  0  0  0  0  0  0  0  0  0
    3.8868    0.4325   -1.8553 O   0  0  0  0  0  0  0  0  0  0  0  0
    0.8599   -0.1199    1.0213 C   0  0  0  0  0  0  0  0  0  0  0  0
    1.8871   -0.5057    1.5615 O   0  0  0  0  0  0  0  0  0  0  0  0
   -0.0969    0.5065    1.8035 N   0  0  0  0  0  0  0  0  0  0  0  0
   -0.9101    0.8624    1.3185 H   0  0  0  0  0  0  0  0  0  0  0  0
    0.1500    0.9213    3.1764 C   0  0  0  0  0  0  0  0  0  0  0  0
    0.9854    1.6282    3.2167 H   0  0  0  0  0  0  0  0  0  0  0  0
   -0.7385    1.4084    3.5883 H   0  0  0  0  0  0  0  0  0  0  0  0
    0.3893    0.0537    3.7999 H   0  0  0  0  0  0  0  0  0  0  0  0
  1  2  1  0  0  0  0
  2  3  1  0  0  0  0
  2  4  1  0  0  0  0
  2  5  1  0  0  0  0
  5  6  2  0  0  0  0
  5  7  1  0  0  0  0
  7  8  1  0  0  0  0
  7  9  1  0  0  0  0
  9 10  1  0  0  0  0
  9 11  1  0  0  0  0
  9 20  1  0  0  0  0
 11 12  1  0  0  0  0
 11 13  1  0  0  0  0
 11 14  1  0  0  0  0
 14 15  1  0  0  0  0
 14 16  1  0  0  0  0
 14 17  1  0  0  0  0
 17 18  1  0  0  0  0
 17 19  2  0  0  0  0
 20 21  2  0  0  0  0
 20 22  1  0  0  0  0
 22 23  1  0  0  0  0
 22 24  1  0  0  0  0
 24 25  1  0  0  0  0
 24 26  1  0  0  0  0
 24 27  1  0  0  0  0
M  CHG  1  18  -1
M  END
$$$$

  -OEChem-04042215583D

 27 26  0     1  0  0  0  0  0999 V2000
   -2.6937   -3.8553    0.3815 H   0  0  0  0  0  0  0  0  0  0  0  0
   -2.5458   -2.9350   -0.1908 C   0  0  0  0  0  0  0  0  0  0  0  0
   -3.3662   -2.2478    0.0296 H   0  0  0  0  0  0  0  0  0  0  0  0
   -2.5589   -3.1789   -1.2560 H   0  0  0  0  0  0  0  0  0  0  0  0
   -1.2190   -2.2946    0.1786 C   0  0  0  0  0  0  0  0  0  0  0  0
   -0.5433   -2.7970    1.0569 O   0  0  0  0  0  0  0  0  0  0  0  0
   -0.8284   -1.1504   -0.4887 N   0  0  0  0  0  0  0  0  0  0  0  0
   -1.4051   -0.8883   -1.2805 H   0  0  0  0  0  0  0  0  0  0  0  0
    0.5082   -0.5199   -0.4066 C   0  0  1  0  0  0  0  0  0  0  0  0
    1.2809   -1.2153   -0.7569 H   0  0  0  0  0  0  0  0  0  0  0  0
    0.4039    0.7110   -1.3543 C   0  0  0  0  0  0  0  0  0  0  0  0
   -0.4966    0.6475   -1.9733 H   0  0  0  0  0  0  0  0  0  0  0  0
    0.2999    1.6140   -0.7434 H   0  0  0  0  0  0  0  0  0  0  0  0
    1.5853    0.9339   -2.3141 C   0  0  0  0  0  0  0  0  0  0  0  0
    1.5057    0.2079   -3.1290 H   0  0  0  0  0  0  0  0  0  0  0  0
    1.4947    1.9287   -2.7603 H   0  0  0  0  0  0  0  0  0  0  0  0
    2.9759    0.7991   -1.7004 C   0  0  0  0  0  0  0  0  0  0  0  0
    3.4511    1.8106   -1.1296 O   0  5  0  0  0  0  0  0  0  0  0  0
    3.5866   -0.2806   -1.8931 O   0  0  0  0  0  0  0  0  0  0  0  0
    0.8730   -0.0881    1.0382 C   0  0  0  0  0  0  0  0  0  0  0  0
    1.9238   -0.4128    1.5716 O   0  0  0  0  0  0  0  0  0  0  0  0
   -0.0751    0.5712    1.8036 N   0  0  0  0  0  0  0  0  0  0  0  0
   -0.9851    0.6969    1.3794 H   0  0  0  0  0  0  0  0  0  0  0  0
    0.1032    0.8695    3.2164 C   0  0  0  0  0  0  0  0  0  0  0  0
    0.9904    1.4936    3.3654 H   0  0  0  0  0  0  0  0  0  0  0  0
   -0.7675    1.4090    3.5999 H   0  0  0  0  0  0  0  0  0  0  0  0
    0.2204   -0.0559    3.7895 H   0  0  0  0  0  0  0  0  0  0  0  0
  1  2  1  0  0  0  0
  2  3  1  0  0  0  0
  2  4  1  0  0  0  0
  2  5  1  0  0  0  0
  5  6  2  0  0  0  0
  5  7  1  0  0  0  0
  7  8  1  0  0  0  0
  7  9  1  0  0  0  0
  9 10  1  0  0  0  0
  9 11  1  0  0  0  0
  9 20  1  0  0  0  0
 11 12  1  0  0  0  0
 11 13  1  0  0  0  0
 11 14  1  0  0  0  0
 14 15  1  0  0  0  0
 14 16  1  0  0  0  0
 14 17  1  0  0  0  0
 17 18  1  0  0  0  0
 17 19  2  0  0  0  0
 20 21  2  0  0  0  0
 20 22  1  0  0  0  0
 22 23  1  0  0  0  0
 22 24  1  0  0  0  0
 24 25  1  0  0  0  0
 24 26  1  0  0  0  0
 24 27  1  0  0  0  0
M  CHG  1  18  -1
M  END
$$$$

  -OEChem-04042215583D

 27 26  0     1  0  0  0  0  0999 V2000
   -2.7330   -3.8503    0.3546 H   0  0  0  0  0  0  0  0  0  0  0  0
   -2.5562   -2.9530   -0.2454 C   0  0  0  0  0  0  0  0  0  0  0  0
   -3.4050   -2.2756   -0.1246 H   0  0  0  0  0  0  0  0  0  0  0  0
   -2.4766   -3.2438   -1.2959 H   0  0  0  0  0  0  0  0  0  0  0  0
   -1.2766   -2.2668    0.2001 C   0  0  0  0  0  0  0  0  0  0  0  0
   -0.6686   -2.7100    1.1567 O   0  0  0  0  0  0  0  0  0  0  0  0
   -0.8646   -1.1335   -0.4733 N   0  0  0  0  0  0  0  0  0  0  0  0
   -1.3802   -0.9326   -1.3234 H   0  0  0  0  0  0  0  0  0  0  0  0
    0.4859   -0.5346   -0.3826 C   0  0  1  0  0  0  0  0  0  0  0  0
    1.2351   -1.2584   -0.7218 H   0  0  0  0  0  0  0  0  0  0  0  0
    0.4265    0.7063   -1.3238 C   0  0  0  0  0  0  0  0  0  0  0  0
   -0.4797    0.6778   -1.9372 H   0  0  0  0  0  0  0  0  0  0  0  0
    0.3448    1.6020   -0.6992 H   0  0  0  0  0  0  0  0  0  0  0  0
    1.6069    0.9377   -2.2911 C   0  0  0  0  0  0  0  0  0  0  0  0
    1.3752    0.4252   -3.2297 H   0  0  0  0  0  0  0  0  0  0  0  0
    1.6639    2.0059   -2.5210 H   0  0  0  0  0  0  0  0  0  0  0  0
    2.9882    0.4551   -1.8514 C   0  0  0  0  0  0  0  0  0  0  0  0
    3.7801    1.3095   -1.3859 O   0  5  0  0  0  0  0  0  0  0  0  0
    3.2776   -0.7423   -2.0984 O   0  0  0  0  0  0  0  0  0  0  0  0
    0.8534   -0.1052    1.0623 C   0  0  0  0  0  0  0  0  0  0  0  0
    1.9289   -0.3779    1.5750 O   0  0  0  0  0  0  0  0  0  0  0  0
   -0.0833    0.5790    1.8196 N   0  0  0  0  0  0  0  0  0  0  0  0
   -1.0139    0.6289    1.4248 H   0  0  0  0  0  0  0  0  0  0  0  0
    0.1061    0.8855    3.2294 C   0  0  0  0  0  0  0  0  0  0  0  0
    1.0136    1.4810    3.3727 H   0  0  0  0  0  0  0  0  0  0  0  0
   -0.7454    1.4588    3.6075 H   0  0  0  0  0  0  0  0  0  0  0  0
    0.1928   -0.0375    3.8117 H   0  0  0  0  0  0  0  0  0  0  0  0
  1  2  1  0  0  0  0
  2  3  1  0  0  0  0
  2  4  1  0  0  0  0
  2  5  1  0  0  0  0
  5  6  2  0  0  0  0
  5  7  1  0  0  0  0
  7  8  1  0  0  0  0
  7  9  1  0  0  0  0
  9 10  1  0  0  0  0
  9 11  1  0  0  0  0
  9 20  1  0  0  0  0
 11 12  1  0  0  0  0
 11 13  1  0  0  0  0
 11 14  1  0  0  0  0
 14 15  1  0  0  0  0
 14 16  1  0  0  0  0
 14 17  1  0  0  0  0
 17 18  1  0  0  0  0
 17 19  2  0  0  0  0
 20 21  2  0  0  0  0
 20 22  1  0  0  0  0
 22 23  1  0  0  0  0
 22 24  1  0  0  0  0
 24 25  1  0  0  0  0
 24 26  1  0  0  0  0
 24 27  1  0  0  0  0
M  CHG  1  18  -1
M  END
$$$$

  -OEChem-04042215583D

 27 26  0     1  0  0  0  0  0999 V2000
   -2.7539   -3.8552    0.3276 H   0  0  0  0  0  0  0  0  0  0  0  0
   -2.5785   -2.9538   -0.2666 C   0  0  0  0  0  0  0  0  0  0  0  0
   -3.4401   -2.2898   -0.1639 H   0  0  0  0  0  0  0  0  0  0  0  0
   -2.4714   -3.2416   -1.3156 H   0  0  0  0  0  0  0  0  0  0  0  0
   -1.3204   -2.2489    0.2095 C   0  0  0  0  0  0  0  0  0  0  0  0
   -0.7551   -2.6557    1.2081 O   0  0  0  0  0  0  0  0  0  0  0  0
   -0.8911   -1.1257   -0.4699 N   0  0  0  0  0  0  0  0  0  0  0  0
   -1.3695   -0.9589   -1.3491 H   0  0  0  0  0  0  0  0  0  0  0  0
    0.4684   -0.5497   -0.3698 C   0  0  1  0  0  0  0  0  0  0  0  0
    1.1993   -1.2986   -0.6888 H   0  0  0  0  0  0  0  0  0  0  0  0
    0.4547    0.6937   -1.3117 C   0  0  0  0  0  0  0  0  0  0  0  0
   -0.4447    0.6745   -1.9354 H   0  0  0  0  0  0  0  0  0  0  0  0
    0.3701    1.5904   -0.6889 H   0  0  0  0  0  0  0  0  0  0  0  0
    1.6442    0.9237   -2.2765 C   0  0  0  0  0  0  0  0  0  0  0  0
    1.3077    0.6770   -3.2880 H   0  0  0  0  0  0  0  0  0  0  0  0
    1.8802    1.9922   -2.2790 H   0  0  0  0  0  0  0  0  0  0  0  0
    2.9390    0.1434   -2.0448 C   0  0  0  0  0  0  0  0  0  0  0  0
    3.9477    0.7817   -1.6599 O   0  5  0  0  0  0  0  0  0  0  0  0
    2.9380   -1.0666   -2.3862 O   0  0  0  0  0  0  0  0  0  0  0  0
    0.8341   -0.1183    1.0742 C   0  0  0  0  0  0  0  0  0  0  0  0
    1.9277   -0.3492    1.5697 O   0  0  0  0  0  0  0  0  0  0  0  0
   -0.0947    0.5858    1.8226 N   0  0  0  0  0  0  0  0  0  0  0  0
   -1.0344    0.5956    1.4455 H   0  0  0  0  0  0  0  0  0  0  0  0
    0.1021    0.9029    3.2292 C   0  0  0  0  0  0  0  0  0  0  0  0
    1.0121    1.4967    3.3641 H   0  0  0  0  0  0  0  0  0  0  0  0
   -0.7458    1.4817    3.6065 H   0  0  0  0  0  0  0  0  0  0  0  0
    0.1883   -0.0160    3.8182 H   0  0  0  0  0  0  0  0  0  0  0  0
  1  2  1  0  0  0  0
  2  3  1  0  0  0  0
  2  4  1  0  0  0  0
  2  5  1  0  0  0  0
  5  6  2  0  0  0  0
  5  7  1  0  0  0  0
  7  8  1  0  0  0  0
  7  9  1  0  0  0  0
  9 10  1  0  0  0  0
  9 11  1  0  0  0  0
  9 20  1  0  0  0  0
 11 12  1  0  0  0  0
 11 13  1  0  0  0  0
 11 14  1  0  0  0  0
 14 15  1  0  0  0  0
 14 16  1  0  0  0  0
 14 17  1  0  0  0  0
 17 18  1  0  0  0  0
 17 19  2  0  0  0  0
 20 21  2  0  0  0  0
 20 22  1  0  0  0  0
 22 23  1  0  0  0  0
 22 24  1  0  0  0  0
 24 25  1  0  0  0  0
 24 26  1  0  0  0  0
 24 27  1  0  0  0  0
M  CHG  1  18  -1
M  END
$$$$

  -OEChem-04042215583D

 27 26  0     1  0  0  0  0  0999 V2000
   -2.7761   -3.8551    0.3073 H   0  0  0  0  0  0  0  0  0  0  0  0
   -2.5936   -2.9600   -0.2943 C   0  0  0  0  0  0  0  0  0  0  0  0
   -3.4707   -2.3109   -0.2379 H   0  0  0  0  0  0  0  0  0  0  0  0
   -2.4384   -3.2625   -1.3331 H   0  0  0  0  0  0  0  0  0  0  0  0
   -1.3682   -2.2244    0.2186 C   0  0  0  0  0  0  0  0  0  0  0  0
   -0.8442   -2.5932    1.2545 O   0  0  0  0  0  0  0  0  0  0  0  0
   -0.9269   -1.1099   -0.4669 N   0  0  0  0  0  0  0  0  0  0  0  0
   -1.3718   -0.9788   -1.3698 H   0  0  0  0  0  0  0  0  0  0  0  0
    0.4426   -0.5600   -0.3658 C   0  0  1  0  0  0  0  0  0  0  0  0
    1.1557   -1.3296   -0.6728 H   0  0  0  0  0  0  0  0  0  0  0  0
    0.4701    0.6899   -1.3000 C   0  0  0  0  0  0  0  0  0  0  0  0
   -0.4180    0.6676   -1.9394 H   0  0  0  0  0  0  0  0  0  0  0  0
    0.3750    1.5925   -0.6875 H   0  0  0  0  0  0  0  0  0  0  0  0
    1.6692    0.9014   -2.2612 C   0  0  0  0  0  0  0  0  0  0  0  0
    1.2859    0.9729   -3.2834 H   0  0  0  0  0  0  0  0  0  0  0  0
    2.1136    1.8736   -2.0263 H   0  0  0  0  0  0  0  0  0  0  0  0
    2.7964   -0.1335   -2.2693 C   0  0  0  0  0  0  0  0  0  0  0  0
    3.9583    0.2493   -1.9930 O   0  5  0  0  0  0  0  0  0  0  0  0
    2.4970   -1.2833   -2.6831 O   0  0  0  0  0  0  0  0  0  0  0  0
    0.8216   -0.1309    1.0747 C   0  0  0  0  0  0  0  0  0  0  0  0
    1.9337   -0.3307    1.5429 O   0  0  0  0  0  0  0  0  0  0  0  0
   -0.0904    0.5935    1.8240 N   0  0  0  0  0  0  0  0  0  0  0  0
   -1.0409    0.5740    1.4740 H   0  0  0  0  0  0  0  0  0  0  0  0
    0.1353    0.9372    3.2199 C   0  0  0  0  0  0  0  0  0  0  0  0
    1.0425    1.5414    3.3242 H   0  0  0  0  0  0  0  0  0  0  0  0
   -0.7093    1.5151    3.6059 H   0  0  0  0  0  0  0  0  0  0  0  0
    0.2428    0.0298    3.8229 H   0  0  0  0  0  0  0  0  0  0  0  0
  1  2  1  0  0  0  0
  2  3  1  0  0  0  0
  2  4  1  0  0  0  0
  2  5  1  0  0  0  0
  5  6  2  0  0  0  0
  5  7  1  0  0  0  0
  7  8  1  0  0  0  0
  7  9  1  0  0  0  0
  9 10  1  0  0  0  0
  9 11  1  0  0  0  0
  9 20  1  0  0  0  0
 11 12  1  0  0  0  0
 11 13  1  0  0  0  0
 11 14  1  0  0  0  0
 14 15  1  0  0  0  0
 14 16  1  0  0  0  0
 14 17  1  0  0  0  0
 17 18  1  0  0  0  0
 17 19  2  0  0  0  0
 20 21  2  0  0  0  0
 20 22  1  0  0  0  0
 22 23  1  0  0  0  0
 22 24  1  0  0  0  0
 24 25  1  0  0  0  0
 24 26  1  0  0  0  0
 24 27  1  0  0  0  0
M  CHG  1  18  -1
M  END
$$$$

  -OEChem-04042215583D

 27 26  0     1  0  0  0  0  0999 V2000
   -1.9049   -3.8794   -0.5363 H   0  0  0  0  0  0  0  0  0  0  0  0
   -2.0844   -2.8526   -0.8678 C   0  0  0  0  0  0  0  0  0  0  0  0
   -3.1604   -2.6635   -0.8727 H   0  0  0  0  0  0  0  0  0  0  0  0
   -1.6951   -2.7430   -1.8832 H   0  0  0  0  0  0  0  0  0  0  0  0
   -1.3840   -1.8763    0.0604 C   0  0  0  0  0  0  0  0  0  0  0  0
   -0.9501   -2.2597    1.1349 O   0  0  0  0  0  0  0  0  0  0  0  0
   -1.5589   -0.5173   -0.0955 N   0  0  0  0  0  0  0  0  0  0  0  0
   -2.2649   -0.3142   -0.7939 H   0  0  0  0  0  0  0  0  0  0  0  0
   -0.3653    0.3416   -0.2479 C   0  0  1  0  0  0  0  0  0  0  0  0
   -0.7390    1.3617   -0.1217 H   0  0  0  0  0  0  0  0  0  0  0  0
    0.0135    0.2865   -1.7748 C   0  0  0  0  0  0  0  0  0  0  0  0
   -0.5715   -0.5199   -2.2267 H   0  0  0  0  0  0  0  0  0  0  0  0
   -0.3682    1.2116   -2.2184 H   0  0  0  0  0  0  0  0  0  0  0  0
    1.4344    0.0840   -2.3707 C   0  0  0  0  0  0  0  0  0  0  0  0
    1.3506   -0.5852   -3.2319 H   0  0  0  0  0  0  0  0  0  0  0  0
    1.7569    1.0570   -2.7540 H   0  0  0  0  0  0  0  0  0  0  0  0
    2.5759   -0.4375   -1.4992 C   0  0  0  0  0  0  0  0  0  0  0  0
    2.3356   -1.5133   -0.8904 O   0  5  0  0  0  0  0  0  0  0  0  0
    3.7233    0.0426   -1.6861 O   0  0  0  0  0  0  0  0  0  0  0  0
    0.6646    0.3327    0.9093 C   0  0  0  0  0  0  0  0  0  0  0  0
    1.6629    1.0302    0.7887 O   0  0  0  0  0  0  0  0  0  0  0  0
    0.1220    0.3991    2.1824 N   0  0  0  0  0  0  0  0  0  0  0  0
   -0.6267   -0.2826    2.2949 H   0  0  0  0  0  0  0  0  0  0  0  0
    0.9396    0.6663    3.3597 C   0  0  0  0  0  0  0  0  0  0  0  0
    1.3220    1.6918    3.3389 H   0  0  0  0  0  0  0  0  0  0  0  0
    0.3416    0.5407    4.2669 H   0  0  0  0  0  0  0  0  0  0  0  0
    1.7864   -0.0268    3.4024 H   0  0  0  0  0  0  0  0  0  0  0  0
  1  2  1  0  0  0  0
  2  3  1  0  0  0  0
  2  4  1  0  0  0  0
  2  5  1  0  0  0  0
  5  6  2  0  0  0  0
  5  7  1  0  0  0  0
  7  8  1  0  0  0  0
  7  9  1  0  0  0  0
  9 10  1  0  0  0  0
  9 11  1  0  0  0  0
  9 20  1  0  0  0  0
 11 12  1  0  0  0  0
 11 13  1  0  0  0  0
 11 14  1  0  0  0  0
 14 15  1  0  0  0  0
 14 16  1  0  0  0  0
 14 17  1  0  0  0  0
 17 18  1  0  0  0  0
 17 19  2  0  0  0  0
 20 21  2  0  0  0  0
 20 22  1  0  0  0  0
 22 23  1  0  0  0  0
 22 24  1  0  0  0  0
 24 25  1  0  0  0  0
 24 26  1  0  0  0  0
 24 27  1  0  0  0  0
M  CHG  1  18  -1
M  END
$$$$

  -OEChem-04042215583D

 27 26  0     1  0  0  0  0  0999 V2000
   -2.6926   -3.8982    0.4439 H   0  0  0  0  0  0  0  0  0  0  0  0
   -2.5150   -3.0476   -0.2203 C   0  0  0  0  0  0  0  0  0  0  0  0
   -3.4178   -2.4333   -0.2575 H   0  0  0  0  0  0  0  0  0  0  0  0
   -2.2978   -3.4252   -1.2230 H   0  0  0  0  0  0  0  0  0  0  0  0
   -1.3444   -2.2220    0.2834 C   0  0  0  0  0  0  0  0  0  0  0  0
   -0.8237   -2.5102    1.3475 O   0  0  0  0  0  0  0  0  0  0  0  0
   -0.9533   -1.1135   -0.4399 N   0  0  0  0  0  0  0  0  0  0  0  0
   -1.3788   -1.0670   -1.3619 H   0  0  0  0  0  0  0  0  0  0  0  0
    0.4074   -0.5414   -0.3867 C   0  0  1  0  0  0  0  0  0  0  0  0
    1.1244   -1.3076   -0.6955 H   0  0  0  0  0  0  0  0  0  0  0  0
    0.4065    0.6933   -1.3386 C   0  0  0  0  0  0  0  0  0  0  0  0
   -0.4782    0.6259   -1.9803 H   0  0  0  0  0  0  0  0  0  0  0  0
    0.2985    1.6176   -0.7619 H   0  0  0  0  0  0  0  0  0  0  0  0
    1.6024    0.8519   -2.3066 C   0  0  0  0  0  0  0  0  0  0  0  0
    1.2801    1.4203   -3.1832 H   0  0  0  0  0  0  0  0  0  0  0  0
    2.3699    1.4417   -1.7959 H   0  0  0  0  0  0  0  0  0  0  0  0
    2.2559   -0.4511   -2.7774 C   0  0  0  0  0  0  0  0  0  0  0  0
    1.4757   -1.3556   -3.1778 O   0  5  0  0  0  0  0  0  0  0  0  0
    3.5072   -0.5132   -2.8268 O   0  0  0  0  0  0  0  0  0  0  0  0
    0.8356   -0.0743    1.0259 C   0  0  0  0  0  0  0  0  0  0  0  0
    1.9887   -0.1924    1.4206 O   0  0  0  0  0  0  0  0  0  0  0  0
   -0.0556    0.6546    1.7943 N   0  0  0  0  0  0  0  0  0  0  0  0
   -1.0245    0.5747    1.5071 H   0  0  0  0  0  0  0  0  0  0  0  0
    0.2381    1.0708    3.1571 C   0  0  0  0  0  0  0  0  0  0  0  0
    1.1288    1.7071    3.1795 H   0  0  0  0  0  0  0  0  0  0  0  0
   -0.6019    1.6400    3.5653 H   0  0  0  0  0  0  0  0  0  0  0  0
    0.4107    0.1967    3.7933 H   0  0  0  0  0  0  0  0  0  0  0  0
  1  2  1  0  0  0  0
  2  3  1  0  0  0  0
  2  4  1  0  0  0  0
  2  5  1  0  0  0  0
  5  6  2  0  0  0  0
  5  7  1  0  0  0  0
  7  8  1  0  0  0  0
  7  9  1  0  0  0  0
  9 10  1  0  0  0  0
  9 11  1  0  0  0  0
  9 20  1  0  0  0  0
 11 12  1  0  0  0  0
 11 13  1  0  0  0  0
 11 14  1  0  0  0  0
 14 15  1  0  0  0  0
 14 16  1  0  0  0  0
 14 17  1  0  0  0  0
 17 18  1  0  0  0  0
 17 19  2  0  0  0  0
 20 21  2  0  0  0  0
 20 22  1  0  0  0  0
 22 23  1  0  0  0  0
 22 24  1  0  0  0  0
 24 25  1  0  0  0  0
 24 26  1  0  0  0  0
 24 27  1  0  0  0  0
M  CHG  1  18  -1
M  END
$$$$

  -OEChem-04042215583D

 27 26  0     1  0  0  0  0  0999 V2000
   -2.6409   -3.9284    0.3804 H   0  0  0  0  0  0  0  0  0  0  0  0
   -2.4790   -3.0645   -0.2702 C   0  0  0  0  0  0  0  0  0  0  0  0
   -3.3948   -2.4695   -0.3031 H   0  0  0  0  0  0  0  0  0  0  0  0
   -2.2492   -3.4225   -1.2774 H   0  0  0  0  0  0  0  0  0  0  0  0
   -1.3287   -2.2207    0.2504 C   0  0  0  0  0  0  0  0  0  0  0  0
   -0.8027   -2.5142    1.3110 O   0  0  0  0  0  0  0  0  0  0  0  0
   -0.9586   -1.0932   -0.4536 N   0  0  0  0  0  0  0  0  0  0  0  0
   -1.3770   -1.0493   -1.3802 H   0  0  0  0  0  0  0  0  0  0  0  0
    0.3967   -0.5118   -0.4032 C   0  0  1  0  0  0  0  0  0  0  0  0
    1.1172   -1.2623   -0.7440 H   0  0  0  0  0  0  0  0  0  0  0  0
    0.3739    0.7350   -1.3340 C   0  0  0  0  0  0  0  0  0  0  0  0
   -0.5183    0.6914   -1.9679 H   0  0  0  0  0  0  0  0  0  0  0  0
    0.2902    1.6516   -0.7413 H   0  0  0  0  0  0  0  0  0  0  0  0
    1.5783    0.8687   -2.2883 C   0  0  0  0  0  0  0  0  0  0  0  0
    1.3599    1.6337   -3.0384 H   0  0  0  0  0  0  0  0  0  0  0  0
    2.4438    1.2038   -1.7086 H   0  0  0  0  0  0  0  0  0  0  0  0
    1.9530   -0.4362   -3.0036 C   0  0  0  0  0  0  0  0  0  0  0  0
    1.0064   -1.2007   -3.3337 O   0  5  0  0  0  0  0  0  0  0  0  0
    3.1601   -0.6381   -3.2755 O   0  0  0  0  0  0  0  0  0  0  0  0
    0.8464   -0.0697    1.0102 C   0  0  0  0  0  0  0  0  0  0  0  0
    2.0110   -0.1778    1.3744 O   0  0  0  0  0  0  0  0  0  0  0  0
   -0.0359    0.6373    1.8083 N   0  0  0  0  0  0  0  0  0  0  0  0
   -1.0095    0.5553    1.5369 H   0  0  0  0  0  0  0  0  0  0  0  0
    0.2800    1.0390    3.1705 C   0  0  0  0  0  0  0  0  0  0  0  0
    1.1632    1.6858    3.1846 H   0  0  0  0  0  0  0  0  0  0  0  0
   -0.5588    1.5926    3.6021 H   0  0  0  0  0  0  0  0  0  0  0  0
    0.4750    0.1590    3.7920 H   0  0  0  0  0  0  0  0  0  0  0  0
  1  2  1  0  0  0  0
  2  3  1  0  0  0  0
  2  4  1  0  0  0  0
  2  5  1  0  0  0  0
  5  6  2  0  0  0  0
  5  7  1  0  0  0  0
  7  8  1  0  0  0  0
  7  9  1  0  0  0  0
  9 10  1  0  0  0  0
  9 11  1  0  0  0  0
  9 20  1  0  0  0  0
 11 12  1  0  0  0  0
 11 13  1  0  0  0  0
 11 14  1  0  0  0  0
 14 15  1  0  0  0  0
 14 16  1  0  0  0  0
 14 17  1  0  0  0  0
 17 18  1  0  0  0  0
 17 19  2  0  0  0  0
 20 21  2  0  0  0  0
 20 22  1  0  0  0  0
 22 23  1  0  0  0  0
 22 24  1  0  0  0  0
 24 25  1  0  0  0  0
 24 26  1  0  0  0  0
 24 27  1  0  0  0  0
M  CHG  1  18  -1
M  END
$$$$

  -OEChem-04042215583D

 27 26  0     1  0  0  0  0  0999 V2000
   -2.6050   -3.9416    0.3200 H   0  0  0  0  0  0  0  0  0  0  0  0
   -2.4627   -3.0601   -0.3112 C   0  0  0  0  0  0  0  0  0  0  0  0
   -3.3877   -2.4787   -0.3217 H   0  0  0  0  0  0  0  0  0  0  0  0
   -2.2369   -3.3900   -1.3289 H   0  0  0  0  0  0  0  0  0  0  0  0
   -1.3209   -2.2114    0.2190 C   0  0  0  0  0  0  0  0  0  0  0  0
   -0.7880   -2.5139    1.2739 O   0  0  0  0  0  0  0  0  0  0  0  0
   -0.9620   -1.0717   -0.4701 N   0  0  0  0  0  0  0  0  0  0  0  0
   -1.3741   -1.0249   -1.4006 H   0  0  0  0  0  0  0  0  0  0  0  0
    0.3879   -0.4817   -0.4134 C   0  0  1  0  0  0  0  0  0  0  0  0
    1.1122   -1.2200   -0.7751 H   0  0  0  0  0  0  0  0  0  0  0  0
    0.3515    0.7607   -1.3424 C   0  0  0  0  0  0  0  0  0  0  0  0
   -0.5441    0.7401   -1.9730 H   0  0  0  0  0  0  0  0  0  0  0  0
    0.2909    1.6758   -0.7448 H   0  0  0  0  0  0  0  0  0  0  0  0
    1.5769    0.8536   -2.2691 C   0  0  0  0  0  0  0  0  0  0  0  0
    1.4947    1.7568   -2.8797 H   0  0  0  0  0  0  0  0  0  0  0  0
    2.4818    0.9377   -1.6597 H   0  0  0  0  0  0  0  0  0  0  0  0
    1.7131   -0.3592   -3.2044 C   0  0  0  0  0  0  0  0  0  0  0  0
    0.6895   -1.0660   -3.4151 O   0  5  0  0  0  0  0  0  0  0  0  0
    2.8295   -0.5489   -3.7425 O   0  0  0  0  0  0  0  0  0  0  0  0
    0.8458   -0.0531    1.0007 C   0  0  0  0  0  0  0  0  0  0  0  0
    2.0145   -0.1625    1.3525 O   0  0  0  0  0  0  0  0  0  0  0  0
   -0.0336    0.6392    1.8140 N   0  0  0  0  0  0  0  0  0  0  0  0
   -1.0088    0.5547    1.5488 H   0  0  0  0  0  0  0  0  0  0  0  0
    0.2895    1.0218    3.1798 C   0  0  0  0  0  0  0  0  0  0  0  0
    1.1693    1.6732    3.1971 H   0  0  0  0  0  0  0  0  0  0  0  0
   -0.5493    1.5642    3.6255 H   0  0  0  0  0  0  0  0  0  0  0  0
    0.4933    0.1336    3.7864 H   0  0  0  0  0  0  0  0  0  0  0  0
  1  2  1  0  0  0  0
  2  3  1  0  0  0  0
  2  4  1  0  0  0  0
  2  5  1  0  0  0  0
  5  6  2  0  0  0  0
  5  7  1  0  0  0  0
  7  8  1  0  0  0  0
  7  9  1  0  0  0  0
  9 10  1  0  0  0  0
  9 11  1  0  0  0  0
  9 20  1  0  0  0  0
 11 12  1  0  0  0  0
 11 13  1  0  0  0  0
 11 14  1  0  0  0  0
 14 15  1  0  0  0  0
 14 16  1  0  0  0  0
 14 17  1  0  0  0  0
 17 18  1  0  0  0  0
 17 19  2  0  0  0  0
 20 21  2  0  0  0  0
 20 22  1  0  0  0  0
 22 23  1  0  0  0  0
 22 24  1  0  0  0  0
 24 25  1  0  0  0  0
 24 26  1  0  0  0  0
 24 27  1  0  0  0  0
M  CHG  1  18  -1
M  END
$$$$

  -OEChem-04042215583D

 27 26  0     1  0  0  0  0  0999 V2000
   -2.6219   -3.9279    0.2830 H   0  0  0  0  0  0  0  0  0  0  0  0
   -2.4690   -3.0470   -0.3466 C   0  0  0  0  0  0  0  0  0  0  0  0
   -3.3924   -2.4636   -0.3703 H   0  0  0  0  0  0  0  0  0  0  0  0
   -2.2299   -3.3773   -1.3611 H   0  0  0  0  0  0  0  0  0  0  0  0
   -1.3327   -2.1999    0.1981 C   0  0  0  0  0  0  0  0  0  0  0  0
   -0.7995   -2.5138    1.2499 O   0  0  0  0  0  0  0  0  0  0  0  0
   -0.9721   -1.0547   -0.4803 N   0  0  0  0  0  0  0  0  0  0  0  0
   -1.3772   -1.0041   -1.4142 H   0  0  0  0  0  0  0  0  0  0  0  0
    0.3779   -0.4685   -0.4152 C   0  0  1  0  0  0  0  0  0  0  0  0
    1.0977   -1.2058   -0.7884 H   0  0  0  0  0  0  0  0  0  0  0  0
    0.3468    0.7705   -1.3442 C   0  0  0  0  0  0  0  0  0  0  0  0
   -0.5505    0.7763   -1.9731 H   0  0  0  0  0  0  0  0  0  0  0  0
    0.3076    1.6829   -0.7408 H   0  0  0  0  0  0  0  0  0  0  0  0
    1.5888    0.8308   -2.2491 C   0  0  0  0  0  0  0  0  0  0  0  0
    1.6583    1.8320   -2.6839 H   0  0  0  0  0  0  0  0  0  0  0  0
    2.4913    0.6580   -1.6552 H   0  0  0  0  0  0  0  0  0  0  0  0
    1.5260   -0.1907   -3.3985 C   0  0  0  0  0  0  0  0  0  0  0  0
    0.5813   -1.0274   -3.4188 O   0  5  0  0  0  0  0  0  0  0  0  0
    2.4161   -0.1067   -4.2779 O   0  0  0  0  0  0  0  0  0  0  0  0
    0.8415   -0.0510    0.9997 C   0  0  0  0  0  0  0  0  0  0  0  0
    2.0117   -0.1672    1.3455 O   0  0  0  0  0  0  0  0  0  0  0  0
   -0.0331    0.6384    1.8203 N   0  0  0  0  0  0  0  0  0  0  0  0
   -1.0091    0.5683    1.5528 H   0  0  0  0  0  0  0  0  0  0  0  0
    0.2950    1.0163    3.1862 C   0  0  0  0  0  0  0  0  0  0  0  0
    1.1755    1.6667    3.2027 H   0  0  0  0  0  0  0  0  0  0  0  0
   -0.5418    1.5582    3.6362 H   0  0  0  0  0  0  0  0  0  0  0  0
    0.5003    0.1262    3.7895 H   0  0  0  0  0  0  0  0  0  0  0  0
  1  2  1  0  0  0  0
  2  3  1  0  0  0  0
  2  4  1  0  0  0  0
  2  5  1  0  0  0  0
  5  6  2  0  0  0  0
  5  7  1  0  0  0  0
  7  8  1  0  0  0  0
  7  9  1  0  0  0  0
  9 10  1  0  0  0  0
  9 11  1  0  0  0  0
  9 20  1  0  0  0  0
 11 12  1  0  0  0  0
 11 13  1  0  0  0  0
 11 14  1  0  0  0  0
 14 15  1  0  0  0  0
 14 16  1  0  0  0  0
 14 17  1  0  0  0  0
 17 18  1  0  0  0  0
 17 19  2  0  0  0  0
 20 21  2  0  0  0  0
 20 22  1  0  0  0  0
 22 23  1  0  0  0  0
 22 24  1  0  0  0  0
 24 25  1  0  0  0  0
 24 26  1  0  0  0  0
 24 27  1  0  0  0  0
M  CHG  1  18  -1
M  END
$$$$

  -OEChem-04042215583D

 27 26  0     1  0  0  0  0  0999 V2000
   -2.6359   -3.9159    0.2509 H   0  0  0  0  0  0  0  0  0  0  0  0
   -2.4968   -3.0165   -0.3555 C   0  0  0  0  0  0  0  0  0  0  0  0
   -3.4168   -2.4274   -0.3324 H   0  0  0  0  0  0  0  0  0  0  0  0
   -2.2917   -3.3170   -1.3866 H   0  0  0  0  0  0  0  0  0  0  0  0
   -1.3389   -2.1935    0.1802 C   0  0  0  0  0  0  0  0  0  0  0  0
   -0.7923   -2.5288    1.2183 O   0  0  0  0  0  0  0  0  0  0  0  0
   -0.9690   -1.0475   -0.4921 N   0  0  0  0  0  0  0  0  0  0  0  0
   -1.3854   -0.9756   -1.4192 H   0  0  0  0  0  0  0  0  0  0  0  0
    0.3822   -0.4643   -0.4176 C   0  0  1  0  0  0  0  0  0  0  0  0
    1.0981   -1.2068   -0.7891 H   0  0  0  0  0  0  0  0  0  0  0  0
    0.3637    0.7671   -1.3544 C   0  0  0  0  0  0  0  0  0  0  0  0
   -0.5315    0.7827   -1.9863 H   0  0  0  0  0  0  0  0  0  0  0  0
    0.3312    1.6805   -0.7518 H   0  0  0  0  0  0  0  0  0  0  0  0
    1.6184    0.8114   -2.2427 C   0  0  0  0  0  0  0  0  0  0  0  0
    1.8448    1.8550   -2.4815 H   0  0  0  0  0  0  0  0  0  0  0  0
    2.4839    0.3955   -1.7186 H   0  0  0  0  0  0  0  0  0  0  0  0
    1.3806    0.0518   -3.5561 C   0  0  0  0  0  0  0  0  0  0  0  0
    0.6500   -0.9755   -3.5197 O   0  5  0  0  0  0  0  0  0  0  0  0
    1.9049    0.5150   -4.5976 O   0  0  0  0  0  0  0  0  0  0  0  0
    0.8405   -0.0504    1.0000 C   0  0  0  0  0  0  0  0  0  0  0  0
    2.0082   -0.1753    1.3512 O   0  0  0  0  0  0  0  0  0  0  0  0
   -0.0352    0.6397    1.8189 N   0  0  0  0  0  0  0  0  0  0  0  0
   -1.0101    0.5767    1.5462 H   0  0  0  0  0  0  0  0  0  0  0  0
    0.2877    1.0123    3.1876 C   0  0  0  0  0  0  0  0  0  0  0  0
    1.1707    1.6591    3.2106 H   0  0  0  0  0  0  0  0  0  0  0  0
   -0.5489    1.5562    3.6357 H   0  0  0  0  0  0  0  0  0  0  0  0
    0.4859    0.1195    3.7895 H   0  0  0  0  0  0  0  0  0  0  0  0
  1  2  1  0  0  0  0
  2  3  1  0  0  0  0
  2  4  1  0  0  0  0
  2  5  1  0  0  0  0
  5  6  2  0  0  0  0
  5  7  1  0  0  0  0
  7  8  1  0  0  0  0
  7  9  1  0  0  0  0
  9 10  1  0  0  0  0
  9 11  1  0  0  0  0
  9 20  1  0  0  0  0
 11 12  1  0  0  0  0
 11 13  1  0  0  0  0
 11 14  1  0  0  0  0
 14 15  1  0  0  0  0
 14 16  1  0  0  0  0
 14 17  1  0  0  0  0
 17 18  1  0  0  0  0
 17 19  2  0  0  0  0
 20 21  2  0  0  0  0
 20 22  1  0  0  0  0
 22 23  1  0  0  0  0
 22 24  1  0  0  0  0
 24 25  1  0  0  0  0
 24 26  1  0  0  0  0
 24 27  1  0  0  0  0
M  CHG  1  18  -1
M  END
$$$$

  -OEChem-04042215583D

 27 26  0     1  0  0  0  0  0999 V2000
   -2.6594   -3.9123    0.2502 H   0  0  0  0  0  0  0  0  0  0  0  0
   -2.5407   -2.9893   -0.3243 C   0  0  0  0  0  0  0  0  0  0  0  0
   -3.4433   -2.3839   -0.2123 H   0  0  0  0  0  0  0  0  0  0  0  0
   -2.4129   -3.2469   -1.3791 H   0  0  0  0  0  0  0  0  0  0  0  0
   -1.3313   -2.2138    0.1675 C   0  0  0  0  0  0  0  0  0  0  0  0
   -0.7390   -2.5925    1.1644 O   0  0  0  0  0  0  0  0  0  0  0  0
   -0.9550   -1.0672   -0.5007 N   0  0  0  0  0  0  0  0  0  0  0  0
   -1.4076   -0.9485   -1.4054 H   0  0  0  0  0  0  0  0  0  0  0  0
    0.3933   -0.4765   -0.4197 C   0  0  1  0  0  0  0  0  0  0  0  0
    1.1111   -1.2201   -0.7833 H   0  0  0  0  0  0  0  0  0  0  0  0
    0.3760    0.7483   -1.3632 C   0  0  0  0  0  0  0  0  0  0  0  0
   -0.5206    0.7527   -1.9938 H   0  0  0  0  0  0  0  0  0  0  0  0
    0.3290    1.6644   -0.7657 H   0  0  0  0  0  0  0  0  0  0  0  0
    1.6346    0.8090   -2.2494 C   0  0  0  0  0  0  0  0  0  0  0  0
    2.0054    1.8384   -2.2679 H   0  0  0  0  0  0  0  0  0  0  0  0
    2.4376    0.1813   -1.8525 H   0  0  0  0  0  0  0  0  0  0  0  0
    1.2967    0.3809   -3.6813 C   0  0  0  0  0  0  0  0  0  0  0  0
    0.6360   -0.6825   -3.8229 O   0  5  0  0  0  0  0  0  0  0  0  0
    1.6620    1.1255   -4.6232 O   0  0  0  0  0  0  0  0  0  0  0  0
    0.8436   -0.0574    0.9982 C   0  0  0  0  0  0  0  0  0  0  0  0
    2.0072   -0.1922    1.3590 O   0  0  0  0  0  0  0  0  0  0  0  0
   -0.0367    0.6305    1.8138 N   0  0  0  0  0  0  0  0  0  0  0  0
   -1.0081    0.5981    1.5245 H   0  0  0  0  0  0  0  0  0  0  0  0
    0.2797    1.0123    3.1813 C   0  0  0  0  0  0  0  0  0  0  0  0
    1.1641    1.6571    3.2045 H   0  0  0  0  0  0  0  0  0  0  0  0
   -0.5581    1.5615    3.6205 H   0  0  0  0  0  0  0  0  0  0  0  0
    0.4726    0.1232    3.7900 H   0  0  0  0  0  0  0  0  0  0  0  0
  1  2  1  0  0  0  0
  2  3  1  0  0  0  0
  2  4  1  0  0  0  0
  2  5  1  0  0  0  0
  5  6  2  0  0  0  0
  5  7  1  0  0  0  0
  7  8  1  0  0  0  0
  7  9  1  0  0  0  0
  9 10  1  0  0  0  0
  9 11  1  0  0  0  0
  9 20  1  0  0  0  0
 11 12  1  0  0  0  0
 11 13  1  0  0  0  0
 11 14  1  0  0  0  0
 14 15  1  0  0  0  0
 14 16  1  0  0  0  0
 14 17  1  0  0  0  0
 17 18  1  0  0  0  0
 17 19  2  0  0  0  0
 20 21  2  0  0  0  0
 20 22  1  0  0  0  0
 22 23  1  0  0  0  0
 22 24  1  0  0  0  0
 24 25  1  0  0  0  0
 24 26  1  0  0  0  0
 24 27  1  0  0  0  0
M  CHG  1  18  -1
M  END
$$$$

  -OEChem-04042215583D

 27 26  0     1  0  0  0  0  0999 V2000
   -2.6997   -3.8890    0.2920 H   0  0  0  0  0  0  0  0  0  0  0  0
   -2.5775   -2.9632   -0.2774 C   0  0  0  0  0  0  0  0  0  0  0  0
   -3.4527   -2.3293   -0.1148 H   0  0  0  0  0  0  0  0  0  0  0  0
   -2.5097   -3.2113   -1.3399 H   0  0  0  0  0  0  0  0  0  0  0  0
   -1.3201   -2.2358    0.1646 C   0  0  0  0  0  0  0  0  0  0  0  0
   -0.6842   -2.6572    1.1160 O   0  0  0  0  0  0  0  0  0  0  0  0
   -0.9390   -1.0904   -0.5031 N   0  0  0  0  0  0  0  0  0  0  0  0
   -1.4359   -0.9198   -1.3751 H   0  0  0  0  0  0  0  0  0  0  0  0
    0.4070   -0.4922   -0.4235 C   0  0  1  0  0  0  0  0  0  0  0  0
    1.1287   -1.2362   -0.7763 H   0  0  0  0  0  0  0  0  0  0  0  0
    0.3897    0.7300   -1.3717 C   0  0  0  0  0  0  0  0  0  0  0  0
   -0.5048    0.7052   -2.0042 H   0  0  0  0  0  0  0  0  0  0  0  0
    0.3164    1.6527   -0.7869 H   0  0  0  0  0  0  0  0  0  0  0  0
    1.6444    0.8139   -2.2660 C   0  0  0  0  0  0  0  0  0  0  0  0
    2.1689    1.7524   -2.0628 H   0  0  0  0  0  0  0  0  0  0  0  0
    2.3450    0.0014   -2.0556 H   0  0  0  0  0  0  0  0  0  0  0  0
    1.2545    0.7586   -3.7454 C   0  0  0  0  0  0  0  0  0  0  0  0
    0.6174   -0.2564   -4.1305 O   0  5  0  0  0  0  0  0  0  0  0  0
    1.5466    1.7383   -4.4736 O   0  0  0  0  0  0  0  0  0  0  0  0
    0.8492   -0.0673    0.9948 C   0  0  0  0  0  0  0  0  0  0  0  0
    2.0082   -0.2105    1.3660 O   0  0  0  0  0  0  0  0  0  0  0  0
   -0.0373    0.6178    1.8059 N   0  0  0  0  0  0  0  0  0  0  0  0
   -1.0037    0.6134    1.4990 H   0  0  0  0  0  0  0  0  0  0  0  0
    0.2702    1.0081    3.1729 C   0  0  0  0  0  0  0  0  0  0  0  0
    1.1482    1.6615    3.1964 H   0  0  0  0  0  0  0  0  0  0  0  0
   -0.5746    1.5509    3.6067 H   0  0  0  0  0  0  0  0  0  0  0  0
    0.4695    0.1236    3.7863 H   0  0  0  0  0  0  0  0  0  0  0  0
  1  2  1  0  0  0  0
  2  3  1  0  0  0  0
  2  4  1  0  0  0  0
  2  5  1  0  0  0  0
  5  6  2  0  0  0  0
  5  7  1  0  0  0  0
  7  8  1  0  0  0  0
  7  9  1  0  0  0  0
  9 10  1  0  0  0  0
  9 11  1  0  0  0  0
  9 20  1  0  0  0  0
 11 12  1  0  0  0  0
 11 13  1  0  0  0  0
 11 14  1  0  0  0  0
 14 15  1  0  0  0  0
 14 16  1  0  0  0  0
 14 17  1  0  0  0  0
 17 18  1  0  0  0  0
 17 19  2  0  0  0  0
 20 21  2  0  0  0  0
 20 22  1  0  0  0  0
 22 23  1  0  0  0  0
 22 24  1  0  0  0  0
 24 25  1  0  0  0  0
 24 26  1  0  0  0  0
 24 27  1  0  0  0  0
M  CHG  1  18  -1
M  END
$$$$

  -OEChem-04042215583D

 27 26  0     1  0  0  0  0  0999 V2000
   -2.7554   -3.8520    0.3501 H   0  0  0  0  0  0  0  0  0  0  0  0
   -2.6046   -2.9492   -0.2485 C   0  0  0  0  0  0  0  0  0  0  0  0
   -3.4504   -2.2753   -0.0906 H   0  0  0  0  0  0  0  0  0  0  0  0
   -2.5652   -3.2304   -1.3042 H   0  0  0  0  0  0  0  0  0  0  0  0
   -1.3112   -2.2617    0.1527 C   0  0  0  0  0  0  0  0  0  0  0  0
   -0.6420   -2.7195    1.0631 O   0  0  0  0  0  0  0  0  0  0  0  0
   -0.9299   -1.1134   -0.5096 N   0  0  0  0  0  0  0  0  0  0  0  0
   -1.4627   -0.8984   -1.3493 H   0  0  0  0  0  0  0  0  0  0  0  0
    0.4125   -0.5063   -0.4282 C   0  0  1  0  0  0  0  0  0  0  0  0
    1.1411   -1.2450   -0.7774 H   0  0  0  0  0  0  0  0  0  0  0  0
    0.3928    0.7180   -1.3738 C   0  0  0  0  0  0  0  0  0  0  0  0
   -0.4900    0.6583   -2.0201 H   0  0  0  0  0  0  0  0  0  0  0  0
    0.2878    1.6455   -0.8014 H   0  0  0  0  0  0  0  0  0  0  0  0
    1.6457    0.8187   -2.2674 C   0  0  0  0  0  0  0  0  0  0  0  0
    2.3160    1.5893   -1.8749 H   0  0  0  0  0  0  0  0  0  0  0  0
    2.2019   -0.1225   -2.2769 H   0  0  0  0  0  0  0  0  0  0  0  0
    1.2535    1.1433   -3.7103 C   0  0  0  0  0  0  0  0  0  0  0  0
    0.6359    0.2523   -4.3485 O   0  5  0  0  0  0  0  0  0  0  0  0
    1.5147    2.2888   -4.1518 O   0  0  0  0  0  0  0  0  0  0  0  0
    0.8515   -0.0807    0.9908 C   0  0  0  0  0  0  0  0  0  0  0  0
    2.0089   -0.2295    1.3645 O   0  0  0  0  0  0  0  0  0  0  0  0
   -0.0364    0.5979    1.8057 N   0  0  0  0  0  0  0  0  0  0  0  0
   -0.9984    0.6277    1.4872 H   0  0  0  0  0  0  0  0  0  0  0  0
    0.2805    1.0178    3.1620 C   0  0  0  0  0  0  0  0  0  0  0  0
    1.1422    1.6931    3.1614 H   0  0  0  0  0  0  0  0  0  0  0  0
   -0.5712    1.5459    3.6004 H   0  0  0  0  0  0  0  0  0  0  0  0
    0.5109    0.1486    3.7864 H   0  0  0  0  0  0  0  0  0  0  0  0
  1  2  1  0  0  0  0
  2  3  1  0  0  0  0
  2  4  1  0  0  0  0
  2  5  1  0  0  0  0
  5  6  2  0  0  0  0
  5  7  1  0  0  0  0
  7  8  1  0  0  0  0
  7  9  1  0  0  0  0
  9 10  1  0  0  0  0
  9 11  1  0  0  0  0
  9 20  1  0  0  0  0
 11 12  1  0  0  0  0
 11 13  1  0  0  0  0
 11 14  1  0  0  0  0
 14 15  1  0  0  0  0
 14 16  1  0  0  0  0
 14 17  1  0  0  0  0
 17 18  1  0  0  0  0
 17 19  2  0  0  0  0
 20 21  2  0  0  0  0
 20 22  1  0  0  0  0
 22 23  1  0  0  0  0
 22 24  1  0  0  0  0
 24 25  1  0  0  0  0
 24 26  1  0  0  0  0
 24 27  1  0  0  0  0
M  CHG  1  18  -1
M  END
$$$$

  -OEChem-04042215583D

 27 26  0     1  0  0  0  0  0999 V2000
   -2.6065   -3.9640    0.3380 H   0  0  0  0  0  0  0  0  0  0  0  0
   -2.4759   -3.0683   -0.2759 C   0  0  0  0  0  0  0  0  0  0  0  0
   -3.3419   -2.4164   -0.1367 H   0  0  0  0  0  0  0  0  0  0  0  0
   -2.4200   -3.3672   -1.3257 H   0  0  0  0  0  0  0  0  0  0  0  0
   -1.2055   -2.3375    0.1219 C   0  0  0  0  0  0  0  0  0  0  0  0
   -0.5029   -2.7891    1.0096 O   0  0  0  0  0  0  0  0  0  0  0  0
   -0.8737   -1.1673   -0.5288 N   0  0  0  0  0  0  0  0  0  0  0  0
   -1.4348   -0.9412   -1.3464 H   0  0  0  0  0  0  0  0  0  0  0  0
    0.4310   -0.4858   -0.4235 C   0  0  1  0  0  0  0  0  0  0  0  0
    1.2089   -1.1790   -0.7594 H   0  0  0  0  0  0  0  0  0  0  0  0
    0.3628    0.7341   -1.3713 C   0  0  0  0  0  0  0  0  0  0  0  0
   -0.4939    0.6138   -2.0433 H   0  0  0  0  0  0  0  0  0  0  0  0
    0.1887    1.6576   -0.8091 H   0  0  0  0  0  0  0  0  0  0  0  0
    1.6272    0.8960   -2.2348 C   0  0  0  0  0  0  0  0  0  0  0  0
    2.3709    1.4901   -1.6952 H   0  0  0  0  0  0  0  0  0  0  0  0
    2.0761   -0.0776   -2.4499 H   0  0  0  0  0  0  0  0  0  0  0  0
    1.2878    1.5513   -3.5754 C   0  0  0  0  0  0  0  0  0  0  0  0
    1.6709    2.7303   -3.7713 O   0  5  0  0  0  0  0  0  0  0  0  0
    0.5851    0.8837   -4.3773 O   0  0  0  0  0  0  0  0  0  0  0  0
    0.8192   -0.0414    1.0045 C   0  0  0  0  0  0  0  0  0  0  0  0
    1.9726   -0.1434    1.4050 O   0  0  0  0  0  0  0  0  0  0  0  0
   -0.1182    0.5834    1.8071 N   0  0  0  0  0  0  0  0  0  0  0  0
   -1.0684    0.6088    1.4548 H   0  0  0  0  0  0  0  0  0  0  0  0
    0.1582    1.0422    3.1597 C   0  0  0  0  0  0  0  0  0  0  0  0
    0.9394    1.8092    3.1496 H   0  0  0  0  0  0  0  0  0  0  0  0
   -0.7444    1.4732    3.6027 H   0  0  0  0  0  0  0  0  0  0  0  0
    0.4881    0.2075    3.7866 H   0  0  0  0  0  0  0  0  0  0  0  0
  1  2  1  0  0  0  0
  2  3  1  0  0  0  0
  2  4  1  0  0  0  0
  2  5  1  0  0  0  0
  5  6  2  0  0  0  0
  5  7  1  0  0  0  0
  7  8  1  0  0  0  0
  7  9  1  0  0  0  0
  9 10  1  0  0  0  0
  9 11  1  0  0  0  0
  9 20  1  0  0  0  0
 11 12  1  0  0  0  0
 11 13  1  0  0  0  0
 11 14  1  0  0  0  0
 14 15  1  0  0  0  0
 14 16  1  0  0  0  0
 14 17  1  0  0  0  0
 17 18  1  0  0  0  0
 17 19  2  0  0  0  0
 20 21  2  0  0  0  0
 20 22  1  0  0  0  0
 22 23  1  0  0  0  0
 22 24  1  0  0  0  0
 24 25  1  0  0  0  0
 24 26  1  0  0  0  0
 24 27  1  0  0  0  0
M  CHG  1  18  -1
M  END
$$$$

  -OEChem-04042215583D

 27 26  0     1  0  0  0  0  0999 V2000
   -2.6067   -3.9639    0.3372 H   0  0  0  0  0  0  0  0  0  0  0  0
   -2.4840   -3.0601   -0.2664 C   0  0  0  0  0  0  0  0  0  0  0  0
   -3.3379   -2.4009   -0.0916 H   0  0  0  0  0  0  0  0  0  0  0  0
   -2.4617   -3.3429   -1.3219 H   0  0  0  0  0  0  0  0  0  0  0  0
   -1.1948   -2.3497    0.1064 C   0  0  0  0  0  0  0  0  0  0  0  0
   -0.4737   -2.8223    0.9677 O   0  0  0  0  0  0  0  0  0  0  0  0
   -0.8631   -1.1775   -0.5405 N   0  0  0  0  0  0  0  0  0  0  0  0
   -1.4484   -0.9201   -1.3310 H   0  0  0  0  0  0  0  0  0  0  0  0
    0.4357   -0.4865   -0.4256 C   0  0  1  0  0  0  0  0  0  0  0  0
    1.2236   -1.1712   -0.7570 H   0  0  0  0  0  0  0  0  0  0  0  0
    0.3661    0.7290   -1.3765 C   0  0  0  0  0  0  0  0  0  0  0  0
   -0.4808    0.6049   -2.0598 H   0  0  0  0  0  0  0  0  0  0  0  0
    0.1864    1.6522   -0.8153 H   0  0  0  0  0  0  0  0  0  0  0  0
    1.6402    0.8873   -2.2224 C   0  0  0  0  0  0  0  0  0  0  0  0
    2.4563    1.2513   -1.5904 H   0  0  0  0  0  0  0  0  0  0  0  0
    1.9439   -0.0796   -2.6335 H   0  0  0  0  0  0  0  0  0  0  0  0
    1.4125    1.8470   -3.3946 C   0  0  0  0  0  0  0  0  0  0  0  0
    2.1360    2.8698   -3.4676 O   0  5  0  0  0  0  0  0  0  0  0  0
    0.4881    1.5662   -4.2007 O   0  0  0  0  0  0  0  0  0  0  0  0
    0.8087   -0.0392    1.0058 C   0  0  0  0  0  0  0  0  0  0  0  0
    1.9548   -0.1518    1.4233 O   0  0  0  0  0  0  0  0  0  0  0  0
   -0.1389    0.5792    1.8015 N   0  0  0  0  0  0  0  0  0  0  0  0
   -1.0784    0.6374    1.4258 H   0  0  0  0  0  0  0  0  0  0  0  0
    0.1251    1.0485    3.1530 C   0  0  0  0  0  0  0  0  0  0  0  0
    0.9008    1.8212    3.1440 H   0  0  0  0  0  0  0  0  0  0  0  0
   -0.7838    1.4750    3.5873 H   0  0  0  0  0  0  0  0  0  0  0  0
    0.4568    0.2196    3.7868 H   0  0  0  0  0  0  0  0  0  0  0  0
  1  2  1  0  0  0  0
  2  3  1  0  0  0  0
  2  4  1  0  0  0  0
  2  5  1  0  0  0  0
  5  6  2  0  0  0  0
  5  7  1  0  0  0  0
  7  8  1  0  0  0  0
  7  9  1  0  0  0  0
  9 10  1  0  0  0  0
  9 11  1  0  0  0  0
  9 20  1  0  0  0  0
 11 12  1  0  0  0  0
 11 13  1  0  0  0  0
 11 14  1  0  0  0  0
 14 15  1  0  0  0  0
 14 16  1  0  0  0  0
 14 17  1  0  0  0  0
 17 18  1  0  0  0  0
 17 19  2  0  0  0  0
 20 21  2  0  0  0  0
 20 22  1  0  0  0  0
 22 23  1  0  0  0  0
 22 24  1  0  0  0  0
 24 25  1  0  0  0  0
 24 26  1  0  0  0  0
 24 27  1  0  0  0  0
M  CHG  1  18  -1
M  END
$$$$

  -OEChem-04042215583D

 27 26  0     1  0  0  0  0  0999 V2000
   -2.7559   -3.8411    0.4166 H   0  0  0  0  0  0  0  0  0  0  0  0
   -2.6085   -2.9423   -0.1887 C   0  0  0  0  0  0  0  0  0  0  0  0
   -3.4066   -2.2308    0.0371 H   0  0  0  0  0  0  0  0  0  0  0  0
   -2.6637   -3.2167   -1.2451 H   0  0  0  0  0  0  0  0  0  0  0  0
   -1.2572   -2.3202    0.1152 C   0  0  0  0  0  0  0  0  0  0  0  0
   -0.5139   -2.8555    0.9188 O   0  0  0  0  0  0  0  0  0  0  0  0
   -0.8947   -1.1563   -0.5301 N   0  0  0  0  0  0  0  0  0  0  0  0
   -1.5114   -0.8404   -1.2738 H   0  0  0  0  0  0  0  0  0  0  0  0
    0.4344   -0.5205   -0.4523 C   0  0  1  0  0  0  0  0  0  0  0  0
    1.1932   -1.2225   -0.8151 H   0  0  0  0  0  0  0  0  0  0  0  0
    0.3709    0.7144   -1.3796 C   0  0  0  0  0  0  0  0  0  0  0  0
   -0.6258    0.8198   -1.8220 H   0  0  0  0  0  0  0  0  0  0  0  0
    0.5576    1.6271   -0.8027 H   0  0  0  0  0  0  0  0  0  0  0  0
    1.4071    0.6357   -2.5084 C   0  0  0  0  0  0  0  0  0  0  0  0
    2.4133    0.5649   -2.0836 H   0  0  0  0  0  0  0  0  0  0  0  0
    1.2313   -0.2582   -3.1136 H   0  0  0  0  0  0  0  0  0  0  0  0
    1.3144    1.8704   -3.4064 C   0  0  0  0  0  0  0  0  0  0  0  0
    0.2396    2.0320   -4.0395 O   0  5  0  0  0  0  0  0  0  0  0  0
    2.2989    2.6463   -3.4585 O   0  0  0  0  0  0  0  0  0  0  0  0
    0.8562   -0.1101    0.9767 C   0  0  0  0  0  0  0  0  0  0  0  0
    2.0066   -0.2699    1.3657 O   0  0  0  0  0  0  0  0  0  0  0  0
   -0.0499    0.5330    1.8007 N   0  0  0  0  0  0  0  0  0  0  0  0
   -0.9840    0.6681    1.4311 H   0  0  0  0  0  0  0  0  0  0  0  0
    0.2725    1.0162    3.1343 C   0  0  0  0  0  0  0  0  0  0  0  0
    1.0558    1.7793    3.0841 H   0  0  0  0  0  0  0  0  0  0  0  0
   -0.6137    1.4585    3.5983 H   0  0  0  0  0  0  0  0  0  0  0  0
    0.6195    0.1922    3.7658 H   0  0  0  0  0  0  0  0  0  0  0  0
  1  2  1  0  0  0  0
  2  3  1  0  0  0  0
  2  4  1  0  0  0  0
  2  5  1  0  0  0  0
  5  6  2  0  0  0  0
  5  7  1  0  0  0  0
  7  8  1  0  0  0  0
  7  9  1  0  0  0  0
  9 10  1  0  0  0  0
  9 11  1  0  0  0  0
  9 20  1  0  0  0  0
 11 12  1  0  0  0  0
 11 13  1  0  0  0  0
 11 14  1  0  0  0  0
 14 15  1  0  0  0  0
 14 16  1  0  0  0  0
 14 17  1  0  0  0  0
 17 18  1  0  0  0  0
 17 19  2  0  0  0  0
 20 21  2  0  0  0  0
 20 22  1  0  0  0  0
 22 23  1  0  0  0  0
 22 24  1  0  0  0  0
 24 25  1  0  0  0  0
 24 26  1  0  0  0  0
 24 27  1  0  0  0  0
M  CHG  1  18  -1
M  END
$$$$

  -OEChem-04042215583D

 27 26  0     1  0  0  0  0  0999 V2000
   -2.7194   -3.8751    0.3946 H   0  0  0  0  0  0  0  0  0  0  0  0
   -2.5945   -2.9542   -0.1822 C   0  0  0  0  0  0  0  0  0  0  0  0
   -3.3941   -2.2597    0.0871 H   0  0  0  0  0  0  0  0  0  0  0  0
   -2.6715   -3.1925   -1.2462 H   0  0  0  0  0  0  0  0  0  0  0  0
   -1.2418   -2.3294    0.1117 C   0  0  0  0  0  0  0  0  0  0  0  0
   -0.4875   -2.8707    0.9008 O   0  0  0  0  0  0  0  0  0  0  0  0
   -0.8872   -1.1617   -0.5317 N   0  0  0  0  0  0  0  0  0  0  0  0
   -1.5179   -0.8329   -1.2573 H   0  0  0  0  0  0  0  0  0  0  0  0
    0.4365   -0.5150   -0.4505 C   0  0  1  0  0  0  0  0  0  0  0  0
    1.2001   -1.2129   -0.8105 H   0  0  0  0  0  0  0  0  0  0  0  0
    0.3647    0.7168   -1.3829 C   0  0  0  0  0  0  0  0  0  0  0  0
   -0.6309    0.8279   -1.8261 H   0  0  0  0  0  0  0  0  0  0  0  0
    0.5500    1.6243   -0.7968 H   0  0  0  0  0  0  0  0  0  0  0  0
    1.4037    0.6536   -2.5137 C   0  0  0  0  0  0  0  0  0  0  0  0
    2.3722    0.3490   -2.1044 H   0  0  0  0  0  0  0  0  0  0  0  0
    1.0989   -0.0902   -3.2550 H   0  0  0  0  0  0  0  0  0  0  0  0
    1.5689    2.0150   -3.1951 C   0  0  0  0  0  0  0  0  0  0  0  0
    0.5178    2.6174   -3.5345 O   0  5  0  0  0  0  0  0  0  0  0  0
    2.7324    2.4293   -3.4159 O   0  0  0  0  0  0  0  0  0  0  0  0
    0.8511   -0.1024    0.9805 C   0  0  0  0  0  0  0  0  0  0  0  0
    1.9964   -0.2725    1.3794 O   0  0  0  0  0  0  0  0  0  0  0  0
   -0.0611    0.5327    1.8039 N   0  0  0  0  0  0  0  0  0  0  0  0
   -0.9884    0.6846    1.4241 H   0  0  0  0  0  0  0  0  0  0  0  0
    0.2530    1.0053    3.1436 C   0  0  0  0  0  0  0  0  0  0  0  0
    1.0678    1.7358    3.1099 H   0  0  0  0  0  0  0  0  0  0  0  0
   -0.6238    1.4847    3.5885 H   0  0  0  0  0  0  0  0  0  0  0  0
    0.5531    0.1686    3.7827 H   0  0  0  0  0  0  0  0  0  0  0  0
  1  2  1  0  0  0  0
  2  3  1  0  0  0  0
  2  4  1  0  0  0  0
  2  5  1  0  0  0  0
  5  6  2  0  0  0  0
  5  7  1  0  0  0  0
  7  8  1  0  0  0  0
  7  9  1  0  0  0  0
  9 10  1  0  0  0  0
  9 11  1  0  0  0  0
  9 20  1  0  0  0  0
 11 12  1  0  0  0  0
 11 13  1  0  0  0  0
 11 14  1  0  0  0  0
 14 15  1  0  0  0  0
 14 16  1  0  0  0  0
 14 17  1  0  0  0  0
 17 18  1  0  0  0  0
 17 19  2  0  0  0  0
 20 21  2  0  0  0  0
 20 22  1  0  0  0  0
 22 23  1  0  0  0  0
 22 24  1  0  0  0  0
 24 25  1  0  0  0  0
 24 26  1  0  0  0  0
 24 27  1  0  0  0  0
M  CHG  1  18  -1
M  END
$$$$

  -OEChem-04042215583D

 27 26  0     1  0  0  0  0  0999 V2000
   -2.7237   -3.8684    0.4076 H   0  0  0  0  0  0  0  0  0  0  0  0
   -2.5953   -2.9487   -0.1703 C   0  0  0  0  0  0  0  0  0  0  0  0
   -3.3822   -2.2440    0.1097 H   0  0  0  0  0  0  0  0  0  0  0  0
   -2.6890   -3.1854   -1.2331 H   0  0  0  0  0  0  0  0  0  0  0  0
   -1.2321   -2.3402    0.1069 C   0  0  0  0  0  0  0  0  0  0  0  0
   -0.4748   -2.8914    0.8859 O   0  0  0  0  0  0  0  0  0  0  0  0
   -0.8751   -1.1729   -0.5361 N   0  0  0  0  0  0  0  0  0  0  0  0
   -1.5130   -0.8316   -1.2488 H   0  0  0  0  0  0  0  0  0  0  0  0
    0.4477   -0.5249   -0.4497 C   0  0  1  0  0  0  0  0  0  0  0  0
    1.2132   -1.2231   -0.8041 H   0  0  0  0  0  0  0  0  0  0  0  0
    0.3709    0.7070   -1.3845 C   0  0  0  0  0  0  0  0  0  0  0  0
   -0.6259    0.8264   -1.8218 H   0  0  0  0  0  0  0  0  0  0  0  0
    0.5539    1.6064   -0.7851 H   0  0  0  0  0  0  0  0  0  0  0  0
    1.4060    0.6685   -2.5247 C   0  0  0  0  0  0  0  0  0  0  0  0
    2.3036    0.1379   -2.1918 H   0  0  0  0  0  0  0  0  0  0  0  0
    0.9931    0.1281   -3.3808 H   0  0  0  0  0  0  0  0  0  0  0  0
    1.8282    2.0764   -2.9560 C   0  0  0  0  0  0  0  0  0  0  0  0
    0.9120    2.9207   -3.1311 O   0  5  0  0  0  0  0  0  0  0  0  0
    3.0460    2.2889   -3.1706 O   0  0  0  0  0  0  0  0  0  0  0  0
    0.8522   -0.1117    0.9846 C   0  0  0  0  0  0  0  0  0  0  0  0
    1.9884   -0.3017    1.3994 O   0  0  0  0  0  0  0  0  0  0  0  0
   -0.0659    0.5226    1.8025 N   0  0  0  0  0  0  0  0  0  0  0  0
   -0.9812    0.7023    1.4064 H   0  0  0  0  0  0  0  0  0  0  0  0
    0.2414    0.9963    3.1434 C   0  0  0  0  0  0  0  0  0  0  0  0
    1.0534    1.7301    3.1128 H   0  0  0  0  0  0  0  0  0  0  0  0
   -0.6390    1.4720    3.5849 H   0  0  0  0  0  0  0  0  0  0  0  0
    0.5418    0.1607    3.7836 H   0  0  0  0  0  0  0  0  0  0  0  0
  1  2  1  0  0  0  0
  2  3  1  0  0  0  0
  2  4  1  0  0  0  0
  2  5  1  0  0  0  0
  5  6  2  0  0  0  0
  5  7  1  0  0  0  0
  7  8  1  0  0  0  0
  7  9  1  0  0  0  0
  9 10  1  0  0  0  0
  9 11  1  0  0  0  0
  9 20  1  0  0  0  0
 11 12  1  0  0  0  0
 11 13  1  0  0  0  0
 11 14  1  0  0  0  0
 14 15  1  0  0  0  0
 14 16  1  0  0  0  0
 14 17  1  0  0  0  0
 17 18  1  0  0  0  0
 17 19  2  0  0  0  0
 20 21  2  0  0  0  0
 20 22  1  0  0  0  0
 22 23  1  0  0  0  0
 22 24  1  0  0  0  0
 24 25  1  0  0  0  0
 24 26  1  0  0  0  0
 24 27  1  0  0  0  0
M  CHG  1  18  -1
M  END
$$$$

  -OEChem-04042215583D

 27 26  0     1  0  0  0  0  0999 V2000
   -2.7292   -3.8714    0.4054 H   0  0  0  0  0  0  0  0  0  0  0  0
   -2.5963   -2.9528   -0.1732 C   0  0  0  0  0  0  0  0  0  0  0  0
   -3.3812   -2.2452    0.1045 H   0  0  0  0  0  0  0  0  0  0  0  0
   -2.6884   -3.1900   -1.2361 H   0  0  0  0  0  0  0  0  0  0  0  0
   -1.2315   -2.3490    0.1064 C   0  0  0  0  0  0  0  0  0  0  0  0
   -0.4736   -2.9090    0.8782 O   0  0  0  0  0  0  0  0  0  0  0  0
   -0.8718   -1.1809   -0.5339 N   0  0  0  0  0  0  0  0  0  0  0  0
   -1.5120   -0.8336   -1.2410 H   0  0  0  0  0  0  0  0  0  0  0  0
    0.4520   -0.5346   -0.4445 C   0  0  1  0  0  0  0  0  0  0  0  0
    1.2177   -1.2339   -0.7955 H   0  0  0  0  0  0  0  0  0  0  0  0
    0.3728    0.7029   -1.3758 C   0  0  0  0  0  0  0  0  0  0  0  0
   -0.6255    0.8189   -1.8097 H   0  0  0  0  0  0  0  0  0  0  0  0
    0.5430    1.5983   -0.7668 H   0  0  0  0  0  0  0  0  0  0  0  0
    1.4019    0.6871   -2.5276 C   0  0  0  0  0  0  0  0  0  0  0  0
    2.1778   -0.0589   -2.3330 H   0  0  0  0  0  0  0  0  0  0  0  0
    0.9012    0.4062   -3.4584 H   0  0  0  0  0  0  0  0  0  0  0  0
    2.0937    2.0415   -2.7140 C   0  0  0  0  0  0  0  0  0  0  0  0
    1.3550    3.0578   -2.7784 O   0  5  0  0  0  0  0  0  0  0  0  0
    3.3387    2.0523   -2.8688 O   0  0  0  0  0  0  0  0  0  0  0  0
    0.8516   -0.1260    0.9929 C   0  0  0  0  0  0  0  0  0  0  0  0
    1.9797   -0.3360    1.4191 O   0  0  0  0  0  0  0  0  0  0  0  0
   -0.0688    0.5071    1.8094 N   0  0  0  0  0  0  0  0  0  0  0  0
   -0.9686    0.7237    1.3973 H   0  0  0  0  0  0  0  0  0  0  0  0
    0.2437    0.9949    3.1440 C   0  0  0  0  0  0  0  0  0  0  0  0
    1.0480    1.7364    3.1008 H   0  0  0  0  0  0  0  0  0  0  0  0
   -0.6382    1.4652    3.5885 H   0  0  0  0  0  0  0  0  0  0  0  0
    0.5574    0.1678    3.7891 H   0  0  0  0  0  0  0  0  0  0  0  0
  1  2  1  0  0  0  0
  2  3  1  0  0  0  0
  2  4  1  0  0  0  0
  2  5  1  0  0  0  0
  5  6  2  0  0  0  0
  5  7  1  0  0  0  0
  7  8  1  0  0  0  0
  7  9  1  0  0  0  0
  9 10  1  0  0  0  0
  9 11  1  0  0  0  0
  9 20  1  0  0  0  0
 11 12  1  0  0  0  0
 11 13  1  0  0  0  0
 11 14  1  0  0  0  0
 14 15  1  0  0  0  0
 14 16  1  0  0  0  0
 14 17  1  0  0  0  0
 17 18  1  0  0  0  0
 17 19  2  0  0  0  0
 20 21  2  0  0  0  0
 20 22  1  0  0  0  0
 22 23  1  0  0  0  0
 22 24  1  0  0  0  0
 24 25  1  0  0  0  0
 24 26  1  0  0  0  0
 24 27  1  0  0  0  0
M  CHG  1  18  -1
M  END
$$$$

  -OEChem-04042215583D

 27 26  0     1  0  0  0  0  0999 V2000
   -2.7113   -3.8743    0.4140 H   0  0  0  0  0  0  0  0  0  0  0  0
   -2.5859   -2.9498   -0.1570 C   0  0  0  0  0  0  0  0  0  0  0  0
   -3.3685   -2.2459    0.1367 H   0  0  0  0  0  0  0  0  0  0  0  0
   -2.6895   -3.1768   -1.2210 H   0  0  0  0  0  0  0  0  0  0  0  0
   -1.2185   -2.3473    0.1134 C   0  0  0  0  0  0  0  0  0  0  0  0
   -0.4582   -2.9079    0.8820 O   0  0  0  0  0  0  0  0  0  0  0  0
   -0.8615   -1.1802   -0.5309 N   0  0  0  0  0  0  0  0  0  0  0  0
   -1.5045   -0.8360   -1.2367 H   0  0  0  0  0  0  0  0  0  0  0  0
    0.4615   -0.5299   -0.4451 C   0  0  1  0  0  0  0  0  0  0  0  0
    1.2325   -1.2256   -0.7915 H   0  0  0  0  0  0  0  0  0  0  0  0
    0.3777    0.7107   -1.3748 C   0  0  0  0  0  0  0  0  0  0  0  0
   -0.6210    0.8009   -1.8141 H   0  0  0  0  0  0  0  0  0  0  0  0
    0.5207    1.6140   -0.7709 H   0  0  0  0  0  0  0  0  0  0  0  0
    1.4023    0.7048   -2.5335 C   0  0  0  0  0  0  0  0  0  0  0  0
    1.9963   -0.2131   -2.5220 H   0  0  0  0  0  0  0  0  0  0  0  0
    0.8591    0.7227   -3.4826 H   0  0  0  0  0  0  0  0  0  0  0  0
    2.3536    1.9055   -2.5084 C   0  0  0  0  0  0  0  0  0  0  0  0
    1.8352    3.0492   -2.4364 O   0  5  0  0  0  0  0  0  0  0  0  0
    3.5798    1.6842   -2.6569 O   0  0  0  0  0  0  0  0  0  0  0  0
    0.8538   -0.1186    0.9940 C   0  0  0  0  0  0  0  0  0  0  0  0
    1.9706   -0.3498    1.4379 O   0  0  0  0  0  0  0  0  0  0  0  0
   -0.0730    0.5123    1.8053 N   0  0  0  0  0  0  0  0  0  0  0  0
   -0.9702    0.7297    1.3884 H   0  0  0  0  0  0  0  0  0  0  0  0
    0.2190    0.9663    3.1564 C   0  0  0  0  0  0  0  0  0  0  0  0
    1.0446    1.6854    3.1480 H   0  0  0  0  0  0  0  0  0  0  0  0
   -0.6604    1.4532    3.5880 H   0  0  0  0  0  0  0  0  0  0  0  0
    0.4932    0.1183    3.7923 H   0  0  0  0  0  0  0  0  0  0  0  0
  1  2  1  0  0  0  0
  2  3  1  0  0  0  0
  2  4  1  0  0  0  0
  2  5  1  0  0  0  0
  5  6  2  0  0  0  0
  5  7  1  0  0  0  0
  7  8  1  0  0  0  0
  7  9  1  0  0  0  0
  9 10  1  0  0  0  0
  9 11  1  0  0  0  0
  9 20  1  0  0  0  0
 11 12  1  0  0  0  0
 11 13  1  0  0  0  0
 11 14  1  0  0  0  0
 14 15  1  0  0  0  0
 14 16  1  0  0  0  0
 14 17  1  0  0  0  0
 17 18  1  0  0  0  0
 17 19  2  0  0  0  0
 20 21  2  0  0  0  0
 20 22  1  0  0  0  0
 22 23  1  0  0  0  0
 22 24  1  0  0  0  0
 24 25  1  0  0  0  0
 24 26  1  0  0  0  0
 24 27  1  0  0  0  0
M  CHG  1  18  -1
M  END
$$$$

  -OEChem-04042215583D

 27 26  0     1  0  0  0  0  0999 V2000
   -2.6988   -3.8789    0.4100 H   0  0  0  0  0  0  0  0  0  0  0  0
   -2.5754   -2.9530   -0.1589 C   0  0  0  0  0  0  0  0  0  0  0  0
   -3.3619   -2.2528    0.1332 H   0  0  0  0  0  0  0  0  0  0  0  0
   -2.6749   -3.1789   -1.2234 H   0  0  0  0  0  0  0  0  0  0  0  0
   -1.2115   -2.3452    0.1172 C   0  0  0  0  0  0  0  0  0  0  0  0
   -0.4550   -2.9007    0.8929 O   0  0  0  0  0  0  0  0  0  0  0  0
   -0.8567   -1.1777   -0.5278 N   0  0  0  0  0  0  0  0  0  0  0  0
   -1.4962   -0.8426   -1.2407 H   0  0  0  0  0  0  0  0  0  0  0  0
    0.4657   -0.5238   -0.4442 C   0  0  1  0  0  0  0  0  0  0  0  0
    1.2429   -1.2114   -0.7943 H   0  0  0  0  0  0  0  0  0  0  0  0
    0.3766    0.7207   -1.3681 C   0  0  0  0  0  0  0  0  0  0  0  0
   -0.6203    0.7868   -1.8153 H   0  0  0  0  0  0  0  0  0  0  0  0
    0.4984    1.6330   -0.7738 H   0  0  0  0  0  0  0  0  0  0  0  0
    1.3992    0.7130   -2.5259 C   0  0  0  0  0  0  0  0  0  0  0  0
    1.7753   -0.2984   -2.7040 H   0  0  0  0  0  0  0  0  0  0  0  0
    0.8842    1.0260   -3.4387 H   0  0  0  0  0  0  0  0  0  0  0  0
    2.5739    1.6740   -2.3232 C   0  0  0  0  0  0  0  0  0  0  0  0
    2.3022    2.8762   -2.0739 O   0  5  0  0  0  0  0  0  0  0  0  0
    3.7287    1.2282   -2.5283 O   0  0  0  0  0  0  0  0  0  0  0  0
    0.8542   -0.1126    0.9964 C   0  0  0  0  0  0  0  0  0  0  0  0
    1.9625   -0.3595    1.4524 O   0  0  0  0  0  0  0  0  0  0  0  0
   -0.0770    0.5152    1.8056 N   0  0  0  0  0  0  0  0  0  0  0  0
   -0.9726    0.7324    1.3861 H   0  0  0  0  0  0  0  0  0  0  0  0
    0.2038    0.9513    3.1648 C   0  0  0  0  0  0  0  0  0  0  0  0
    1.0343    1.6648    3.1733 H   0  0  0  0  0  0  0  0  0  0  0  0
   -0.6766    1.4393    3.5927 H   0  0  0  0  0  0  0  0  0  0  0  0
    0.4657    0.0941    3.7937 H   0  0  0  0  0  0  0  0  0  0  0  0
  1  2  1  0  0  0  0
  2  3  1  0  0  0  0
  2  4  1  0  0  0  0
  2  5  1  0  0  0  0
  5  6  2  0  0  0  0
  5  7  1  0  0  0  0
  7  8  1  0  0  0  0
  7  9  1  0  0  0  0
  9 10  1  0  0  0  0
  9 11  1  0  0  0  0
  9 20  1  0  0  0  0
 11 12  1  0  0  0  0
 11 13  1  0  0  0  0
 11 14  1  0  0  0  0
 14 15  1  0  0  0  0
 14 16  1  0  0  0  0
 14 17  1  0  0  0  0
 17 18  1  0  0  0  0
 17 19  2  0  0  0  0
 20 21  2  0  0  0  0
 20 22  1  0  0  0  0
 22 23  1  0  0  0  0
 22 24  1  0  0  0  0
 24 25  1  0  0  0  0
 24 26  1  0  0  0  0
 24 27  1  0  0  0  0
M  CHG  1  18  -1
M  END
$$$$

  -OEChem-04042215583D

 27 26  0     1  0  0  0  0  0999 V2000
   -2.6855   -3.8781    0.4025 H   0  0  0  0  0  0  0  0  0  0  0  0
   -2.5609   -2.9516   -0.1654 C   0  0  0  0  0  0  0  0  0  0  0  0
   -3.3571   -2.2575    0.1144 H   0  0  0  0  0  0  0  0  0  0  0  0
   -2.6428   -3.1794   -1.2311 H   0  0  0  0  0  0  0  0  0  0  0  0
   -1.2063   -2.3321    0.1298 C   0  0  0  0  0  0  0  0  0  0  0  0
   -0.4629   -2.8745    0.9266 O   0  0  0  0  0  0  0  0  0  0  0  0
   -0.8505   -1.1678   -0.5207 N   0  0  0  0  0  0  0  0  0  0  0  0
   -1.4786   -0.8536   -1.2528 H   0  0  0  0  0  0  0  0  0  0  0  0
    0.4731   -0.5142   -0.4432 C   0  0  1  0  0  0  0  0  0  0  0  0
    1.2546   -1.1953   -0.7989 H   0  0  0  0  0  0  0  0  0  0  0  0
    0.3749    0.7300   -1.3664 C   0  0  0  0  0  0  0  0  0  0  0  0
   -0.6238    0.7912   -1.8100 H   0  0  0  0  0  0  0  0  0  0  0  0
    0.5036    1.6476   -0.7815 H   0  0  0  0  0  0  0  0  0  0  0  0
    1.3906    0.7129   -2.5250 C   0  0  0  0  0  0  0  0  0  0  0  0
    1.5533   -0.3126   -2.8702 H   0  0  0  0  0  0  0  0  0  0  0  0
    0.9615    1.2695   -3.3631 H   0  0  0  0  0  0  0  0  0  0  0  0
    2.7291    1.3741   -2.1911 C   0  0  0  0  0  0  0  0  0  0  0  0
    2.7027    2.5621   -1.7819 O   0  5  0  0  0  0  0  0  0  0  0  0
    3.7718    0.7284   -2.4564 O   0  0  0  0  0  0  0  0  0  0  0  0
    0.8589   -0.0997    0.9979 C   0  0  0  0  0  0  0  0  0  0  0  0
    1.9560   -0.3661    1.4688 O   0  0  0  0  0  0  0  0  0  0  0  0
   -0.0759    0.5300    1.8019 N   0  0  0  0  0  0  0  0  0  0  0  0
   -0.9769    0.7278    1.3849 H   0  0  0  0  0  0  0  0  0  0  0  0
    0.1852    0.9322    3.1755 C   0  0  0  0  0  0  0  0  0  0  0  0
    1.0276    1.6305    3.2158 H   0  0  0  0  0  0  0  0  0  0  0  0
   -0.6950    1.4266    3.5965 H   0  0  0  0  0  0  0  0  0  0  0  0
    0.4195    0.0574    3.7908 H   0  0  0  0  0  0  0  0  0  0  0  0
  1  2  1  0  0  0  0
  2  3  1  0  0  0  0
  2  4  1  0  0  0  0
  2  5  1  0  0  0  0
  5  6  2  0  0  0  0
  5  7  1  0  0  0  0
  7  8  1  0  0  0  0
  7  9  1  0  0  0  0
  9 10  1  0  0  0  0
  9 11  1  0  0  0  0
  9 20  1  0  0  0  0
 11 12  1  0  0  0  0
 11 13  1  0  0  0  0
 11 14  1  0  0  0  0
 14 15  1  0  0  0  0
 14 16  1  0  0  0  0
 14 17  1  0  0  0  0
 17 18  1  0  0  0  0
 17 19  2  0  0  0  0
 20 21  2  0  0  0  0
 20 22  1  0  0  0  0
 22 23  1  0  0  0  0
 22 24  1  0  0  0  0
 24 25  1  0  0  0  0
 24 26  1  0  0  0  0
 24 27  1  0  0  0  0
M  CHG  1  18  -1
M  END
$$$$

  -OEChem-04042215583D

 27 26  0     1  0  0  0  0  0999 V2000
   -2.6704   -3.8716    0.3955 H   0  0  0  0  0  0  0  0  0  0  0  0
   -2.5450   -2.9464   -0.1742 C   0  0  0  0  0  0  0  0  0  0  0  0
   -3.3575   -2.2622    0.0822 H   0  0  0  0  0  0  0  0  0  0  0  0
   -2.5973   -3.1810   -1.2403 H   0  0  0  0  0  0  0  0  0  0  0  0
   -1.2064   -2.3074    0.1508 C   0  0  0  0  0  0  0  0  0  0  0  0
   -0.4891   -2.8225    0.9883 O   0  0  0  0  0  0  0  0  0  0  0  0
   -0.8436   -1.1510   -0.5104 N   0  0  0  0  0  0  0  0  0  0  0  0
   -1.4457   -0.8733   -1.2780 H   0  0  0  0  0  0  0  0  0  0  0  0
    0.4850   -0.5052   -0.4402 C   0  0  1  0  0  0  0  0  0  0  0  0
    1.2660   -1.1864   -0.7990 H   0  0  0  0  0  0  0  0  0  0  0  0
    0.3781    0.7369   -1.3664 C   0  0  0  0  0  0  0  0  0  0  0  0
   -0.6270    0.8129   -1.7928 H   0  0  0  0  0  0  0  0  0  0  0  0
    0.5374    1.6525   -0.7857 H   0  0  0  0  0  0  0  0  0  0  0  0
    1.3789    0.7168   -2.5330 C   0  0  0  0  0  0  0  0  0  0  0  0
    1.3440   -0.2584   -3.0283 H   0  0  0  0  0  0  0  0  0  0  0  0
    1.0699    1.4658   -3.2675 H   0  0  0  0  0  0  0  0  0  0  0  0
    2.8157    1.0393   -2.1262 C   0  0  0  0  0  0  0  0  0  0  0  0
    3.0397    2.1865   -1.6663 O   0  5  0  0  0  0  0  0  0  0  0  0
    3.6925    0.1765   -2.3741 O   0  0  0  0  0  0  0  0  0  0  0  0
    0.8684   -0.0836    1.0008 C   0  0  0  0  0  0  0  0  0  0  0  0
    1.9555   -0.3619    1.4870 O   0  0  0  0  0  0  0  0  0  0  0  0
   -0.0688    0.5563    1.7945 N   0  0  0  0  0  0  0  0  0  0  0  0
   -0.9835    0.7034    1.3870 H   0  0  0  0  0  0  0  0  0  0  0  0
    0.1610    0.9019    3.1890 C   0  0  0  0  0  0  0  0  0  0  0  0
    1.0260    1.5669    3.2798 H   0  0  0  0  0  0  0  0  0  0  0  0
   -0.7139    1.4145    3.5990 H   0  0  0  0  0  0  0  0  0  0  0  0
    0.3439   -0.0012    3.7803 H   0  0  0  0  0  0  0  0  0  0  0  0
  1  2  1  0  0  0  0
  2  3  1  0  0  0  0
  2  4  1  0  0  0  0
  2  5  1  0  0  0  0
  5  6  2  0  0  0  0
  5  7  1  0  0  0  0
  7  8  1  0  0  0  0
  7  9  1  0  0  0  0
  9 10  1  0  0  0  0
  9 11  1  0  0  0  0
  9 20  1  0  0  0  0
 11 12  1  0  0  0  0
 11 13  1  0  0  0  0
 11 14  1  0  0  0  0
 14 15  1  0  0  0  0
 14 16  1  0  0  0  0
 14 17  1  0  0  0  0
 17 18  1  0  0  0  0
 17 19  2  0  0  0  0
 20 21  2  0  0  0  0
 20 22  1  0  0  0  0
 22 23  1  0  0  0  0
 22 24  1  0  0  0  0
 24 25  1  0  0  0  0
 24 26  1  0  0  0  0
 24 27  1  0  0  0  0
M  CHG  1  18  -1
M  END
$$$$

  -OEChem-04042215583D

 27 26  0     1  0  0  0  0  0999 V2000
   -2.6695   -3.8694    0.3745 H   0  0  0  0  0  0  0  0  0  0  0  0
   -2.5303   -2.9551   -0.2097 C   0  0  0  0  0  0  0  0  0  0  0  0
   -3.3720   -2.2848   -0.0204 H   0  0  0  0  0  0  0  0  0  0  0  0
   -2.5124   -3.2161   -1.2708 H   0  0  0  0  0  0  0  0  0  0  0  0
   -1.2281   -2.2770    0.1790 C   0  0  0  0  0  0  0  0  0  0  0  0
   -0.5634   -2.7442    1.0852 O   0  0  0  0  0  0  0  0  0  0  0  0
   -0.8505   -1.1313   -0.4933 N   0  0  0  0  0  0  0  0  0  0  0  0
   -1.4074   -0.9076   -1.3112 H   0  0  0  0  0  0  0  0  0  0  0  0
    0.4881   -0.5044   -0.4265 C   0  0  1  0  0  0  0  0  0  0  0  0
    1.2605   -1.1968   -0.7835 H   0  0  0  0  0  0  0  0  0  0  0  0
    0.3892    0.7422   -1.3512 C   0  0  0  0  0  0  0  0  0  0  0  0
   -0.6225    0.8505   -1.7547 H   0  0  0  0  0  0  0  0  0  0  0  0
    0.5889    1.6457   -0.7642 H   0  0  0  0  0  0  0  0  0  0  0  0
    1.3721    0.7338   -2.5324 C   0  0  0  0  0  0  0  0  0  0  0  0
    1.1494   -0.1258   -3.1719 H   0  0  0  0  0  0  0  0  0  0  0  0
    1.2086    1.6344   -3.1313 H   0  0  0  0  0  0  0  0  0  0  0  0
    2.8452    0.6862   -2.1349 C   0  0  0  0  0  0  0  0  0  0  0  0
    3.3745    1.7574   -1.7507 O   0  5  0  0  0  0  0  0  0  0  0  0
    3.4483   -0.4023   -2.2987 O   0  0  0  0  0  0  0  0  0  0  0  0
    0.8704   -0.0782    1.0149 C   0  0  0  0  0  0  0  0  0  0  0  0
    1.9605   -0.3373    1.5044 O   0  0  0  0  0  0  0  0  0  0  0  0
   -0.0654    0.5795    1.7959 N   0  0  0  0  0  0  0  0  0  0  0  0
   -0.9984    0.6452    1.4089 H   0  0  0  0  0  0  0  0  0  0  0  0
    0.1451    0.8849    3.2028 C   0  0  0  0  0  0  0  0  0  0  0  0
    1.0325    1.5139    3.3288 H   0  0  0  0  0  0  0  0  0  0  0  0
   -0.7184    1.4228    3.6046 H   0  0  0  0  0  0  0  0  0  0  0  0
    0.2794   -0.0379    3.7765 H   0  0  0  0  0  0  0  0  0  0  0  0
  1  2  1  0  0  0  0
  2  3  1  0  0  0  0
  2  4  1  0  0  0  0
  2  5  1  0  0  0  0
  5  6  2  0  0  0  0
  5  7  1  0  0  0  0
  7  8  1  0  0  0  0
  7  9  1  0  0  0  0
  9 10  1  0  0  0  0
  9 11  1  0  0  0  0
  9 20  1  0  0  0  0
 11 12  1  0  0  0  0
 11 13  1  0  0  0  0
 11 14  1  0  0  0  0
 14 15  1  0  0  0  0
 14 16  1  0  0  0  0
 14 17  1  0  0  0  0
 17 18  1  0  0  0  0
 17 19  2  0  0  0  0
 20 21  2  0  0  0  0
 20 22  1  0  0  0  0
 22 23  1  0  0  0  0
 22 24  1  0  0  0  0
 24 25  1  0  0  0  0
 24 26  1  0  0  0  0
 24 27  1  0  0  0  0
M  CHG  1  18  -1
M  END
$$$$

  -OEChem-04042215583D

 27 26  0     1  0  0  0  0  0999 V2000
   -2.6864   -3.8761    0.3435 H   0  0  0  0  0  0  0  0  0  0  0  0
   -2.5367   -2.9651   -0.2429 C   0  0  0  0  0  0  0  0  0  0  0  0
   -3.3972   -2.3074   -0.0989 H   0  0  0  0  0  0  0  0  0  0  0  0
   -2.4662   -3.2366   -1.2992 H   0  0  0  0  0  0  0  0  0  0  0  0
   -1.2650   -2.2610    0.1970 C   0  0  0  0  0  0  0  0  0  0  0  0
   -0.6530   -2.6884    1.1586 O   0  0  0  0  0  0  0  0  0  0  0  0
   -0.8667   -1.1256   -0.4811 N   0  0  0  0  0  0  0  0  0  0  0  0
   -1.3803   -0.9405   -1.3364 H   0  0  0  0  0  0  0  0  0  0  0  0
    0.4818   -0.5217   -0.4030 C   0  0  1  0  0  0  0  0  0  0  0  0
    1.2385   -1.2371   -0.7435 H   0  0  0  0  0  0  0  0  0  0  0  0
    0.4159    0.7284   -1.3297 C   0  0  0  0  0  0  0  0  0  0  0  0
   -0.5958    0.8722   -1.7220 H   0  0  0  0  0  0  0  0  0  0  0  0
    0.6421    1.6164   -0.7293 H   0  0  0  0  0  0  0  0  0  0  0  0
    1.3950    0.7452   -2.5191 C   0  0  0  0  0  0  0  0  0  0  0  0
    1.0108    0.0671   -3.2869 H   0  0  0  0  0  0  0  0  0  0  0  0
    1.4009    1.7493   -2.9534 H   0  0  0  0  0  0  0  0  0  0  0  0
    2.8359    0.3381   -2.2157 C   0  0  0  0  0  0  0  0  0  0  0  0
    3.6390    1.2454   -1.8910 O   0  5  0  0  0  0  0  0  0  0  0  0
    3.1405   -0.8662   -2.4016 O   0  0  0  0  0  0  0  0  0  0  0  0
    0.8559   -0.0936    1.0401 C   0  0  0  0  0  0  0  0  0  0  0  0
    1.9553   -0.3187    1.5259 O   0  0  0  0  0  0  0  0  0  0  0  0
   -0.0789    0.5841    1.8051 N   0  0  0  0  0  0  0  0  0  0  0  0
   -1.0189    0.6007    1.4293 H   0  0  0  0  0  0  0  0  0  0  0  0
    0.1260    0.8963    3.2117 C   0  0  0  0  0  0  0  0  0  0  0  0
    1.0207    1.5143    3.3405 H   0  0  0  0  0  0  0  0  0  0  0  0
   -0.7330    1.4482    3.6038 H   0  0  0  0  0  0  0  0  0  0  0  0
    0.2444   -0.0242    3.7923 H   0  0  0  0  0  0  0  0  0  0  0  0
  1  2  1  0  0  0  0
  2  3  1  0  0  0  0
  2  4  1  0  0  0  0
  2  5  1  0  0  0  0
  5  6  2  0  0  0  0
  5  7  1  0  0  0  0
  7  8  1  0  0  0  0
  7  9  1  0  0  0  0
  9 10  1  0  0  0  0
  9 11  1  0  0  0  0
  9 20  1  0  0  0  0
 11 12  1  0  0  0  0
 11 13  1  0  0  0  0
 11 14  1  0  0  0  0
 14 15  1  0  0  0  0
 14 16  1  0  0  0  0
 14 17  1  0  0  0  0
 17 18  1  0  0  0  0
 17 19  2  0  0  0  0
 20 21  2  0  0  0  0
 20 22  1  0  0  0  0
 22 23  1  0  0  0  0
 22 24  1  0  0  0  0
 24 25  1  0  0  0  0
 24 26  1  0  0  0  0
 24 27  1  0  0  0  0
M  CHG  1  18  -1
M  END
$$$$

  -OEChem-04042215583D

 27 26  0     1  0  0  0  0  0999 V2000
   -2.7598   -3.8365    0.3651 H   0  0  0  0  0  0  0  0  0  0  0  0
   -2.5505   -2.9734   -0.2734 C   0  0  0  0  0  0  0  0  0  0  0  0
   -3.4096   -2.2987   -0.2473 H   0  0  0  0  0  0  0  0  0  0  0  0
   -2.4009   -3.3230   -1.2983 H   0  0  0  0  0  0  0  0  0  0  0  0
   -1.3069   -2.2498    0.2122 C   0  0  0  0  0  0  0  0  0  0  0  0
   -0.7455   -2.6434    1.2186 O   0  0  0  0  0  0  0  0  0  0  0  0
   -0.8859   -1.1251   -0.4697 N   0  0  0  0  0  0  0  0  0  0  0  0
   -1.3587   -0.9736   -1.3548 H   0  0  0  0  0  0  0  0  0  0  0  0
    0.4726   -0.5468   -0.3795 C   0  0  1  0  0  0  0  0  0  0  0  0
    1.2141   -1.2848   -0.7004 H   0  0  0  0  0  0  0  0  0  0  0  0
    0.4442    0.7072   -1.3065 C   0  0  0  0  0  0  0  0  0  0  0  0
   -0.5653    0.8818   -1.6922 H   0  0  0  0  0  0  0  0  0  0  0  0
    0.6882    1.5815   -0.6932 H   0  0  0  0  0  0  0  0  0  0  0  0
    1.4226    0.7459   -2.5023 C   0  0  0  0  0  0  0  0  0  0  0  0
    0.9118    0.3054   -3.3636 H   0  0  0  0  0  0  0  0  0  0  0  0
    1.6215    1.7917   -2.7551 H   0  0  0  0  0  0  0  0  0  0  0  0
    2.7571    0.0145   -2.3567 C   0  0  0  0  0  0  0  0  0  0  0  0
    3.7721    0.6966   -2.0789 O   0  5  0  0  0  0  0  0  0  0  0  0
    2.7633   -1.2139   -2.6235 O   0  0  0  0  0  0  0  0  0  0  0  0
    0.8398   -0.1188    1.0655 C   0  0  0  0  0  0  0  0  0  0  0  0
    1.9494   -0.3111    1.5430 O   0  0  0  0  0  0  0  0  0  0  0  0
   -0.0912    0.5796    1.8160 N   0  0  0  0  0  0  0  0  0  0  0  0
   -1.0362    0.5631    1.4518 H   0  0  0  0  0  0  0  0  0  0  0  0
    0.1178    0.9235    3.2144 C   0  0  0  0  0  0  0  0  0  0  0  0
    1.0125    1.5446    3.3268 H   0  0  0  0  0  0  0  0  0  0  0  0
   -0.7404    1.4844    3.5953 H   0  0  0  0  0  0  0  0  0  0  0  0
    0.2378    0.0167    3.8161 H   0  0  0  0  0  0  0  0  0  0  0  0
  1  2  1  0  0  0  0
  2  3  1  0  0  0  0
  2  4  1  0  0  0  0
  2  5  1  0  0  0  0
  5  6  2  0  0  0  0
  5  7  1  0  0  0  0
  7  8  1  0  0  0  0
  7  9  1  0  0  0  0
  9 10  1  0  0  0  0
  9 11  1  0  0  0  0
  9 20  1  0  0  0  0
 11 12  1  0  0  0  0
 11 13  1  0  0  0  0
 11 14  1  0  0  0  0
 14 15  1  0  0  0  0
 14 16  1  0  0  0  0
 14 17  1  0  0  0  0
 17 18  1  0  0  0  0
 17 19  2  0  0  0  0
 20 21  2  0  0  0  0
 20 22  1  0  0  0  0
 22 23  1  0  0  0  0
 22 24  1  0  0  0  0
 24 25  1  0  0  0  0
 24 26  1  0  0  0  0
 24 27  1  0  0  0  0
M  CHG  1  18  -1
M  END
$$$$

  -OEChem-04042215583D

 27 26  0     1  0  0  0  0  0999 V2000
   -2.7831   -3.8406    0.3452 H   0  0  0  0  0  0  0  0  0  0  0  0
   -2.5610   -2.9857   -0.2998 C   0  0  0  0  0  0  0  0  0  0  0  0
   -3.4335   -2.3285   -0.3285 H   0  0  0  0  0  0  0  0  0  0  0  0
   -2.3559   -3.3524   -1.3090 H   0  0  0  0  0  0  0  0  0  0  0  0
   -1.3556   -2.2277    0.2283 C   0  0  0  0  0  0  0  0  0  0  0  0
   -0.8460   -2.5775    1.2782 O   0  0  0  0  0  0  0  0  0  0  0  0
   -0.9176   -1.1146   -0.4618 N   0  0  0  0  0  0  0  0  0  0  0  0
   -1.3512   -1.0032   -1.3732 H   0  0  0  0  0  0  0  0  0  0  0  0
    0.4511   -0.5634   -0.3658 C   0  0  1  0  0  0  0  0  0  0  0  0
    1.1770   -1.3234   -0.6673 H   0  0  0  0  0  0  0  0  0  0  0  0
    0.4652    0.6918   -1.2946 C   0  0  0  0  0  0  0  0  0  0  0  0
   -0.5388    0.8830   -1.6867 H   0  0  0  0  0  0  0  0  0  0  0  0
    0.7137    1.5622   -0.6778 H   0  0  0  0  0  0  0  0  0  0  0  0
    1.4495    0.7280   -2.4911 C   0  0  0  0  0  0  0  0  0  0  0  0
    0.8692    0.5737   -3.4056 H   0  0  0  0  0  0  0  0  0  0  0  0
    1.8745    1.7342   -2.5571 H   0  0  0  0  0  0  0  0  0  0  0  0
    2.5950   -0.2844   -2.5222 C   0  0  0  0  0  0  0  0  0  0  0  0
    3.7607    0.1302   -2.3201 O   0  5  0  0  0  0  0  0  0  0  0  0
    2.2940   -1.4634   -2.8405 O   0  0  0  0  0  0  0  0  0  0  0  0
    0.8231   -0.1331    1.0769 C   0  0  0  0  0  0  0  0  0  0  0  0
    1.9434   -0.3059    1.5377 O   0  0  0  0  0  0  0  0  0  0  0  0
   -0.0935    0.5893    1.8221 N   0  0  0  0  0  0  0  0  0  0  0  0
   -1.0448    0.5584    1.4748 H   0  0  0  0  0  0  0  0  0  0  0  0
    0.1349    0.9590    3.2110 C   0  0  0  0  0  0  0  0  0  0  0  0
    1.0375    1.5723    3.3006 H   0  0  0  0  0  0  0  0  0  0  0  0
   -0.7128    1.5371    3.5901 H   0  0  0  0  0  0  0  0  0  0  0  0
    0.2520    0.0634    3.8296 H   0  0  0  0  0  0  0  0  0  0  0  0
  1  2  1  0  0  0  0
  2  3  1  0  0  0  0
  2  4  1  0  0  0  0
  2  5  1  0  0  0  0
  5  6  2  0  0  0  0
  5  7  1  0  0  0  0
  7  8  1  0  0  0  0
  7  9  1  0  0  0  0
  9 10  1  0  0  0  0
  9 11  1  0  0  0  0
  9 20  1  0  0  0  0
 11 12  1  0  0  0  0
 11 13  1  0  0  0  0
 11 14  1  0  0  0  0
 14 15  1  0  0  0  0
 14 16  1  0  0  0  0
 14 17  1  0  0  0  0
 17 18  1  0  0  0  0
 17 19  2  0  0  0  0
 20 21  2  0  0  0  0
 20 22  1  0  0  0  0
 22 23  1  0  0  0  0
 22 24  1  0  0  0  0
 24 25  1  0  0  0  0
 24 26  1  0  0  0  0
 24 27  1  0  0  0  0
M  CHG  1  18  -1
M  END
$$$$

  -OEChem-04042215583D

 27 26  0     1  0  0  0  0  0999 V2000
   -1.7625   -3.7902   -0.7235 H   0  0  0  0  0  0  0  0  0  0  0  0
   -1.7756   -2.7551   -1.0759 C   0  0  0  0  0  0  0  0  0  0  0  0
   -2.7601   -2.5337   -1.4936 H   0  0  0  0  0  0  0  0  0  0  0  0
   -1.0188   -2.6450   -1.8577 H   0  0  0  0  0  0  0  0  0  0  0  0
   -1.4610   -1.8100    0.0698 C   0  0  0  0  0  0  0  0  0  0  0  0
   -1.3354   -2.2272    1.2119 O   0  0  0  0  0  0  0  0  0  0  0  0
   -1.6704   -0.4526   -0.0400 N   0  0  0  0  0  0  0  0  0  0  0  0
   -2.3439   -0.2547   -0.7708 H   0  0  0  0  0  0  0  0  0  0  0  0
   -0.4547    0.3577   -0.2153 C   0  0  1  0  0  0  0  0  0  0  0  0
   -0.8098    1.3728   -0.0162 H   0  0  0  0  0  0  0  0  0  0  0  0
   -0.1470    0.4066   -1.7517 C   0  0  0  0  0  0  0  0  0  0  0  0
   -0.9829   -0.0470   -2.2933 H   0  0  0  0  0  0  0  0  0  0  0  0
   -0.1694    1.4694   -2.0146 H   0  0  0  0  0  0  0  0  0  0  0  0
    1.1503   -0.1360   -2.4144 C   0  0  0  0  0  0  0  0  0  0  0  0
    0.8588   -0.8701   -3.1711 H   0  0  0  0  0  0  0  0  0  0  0  0
    1.6132    0.6972   -2.9525 H   0  0  0  0  0  0  0  0  0  0  0  0
    2.2436   -0.7892   -1.5714 C   0  0  0  0  0  0  0  0  0  0  0  0
    3.4414   -0.5097   -1.8294 O   0  5  0  0  0  0  0  0  0  0  0  0
    1.8638   -1.7689   -0.8763 O   0  0  0  0  0  0  0  0  0  0  0  0
    0.6298    0.2967    0.8870 C   0  0  0  0  0  0  0  0  0  0  0  0
    1.6630    0.9300    0.7092 O   0  0  0  0  0  0  0  0  0  0  0  0
    0.1580    0.3597    2.1872 N   0  0  0  0  0  0  0  0  0  0  0  0
   -0.6344   -0.2660    2.3286 H   0  0  0  0  0  0  0  0  0  0  0  0
    1.0486    0.5591    3.3233 C   0  0  0  0  0  0  0  0  0  0  0  0
    1.4849    1.5629    3.2987 H   0  0  0  0  0  0  0  0  0  0  0  0
    0.4925    0.4481    4.2586 H   0  0  0  0  0  0  0  0  0  0  0  0
    1.8574   -0.1789    3.3094 H   0  0  0  0  0  0  0  0  0  0  0  0
  1  2  1  0  0  0  0
  2  3  1  0  0  0  0
  2  4  1  0  0  0  0
  2  5  1  0  0  0  0
  5  6  2  0  0  0  0
  5  7  1  0  0  0  0
  7  8  1  0  0  0  0
  7  9  1  0  0  0  0
  9 10  1  0  0  0  0
  9 11  1  0  0  0  0
  9 20  1  0  0  0  0
 11 12  1  0  0  0  0
 11 13  1  0  0  0  0
 11 14  1  0  0  0  0
 14 15  1  0  0  0  0
 14 16  1  0  0  0  0
 14 17  1  0  0  0  0
 17 18  1  0  0  0  0
 17 19  2  0  0  0  0
 20 21  2  0  0  0  0
 20 22  1  0  0  0  0
 22 23  1  0  0  0  0
 22 24  1  0  0  0  0
 24 25  1  0  0  0  0
 24 26  1  0  0  0  0
 24 27  1  0  0  0  0
M  CHG  1  18  -1
M  END
$$$$

  -OEChem-04042215583D

 27 26  0     1  0  0  0  0  0999 V2000
   -2.6802   -3.9037    0.4641 H   0  0  0  0  0  0  0  0  0  0  0  0
   -2.4988   -3.0605   -0.2082 C   0  0  0  0  0  0  0  0  0  0  0  0
   -3.4092   -2.4604   -0.2774 H   0  0  0  0  0  0  0  0  0  0  0  0
   -2.2510   -3.4493   -1.1995 H   0  0  0  0  0  0  0  0  0  0  0  0
   -1.3528   -2.2105    0.3110 C   0  0  0  0  0  0  0  0  0  0  0  0
   -0.8636   -2.4661    1.3986 O   0  0  0  0  0  0  0  0  0  0  0  0
   -0.9523   -1.1148   -0.4264 N   0  0  0  0  0  0  0  0  0  0  0  0
   -1.3540   -1.1036   -1.3611 H   0  0  0  0  0  0  0  0  0  0  0  0
    0.4144   -0.5575   -0.3804 C   0  0  1  0  0  0  0  0  0  0  0  0
    1.1364   -1.3267   -0.6691 H   0  0  0  0  0  0  0  0  0  0  0  0
    0.4247    0.6793   -1.3344 C   0  0  0  0  0  0  0  0  0  0  0  0
   -0.5815    0.8141   -1.7442 H   0  0  0  0  0  0  0  0  0  0  0  0
    0.6383    1.5870   -0.7599 H   0  0  0  0  0  0  0  0  0  0  0  0
    1.3949    0.6613   -2.5429 C   0  0  0  0  0  0  0  0  0  0  0  0
    0.8776    1.0632   -3.4186 H   0  0  0  0  0  0  0  0  0  0  0  0
    2.2238    1.3396   -2.3179 H   0  0  0  0  0  0  0  0  0  0  0  0
    1.9956   -0.6953   -2.9177 C   0  0  0  0  0  0  0  0  0  0  0  0
    1.1717   -1.6134   -3.1733 O   0  5  0  0  0  0  0  0  0  0  0  0
    3.2407   -0.8027   -3.0149 O   0  0  0  0  0  0  0  0  0  0  0  0
    0.8326   -0.0832    1.0340 C   0  0  0  0  0  0  0  0  0  0  0  0
    1.9864   -0.1889    1.4312 O   0  0  0  0  0  0  0  0  0  0  0  0
   -0.0608    0.6591    1.7868 N   0  0  0  0  0  0  0  0  0  0  0  0
   -1.0287    0.5657    1.4995 H   0  0  0  0  0  0  0  0  0  0  0  0
    0.2241    1.0873    3.1479 C   0  0  0  0  0  0  0  0  0  0  0  0
    1.1159    1.7222    3.1710 H   0  0  0  0  0  0  0  0  0  0  0  0
   -0.6177    1.6621    3.5451 H   0  0  0  0  0  0  0  0  0  0  0  0
    0.3901    0.2190    3.7938 H   0  0  0  0  0  0  0  0  0  0  0  0
  1  2  1  0  0  0  0
  2  3  1  0  0  0  0
  2  4  1  0  0  0  0
  2  5  1  0  0  0  0
  5  6  2  0  0  0  0
  5  7  1  0  0  0  0
  7  8  1  0  0  0  0
  7  9  1  0  0  0  0
  9 10  1  0  0  0  0
  9 11  1  0  0  0  0
  9 20  1  0  0  0  0
 11 12  1  0  0  0  0
 11 13  1  0  0  0  0
 11 14  1  0  0  0  0
 14 15  1  0  0  0  0
 14 16  1  0  0  0  0
 14 17  1  0  0  0  0
 17 18  1  0  0  0  0
 17 19  2  0  0  0  0
 20 21  2  0  0  0  0
 20 22  1  0  0  0  0
 22 23  1  0  0  0  0
 22 24  1  0  0  0  0
 24 25  1  0  0  0  0
 24 26  1  0  0  0  0
 24 27  1  0  0  0  0
M  CHG  1  18  -1
M  END
$$$$

  -OEChem-04042215583D

 27 26  0     1  0  0  0  0  0999 V2000
   -2.6307   -3.9350    0.4066 H   0  0  0  0  0  0  0  0  0  0  0  0
   -2.4611   -3.0832   -0.2579 C   0  0  0  0  0  0  0  0  0  0  0  0
   -3.3855   -2.5065   -0.3378 H   0  0  0  0  0  0  0  0  0  0  0  0
   -2.1885   -3.4592   -1.2478 H   0  0  0  0  0  0  0  0  0  0  0  0
   -1.3456   -2.2066    0.2830 C   0  0  0  0  0  0  0  0  0  0  0  0
   -0.8621   -2.4587    1.3746 O   0  0  0  0  0  0  0  0  0  0  0  0
   -0.9636   -1.0946   -0.4388 N   0  0  0  0  0  0  0  0  0  0  0  0
   -1.3474   -1.0973   -1.3831 H   0  0  0  0  0  0  0  0  0  0  0  0
    0.4002   -0.5341   -0.3960 C   0  0  1  0  0  0  0  0  0  0  0  0
    1.1218   -1.2925   -0.7149 H   0  0  0  0  0  0  0  0  0  0  0  0
    0.3952    0.7174   -1.3273 C   0  0  0  0  0  0  0  0  0  0  0  0
   -0.6116    0.8522   -1.7361 H   0  0  0  0  0  0  0  0  0  0  0  0
    0.6133    1.6212   -0.7490 H   0  0  0  0  0  0  0  0  0  0  0  0
    1.3645    0.6824   -2.5310 C   0  0  0  0  0  0  0  0  0  0  0  0
    0.9702    1.3155   -3.3307 H   0  0  0  0  0  0  0  0  0  0  0  0
    2.3200    1.1095   -2.2112 H   0  0  0  0  0  0  0  0  0  0  0  0
    1.6385   -0.7178   -3.0906 C   0  0  0  0  0  0  0  0  0  0  0  0
    0.6317   -1.4536   -3.2786 O   0  5  0  0  0  0  0  0  0  0  0  0
    2.8183   -1.0362   -3.3690 O   0  0  0  0  0  0  0  0  0  0  0  0
    0.8428   -0.0839    1.0178 C   0  0  0  0  0  0  0  0  0  0  0  0
    2.0076   -0.1863    1.3843 O   0  0  0  0  0  0  0  0  0  0  0  0
   -0.0374    0.6434    1.7997 N   0  0  0  0  0  0  0  0  0  0  0  0
   -1.0109    0.5488    1.5310 H   0  0  0  0  0  0  0  0  0  0  0  0
    0.2737    1.0561    3.1599 C   0  0  0  0  0  0  0  0  0  0  0  0
    1.1617    1.6964    3.1729 H   0  0  0  0  0  0  0  0  0  0  0  0
   -0.5634    1.6206    3.5810 H   0  0  0  0  0  0  0  0  0  0  0  0
    0.4584    0.1808    3.7911 H   0  0  0  0  0  0  0  0  0  0  0  0
  1  2  1  0  0  0  0
  2  3  1  0  0  0  0
  2  4  1  0  0  0  0
  2  5  1  0  0  0  0
  5  6  2  0  0  0  0
  5  7  1  0  0  0  0
  7  8  1  0  0  0  0
  7  9  1  0  0  0  0
  9 10  1  0  0  0  0
  9 11  1  0  0  0  0
  9 20  1  0  0  0  0
 11 12  1  0  0  0  0
 11 13  1  0  0  0  0
 11 14  1  0  0  0  0
 14 15  1  0  0  0  0
 14 16  1  0  0  0  0
 14 17  1  0  0  0  0
 17 18  1  0  0  0  0
 17 19  2  0  0  0  0
 20 21  2  0  0  0  0
 20 22  1  0  0  0  0
 22 23  1  0  0  0  0
 22 24  1  0  0  0  0
 24 25  1  0  0  0  0
 24 26  1  0  0  0  0
 24 27  1  0  0  0  0
M  CHG  1  18  -1
M  END
$$$$

  -OEChem-04042215583D

 27 26  0     1  0  0  0  0  0999 V2000
   -2.5888   -3.9501    0.3329 H   0  0  0  0  0  0  0  0  0  0  0  0
   -2.4369   -3.0789   -0.3102 C   0  0  0  0  0  0  0  0  0  0  0  0
   -3.3702   -2.5138   -0.3689 H   0  0  0  0  0  0  0  0  0  0  0  0
   -2.1658   -3.4240   -1.3121 H   0  0  0  0  0  0  0  0  0  0  0  0
   -1.3315   -2.1994    0.2457 C   0  0  0  0  0  0  0  0  0  0  0  0
   -0.8422   -2.4633    1.3326 O   0  0  0  0  0  0  0  0  0  0  0  0
   -0.9602   -1.0737   -0.4585 N   0  0  0  0  0  0  0  0  0  0  0  0
   -1.3310   -1.0772   -1.4109 H   0  0  0  0  0  0  0  0  0  0  0  0
    0.3971   -0.5025   -0.4092 C   0  0  1  0  0  0  0  0  0  0  0  0
    1.1240   -1.2467   -0.7513 H   0  0  0  0  0  0  0  0  0  0  0  0
    0.3702    0.7494   -1.3331 C   0  0  0  0  0  0  0  0  0  0  0  0
   -0.6356    0.8884   -1.7442 H   0  0  0  0  0  0  0  0  0  0  0  0
    0.5982    1.6530   -0.7582 H   0  0  0  0  0  0  0  0  0  0  0  0
    1.3538    0.6746   -2.5165 C   0  0  0  0  0  0  0  0  0  0  0  0
    1.1206    1.4651   -3.2349 H   0  0  0  0  0  0  0  0  0  0  0  0
    2.3679    0.8465   -2.1429 H   0  0  0  0  0  0  0  0  0  0  0  0
    1.3175   -0.6844   -3.2309 C   0  0  0  0  0  0  0  0  0  0  0  0
    0.1928   -1.2473   -3.3411 O   0  5  0  0  0  0  0  0  0  0  0  0
    2.3924   -1.1468   -3.6796 O   0  0  0  0  0  0  0  0  0  0  0  0
    0.8488   -0.0671    1.0049 C   0  0  0  0  0  0  0  0  0  0  0  0
    2.0191   -0.1659    1.3555 O   0  0  0  0  0  0  0  0  0  0  0  0
   -0.0286    0.6432    1.8044 N   0  0  0  0  0  0  0  0  0  0  0  0
   -1.0039    0.5433    1.5431 H   0  0  0  0  0  0  0  0  0  0  0  0
    0.2913    1.0321    3.1691 C   0  0  0  0  0  0  0  0  0  0  0  0
    1.1768    1.6757    3.1869 H   0  0  0  0  0  0  0  0  0  0  0  0
   -0.5447    1.5846    3.6075 H   0  0  0  0  0  0  0  0  0  0  0  0
    0.4848    0.1457    3.7819 H   0  0  0  0  0  0  0  0  0  0  0  0
  1  2  1  0  0  0  0
  2  3  1  0  0  0  0
  2  4  1  0  0  0  0
  2  5  1  0  0  0  0
  5  6  2  0  0  0  0
  5  7  1  0  0  0  0
  7  8  1  0  0  0  0
  7  9  1  0  0  0  0
  9 10  1  0  0  0  0
  9 11  1  0  0  0  0
  9 20  1  0  0  0  0
 11 12  1  0  0  0  0
 11 13  1  0  0  0  0
 11 14  1  0  0  0  0
 14 15  1  0  0  0  0
 14 16  1  0  0  0  0
 14 17  1  0  0  0  0
 17 18  1  0  0  0  0
 17 19  2  0  0  0  0
 20 21  2  0  0  0  0
 20 22  1  0  0  0  0
 22 23  1  0  0  0  0
 22 24  1  0  0  0  0
 24 25  1  0  0  0  0
 24 26  1  0  0  0  0
 24 27  1  0  0  0  0
M  CHG  1  18  -1
M  END
$$$$

  -OEChem-04042215583D

 27 26  0     1  0  0  0  0  0999 V2000
   -2.5680   -3.9599    0.2574 H   0  0  0  0  0  0  0  0  0  0  0  0
   -2.4353   -3.0648   -0.3562 C   0  0  0  0  0  0  0  0  0  0  0  0
   -3.3744   -2.5070   -0.3792 H   0  0  0  0  0  0  0  0  0  0  0  0
   -2.1788   -3.3712   -1.3742 H   0  0  0  0  0  0  0  0  0  0  0  0
   -1.3279   -2.1950    0.2111 C   0  0  0  0  0  0  0  0  0  0  0  0
   -0.8263   -2.4818    1.2868 O   0  0  0  0  0  0  0  0  0  0  0  0
   -0.9577   -1.0586   -0.4751 N   0  0  0  0  0  0  0  0  0  0  0  0
   -1.3253   -1.0463   -1.4310 H   0  0  0  0  0  0  0  0  0  0  0  0
    0.3949   -0.4808   -0.4134 C   0  0  1  0  0  0  0  0  0  0  0  0
    1.1231   -1.2148   -0.7761 H   0  0  0  0  0  0  0  0  0  0  0  0
    0.3521    0.7665   -1.3355 C   0  0  0  0  0  0  0  0  0  0  0  0
   -0.6525    0.9234   -1.7443 H   0  0  0  0  0  0  0  0  0  0  0  0
    0.5973    1.6664   -0.7620 H   0  0  0  0  0  0  0  0  0  0  0  0
    1.3546    0.6535   -2.4955 C   0  0  0  0  0  0  0  0  0  0  0  0
    1.2992    1.5565   -3.1093 H   0  0  0  0  0  0  0  0  0  0  0  0
    2.3694    0.5771   -2.0929 H   0  0  0  0  0  0  0  0  0  0  0  0
    1.0660   -0.5698   -3.3847 C   0  0  0  0  0  0  0  0  0  0  0  0
   -0.0963   -1.0651   -3.3636 O   0  5  0  0  0  0  0  0  0  0  0  0
    2.0057   -0.9976   -4.0951 O   0  0  0  0  0  0  0  0  0  0  0  0
    0.8491   -0.0582    1.0028 C   0  0  0  0  0  0  0  0  0  0  0  0
    2.0216   -0.1590    1.3468 O   0  0  0  0  0  0  0  0  0  0  0  0
   -0.0279    0.6397    1.8133 N   0  0  0  0  0  0  0  0  0  0  0  0
   -1.0037    0.5496    1.5497 H   0  0  0  0  0  0  0  0  0  0  0  0
    0.2958    1.0222    3.1791 C   0  0  0  0  0  0  0  0  0  0  0  0
    1.1780    1.6704    3.1966 H   0  0  0  0  0  0  0  0  0  0  0  0
   -0.5410    1.5682    3.6243 H   0  0  0  0  0  0  0  0  0  0  0  0
    0.4961    0.1337    3.7867 H   0  0  0  0  0  0  0  0  0  0  0  0
  1  2  1  0  0  0  0
  2  3  1  0  0  0  0
  2  4  1  0  0  0  0
  2  5  1  0  0  0  0
  5  6  2  0  0  0  0
  5  7  1  0  0  0  0
  7  8  1  0  0  0  0
  7  9  1  0  0  0  0
  9 10  1  0  0  0  0
  9 11  1  0  0  0  0
  9 20  1  0  0  0  0
 11 12  1  0  0  0  0
 11 13  1  0  0  0  0
 11 14  1  0  0  0  0
 14 15  1  0  0  0  0
 14 16  1  0  0  0  0
 14 17  1  0  0  0  0
 17 18  1  0  0  0  0
 17 19  2  0  0  0  0
 20 21  2  0  0  0  0
 20 22  1  0  0  0  0
 22 23  1  0  0  0  0
 22 24  1  0  0  0  0
 24 25  1  0  0  0  0
 24 26  1  0  0  0  0
 24 27  1  0  0  0  0
M  CHG  1  18  -1
M  END
$$$$

  -OEChem-04042215583D

 27 26  0     1  0  0  0  0  0999 V2000
   -2.5685   -3.9589    0.2071 H   0  0  0  0  0  0  0  0  0  0  0  0
   -2.4580   -3.0385   -0.3728 C   0  0  0  0  0  0  0  0  0  0  0  0
   -3.3982   -2.4830   -0.3421 H   0  0  0  0  0  0  0  0  0  0  0  0
   -2.2341   -3.3016   -1.4105 H   0  0  0  0  0  0  0  0  0  0  0  0
   -1.3354   -2.1885    0.1943 C   0  0  0  0  0  0  0  0  0  0  0  0
   -0.8231   -2.4965    1.2591 O   0  0  0  0  0  0  0  0  0  0  0  0
   -0.9570   -1.0503   -0.4837 N   0  0  0  0  0  0  0  0  0  0  0  0
   -1.3214   -1.0274   -1.4414 H   0  0  0  0  0  0  0  0  0  0  0  0
    0.3954   -0.4753   -0.4109 C   0  0  1  0  0  0  0  0  0  0  0  0
    1.1196   -1.2115   -0.7766 H   0  0  0  0  0  0  0  0  0  0  0  0
    0.3542    0.7638   -1.3402 C   0  0  0  0  0  0  0  0  0  0  0  0
   -0.6475    0.9411   -1.7481 H   0  0  0  0  0  0  0  0  0  0  0  0
    0.6150    1.6592   -0.7666 H   0  0  0  0  0  0  0  0  0  0  0  0
    1.3709    0.6273   -2.4846 C   0  0  0  0  0  0  0  0  0  0  0  0
    1.5013    1.6040   -2.9592 H   0  0  0  0  0  0  0  0  0  0  0  0
    2.3421    0.3117   -2.0920 H   0  0  0  0  0  0  0  0  0  0  0  0
    0.8914   -0.3706   -3.5560 C   0  0  0  0  0  0  0  0  0  0  0  0
   -0.1766   -1.0169   -3.3574 O   0  5  0  0  0  0  0  0  0  0  0  0
    1.5988   -0.4734   -4.5859 O   0  0  0  0  0  0  0  0  0  0  0  0
    0.8462   -0.0575    1.0072 C   0  0  0  0  0  0  0  0  0  0  0  0
    2.0165   -0.1687    1.3557 O   0  0  0  0  0  0  0  0  0  0  0  0
   -0.0319    0.6404    1.8163 N   0  0  0  0  0  0  0  0  0  0  0  0
   -1.0064    0.5634    1.5438 H   0  0  0  0  0  0  0  0  0  0  0  0
    0.2852    1.0208    3.1841 C   0  0  0  0  0  0  0  0  0  0  0  0
    1.1718    1.6625    3.2079 H   0  0  0  0  0  0  0  0  0  0  0  0
   -0.5508    1.5728    3.6231 H   0  0  0  0  0  0  0  0  0  0  0  0
    0.4749    0.1310    3.7931 H   0  0  0  0  0  0  0  0  0  0  0  0
  1  2  1  0  0  0  0
  2  3  1  0  0  0  0
  2  4  1  0  0  0  0
  2  5  1  0  0  0  0
  5  6  2  0  0  0  0
  5  7  1  0  0  0  0
  7  8  1  0  0  0  0
  7  9  1  0  0  0  0
  9 10  1  0  0  0  0
  9 11  1  0  0  0  0
  9 20  1  0  0  0  0
 11 12  1  0  0  0  0
 11 13  1  0  0  0  0
 11 14  1  0  0  0  0
 14 15  1  0  0  0  0
 14 16  1  0  0  0  0
 14 17  1  0  0  0  0
 17 18  1  0  0  0  0
 17 19  2  0  0  0  0
 20 21  2  0  0  0  0
 20 22  1  0  0  0  0
 22 23  1  0  0  0  0
 22 24  1  0  0  0  0
 24 25  1  0  0  0  0
 24 26  1  0  0  0  0
 24 27  1  0  0  0  0
M  CHG  1  18  -1
M  END
$$$$

  -OEChem-04042215583D

 27 26  0     1  0  0  0  0  0999 V2000
   -2.6300   -3.9169    0.2211 H   0  0  0  0  0  0  0  0  0  0  0  0
   -2.4888   -3.0115   -0.3755 C   0  0  0  0  0  0  0  0  0  0  0  0
   -3.4110   -2.4260   -0.3566 H   0  0  0  0  0  0  0  0  0  0  0  0
   -2.2724   -3.3004   -1.4077 H   0  0  0  0  0  0  0  0  0  0  0  0
   -1.3398   -2.1884    0.1787 C   0  0  0  0  0  0  0  0  0  0  0  0
   -0.8157   -2.5163    1.2316 O   0  0  0  0  0  0  0  0  0  0  0  0
   -0.9476   -1.0528   -0.4963 N   0  0  0  0  0  0  0  0  0  0  0  0
   -1.3214   -1.0098   -1.4489 H   0  0  0  0  0  0  0  0  0  0  0  0
    0.4065   -0.4822   -0.4107 C   0  0  1  0  0  0  0  0  0  0  0  0
    1.1277   -1.2251   -0.7675 H   0  0  0  0  0  0  0  0  0  0  0  0
    0.3727    0.7511   -1.3462 C   0  0  0  0  0  0  0  0  0  0  0  0
   -0.6276    0.9410   -1.7529 H   0  0  0  0  0  0  0  0  0  0  0  0
    0.6398    1.6434   -0.7702 H   0  0  0  0  0  0  0  0  0  0  0  0
    1.3996    0.6099   -2.4815 C   0  0  0  0  0  0  0  0  0  0  0  0
    1.7199    1.6086   -2.7931 H   0  0  0  0  0  0  0  0  0  0  0  0
    2.2884    0.0645   -2.1518 H   0  0  0  0  0  0  0  0  0  0  0  0
    0.7563   -0.0924   -3.6881 C   0  0  0  0  0  0  0  0  0  0  0  0
   -0.1503   -0.9438   -3.4653 O   0  5  0  0  0  0  0  0  0  0  0  0
    1.1631    0.2294   -4.8300 O   0  0  0  0  0  0  0  0  0  0  0  0
    0.8471   -0.0626    1.0097 C   0  0  0  0  0  0  0  0  0  0  0  0
    2.0131   -0.1834    1.3693 O   0  0  0  0  0  0  0  0  0  0  0  0
   -0.0341    0.6407    1.8104 N   0  0  0  0  0  0  0  0  0  0  0  0
   -1.0063    0.5780    1.5262 H   0  0  0  0  0  0  0  0  0  0  0  0
    0.2741    1.0248    3.1792 C   0  0  0  0  0  0  0  0  0  0  0  0
    1.1618    1.6650    3.2068 H   0  0  0  0  0  0  0  0  0  0  0  0
   -0.5640    1.5795    3.6107 H   0  0  0  0  0  0  0  0  0  0  0  0
    0.4580    0.1366    3.7923 H   0  0  0  0  0  0  0  0  0  0  0  0
  1  2  1  0  0  0  0
  2  3  1  0  0  0  0
  2  4  1  0  0  0  0
  2  5  1  0  0  0  0
  5  6  2  0  0  0  0
  5  7  1  0  0  0  0
  7  8  1  0  0  0  0
  7  9  1  0  0  0  0
  9 10  1  0  0  0  0
  9 11  1  0  0  0  0
  9 20  1  0  0  0  0
 11 12  1  0  0  0  0
 11 13  1  0  0  0  0
 11 14  1  0  0  0  0
 14 15  1  0  0  0  0
 14 16  1  0  0  0  0
 14 17  1  0  0  0  0
 17 18  1  0  0  0  0
 17 19  2  0  0  0  0
 20 21  2  0  0  0  0
 20 22  1  0  0  0  0
 22 23  1  0  0  0  0
 22 24  1  0  0  0  0
 24 25  1  0  0  0  0
 24 26  1  0  0  0  0
 24 27  1  0  0  0  0
M  CHG  1  18  -1
M  END
$$$$

  -OEChem-04042215583D

 27 26  0     1  0  0  0  0  0999 V2000
   -2.6428   -3.9145    0.2101 H   0  0  0  0  0  0  0  0  0  0  0  0
   -2.5297   -2.9785   -0.3439 C   0  0  0  0  0  0  0  0  0  0  0  0
   -3.4376   -2.3824   -0.2243 H   0  0  0  0  0  0  0  0  0  0  0  0
   -2.3946   -3.2122   -1.4036 H   0  0  0  0  0  0  0  0  0  0  0  0
   -1.3296   -2.2039    0.1703 C   0  0  0  0  0  0  0  0  0  0  0  0
   -0.7630   -2.5737    1.1861 O   0  0  0  0  0  0  0  0  0  0  0  0
   -0.9281   -1.0705   -0.5035 N   0  0  0  0  0  0  0  0  0  0  0  0
   -1.3460   -0.9747   -1.4318 H   0  0  0  0  0  0  0  0  0  0  0  0
    0.4239   -0.4936   -0.4119 C   0  0  1  0  0  0  0  0  0  0  0  0
    1.1491   -1.2388   -0.7531 H   0  0  0  0  0  0  0  0  0  0  0  0
    0.3891    0.7289   -1.3593 C   0  0  0  0  0  0  0  0  0  0  0  0
   -0.6145    0.9142   -1.7602 H   0  0  0  0  0  0  0  0  0  0  0  0
    0.6469    1.6261   -0.7868 H   0  0  0  0  0  0  0  0  0  0  0  0
    1.4215    0.6013   -2.4949 C   0  0  0  0  0  0  0  0  0  0  0  0
    1.9249    1.5637   -2.6279 H   0  0  0  0  0  0  0  0  0  0  0  0
    2.1922   -0.1416   -2.2735 H   0  0  0  0  0  0  0  0  0  0  0  0
    0.6973    0.2401   -3.7969 C   0  0  0  0  0  0  0  0  0  0  0  0
   -0.1710   -0.6737   -3.7346 O   0  5  0  0  0  0  0  0  0  0  0  0
    0.9891    0.8785   -4.8367 O   0  0  0  0  0  0  0  0  0  0  0  0
    0.8514   -0.0655    1.0100 C   0  0  0  0  0  0  0  0  0  0  0  0
    2.0119   -0.1943    1.3837 O   0  0  0  0  0  0  0  0  0  0  0  0
   -0.0369    0.6381    1.8028 N   0  0  0  0  0  0  0  0  0  0  0  0
   -1.0046    0.6002    1.5000 H   0  0  0  0  0  0  0  0  0  0  0  0
    0.2576    1.0249    3.1738 C   0  0  0  0  0  0  0  0  0  0  0  0
    1.1455    1.6643    3.2091 H   0  0  0  0  0  0  0  0  0  0  0  0
   -0.5845    1.5811    3.5960 H   0  0  0  0  0  0  0  0  0  0  0  0
    0.4341    0.1377    3.7903 H   0  0  0  0  0  0  0  0  0  0  0  0
  1  2  1  0  0  0  0
  2  3  1  0  0  0  0
  2  4  1  0  0  0  0
  2  5  1  0  0  0  0
  5  6  2  0  0  0  0
  5  7  1  0  0  0  0
  7  8  1  0  0  0  0
  7  9  1  0  0  0  0
  9 10  1  0  0  0  0
  9 11  1  0  0  0  0
  9 20  1  0  0  0  0
 11 12  1  0  0  0  0
 11 13  1  0  0  0  0
 11 14  1  0  0  0  0
 14 15  1  0  0  0  0
 14 16  1  0  0  0  0
 14 17  1  0  0  0  0
 17 18  1  0  0  0  0
 17 19  2  0  0  0  0
 20 21  2  0  0  0  0
 20 22  1  0  0  0  0
 22 23  1  0  0  0  0
 22 24  1  0  0  0  0
 24 25  1  0  0  0  0
 24 26  1  0  0  0  0
 24 27  1  0  0  0  0
M  CHG  1  18  -1
M  END
$$$$

  -OEChem-04042215583D

 27 26  0     1  0  0  0  0  0999 V2000
   -2.7189   -3.8691    0.2966 H   0  0  0  0  0  0  0  0  0  0  0  0
   -2.5713   -2.9567   -0.2876 C   0  0  0  0  0  0  0  0  0  0  0  0
   -3.4401   -2.3071   -0.1563 H   0  0  0  0  0  0  0  0  0  0  0  0
   -2.4850   -3.2258   -1.3437 H   0  0  0  0  0  0  0  0  0  0  0  0
   -1.3137   -2.2375    0.1663 C   0  0  0  0  0  0  0  0  0  0  0  0
   -0.6893   -2.6593    1.1257 O   0  0  0  0  0  0  0  0  0  0  0  0
   -0.9154   -1.1015   -0.5057 N   0  0  0  0  0  0  0  0  0  0  0  0
   -1.3931   -0.9431   -1.3935 H   0  0  0  0  0  0  0  0  0  0  0  0
    0.4322   -0.5109   -0.4192 C   0  0  1  0  0  0  0  0  0  0  0  0
    1.1654   -1.2510   -0.7531 H   0  0  0  0  0  0  0  0  0  0  0  0
    0.3975    0.7119   -1.3674 C   0  0  0  0  0  0  0  0  0  0  0  0
   -0.6093    0.8692   -1.7712 H   0  0  0  0  0  0  0  0  0  0  0  0
    0.6277    1.6185   -0.7976 H   0  0  0  0  0  0  0  0  0  0  0  0
    1.4298    0.6107   -2.5100 C   0  0  0  0  0  0  0  0  0  0  0  0
    2.1201    1.4577   -2.4496 H   0  0  0  0  0  0  0  0  0  0  0  0
    2.0284   -0.3011   -2.4434 H   0  0  0  0  0  0  0  0  0  0  0  0
    0.7138    0.6319   -3.8630 C   0  0  0  0  0  0  0  0  0  0  0  0
   -0.1810   -0.2367   -4.0447 O   0  5  0  0  0  0  0  0  0  0  0  0
    1.0339    1.5146   -4.6951 O   0  0  0  0  0  0  0  0  0  0  0  0
    0.8539   -0.0790    1.0034 C   0  0  0  0  0  0  0  0  0  0  0  0
    2.0116   -0.2109    1.3840 O   0  0  0  0  0  0  0  0  0  0  0  0
   -0.0406    0.6155    1.7975 N   0  0  0  0  0  0  0  0  0  0  0  0
   -1.0039    0.6083    1.4798 H   0  0  0  0  0  0  0  0  0  0  0  0
    0.2538    1.0242    3.1624 C   0  0  0  0  0  0  0  0  0  0  0  0
    1.1321    1.6775    3.1856 H   0  0  0  0  0  0  0  0  0  0  0  0
   -0.5947    1.5728    3.5814 H   0  0  0  0  0  0  0  0  0  0  0  0
    0.4467    0.1478    3.7894 H   0  0  0  0  0  0  0  0  0  0  0  0
  1  2  1  0  0  0  0
  2  3  1  0  0  0  0
  2  4  1  0  0  0  0
  2  5  1  0  0  0  0
  5  6  2  0  0  0  0
  5  7  1  0  0  0  0
  7  8  1  0  0  0  0
  7  9  1  0  0  0  0
  9 10  1  0  0  0  0
  9 11  1  0  0  0  0
  9 20  1  0  0  0  0
 11 12  1  0  0  0  0
 11 13  1  0  0  0  0
 11 14  1  0  0  0  0
 14 15  1  0  0  0  0
 14 16  1  0  0  0  0
 14 17  1  0  0  0  0
 17 18  1  0  0  0  0
 17 19  2  0  0  0  0
 20 21  2  0  0  0  0
 20 22  1  0  0  0  0
 22 23  1  0  0  0  0
 22 24  1  0  0  0  0
 24 25  1  0  0  0  0
 24 26  1  0  0  0  0
 24 27  1  0  0  0  0
M  CHG  1  18  -1
M  END
$$$$

  -OEChem-04042215583D

 27 26  0     1  0  0  0  0  0999 V2000
   -2.7332   -3.8627    0.3416 H   0  0  0  0  0  0  0  0  0  0  0  0
   -2.5959   -2.9449   -0.2370 C   0  0  0  0  0  0  0  0  0  0  0  0
   -3.4431   -2.2801   -0.0518 H   0  0  0  0  0  0  0  0  0  0  0  0
   -2.5692   -3.2003   -1.2996 H   0  0  0  0  0  0  0  0  0  0  0  0
   -1.3014   -2.2592    0.1625 C   0  0  0  0  0  0  0  0  0  0  0  0
   -0.6360   -2.7131    1.0781 O   0  0  0  0  0  0  0  0  0  0  0  0
   -0.9110   -1.1200   -0.5096 N   0  0  0  0  0  0  0  0  0  0  0  0
   -1.4359   -0.9128   -1.3581 H   0  0  0  0  0  0  0  0  0  0  0  0
    0.4334   -0.5176   -0.4316 C   0  0  1  0  0  0  0  0  0  0  0  0
    1.1738   -1.2508   -0.7659 H   0  0  0  0  0  0  0  0  0  0  0  0
    0.4019    0.7084   -1.3764 C   0  0  0  0  0  0  0  0  0  0  0  0
   -0.6031    0.8318   -1.7954 H   0  0  0  0  0  0  0  0  0  0  0  0
    0.6043    1.6259   -0.8135 H   0  0  0  0  0  0  0  0  0  0  0  0
    1.4347    0.6149   -2.5180 C   0  0  0  0  0  0  0  0  0  0  0  0
    2.2894    1.2618   -2.2980 H   0  0  0  0  0  0  0  0  0  0  0  0
    1.8137   -0.4045   -2.6282 H   0  0  0  0  0  0  0  0  0  0  0  0
    0.7943    1.0143   -3.8488 C   0  0  0  0  0  0  0  0  0  0  0  0
   -0.1302    0.2753   -4.2779 O   0  5  0  0  0  0  0  0  0  0  0  0
    1.1937    2.0620   -4.4122 O   0  0  0  0  0  0  0  0  0  0  0  0
    0.8548   -0.0842    0.9906 C   0  0  0  0  0  0  0  0  0  0  0  0
    2.0106   -0.2219    1.3741 O   0  0  0  0  0  0  0  0  0  0  0  0
   -0.0422    0.6013    1.7896 N   0  0  0  0  0  0  0  0  0  0  0  0
   -1.0015    0.6211    1.4613 H   0  0  0  0  0  0  0  0  0  0  0  0
    0.2538    1.0196    3.1511 C   0  0  0  0  0  0  0  0  0  0  0  0
    1.1214    1.6872    3.1668 H   0  0  0  0  0  0  0  0  0  0  0  0
   -0.6011    1.5556    3.5732 H   0  0  0  0  0  0  0  0  0  0  0  0
    0.4646    0.1487    3.7800 H   0  0  0  0  0  0  0  0  0  0  0  0
  1  2  1  0  0  0  0
  2  3  1  0  0  0  0
  2  4  1  0  0  0  0
  2  5  1  0  0  0  0
  5  6  2  0  0  0  0
  5  7  1  0  0  0  0
  7  8  1  0  0  0  0
  7  9  1  0  0  0  0
  9 10  1  0  0  0  0
  9 11  1  0  0  0  0
  9 20  1  0  0  0  0
 11 12  1  0  0  0  0
 11 13  1  0  0  0  0
 11 14  1  0  0  0  0
 14 15  1  0  0  0  0
 14 16  1  0  0  0  0
 14 17  1  0  0  0  0
 17 18  1  0  0  0  0
 17 19  2  0  0  0  0
 20 21  2  0  0  0  0
 20 22  1  0  0  0  0
 22 23  1  0  0  0  0
 22 24  1  0  0  0  0
 24 25  1  0  0  0  0
 24 26  1  0  0  0  0
 24 27  1  0  0  0  0
M  CHG  1  18  -1
M  END
$$$$

  -OEChem-04042215583D

 27 26  0     1  0  0  0  0  0999 V2000
   -2.7661   -3.8292    0.3984 H   0  0  0  0  0  0  0  0  0  0  0  0
   -2.6056   -2.9379   -0.2146 C   0  0  0  0  0  0  0  0  0  0  0  0
   -3.4296   -2.2403   -0.0458 H   0  0  0  0  0  0  0  0  0  0  0  0
   -2.5976   -3.2314   -1.2675 H   0  0  0  0  0  0  0  0  0  0  0  0
   -1.2863   -2.2800    0.1485 C   0  0  0  0  0  0  0  0  0  0  0  0
   -0.5893   -2.7670    1.0222 O   0  0  0  0  0  0  0  0  0  0  0  0
   -0.9058   -1.1324   -0.5150 N   0  0  0  0  0  0  0  0  0  0  0  0
   -1.4667   -0.8842   -1.3274 H   0  0  0  0  0  0  0  0  0  0  0  0
    0.4333   -0.5180   -0.4407 C   0  0  1  0  0  0  0  0  0  0  0  0
    1.1811   -1.2395   -0.7854 H   0  0  0  0  0  0  0  0  0  0  0  0
    0.3932    0.7119   -1.3785 C   0  0  0  0  0  0  0  0  0  0  0  0
   -0.6086    0.8142   -1.8110 H   0  0  0  0  0  0  0  0  0  0  0  0
    0.5804    1.6341   -0.8179 H   0  0  0  0  0  0  0  0  0  0  0  0
    1.4269    0.6185   -2.5143 C   0  0  0  0  0  0  0  0  0  0  0  0
    2.3856    1.0294   -2.1837 H   0  0  0  0  0  0  0  0  0  0  0  0
    1.5910   -0.4251   -2.7975 H   0  0  0  0  0  0  0  0  0  0  0  0
    0.9228    1.3556   -3.7558 C   0  0  0  0  0  0  0  0  0  0  0  0
   -0.0493    0.8411   -4.3670 O   0  5  0  0  0  0  0  0  0  0  0  0
    1.4736    2.4388   -4.0687 O   0  0  0  0  0  0  0  0  0  0  0  0
    0.8567   -0.0926    0.9833 C   0  0  0  0  0  0  0  0  0  0  0  0
    2.0111   -0.2376    1.3675 O   0  0  0  0  0  0  0  0  0  0  0  0
   -0.0429    0.5778    1.7923 N   0  0  0  0  0  0  0  0  0  0  0  0
   -0.9958    0.6370    1.4510 H   0  0  0  0  0  0  0  0  0  0  0  0
    0.2622    1.0173    3.1448 C   0  0  0  0  0  0  0  0  0  0  0  0
    1.0959    1.7268    3.1368 H   0  0  0  0  0  0  0  0  0  0  0  0
   -0.6085    1.5123    3.5844 H   0  0  0  0  0  0  0  0  0  0  0  0
    0.5297    0.1619    3.7734 H   0  0  0  0  0  0  0  0  0  0  0  0
  1  2  1  0  0  0  0
  2  3  1  0  0  0  0
  2  4  1  0  0  0  0
  2  5  1  0  0  0  0
  5  6  2  0  0  0  0
  5  7  1  0  0  0  0
  7  8  1  0  0  0  0
  7  9  1  0  0  0  0
  9 10  1  0  0  0  0
  9 11  1  0  0  0  0
  9 20  1  0  0  0  0
 11 12  1  0  0  0  0
 11 13  1  0  0  0  0
 11 14  1  0  0  0  0
 14 15  1  0  0  0  0
 14 16  1  0  0  0  0
 14 17  1  0  0  0  0
 17 18  1  0  0  0  0
 17 19  2  0  0  0  0
 20 21  2  0  0  0  0
 20 22  1  0  0  0  0
 22 23  1  0  0  0  0
 22 24  1  0  0  0  0
 24 25  1  0  0  0  0
 24 26  1  0  0  0  0
 24 27  1  0  0  0  0
M  CHG  1  18  -1
M  END
$$$$

  -OEChem-04042215583D

 27 26  0     1  0  0  0  0  0999 V2000
   -2.7524   -3.8325    0.4222 H   0  0  0  0  0  0  0  0  0  0  0  0
   -2.6045   -2.9388   -0.1906 C   0  0  0  0  0  0  0  0  0  0  0  0
   -3.4168   -2.2359    0.0095 H   0  0  0  0  0  0  0  0  0  0  0  0
   -2.6331   -3.2264   -1.2446 H   0  0  0  0  0  0  0  0  0  0  0  0
   -1.2687   -2.2942    0.1340 C   0  0  0  0  0  0  0  0  0  0  0  0
   -0.5414   -2.8033    0.9690 O   0  0  0  0  0  0  0  0  0  0  0  0
   -0.9035   -1.1374   -0.5227 N   0  0  0  0  0  0  0  0  0  0  0  0
   -1.4991   -0.8538   -1.2970 H   0  0  0  0  0  0  0  0  0  0  0  0
    0.4298   -0.5093   -0.4515 C   0  0  1  0  0  0  0  0  0  0  0  0
    1.1828   -1.2212   -0.8061 H   0  0  0  0  0  0  0  0  0  0  0  0
    0.3806    0.7212   -1.3862 C   0  0  0  0  0  0  0  0  0  0  0  0
   -0.6170    0.8200   -1.8283 H   0  0  0  0  0  0  0  0  0  0  0  0
    0.5651    1.6418   -0.8219 H   0  0  0  0  0  0  0  0  0  0  0  0
    1.4176    0.6260   -2.5149 C   0  0  0  0  0  0  0  0  0  0  0  0
    2.4222    0.7948   -2.1152 H   0  0  0  0  0  0  0  0  0  0  0  0
    1.3959   -0.3732   -2.9603 H   0  0  0  0  0  0  0  0  0  0  0  0
    1.1049    1.6429   -3.6134 C   0  0  0  0  0  0  0  0  0  0  0  0
    0.0737    1.4349   -4.3030 O   0  5  0  0  0  0  0  0  0  0  0  0
    1.8685    2.6296   -3.7470 O   0  0  0  0  0  0  0  0  0  0  0  0
    0.8552   -0.0906    0.9740 C   0  0  0  0  0  0  0  0  0  0  0  0
    2.0077   -0.2456    1.3592 O   0  0  0  0  0  0  0  0  0  0  0  0
   -0.0463    0.5640    1.7939 N   0  0  0  0  0  0  0  0  0  0  0  0
   -0.9940    0.6517    1.4446 H   0  0  0  0  0  0  0  0  0  0  0  0
    0.2641    1.0022    3.1460 C   0  0  0  0  0  0  0  0  0  0  0  0
    1.0763    1.7363    3.1328 H   0  0  0  0  0  0  0  0  0  0  0  0
   -0.6152    1.4669    3.6017 H   0  0  0  0  0  0  0  0  0  0  0  0
    0.5658    0.1502    3.7638 H   0  0  0  0  0  0  0  0  0  0  0  0
  1  2  1  0  0  0  0
  2  3  1  0  0  0  0
  2  4  1  0  0  0  0
  2  5  1  0  0  0  0
  5  6  2  0  0  0  0
  5  7  1  0  0  0  0
  7  8  1  0  0  0  0
  7  9  1  0  0  0  0
  9 10  1  0  0  0  0
  9 11  1  0  0  0  0
  9 20  1  0  0  0  0
 11 12  1  0  0  0  0
 11 13  1  0  0  0  0
 11 14  1  0  0  0  0
 14 15  1  0  0  0  0
 14 16  1  0  0  0  0
 14 17  1  0  0  0  0
 17 18  1  0  0  0  0
 17 19  2  0  0  0  0
 20 21  2  0  0  0  0
 20 22  1  0  0  0  0
 22 23  1  0  0  0  0
 22 24  1  0  0  0  0
 24 25  1  0  0  0  0
 24 26  1  0  0  0  0
 24 27  1  0  0  0  0
M  CHG  1  18  -1
M  END
$$$$

  -OEChem-04042215583D

 27 26  0     1  0  0  0  0  0999 V2000
   -2.7533   -3.8270    0.4328 H   0  0  0  0  0  0  0  0  0  0  0  0
   -2.6030   -2.9321   -0.1777 C   0  0  0  0  0  0  0  0  0  0  0  0
   -3.3975   -2.2160    0.0458 H   0  0  0  0  0  0  0  0  0  0  0  0
   -2.6612   -3.2112   -1.2328 H   0  0  0  0  0  0  0  0  0  0  0  0
   -1.2486   -2.3138    0.1204 C   0  0  0  0  0  0  0  0  0  0  0  0
   -0.5093   -2.8439    0.9315 O   0  0  0  0  0  0  0  0  0  0  0  0
   -0.8797   -1.1571   -0.5341 N   0  0  0  0  0  0  0  0  0  0  0  0
   -1.4909   -0.8466   -1.2854 H   0  0  0  0  0  0  0  0  0  0  0  0
    0.4515   -0.5263   -0.4592 C   0  0  1  0  0  0  0  0  0  0  0  0
    1.2191   -1.2205   -0.8181 H   0  0  0  0  0  0  0  0  0  0  0  0
    0.3779    0.7134   -1.3755 C   0  0  0  0  0  0  0  0  0  0  0  0
   -0.6618    0.9968   -1.5740 H   0  0  0  0  0  0  0  0  0  0  0  0
    0.8495    1.5687   -0.8782 H   0  0  0  0  0  0  0  0  0  0  0  0
    1.1203    0.4782   -2.6980 C   0  0  0  0  0  0  0  0  0  0  0  0
    2.1706    0.2446   -2.4976 H   0  0  0  0  0  0  0  0  0  0  0  0
    0.6794   -0.3729   -3.2248 H   0  0  0  0  0  0  0  0  0  0  0  0
    1.0336    1.7152   -3.5924 C   0  0  0  0  0  0  0  0  0  0  0  0
   -0.1126    2.0485   -3.9881 O   0  5  0  0  0  0  0  0  0  0  0  0
    2.0954    2.3156   -3.8856 O   0  0  0  0  0  0  0  0  0  0  0  0
    0.8598   -0.1103    0.9722 C   0  0  0  0  0  0  0  0  0  0  0  0
    2.0091   -0.2602    1.3685 O   0  0  0  0  0  0  0  0  0  0  0  0
   -0.0528    0.5391    1.7837 N   0  0  0  0  0  0  0  0  0  0  0  0
   -0.9905    0.6488    1.4146 H   0  0  0  0  0  0  0  0  0  0  0  0
    0.2492    1.0032    3.1287 C   0  0  0  0  0  0  0  0  0  0  0  0
    1.0523    1.7468    3.1046 H   0  0  0  0  0  0  0  0  0  0  0  0
   -0.6366    1.4642    3.5750 H   0  0  0  0  0  0  0  0  0  0  0  0
    0.5601    0.1650    3.7607 H   0  0  0  0  0  0  0  0  0  0  0  0
  1  2  1  0  0  0  0
  2  3  1  0  0  0  0
  2  4  1  0  0  0  0
  2  5  1  0  0  0  0
  5  6  2  0  0  0  0
  5  7  1  0  0  0  0
  7  8  1  0  0  0  0
  7  9  1  0  0  0  0
  9 10  1  0  0  0  0
  9 11  1  0  0  0  0
  9 20  1  0  0  0  0
 11 12  1  0  0  0  0
 11 13  1  0  0  0  0
 11 14  1  0  0  0  0
 14 15  1  0  0  0  0
 14 16  1  0  0  0  0
 14 17  1  0  0  0  0
 17 18  1  0  0  0  0
 17 19  2  0  0  0  0
 20 21  2  0  0  0  0
 20 22  1  0  0  0  0
 22 23  1  0  0  0  0
 22 24  1  0  0  0  0
 24 25  1  0  0  0  0
 24 26  1  0  0  0  0
 24 27  1  0  0  0  0
M  CHG  1  18  -1
M  END
$$$$

  -OEChem-04042215583D

 27 26  0     1  0  0  0  0  0999 V2000
   -2.7282   -3.8563    0.4044 H   0  0  0  0  0  0  0  0  0  0  0  0
   -2.5931   -2.9416   -0.1799 C   0  0  0  0  0  0  0  0  0  0  0  0
   -3.3921   -2.2405    0.0737 H   0  0  0  0  0  0  0  0  0  0  0  0
   -2.6602   -3.1901   -1.2421 H   0  0  0  0  0  0  0  0  0  0  0  0
   -1.2414   -2.3193    0.1227 C   0  0  0  0  0  0  0  0  0  0  0  0
   -0.5022   -2.8501    0.9331 O   0  0  0  0  0  0  0  0  0  0  0  0
   -0.8736   -1.1621   -0.5320 N   0  0  0  0  0  0  0  0  0  0  0  0
   -1.4879   -0.8490   -1.2786 H   0  0  0  0  0  0  0  0  0  0  0  0
    0.4562   -0.5280   -0.4550 C   0  0  1  0  0  0  0  0  0  0  0  0
    1.2264   -1.2204   -0.8107 H   0  0  0  0  0  0  0  0  0  0  0  0
    0.3745    0.7112   -1.3737 C   0  0  0  0  0  0  0  0  0  0  0  0
   -0.6629    1.0055   -1.5664 H   0  0  0  0  0  0  0  0  0  0  0  0
    0.8521    1.5586   -0.8682 H   0  0  0  0  0  0  0  0  0  0  0  0
    1.1142    0.4941   -2.7035 C   0  0  0  0  0  0  0  0  0  0  0  0
    2.0885    0.0336   -2.5127 H   0  0  0  0  0  0  0  0  0  0  0  0
    0.5383   -0.1825   -3.3408 H   0  0  0  0  0  0  0  0  0  0  0  0
    1.3391    1.8184   -3.4368 C   0  0  0  0  0  0  0  0  0  0  0  0
    0.3310    2.5476   -3.6205 O   0  5  0  0  0  0  0  0  0  0  0  0
    2.4953    2.0788   -3.8489 O   0  0  0  0  0  0  0  0  0  0  0  0
    0.8590   -0.1106    0.9781 C   0  0  0  0  0  0  0  0  0  0  0  0
    2.0025   -0.2745    1.3850 O   0  0  0  0  0  0  0  0  0  0  0  0
   -0.0570    0.5369    1.7873 N   0  0  0  0  0  0  0  0  0  0  0  0
   -0.9867    0.6688    1.4056 H   0  0  0  0  0  0  0  0  0  0  0  0
    0.2385    0.9969    3.1353 C   0  0  0  0  0  0  0  0  0  0  0  0
    1.0653    1.7144    3.1214 H   0  0  0  0  0  0  0  0  0  0  0  0
   -0.6391    1.4879    3.5655 H   0  0  0  0  0  0  0  0  0  0  0  0
    0.5127    0.1519    3.7749 H   0  0  0  0  0  0  0  0  0  0  0  0
  1  2  1  0  0  0  0
  2  3  1  0  0  0  0
  2  4  1  0  0  0  0
  2  5  1  0  0  0  0
  5  6  2  0  0  0  0
  5  7  1  0  0  0  0
  7  8  1  0  0  0  0
  7  9  1  0  0  0  0
  9 10  1  0  0  0  0
  9 11  1  0  0  0  0
  9 20  1  0  0  0  0
 11 12  1  0  0  0  0
 11 13  1  0  0  0  0
 11 14  1  0  0  0  0
 14 15  1  0  0  0  0
 14 16  1  0  0  0  0
 14 17  1  0  0  0  0
 17 18  1  0  0  0  0
 17 19  2  0  0  0  0
 20 21  2  0  0  0  0
 20 22  1  0  0  0  0
 22 23  1  0  0  0  0
 22 24  1  0  0  0  0
 24 25  1  0  0  0  0
 24 26  1  0  0  0  0
 24 27  1  0  0  0  0
M  CHG  1  18  -1
M  END
$$$$

  -OEChem-04042215583D

 27 26  0     1  0  0  0  0  0999 V2000
   -2.7194   -3.8600    0.4060 H   0  0  0  0  0  0  0  0  0  0  0  0
   -2.5896   -2.9390   -0.1695 C   0  0  0  0  0  0  0  0  0  0  0  0
   -3.3861   -2.2406    0.0992 H   0  0  0  0  0  0  0  0  0  0  0  0
   -2.6659   -3.1760   -1.2337 H   0  0  0  0  0  0  0  0  0  0  0  0
   -1.2349   -2.3207    0.1274 C   0  0  0  0  0  0  0  0  0  0  0  0
   -0.4944   -2.8546    0.9342 O   0  0  0  0  0  0  0  0  0  0  0  0
   -0.8665   -1.1648   -0.5300 N   0  0  0  0  0  0  0  0  0  0  0  0
   -1.4826   -0.8512   -1.2743 H   0  0  0  0  0  0  0  0  0  0  0  0
    0.4632   -0.5298   -0.4532 C   0  0  1  0  0  0  0  0  0  0  0  0
    1.2344   -1.2245   -0.8015 H   0  0  0  0  0  0  0  0  0  0  0  0
    0.3775    0.7080   -1.3771 C   0  0  0  0  0  0  0  0  0  0  0  0
   -0.6581    1.0113   -1.5635 H   0  0  0  0  0  0  0  0  0  0  0  0
    0.8579    1.5484   -0.8621 H   0  0  0  0  0  0  0  0  0  0  0  0
    1.1128    0.5095   -2.7169 C   0  0  0  0  0  0  0  0  0  0  0  0
    1.9619   -0.1671   -2.5814 H   0  0  0  0  0  0  0  0  0  0  0  0
    0.4351    0.0543   -3.4441 H   0  0  0  0  0  0  0  0  0  0  0  0
    1.6519    1.8303   -3.2724 C   0  0  0  0  0  0  0  0  0  0  0  0
    0.8398    2.7867   -3.3578 O   0  5  0  0  0  0  0  0  0  0  0  0
    2.8438    1.8660   -3.6634 O   0  0  0  0  0  0  0  0  0  0  0  0
    0.8608   -0.1095    0.9811 C   0  0  0  0  0  0  0  0  0  0  0  0
    1.9971   -0.2906    1.4003 O   0  0  0  0  0  0  0  0  0  0  0  0
   -0.0581    0.5390    1.7866 N   0  0  0  0  0  0  0  0  0  0  0  0
   -0.9841    0.6778    1.3992 H   0  0  0  0  0  0  0  0  0  0  0  0
    0.2266    0.9791    3.1436 C   0  0  0  0  0  0  0  0  0  0  0  0
    1.0693    1.6780    3.1505 H   0  0  0  0  0  0  0  0  0  0  0  0
   -0.6463    1.4854    3.5656 H   0  0  0  0  0  0  0  0  0  0  0  0
    0.4716    0.1214    3.7782 H   0  0  0  0  0  0  0  0  0  0  0  0
  1  2  1  0  0  0  0
  2  3  1  0  0  0  0
  2  4  1  0  0  0  0
  2  5  1  0  0  0  0
  5  6  2  0  0  0  0
  5  7  1  0  0  0  0
  7  8  1  0  0  0  0
  7  9  1  0  0  0  0
  9 10  1  0  0  0  0
  9 11  1  0  0  0  0
  9 20  1  0  0  0  0
 11 12  1  0  0  0  0
 11 13  1  0  0  0  0
 11 14  1  0  0  0  0
 14 15  1  0  0  0  0
 14 16  1  0  0  0  0
 14 17  1  0  0  0  0
 17 18  1  0  0  0  0
 17 19  2  0  0  0  0
 20 21  2  0  0  0  0
 20 22  1  0  0  0  0
 22 23  1  0  0  0  0
 22 24  1  0  0  0  0
 24 25  1  0  0  0  0
 24 26  1  0  0  0  0
 24 27  1  0  0  0  0
M  CHG  1  18  -1
M  END
$$$$

  -OEChem-04042215583D

 27 26  0     1  0  0  0  0  0999 V2000
   -2.7305   -3.8567    0.4055 H   0  0  0  0  0  0  0  0  0  0  0  0
   -2.5889   -2.9447   -0.1815 C   0  0  0  0  0  0  0  0  0  0  0  0
   -3.3886   -2.2413    0.0630 H   0  0  0  0  0  0  0  0  0  0  0  0
   -2.6473   -3.1974   -1.2431 H   0  0  0  0  0  0  0  0  0  0  0  0
   -1.2382   -2.3246    0.1292 C   0  0  0  0  0  0  0  0  0  0  0  0
   -0.5052   -2.8594    0.9420 O   0  0  0  0  0  0  0  0  0  0  0  0
   -0.8657   -1.1683   -0.5254 N   0  0  0  0  0  0  0  0  0  0  0  0
   -1.4762   -0.8584   -1.2755 H   0  0  0  0  0  0  0  0  0  0  0  0
    0.4666   -0.5380   -0.4476 C   0  0  1  0  0  0  0  0  0  0  0  0
    1.2386   -1.2319   -0.7957 H   0  0  0  0  0  0  0  0  0  0  0  0
    0.3788    0.7070   -1.3648 C   0  0  0  0  0  0  0  0  0  0  0  0
   -0.6581    1.0102   -1.5434 H   0  0  0  0  0  0  0  0  0  0  0  0
    0.8540    1.5442   -0.8393 H   0  0  0  0  0  0  0  0  0  0  0  0
    1.1057    0.5286   -2.7162 C   0  0  0  0  0  0  0  0  0  0  0  0
    1.7668   -0.3419   -2.6840 H   0  0  0  0  0  0  0  0  0  0  0  0
    0.3668    0.3477   -3.5017 H   0  0  0  0  0  0  0  0  0  0  0  0
    1.9516    1.7479   -3.0927 C   0  0  0  0  0  0  0  0  0  0  0  0
    1.3678    2.8612   -3.1167 O   0  5  0  0  0  0  0  0  0  0  0  0
    3.1482    1.5591   -3.4203 O   0  0  0  0  0  0  0  0  0  0  0  0
    0.8617   -0.1243    0.9899 C   0  0  0  0  0  0  0  0  0  0  0  0
    1.9925   -0.3195    1.4168 O   0  0  0  0  0  0  0  0  0  0  0  0
   -0.0579    0.5241    1.7951 N   0  0  0  0  0  0  0  0  0  0  0  0
   -0.9777    0.6811    1.4002 H   0  0  0  0  0  0  0  0  0  0  0  0
    0.2314    0.9777    3.1467 C   0  0  0  0  0  0  0  0  0  0  0  0
    1.0669    1.6853    3.1414 H   0  0  0  0  0  0  0  0  0  0  0  0
   -0.6438    1.4785    3.5707 H   0  0  0  0  0  0  0  0  0  0  0  0
    0.4897    0.1282    3.7871 H   0  0  0  0  0  0  0  0  0  0  0  0
  1  2  1  0  0  0  0
  2  3  1  0  0  0  0
  2  4  1  0  0  0  0
  2  5  1  0  0  0  0
  5  6  2  0  0  0  0
  5  7  1  0  0  0  0
  7  8  1  0  0  0  0
  7  9  1  0  0  0  0
  9 10  1  0  0  0  0
  9 11  1  0  0  0  0
  9 20  1  0  0  0  0
 11 12  1  0  0  0  0
 11 13  1  0  0  0  0
 11 14  1  0  0  0  0
 14 15  1  0  0  0  0
 14 16  1  0  0  0  0
 14 17  1  0  0  0  0
 17 18  1  0  0  0  0
 17 19  2  0  0  0  0
 20 21  2  0  0  0  0
 20 22  1  0  0  0  0
 22 23  1  0  0  0  0
 22 24  1  0  0  0  0
 24 25  1  0  0  0  0
 24 26  1  0  0  0  0
 24 27  1  0  0  0  0
M  CHG  1  18  -1
M  END
$$$$

  -OEChem-04042215583D

 27 26  0     1  0  0  0  0  0999 V2000
   -2.7150   -3.8588    0.4034 H   0  0  0  0  0  0  0  0  0  0  0  0
   -2.5769   -2.9450   -0.1816 C   0  0  0  0  0  0  0  0  0  0  0  0
   -3.3820   -2.2472    0.0611 H   0  0  0  0  0  0  0  0  0  0  0  0
   -2.6291   -3.1965   -1.2439 H   0  0  0  0  0  0  0  0  0  0  0  0
   -1.2319   -2.3162    0.1362 C   0  0  0  0  0  0  0  0  0  0  0  0
   -0.5039   -2.8420    0.9589 O   0  0  0  0  0  0  0  0  0  0  0  0
   -0.8622   -1.1602   -0.5207 N   0  0  0  0  0  0  0  0  0  0  0  0
   -1.4667   -0.8638   -1.2808 H   0  0  0  0  0  0  0  0  0  0  0  0
    0.4706   -0.5286   -0.4472 C   0  0  1  0  0  0  0  0  0  0  0  0
    1.2470   -1.2177   -0.7966 H   0  0  0  0  0  0  0  0  0  0  0  0
    0.3810    0.7211   -1.3589 C   0  0  0  0  0  0  0  0  0  0  0  0
   -0.6608    1.0047   -1.5403 H   0  0  0  0  0  0  0  0  0  0  0  0
    0.8369    1.5689   -0.8340 H   0  0  0  0  0  0  0  0  0  0  0  0
    1.1035    0.5438   -2.7139 C   0  0  0  0  0  0  0  0  0  0  0  0
    1.5148   -0.4653   -2.8067 H   0  0  0  0  0  0  0  0  0  0  0  0
    0.3720    0.6641   -3.5179 H   0  0  0  0  0  0  0  0  0  0  0  0
    2.2252    1.5603   -2.9387 C   0  0  0  0  0  0  0  0  0  0  0  0
    1.9114    2.7771   -2.9078 O   0  5  0  0  0  0  0  0  0  0  0  0
    3.3671    1.1210   -3.2172 O   0  0  0  0  0  0  0  0  0  0  0  0
    0.8642   -0.1155    0.9916 C   0  0  0  0  0  0  0  0  0  0  0  0
    1.9896   -0.3206    1.4272 O   0  0  0  0  0  0  0  0  0  0  0  0
   -0.0583    0.5311    1.7953 N   0  0  0  0  0  0  0  0  0  0  0  0
   -0.9835    0.6670    1.4061 H   0  0  0  0  0  0  0  0  0  0  0  0
    0.2161    0.9515    3.1606 C   0  0  0  0  0  0  0  0  0  0  0  0
    1.0637    1.6442    3.1841 H   0  0  0  0  0  0  0  0  0  0  0  0
   -0.6573    1.4588    3.5805 H   0  0  0  0  0  0  0  0  0  0  0  0
    0.4488    0.0843    3.7868 H   0  0  0  0  0  0  0  0  0  0  0  0
  1  2  1  0  0  0  0
  2  3  1  0  0  0  0
  2  4  1  0  0  0  0
  2  5  1  0  0  0  0
  5  6  2  0  0  0  0
  5  7  1  0  0  0  0
  7  8  1  0  0  0  0
  7  9  1  0  0  0  0
  9 10  1  0  0  0  0
  9 11  1  0  0  0  0
  9 20  1  0  0  0  0
 11 12  1  0  0  0  0
 11 13  1  0  0  0  0
 11 14  1  0  0  0  0
 14 15  1  0  0  0  0
 14 16  1  0  0  0  0
 14 17  1  0  0  0  0
 17 18  1  0  0  0  0
 17 19  2  0  0  0  0
 20 21  2  0  0  0  0
 20 22  1  0  0  0  0
 22 23  1  0  0  0  0
 22 24  1  0  0  0  0
 24 25  1  0  0  0  0
 24 26  1  0  0  0  0
 24 27  1  0  0  0  0
M  CHG  1  18  -1
M  END
$$$$

  -OEChem-04042215583D

 27 26  0     1  0  0  0  0  0999 V2000
   -2.6849   -3.8702    0.3855 H   0  0  0  0  0  0  0  0  0  0  0  0
   -2.5623   -2.9415   -0.1791 C   0  0  0  0  0  0  0  0  0  0  0  0
   -3.3736   -2.2589    0.0852 H   0  0  0  0  0  0  0  0  0  0  0  0
   -2.6203   -3.1695   -1.2464 H   0  0  0  0  0  0  0  0  0  0  0  0
   -1.2226   -2.3036    0.1438 C   0  0  0  0  0  0  0  0  0  0  0  0
   -0.5043   -2.8139    0.9842 O   0  0  0  0  0  0  0  0  0  0  0  0
   -0.8566   -1.1488   -0.5175 N   0  0  0  0  0  0  0  0  0  0  0  0
   -1.4528   -0.8720   -1.2910 H   0  0  0  0  0  0  0  0  0  0  0  0
    0.4754   -0.5129   -0.4495 C   0  0  1  0  0  0  0  0  0  0  0  0
    1.2564   -1.1955   -0.8041 H   0  0  0  0  0  0  0  0  0  0  0  0
    0.3827    0.7379   -1.3588 C   0  0  0  0  0  0  0  0  0  0  0  0
   -0.6637    0.9980   -1.5480 H   0  0  0  0  0  0  0  0  0  0  0  0
    0.8207    1.6009   -0.8439 H   0  0  0  0  0  0  0  0  0  0  0  0
    1.1041    0.5490   -2.7099 C   0  0  0  0  0  0  0  0  0  0  0  0
    1.2528   -0.5137   -2.9237 H   0  0  0  0  0  0  0  0  0  0  0  0
    0.4606    0.9447   -3.5009 H   0  0  0  0  0  0  0  0  0  0  0  0
    2.4394    1.2893   -2.8008 C   0  0  0  0  0  0  0  0  0  0  0  0
    2.4118    2.5426   -2.7129 O   0  5  0  0  0  0  0  0  0  0  0  0
    3.4653    0.6083   -3.0414 O   0  0  0  0  0  0  0  0  0  0  0  0
    0.8664   -0.0959    0.9893 C   0  0  0  0  0  0  0  0  0  0  0  0
    1.9880   -0.3027    1.4329 O   0  0  0  0  0  0  0  0  0  0  0  0
   -0.0606    0.5487    1.7897 N   0  0  0  0  0  0  0  0  0  0  0  0
   -0.9950    0.6435    1.4108 H   0  0  0  0  0  0  0  0  0  0  0  0
    0.1930    0.9210    3.1732 C   0  0  0  0  0  0  0  0  0  0  0  0
    1.0543    1.5940    3.2368 H   0  0  0  0  0  0  0  0  0  0  0  0
   -0.6781    1.4348    3.5900 H   0  0  0  0  0  0  0  0  0  0  0  0
    0.3939    0.0301    3.7769 H   0  0  0  0  0  0  0  0  0  0  0  0
  1  2  1  0  0  0  0
  2  3  1  0  0  0  0
  2  4  1  0  0  0  0
  2  5  1  0  0  0  0
  5  6  2  0  0  0  0
  5  7  1  0  0  0  0
  7  8  1  0  0  0  0
  7  9  1  0  0  0  0
  9 10  1  0  0  0  0
  9 11  1  0  0  0  0
  9 20  1  0  0  0  0
 11 12  1  0  0  0  0
 11 13  1  0  0  0  0
 11 14  1  0  0  0  0
 14 15  1  0  0  0  0
 14 16  1  0  0  0  0
 14 17  1  0  0  0  0
 17 18  1  0  0  0  0
 17 19  2  0  0  0  0
 20 21  2  0  0  0  0
 20 22  1  0  0  0  0
 22 23  1  0  0  0  0
 22 24  1  0  0  0  0
 24 25  1  0  0  0  0
 24 26  1  0  0  0  0
 24 27  1  0  0  0  0
M  CHG  1  18  -1
M  END
$$$$

  -OEChem-04042215583D

 27 26  0     1  0  0  0  0  0999 V2000
   -2.6809   -3.8658    0.3789 H   0  0  0  0  0  0  0  0  0  0  0  0
   -2.5455   -2.9522   -0.2071 C   0  0  0  0  0  0  0  0  0  0  0  0
   -3.3768   -2.2740    0.0003 H   0  0  0  0  0  0  0  0  0  0  0  0
   -2.5520   -3.2124   -1.2686 H   0  0  0  0  0  0  0  0  0  0  0  0
   -1.2293   -2.2867    0.1545 C   0  0  0  0  0  0  0  0  0  0  0  0
   -0.5347   -2.7740    1.0276 O   0  0  0  0  0  0  0  0  0  0  0  0
   -0.8614   -1.1340   -0.5103 N   0  0  0  0  0  0  0  0  0  0  0  0
   -1.4365   -0.8859   -1.3089 H   0  0  0  0  0  0  0  0  0  0  0  0
    0.4740   -0.5039   -0.4465 C   0  0  1  0  0  0  0  0  0  0  0  0
    1.2529   -1.1849   -0.8100 H   0  0  0  0  0  0  0  0  0  0  0  0
    0.3799    0.7518   -1.3490 C   0  0  0  0  0  0  0  0  0  0  0  0
   -0.6673    1.0120   -1.5335 H   0  0  0  0  0  0  0  0  0  0  0  0
    0.8268    1.6150   -0.8419 H   0  0  0  0  0  0  0  0  0  0  0  0
    1.0926    0.5558   -2.6994 C   0  0  0  0  0  0  0  0  0  0  0  0
    0.9936   -0.4817   -3.0326 H   0  0  0  0  0  0  0  0  0  0  0  0
    0.5930    1.1806   -3.4453 H   0  0  0  0  0  0  0  0  0  0  0  0
    2.5649    0.9645   -2.6814 C   0  0  0  0  0  0  0  0  0  0  0  0
    2.8266    2.1842   -2.5344 O   0  5  0  0  0  0  0  0  0  0  0  0
    3.4143    0.0656   -2.8938 O   0  0  0  0  0  0  0  0  0  0  0  0
    0.8681   -0.0880    0.9925 C   0  0  0  0  0  0  0  0  0  0  0  0
    1.9857   -0.3031    1.4417 O   0  0  0  0  0  0  0  0  0  0  0  0
   -0.0575    0.5610    1.7917 N   0  0  0  0  0  0  0  0  0  0  0  0
   -0.9971    0.6319    1.4210 H   0  0  0  0  0  0  0  0  0  0  0  0
    0.1909    0.9108    3.1819 C   0  0  0  0  0  0  0  0  0  0  0  0
    1.0624    1.5689    3.2605 H   0  0  0  0  0  0  0  0  0  0  0  0
   -0.6747    1.4334    3.5991 H   0  0  0  0  0  0  0  0  0  0  0  0
    0.3727    0.0085    3.7748 H   0  0  0  0  0  0  0  0  0  0  0  0
  1  2  1  0  0  0  0
  2  3  1  0  0  0  0
  2  4  1  0  0  0  0
  2  5  1  0  0  0  0
  5  6  2  0  0  0  0
  5  7  1  0  0  0  0
  7  8  1  0  0  0  0
  7  9  1  0  0  0  0
  9 10  1  0  0  0  0
  9 11  1  0  0  0  0
  9 20  1  0  0  0  0
 11 12  1  0  0  0  0
 11 13  1  0  0  0  0
 11 14  1  0  0  0  0
 14 15  1  0  0  0  0
 14 16  1  0  0  0  0
 14 17  1  0  0  0  0
 17 18  1  0  0  0  0
 17 19  2  0  0  0  0
 20 21  2  0  0  0  0
 20 22  1  0  0  0  0
 22 23  1  0  0  0  0
 22 24  1  0  0  0  0
 24 25  1  0  0  0  0
 24 26  1  0  0  0  0
 24 27  1  0  0  0  0
M  CHG  1  18  -1
M  END
$$$$

  -OEChem-04042215583D

 27 26  0     1  0  0  0  0  0999 V2000
   -2.6740   -3.8680    0.3592 H   0  0  0  0  0  0  0  0  0  0  0  0
   -2.5326   -2.9579   -0.2307 C   0  0  0  0  0  0  0  0  0  0  0  0
   -3.3796   -2.2899   -0.0573 H   0  0  0  0  0  0  0  0  0  0  0  0
   -2.5006   -3.2280   -1.2892 H   0  0  0  0  0  0  0  0  0  0  0  0
   -1.2387   -2.2698    0.1676 C   0  0  0  0  0  0  0  0  0  0  0  0
   -0.5802   -2.7252    1.0850 O   0  0  0  0  0  0  0  0  0  0  0  0
   -0.8629   -1.1230   -0.5034 N   0  0  0  0  0  0  0  0  0  0  0  0
   -1.4119   -0.9068   -1.3291 H   0  0  0  0  0  0  0  0  0  0  0  0
    0.4784   -0.5037   -0.4416 C   0  0  1  0  0  0  0  0  0  0  0  0
    1.2528   -1.1897   -0.8075 H   0  0  0  0  0  0  0  0  0  0  0  0
    0.3871    0.7568   -1.3390 C   0  0  0  0  0  0  0  0  0  0  0  0
   -0.6579    1.0345   -1.5098 H   0  0  0  0  0  0  0  0  0  0  0  0
    0.8586    1.6086   -0.8349 H   0  0  0  0  0  0  0  0  0  0  0  0
    1.0876    0.5697   -2.6942 C   0  0  0  0  0  0  0  0  0  0  0  0
    0.7728   -0.3773   -3.1433 H   0  0  0  0  0  0  0  0  0  0  0  0
    0.7646    1.3700   -3.3662 H   0  0  0  0  0  0  0  0  0  0  0  0
    2.6114    0.6182   -2.6113 C   0  0  0  0  0  0  0  0  0  0  0  0
    3.1514    1.7446   -2.4872 O   0  5  0  0  0  0  0  0  0  0  0  0
    3.2263   -0.4683   -2.7386 O   0  0  0  0  0  0  0  0  0  0  0  0
    0.8704   -0.0866    0.9984 C   0  0  0  0  0  0  0  0  0  0  0  0
    1.9877   -0.2921    1.4524 O   0  0  0  0  0  0  0  0  0  0  0  0
   -0.0570    0.5715    1.7882 N   0  0  0  0  0  0  0  0  0  0  0  0
   -1.0021    0.6008    1.4259 H   0  0  0  0  0  0  0  0  0  0  0  0
    0.1782    0.8988    3.1862 C   0  0  0  0  0  0  0  0  0  0  0  0
    1.0615    1.5381    3.2862 H   0  0  0  0  0  0  0  0  0  0  0  0
   -0.6828    1.4339    3.5970 H   0  0  0  0  0  0  0  0  0  0  0  0
    0.3332   -0.0140    3.7704 H   0  0  0  0  0  0  0  0  0  0  0  0
  1  2  1  0  0  0  0
  2  3  1  0  0  0  0
  2  4  1  0  0  0  0
  2  5  1  0  0  0  0
  5  6  2  0  0  0  0
  5  7  1  0  0  0  0
  7  8  1  0  0  0  0
  7  9  1  0  0  0  0
  9 10  1  0  0  0  0
  9 11  1  0  0  0  0
  9 20  1  0  0  0  0
 11 12  1  0  0  0  0
 11 13  1  0  0  0  0
 11 14  1  0  0  0  0
 14 15  1  0  0  0  0
 14 16  1  0  0  0  0
 14 17  1  0  0  0  0
 17 18  1  0  0  0  0
 17 19  2  0  0  0  0
 20 21  2  0  0  0  0
 20 22  1  0  0  0  0
 22 23  1  0  0  0  0
 22 24  1  0  0  0  0
 24 25  1  0  0  0  0
 24 26  1  0  0  0  0
 24 27  1  0  0  0  0
M  CHG  1  18  -1
M  END
$$$$

  -OEChem-04042215583D

 27 26  0     1  0  0  0  0  0999 V2000
   -2.6854   -3.8744    0.3389 H   0  0  0  0  0  0  0  0  0  0  0  0
   -2.5291   -2.9738   -0.2618 C   0  0  0  0  0  0  0  0  0  0  0  0
   -3.3937   -2.3162   -0.1434 H   0  0  0  0  0  0  0  0  0  0  0  0
   -2.4412   -3.2640   -1.3118 H   0  0  0  0  0  0  0  0  0  0  0  0
   -1.2665   -2.2576    0.1845 C   0  0  0  0  0  0  0  0  0  0  0  0
   -0.6550   -2.6777    1.1501 O   0  0  0  0  0  0  0  0  0  0  0  0
   -0.8730   -1.1202   -0.4927 N   0  0  0  0  0  0  0  0  0  0  0  0
   -1.3831   -0.9404   -1.3517 H   0  0  0  0  0  0  0  0  0  0  0  0
    0.4769   -0.5208   -0.4218 C   0  0  1  0  0  0  0  0  0  0  0  0
    1.2398   -1.2246   -0.7754 H   0  0  0  0  0  0  0  0  0  0  0  0
    0.4060    0.7433   -1.3201 C   0  0  0  0  0  0  0  0  0  0  0  0
   -0.6325    1.0523   -1.4768 H   0  0  0  0  0  0  0  0  0  0  0  0
    0.9055    1.5736   -0.8078 H   0  0  0  0  0  0  0  0  0  0  0  0
    1.1000    0.5866   -2.6838 C   0  0  0  0  0  0  0  0  0  0  0  0
    0.5979   -0.2048   -3.2480 H   0  0  0  0  0  0  0  0  0  0  0  0
    0.9752    1.5153   -3.2483 H   0  0  0  0  0  0  0  0  0  0  0  0
    2.5922    0.2689   -2.6116 C   0  0  0  0  0  0  0  0  0  0  0  0
    3.3874    1.2319   -2.4918 O   0  5  0  0  0  0  0  0  0  0  0  0
    2.9275   -0.9340   -2.7438 O   0  0  0  0  0  0  0  0  0  0  0  0
    0.8624   -0.1006    1.0195 C   0  0  0  0  0  0  0  0  0  0  0  0
    1.9813   -0.2903    1.4764 O   0  0  0  0  0  0  0  0  0  0  0  0
   -0.0644    0.5758    1.7944 N   0  0  0  0  0  0  0  0  0  0  0  0
   -1.0120    0.5770    1.4368 H   0  0  0  0  0  0  0  0  0  0  0  0
    0.1652    0.9157    3.1905 C   0  0  0  0  0  0  0  0  0  0  0  0
    1.0528    1.5491    3.2897 H   0  0  0  0  0  0  0  0  0  0  0  0
   -0.6939    1.4618    3.5904 H   0  0  0  0  0  0  0  0  0  0  0  0
    0.3098    0.0077    3.7850 H   0  0  0  0  0  0  0  0  0  0  0  0
  1  2  1  0  0  0  0
  2  3  1  0  0  0  0
  2  4  1  0  0  0  0
  2  5  1  0  0  0  0
  5  6  2  0  0  0  0
  5  7  1  0  0  0  0
  7  8  1  0  0  0  0
  7  9  1  0  0  0  0
  9 10  1  0  0  0  0
  9 11  1  0  0  0  0
  9 20  1  0  0  0  0
 11 12  1  0  0  0  0
 11 13  1  0  0  0  0
 11 14  1  0  0  0  0
 14 15  1  0  0  0  0
 14 16  1  0  0  0  0
 14 17  1  0  0  0  0
 17 18  1  0  0  0  0
 17 19  2  0  0  0  0
 20 21  2  0  0  0  0
 20 22  1  0  0  0  0
 22 23  1  0  0  0  0
 22 24  1  0  0  0  0
 24 25  1  0  0  0  0
 24 26  1  0  0  0  0
 24 27  1  0  0  0  0
M  CHG  1  18  -1
M  END
$$$$

  -OEChem-04042215583D

 27 26  0     1  0  0  0  0  0999 V2000
   -2.6974   -3.8832    0.3213 H   0  0  0  0  0  0  0  0  0  0  0  0
   -2.5307   -2.9879   -0.2844 C   0  0  0  0  0  0  0  0  0  0  0  0
   -3.4103   -2.3438   -0.2125 H   0  0  0  0  0  0  0  0  0  0  0  0
   -2.3930   -3.2907   -1.3255 H   0  0  0  0  0  0  0  0  0  0  0  0
   -1.3003   -2.2441    0.2050 C   0  0  0  0  0  0  0  0  0  0  0  0
   -0.7421   -2.6213    1.2199 O   0  0  0  0  0  0  0  0  0  0  0  0
   -0.8875   -1.1188   -0.4809 N   0  0  0  0  0  0  0  0  0  0  0  0
   -1.3546   -0.9812   -1.3718 H   0  0  0  0  0  0  0  0  0  0  0  0
    0.4703   -0.5400   -0.3981 C   0  0  1  0  0  0  0  0  0  0  0  0
    1.2221   -1.2651   -0.7271 H   0  0  0  0  0  0  0  0  0  0  0  0
    0.4306    0.7218   -1.3059 C   0  0  0  0  0  0  0  0  0  0  0  0
   -0.5987    1.0626   -1.4560 H   0  0  0  0  0  0  0  0  0  0  0  0
    0.9524    1.5321   -0.7842 H   0  0  0  0  0  0  0  0  0  0  0  0
    1.1274    0.5916   -2.6755 C   0  0  0  0  0  0  0  0  0  0  0  0
    0.4778    0.0083   -3.3348 H   0  0  0  0  0  0  0  0  0  0  0  0
    1.2193    1.5885   -3.1170 H   0  0  0  0  0  0  0  0  0  0  0  0
    2.5052   -0.0692   -2.6755 C   0  0  0  0  0  0  0  0  0  0  0  0
    3.5097    0.6700   -2.5446 O   0  5  0  0  0  0  0  0  0  0  0  0
    2.5414   -1.3096   -2.8729 O   0  0  0  0  0  0  0  0  0  0  0  0
    0.8460   -0.1114    1.0438 C   0  0  0  0  0  0  0  0  0  0  0  0
    1.9693   -0.2795    1.4993 O   0  0  0  0  0  0  0  0  0  0  0  0
   -0.0786    0.5867    1.8019 N   0  0  0  0  0  0  0  0  0  0  0  0
   -1.0297    0.5542    1.4546 H   0  0  0  0  0  0  0  0  0  0  0  0
    0.1491    0.9402    3.1950 C   0  0  0  0  0  0  0  0  0  0  0  0
    1.0416    1.5671    3.2904 H   0  0  0  0  0  0  0  0  0  0  0  0
   -0.7066    1.4983    3.5858 H   0  0  0  0  0  0  0  0  0  0  0  0
    0.2836    0.0378    3.8000 H   0  0  0  0  0  0  0  0  0  0  0  0
  1  2  1  0  0  0  0
  2  3  1  0  0  0  0
  2  4  1  0  0  0  0
  2  5  1  0  0  0  0
  5  6  2  0  0  0  0
  5  7  1  0  0  0  0
  7  8  1  0  0  0  0
  7  9  1  0  0  0  0
  9 10  1  0  0  0  0
  9 11  1  0  0  0  0
  9 20  1  0  0  0  0
 11 12  1  0  0  0  0
 11 13  1  0  0  0  0
 11 14  1  0  0  0  0
 14 15  1  0  0  0  0
 14 16  1  0  0  0  0
 14 17  1  0  0  0  0
 17 18  1  0  0  0  0
 17 19  2  0  0  0  0
 20 21  2  0  0  0  0
 20 22  1  0  0  0  0
 22 23  1  0  0  0  0
 22 24  1  0  0  0  0
 24 25  1  0  0  0  0
 24 26  1  0  0  0  0
 24 27  1  0  0  0  0
M  CHG  1  18  -1
M  END
$$$$

  -OEChem-04042215583D

 27 26  0     1  0  0  0  0  0999 V2000
   -2.7609   -3.8439    0.3547 H   0  0  0  0  0  0  0  0  0  0  0  0
   -2.5345   -2.9977   -0.3001 C   0  0  0  0  0  0  0  0  0  0  0  0
   -3.4074   -2.3421   -0.3450 H   0  0  0  0  0  0  0  0  0  0  0  0
   -2.3205   -3.3775   -1.3025 H   0  0  0  0  0  0  0  0  0  0  0  0
   -1.3346   -2.2307    0.2270 C   0  0  0  0  0  0  0  0  0  0  0  0
   -0.8238   -2.5722    1.2796 O   0  0  0  0  0  0  0  0  0  0  0  0
   -0.9032   -1.1185   -0.4682 N   0  0  0  0  0  0  0  0  0  0  0  0
   -1.3322   -1.0195   -1.3836 H   0  0  0  0  0  0  0  0  0  0  0  0
    0.4623   -0.5620   -0.3778 C   0  0  1  0  0  0  0  0  0  0  0  0
    1.2047   -1.3052   -0.6833 H   0  0  0  0  0  0  0  0  0  0  0  0
    0.4545    0.6979   -1.2922 C   0  0  0  0  0  0  0  0  0  0  0  0
   -0.5660    1.0667   -1.4363 H   0  0  0  0  0  0  0  0  0  0  0  0
    0.9939    1.4910   -0.7624 H   0  0  0  0  0  0  0  0  0  0  0  0
    1.1526    0.5863   -2.6676 C   0  0  0  0  0  0  0  0  0  0  0  0
    0.4045    0.2584   -3.3953 H   0  0  0  0  0  0  0  0  0  0  0  0
    1.4773    1.5845   -2.9765 H   0  0  0  0  0  0  0  0  0  0  0  0
    2.3367   -0.3729   -2.7820 C   0  0  0  0  0  0  0  0  0  0  0  0
    3.4942    0.1027   -2.7073 O   0  5  0  0  0  0  0  0  0  0  0  0
    2.0651   -1.5805   -3.0032 O   0  0  0  0  0  0  0  0  0  0  0  0
    0.8317   -0.1263    1.0635 C   0  0  0  0  0  0  0  0  0  0  0  0
    1.9589   -0.2782    1.5161 O   0  0  0  0  0  0  0  0  0  0  0  0
   -0.0880    0.5938    1.8067 N   0  0  0  0  0  0  0  0  0  0  0  0
   -1.0408    0.5471    1.4648 H   0  0  0  0  0  0  0  0  0  0  0  0
    0.1414    0.9696    3.1934 C   0  0  0  0  0  0  0  0  0  0  0  0
    1.0382    1.5920    3.2780 H   0  0  0  0  0  0  0  0  0  0  0  0
   -0.7105    1.5402    3.5742 H   0  0  0  0  0  0  0  0  0  0  0  0
    0.2696    0.0767    3.8138 H   0  0  0  0  0  0  0  0  0  0  0  0
  1  2  1  0  0  0  0
  2  3  1  0  0  0  0
  2  4  1  0  0  0  0
  2  5  1  0  0  0  0
  5  6  2  0  0  0  0
  5  7  1  0  0  0  0
  7  8  1  0  0  0  0
  7  9  1  0  0  0  0
  9 10  1  0  0  0  0
  9 11  1  0  0  0  0
  9 20  1  0  0  0  0
 11 12  1  0  0  0  0
 11 13  1  0  0  0  0
 11 14  1  0  0  0  0
 14 15  1  0  0  0  0
 14 16  1  0  0  0  0
 14 17  1  0  0  0  0
 17 18  1  0  0  0  0
 17 19  2  0  0  0  0
 20 21  2  0  0  0  0
 20 22  1  0  0  0  0
 22 23  1  0  0  0  0
 22 24  1  0  0  0  0
 24 25  1  0  0  0  0
 24 26  1  0  0  0  0
 24 27  1  0  0  0  0
M  CHG  1  18  -1
M  END
$$$$

  -OEChem-04042215583D

 27 26  0     1  0  0  0  0  0999 V2000
   -1.7344   -3.8397   -0.7358 H   0  0  0  0  0  0  0  0  0  0  0  0
   -1.7562   -2.8065   -1.0928 C   0  0  0  0  0  0  0  0  0  0  0  0
   -2.7485   -2.5885   -1.4934 H   0  0  0  0  0  0  0  0  0  0  0  0
   -1.0152   -2.6997   -1.8891 H   0  0  0  0  0  0  0  0  0  0  0  0
   -1.4217   -1.8557    0.0427 C   0  0  0  0  0  0  0  0  0  0  0  0
   -1.2865   -2.2706    1.1850 O   0  0  0  0  0  0  0  0  0  0  0  0
   -1.6957   -0.5087   -0.0472 N   0  0  0  0  0  0  0  0  0  0  0  0
   -2.3991   -0.3396   -0.7565 H   0  0  0  0  0  0  0  0  0  0  0  0
   -0.5320    0.3675   -0.2459 C   0  0  1  0  0  0  0  0  0  0  0  0
   -0.9433    1.3580   -0.0320 H   0  0  0  0  0  0  0  0  0  0  0  0
   -0.2386    0.4542   -1.7757 C   0  0  0  0  0  0  0  0  0  0  0  0
   -1.1538    0.2318   -2.3330 H   0  0  0  0  0  0  0  0  0  0  0  0
   -0.0223    1.5123   -1.9576 H   0  0  0  0  0  0  0  0  0  0  0  0
    0.9299   -0.3041   -2.4628 C   0  0  0  0  0  0  0  0  0  0  0  0
    0.4932   -1.1267   -3.0358 H   0  0  0  0  0  0  0  0  0  0  0  0
    1.3794    0.3752   -3.1939 H   0  0  0  0  0  0  0  0  0  0  0  0
    2.0600   -0.9175   -1.6386 C   0  0  0  0  0  0  0  0  0  0  0  0
    3.2448   -0.6570   -1.9653 O   0  5  0  0  0  0  0  0  0  0  0  0
    1.7125   -1.8421   -0.8584 O   0  0  0  0  0  0  0  0  0  0  0  0
    0.5872    0.3586    0.8207 C   0  0  0  0  0  0  0  0  0  0  0  0
    1.5986    1.0122    0.5947 O   0  0  0  0  0  0  0  0  0  0  0  0
    0.1650    0.3848    2.1383 N   0  0  0  0  0  0  0  0  0  0  0  0
   -0.5926   -0.2780    2.3021 H   0  0  0  0  0  0  0  0  0  0  0  0
    1.0944    0.6069    3.2380 C   0  0  0  0  0  0  0  0  0  0  0  0
    1.5007    1.6226    3.1991 H   0  0  0  0  0  0  0  0  0  0  0  0
    0.5798    0.4783    4.1946 H   0  0  0  0  0  0  0  0  0  0  0  0
    1.9226   -0.1077    3.1890 H   0  0  0  0  0  0  0  0  0  0  0  0
  1  2  1  0  0  0  0
  2  3  1  0  0  0  0
  2  4  1  0  0  0  0
  2  5  1  0  0  0  0
  5  6  2  0  0  0  0
  5  7  1  0  0  0  0
  7  8  1  0  0  0  0
  7  9  1  0  0  0  0
  9 10  1  0  0  0  0
  9 11  1  0  0  0  0
  9 20  1  0  0  0  0
 11 12  1  0  0  0  0
 11 13  1  0  0  0  0
 11 14  1  0  0  0  0
 14 15  1  0  0  0  0
 14 16  1  0  0  0  0
 14 17  1  0  0  0  0
 17 18  1  0  0  0  0
 17 19  2  0  0  0  0
 20 21  2  0  0  0  0
 20 22  1  0  0  0  0
 22 23  1  0  0  0  0
 22 24  1  0  0  0  0
 24 25  1  0  0  0  0
 24 26  1  0  0  0  0
 24 27  1  0  0  0  0
M  CHG  1  18  -1
M  END
$$$$

  -OEChem-04042215583D

 27 26  0     1  0  0  0  0  0999 V2000
   -2.6637   -3.9077    0.4538 H   0  0  0  0  0  0  0  0  0  0  0  0
   -2.4744   -3.0711   -0.2246 C   0  0  0  0  0  0  0  0  0  0  0  0
   -3.3926   -2.4898   -0.3365 H   0  0  0  0  0  0  0  0  0  0  0  0
   -2.1833   -3.4700   -1.2003 H   0  0  0  0  0  0  0  0  0  0  0  0
   -1.3644   -2.1909    0.3210 C   0  0  0  0  0  0  0  0  0  0  0  0
   -0.9165   -2.4129    1.4340 O   0  0  0  0  0  0  0  0  0  0  0  0
   -0.9517   -1.1060   -0.4252 N   0  0  0  0  0  0  0  0  0  0  0  0
   -1.3244   -1.1282   -1.3726 H   0  0  0  0  0  0  0  0  0  0  0  0
    0.4209   -0.5669   -0.3772 C   0  0  1  0  0  0  0  0  0  0  0  0
    1.1495   -1.3331   -0.6592 H   0  0  0  0  0  0  0  0  0  0  0  0
    0.4324    0.6700   -1.3252 C   0  0  0  0  0  0  0  0  0  0  0  0
   -0.5908    1.0291   -1.4764 H   0  0  0  0  0  0  0  0  0  0  0  0
    0.9670    1.4846   -0.8241 H   0  0  0  0  0  0  0  0  0  0  0  0
    1.1086    0.5100   -2.7119 C   0  0  0  0  0  0  0  0  0  0  0  0
    0.3689    0.7401   -3.4841 H   0  0  0  0  0  0  0  0  0  0  0  0
    1.9030    1.2577   -2.7976 H   0  0  0  0  0  0  0  0  0  0  0  0
    1.7039   -0.8604   -3.0369 C   0  0  0  0  0  0  0  0  0  0  0  0
    0.8795   -1.8061   -3.1510 O   0  5  0  0  0  0  0  0  0  0  0  0
    2.9414   -0.9621   -3.2065 O   0  0  0  0  0  0  0  0  0  0  0  0
    0.8325   -0.0889    1.0383 C   0  0  0  0  0  0  0  0  0  0  0  0
    1.9854   -0.1978    1.4387 O   0  0  0  0  0  0  0  0  0  0  0  0
   -0.0569    0.6691    1.7798 N   0  0  0  0  0  0  0  0  0  0  0  0
   -1.0249    0.5736    1.4923 H   0  0  0  0  0  0  0  0  0  0  0  0
    0.2248    1.1005    3.1408 C   0  0  0  0  0  0  0  0  0  0  0  0
    1.1238    1.7248    3.1669 H   0  0  0  0  0  0  0  0  0  0  0  0
   -0.6125    1.6872    3.5296 H   0  0  0  0  0  0  0  0  0  0  0  0
    0.3760    0.2332    3.7917 H   0  0  0  0  0  0  0  0  0  0  0  0
  1  2  1  0  0  0  0
  2  3  1  0  0  0  0
  2  4  1  0  0  0  0
  2  5  1  0  0  0  0
  5  6  2  0  0  0  0
  5  7  1  0  0  0  0
  7  8  1  0  0  0  0
  7  9  1  0  0  0  0
  9 10  1  0  0  0  0
  9 11  1  0  0  0  0
  9 20  1  0  0  0  0
 11 12  1  0  0  0  0
 11 13  1  0  0  0  0
 11 14  1  0  0  0  0
 14 15  1  0  0  0  0
 14 16  1  0  0  0  0
 14 17  1  0  0  0  0
 17 18  1  0  0  0  0
 17 19  2  0  0  0  0
 20 21  2  0  0  0  0
 20 22  1  0  0  0  0
 22 23  1  0  0  0  0
 22 24  1  0  0  0  0
 24 25  1  0  0  0  0
 24 26  1  0  0  0  0
 24 27  1  0  0  0  0
M  CHG  1  18  -1
M  END
$$$$

  -OEChem-04042215583D

 27 26  0     1  0  0  0  0  0999 V2000
   -2.5830   -3.9635    0.3998 H   0  0  0  0  0  0  0  0  0  0  0  0
   -2.4321   -3.1016   -0.2561 C   0  0  0  0  0  0  0  0  0  0  0  0
   -3.3738   -2.5556   -0.3488 H   0  0  0  0  0  0  0  0  0  0  0  0
   -2.1297   -3.4609   -1.2439 H   0  0  0  0  0  0  0  0  0  0  0  0
   -1.3567   -2.1910    0.3085 C   0  0  0  0  0  0  0  0  0  0  0  0
   -0.9213   -2.3989    1.4300 O   0  0  0  0  0  0  0  0  0  0  0  0
   -0.9619   -1.0948   -0.4294 N   0  0  0  0  0  0  0  0  0  0  0  0
   -1.3108   -1.1456   -1.3880 H   0  0  0  0  0  0  0  0  0  0  0  0
    0.4079   -0.5517   -0.3907 C   0  0  1  0  0  0  0  0  0  0  0  0
    1.1369   -1.3084   -0.6982 H   0  0  0  0  0  0  0  0  0  0  0  0
    0.4049    0.6987   -1.3200 C   0  0  0  0  0  0  0  0  0  0  0  0
   -0.6267    1.0332   -1.4717 H   0  0  0  0  0  0  0  0  0  0  0  0
    0.9228    1.5249   -0.8210 H   0  0  0  0  0  0  0  0  0  0  0  0
    1.0692    0.5334   -2.7094 C   0  0  0  0  0  0  0  0  0  0  0  0
    0.4501    1.0288   -3.4627 H   0  0  0  0  0  0  0  0  0  0  0  0
    2.0343    1.0491   -2.6917 H   0  0  0  0  0  0  0  0  0  0  0  0
    1.3147   -0.9119   -3.1503 C   0  0  0  0  0  0  0  0  0  0  0  0
    0.2960   -1.6538   -3.2020 O   0  5  0  0  0  0  0  0  0  0  0  0
    2.4783   -1.2710   -3.4456 O   0  0  0  0  0  0  0  0  0  0  0  0
    0.8425   -0.0895    1.0218 C   0  0  0  0  0  0  0  0  0  0  0  0
    2.0064   -0.1900    1.3928 O   0  0  0  0  0  0  0  0  0  0  0  0
   -0.0366    0.6569    1.7861 N   0  0  0  0  0  0  0  0  0  0  0  0
   -1.0094    0.5498    1.5184 H   0  0  0  0  0  0  0  0  0  0  0  0
    0.2675    1.0748    3.1461 C   0  0  0  0  0  0  0  0  0  0  0  0
    1.1618    1.7061    3.1621 H   0  0  0  0  0  0  0  0  0  0  0  0
   -0.5670    1.6501    3.5573 H   0  0  0  0  0  0  0  0  0  0  0  0
    0.4382    0.2014    3.7839 H   0  0  0  0  0  0  0  0  0  0  0  0
  1  2  1  0  0  0  0
  2  3  1  0  0  0  0
  2  4  1  0  0  0  0
  2  5  1  0  0  0  0
  5  6  2  0  0  0  0
  5  7  1  0  0  0  0
  7  8  1  0  0  0  0
  7  9  1  0  0  0  0
  9 10  1  0  0  0  0
  9 11  1  0  0  0  0
  9 20  1  0  0  0  0
 11 12  1  0  0  0  0
 11 13  1  0  0  0  0
 11 14  1  0  0  0  0
 14 15  1  0  0  0  0
 14 16  1  0  0  0  0
 14 17  1  0  0  0  0
 17 18  1  0  0  0  0
 17 19  2  0  0  0  0
 20 21  2  0  0  0  0
 20 22  1  0  0  0  0
 22 23  1  0  0  0  0
 22 24  1  0  0  0  0
 24 25  1  0  0  0  0
 24 26  1  0  0  0  0
 24 27  1  0  0  0  0
M  CHG  1  18  -1
M  END
$$$$

  -OEChem-04042215583D

 27 26  0     1  0  0  0  0  0999 V2000
   -2.5537   -3.9785    0.3382 H   0  0  0  0  0  0  0  0  0  0  0  0
   -2.4243   -3.0950   -0.2928 C   0  0  0  0  0  0  0  0  0  0  0  0
   -3.3717   -2.5537   -0.3474 H   0  0  0  0  0  0  0  0  0  0  0  0
   -2.1419   -3.4195   -1.2985 H   0  0  0  0  0  0  0  0  0  0  0  0
   -1.3432   -2.1938    0.2757 C   0  0  0  0  0  0  0  0  0  0  0  0
   -0.8853   -2.4268    1.3836 O   0  0  0  0  0  0  0  0  0  0  0  0
   -0.9586   -1.0840   -0.4457 N   0  0  0  0  0  0  0  0  0  0  0  0
   -1.3051   -1.1268   -1.4098 H   0  0  0  0  0  0  0  0  0  0  0  0
    0.4062   -0.5307   -0.4058 C   0  0  1  0  0  0  0  0  0  0  0  0
    1.1375   -1.2754   -0.7381 H   0  0  0  0  0  0  0  0  0  0  0  0
    0.3883    0.7245   -1.3246 C   0  0  0  0  0  0  0  0  0  0  0  0
   -0.6471    1.0427   -1.4868 H   0  0  0  0  0  0  0  0  0  0  0  0
    0.8959    1.5598   -0.8301 H   0  0  0  0  0  0  0  0  0  0  0  0
    1.0586    0.5319   -2.7032 C   0  0  0  0  0  0  0  0  0  0  0  0
    0.6116    1.2203   -3.4257 H   0  0  0  0  0  0  0  0  0  0  0  0
    2.1187    0.7883   -2.6120 H   0  0  0  0  0  0  0  0  0  0  0  0
    0.9579   -0.9021   -3.2384 C   0  0  0  0  0  0  0  0  0  0  0  0
   -0.1944   -1.4181   -3.2488 O   0  5  0  0  0  0  0  0  0  0  0  0
    2.0018   -1.4790   -3.6215 O   0  0  0  0  0  0  0  0  0  0  0  0
    0.8510   -0.0847    1.0074 C   0  0  0  0  0  0  0  0  0  0  0  0
    2.0206   -0.1799    1.3629 O   0  0  0  0  0  0  0  0  0  0  0  0
   -0.0263    0.6448    1.7894 N   0  0  0  0  0  0  0  0  0  0  0  0
   -1.0006    0.5391    1.5254 H   0  0  0  0  0  0  0  0  0  0  0  0
    0.2856    1.0509    3.1510 C   0  0  0  0  0  0  0  0  0  0  0  0
    1.1761    1.6875    3.1667 H   0  0  0  0  0  0  0  0  0  0  0  0
   -0.5496    1.6167    3.5739 H   0  0  0  0  0  0  0  0  0  0  0  0
    0.4662    0.1725    3.7789 H   0  0  0  0  0  0  0  0  0  0  0  0
  1  2  1  0  0  0  0
  2  3  1  0  0  0  0
  2  4  1  0  0  0  0
  2  5  1  0  0  0  0
  5  6  2  0  0  0  0
  5  7  1  0  0  0  0
  7  8  1  0  0  0  0
  7  9  1  0  0  0  0
  9 10  1  0  0  0  0
  9 11  1  0  0  0  0
  9 20  1  0  0  0  0
 11 12  1  0  0  0  0
 11 13  1  0  0  0  0
 11 14  1  0  0  0  0
 14 15  1  0  0  0  0
 14 16  1  0  0  0  0
 14 17  1  0  0  0  0
 17 18  1  0  0  0  0
 17 19  2  0  0  0  0
 20 21  2  0  0  0  0
 20 22  1  0  0  0  0
 22 23  1  0  0  0  0
 22 24  1  0  0  0  0
 24 25  1  0  0  0  0
 24 26  1  0  0  0  0
 24 27  1  0  0  0  0
M  CHG  1  18  -1
M  END
$$$$

  -OEChem-04042215583D

 27 26  0     1  0  0  0  0  0999 V2000
   -2.5282   -3.9935    0.2575 H   0  0  0  0  0  0  0  0  0  0  0  0
   -2.4325   -3.0762   -0.3294 C   0  0  0  0  0  0  0  0  0  0  0  0
   -3.3826   -2.5372   -0.3064 H   0  0  0  0  0  0  0  0  0  0  0  0
   -2.2011   -3.3437   -1.3646 H   0  0  0  0  0  0  0  0  0  0  0  0
   -1.3264   -2.2020    0.2331 C   0  0  0  0  0  0  0  0  0  0  0  0
   -0.8322   -2.4745    1.3164 O   0  0  0  0  0  0  0  0  0  0  0  0
   -0.9501   -1.0761   -0.4660 N   0  0  0  0  0  0  0  0  0  0  0  0
   -1.3180   -1.0795   -1.4262 H   0  0  0  0  0  0  0  0  0  0  0  0
    0.4061   -0.5033   -0.4168 C   0  0  1  0  0  0  0  0  0  0  0  0
    1.1427   -1.2340   -0.7695 H   0  0  0  0  0  0  0  0  0  0  0  0
    0.3689    0.7469   -1.3352 C   0  0  0  0  0  0  0  0  0  0  0  0
   -0.6668    1.0587   -1.5093 H   0  0  0  0  0  0  0  0  0  0  0  0
    0.8728    1.5878   -0.8468 H   0  0  0  0  0  0  0  0  0  0  0  0
    1.0605    0.5171   -2.6927 C   0  0  0  0  0  0  0  0  0  0  0  0
    0.8061    1.3326   -3.3752 H   0  0  0  0  0  0  0  0  0  0  0  0
    2.1447    0.5280   -2.5446 H   0  0  0  0  0  0  0  0  0  0  0  0
    0.6609   -0.8221   -3.3306 C   0  0  0  0  0  0  0  0  0  0  0  0
   -0.5607   -1.1400   -3.2910 O   0  5  0  0  0  0  0  0  0  0  0  0
    1.5641   -1.5322   -3.8303 O   0  0  0  0  0  0  0  0  0  0  0  0
    0.8538   -0.0709    0.9982 C   0  0  0  0  0  0  0  0  0  0  0  0
    2.0284   -0.1539    1.3406 O   0  0  0  0  0  0  0  0  0  0  0  0
   -0.0270    0.6357    1.7967 N   0  0  0  0  0  0  0  0  0  0  0  0
   -1.0019    0.5291    1.5348 H   0  0  0  0  0  0  0  0  0  0  0  0
    0.2901    1.0286    3.1608 C   0  0  0  0  0  0  0  0  0  0  0  0
    1.1723    1.6766    3.1778 H   0  0  0  0  0  0  0  0  0  0  0  0
   -0.5490    1.5776    3.5979 H   0  0  0  0  0  0  0  0  0  0  0  0
    0.4877    0.1447    3.7757 H   0  0  0  0  0  0  0  0  0  0  0  0
  1  2  1  0  0  0  0
  2  3  1  0  0  0  0
  2  4  1  0  0  0  0
  2  5  1  0  0  0  0
  5  6  2  0  0  0  0
  5  7  1  0  0  0  0
  7  8  1  0  0  0  0
  7  9  1  0  0  0  0
  9 10  1  0  0  0  0
  9 11  1  0  0  0  0
  9 20  1  0  0  0  0
 11 12  1  0  0  0  0
 11 13  1  0  0  0  0
 11 14  1  0  0  0  0
 14 15  1  0  0  0  0
 14 16  1  0  0  0  0
 14 17  1  0  0  0  0
 17 18  1  0  0  0  0
 17 19  2  0  0  0  0
 20 21  2  0  0  0  0
 20 22  1  0  0  0  0
 22 23  1  0  0  0  0
 22 24  1  0  0  0  0
 24 25  1  0  0  0  0
 24 26  1  0  0  0  0
 24 27  1  0  0  0  0
M  CHG  1  18  -1
M  END
$$$$

  -OEChem-04042215583D

 27 26  0     1  0  0  0  0  0999 V2000
   -2.5268   -3.9896    0.2118 H   0  0  0  0  0  0  0  0  0  0  0  0
   -2.4547   -3.0446   -0.3329 C   0  0  0  0  0  0  0  0  0  0  0  0
   -3.3937   -2.4968   -0.2241 H   0  0  0  0  0  0  0  0  0  0  0  0
   -2.2912   -3.2615   -1.3925 H   0  0  0  0  0  0  0  0  0  0  0  0
   -1.3046   -2.2119    0.2036 C   0  0  0  0  0  0  0  0  0  0  0  0
   -0.7632   -2.5313    1.2509 O   0  0  0  0  0  0  0  0  0  0  0  0
   -0.9298   -1.0769   -0.4808 N   0  0  0  0  0  0  0  0  0  0  0  0
   -1.3304   -1.0326   -1.4279 H   0  0  0  0  0  0  0  0  0  0  0  0
    0.4176   -0.4864   -0.4231 C   0  0  1  0  0  0  0  0  0  0  0  0
    1.1608   -1.2061   -0.7842 H   0  0  0  0  0  0  0  0  0  0  0  0
    0.3608    0.7562   -1.3445 C   0  0  0  0  0  0  0  0  0  0  0  0
   -0.6734    1.0734   -1.5199 H   0  0  0  0  0  0  0  0  0  0  0  0
    0.8688    1.5968   -0.8604 H   0  0  0  0  0  0  0  0  0  0  0  0
    1.0708    0.5010   -2.6857 C   0  0  0  0  0  0  0  0  0  0  0  0
    1.0153    1.4050   -3.2980 H   0  0  0  0  0  0  0  0  0  0  0  0
    2.1272    0.2818   -2.5029 H   0  0  0  0  0  0  0  0  0  0  0  0
    0.4351   -0.6626   -3.4660 C   0  0  0  0  0  0  0  0  0  0  0  0
   -0.7955   -0.8946   -3.3000 O   0  5  0  0  0  0  0  0  0  0  0  0
    1.1849   -1.3280   -4.2178 O   0  0  0  0  0  0  0  0  0  0  0  0
    0.8560   -0.0580    0.9950 C   0  0  0  0  0  0  0  0  0  0  0  0
    2.0290   -0.1391    1.3434 O   0  0  0  0  0  0  0  0  0  0  0  0
   -0.0361    0.6312    1.7958 N   0  0  0  0  0  0  0  0  0  0  0  0
   -1.0079    0.5336    1.5189 H   0  0  0  0  0  0  0  0  0  0  0  0
    0.2652    1.0053    3.1687 C   0  0  0  0  0  0  0  0  0  0  0  0
    1.1426    1.6589    3.2046 H   0  0  0  0  0  0  0  0  0  0  0  0
   -0.5820    1.5418    3.6057 H   0  0  0  0  0  0  0  0  0  0  0  0
    0.4625    0.1130    3.7716 H   0  0  0  0  0  0  0  0  0  0  0  0
  1  2  1  0  0  0  0
  2  3  1  0  0  0  0
  2  4  1  0  0  0  0
  2  5  1  0  0  0  0
  5  6  2  0  0  0  0
  5  7  1  0  0  0  0
  7  8  1  0  0  0  0
  7  9  1  0  0  0  0
  9 10  1  0  0  0  0
  9 11  1  0  0  0  0
  9 20  1  0  0  0  0
 11 12  1  0  0  0  0
 11 13  1  0  0  0  0
 11 14  1  0  0  0  0
 14 15  1  0  0  0  0
 14 16  1  0  0  0  0
 14 17  1  0  0  0  0
 17 18  1  0  0  0  0
 17 19  2  0  0  0  0
 20 21  2  0  0  0  0
 20 22  1  0  0  0  0
 22 23  1  0  0  0  0
 22 24  1  0  0  0  0
 24 25  1  0  0  0  0
 24 26  1  0  0  0  0
 24 27  1  0  0  0  0
M  CHG  1  18  -1
M  END
$$$$

  -OEChem-04042215583D

 27 26  0     1  0  0  0  0  0999 V2000
   -2.5830   -3.9633    0.2130 H   0  0  0  0  0  0  0  0  0  0  0  0
   -2.4884   -3.0221   -0.3350 C   0  0  0  0  0  0  0  0  0  0  0  0
   -3.4114   -2.4488   -0.2215 H   0  0  0  0  0  0  0  0  0  0  0  0
   -2.3382   -3.2450   -1.3951 H   0  0  0  0  0  0  0  0  0  0  0  0
   -1.3128   -2.2190    0.1915 C   0  0  0  0  0  0  0  0  0  0  0  0
   -0.7513   -2.5681    1.2186 O   0  0  0  0  0  0  0  0  0  0  0  0
   -0.9289   -1.0826   -0.4847 N   0  0  0  0  0  0  0  0  0  0  0  0
   -1.3361   -1.0167   -1.4285 H   0  0  0  0  0  0  0  0  0  0  0  0
    0.4167   -0.4914   -0.4159 C   0  0  1  0  0  0  0  0  0  0  0  0
    1.1589   -1.2127   -0.7738 H   0  0  0  0  0  0  0  0  0  0  0  0
    0.3605    0.7456   -1.3433 C   0  0  0  0  0  0  0  0  0  0  0  0
   -0.6685    1.0799   -1.5177 H   0  0  0  0  0  0  0  0  0  0  0  0
    0.8788    1.5788   -0.8572 H   0  0  0  0  0  0  0  0  0  0  0  0
    1.0839    0.4826   -2.6769 C   0  0  0  0  0  0  0  0  0  0  0  0
    1.2448    1.4407   -3.1790 H   0  0  0  0  0  0  0  0  0  0  0  0
    2.0647    0.0360   -2.4892 H   0  0  0  0  0  0  0  0  0  0  0  0
    0.2790   -0.4216   -3.6286 C   0  0  0  0  0  0  0  0  0  0  0  0
   -0.8673   -0.8212   -3.2790 O   0  5  0  0  0  0  0  0  0  0  0  0
    0.8271   -0.7160   -4.7167 O   0  0  0  0  0  0  0  0  0  0  0  0
    0.8493   -0.0643    1.0039 C   0  0  0  0  0  0  0  0  0  0  0  0
    2.0206   -0.1522    1.3567 O   0  0  0  0  0  0  0  0  0  0  0  0
   -0.0439    0.6240    1.8037 N   0  0  0  0  0  0  0  0  0  0  0  0
   -1.0149    0.5431    1.5192 H   0  0  0  0  0  0  0  0  0  0  0  0
    0.2582    1.0144    3.1719 C   0  0  0  0  0  0  0  0  0  0  0  0
    1.1367    1.6671    3.1989 H   0  0  0  0  0  0  0  0  0  0  0  0
   -0.5877    1.5577    3.6029 H   0  0  0  0  0  0  0  0  0  0  0  0
    0.4547    0.1295    3.7858 H   0  0  0  0  0  0  0  0  0  0  0  0
  1  2  1  0  0  0  0
  2  3  1  0  0  0  0
  2  4  1  0  0  0  0
  2  5  1  0  0  0  0
  5  6  2  0  0  0  0
  5  7  1  0  0  0  0
  7  8  1  0  0  0  0
  7  9  1  0  0  0  0
  9 10  1  0  0  0  0
  9 11  1  0  0  0  0
  9 20  1  0  0  0  0
 11 12  1  0  0  0  0
 11 13  1  0  0  0  0
 11 14  1  0  0  0  0
 14 15  1  0  0  0  0
 14 16  1  0  0  0  0
 14 17  1  0  0  0  0
 17 18  1  0  0  0  0
 17 19  2  0  0  0  0
 20 21  2  0  0  0  0
 20 22  1  0  0  0  0
 22 23  1  0  0  0  0
 22 24  1  0  0  0  0
 24 25  1  0  0  0  0
 24 26  1  0  0  0  0
 24 27  1  0  0  0  0
M  CHG  1  18  -1
M  END
$$$$

  -OEChem-04042215583D

 27 26  0     1  0  0  0  0  0999 V2000
   -2.6027   -3.9421    0.1851 H   0  0  0  0  0  0  0  0  0  0  0  0
   -2.5076   -2.9931   -0.3493 C   0  0  0  0  0  0  0  0  0  0  0  0
   -3.4284   -2.4185   -0.2237 H   0  0  0  0  0  0  0  0  0  0  0  0
   -2.3622   -3.2011   -1.4132 H   0  0  0  0  0  0  0  0  0  0  0  0
   -1.3272   -2.2023    0.1848 C   0  0  0  0  0  0  0  0  0  0  0  0
   -0.7779   -2.5555    1.2171 O   0  0  0  0  0  0  0  0  0  0  0  0
   -0.9215   -1.0752   -0.4940 N   0  0  0  0  0  0  0  0  0  0  0  0
   -1.3139   -1.0133   -1.4441 H   0  0  0  0  0  0  0  0  0  0  0  0
    0.4296   -0.4992   -0.4118 C   0  0  1  0  0  0  0  0  0  0  0  0
    1.1668   -1.2324   -0.7536 H   0  0  0  0  0  0  0  0  0  0  0  0
    0.3830    0.7290   -1.3504 C   0  0  0  0  0  0  0  0  0  0  0  0
   -0.6408    1.0789   -1.5268 H   0  0  0  0  0  0  0  0  0  0  0  0
    0.9115    1.5569   -0.8662 H   0  0  0  0  0  0  0  0  0  0  0  0
    1.1128    0.4518   -2.6778 C   0  0  0  0  0  0  0  0  0  0  0  0
    1.5026    1.3977   -3.0655 H   0  0  0  0  0  0  0  0  0  0  0  0
    1.9636   -0.2195   -2.5326 H   0  0  0  0  0  0  0  0  0  0  0  0
    0.1494   -0.1353   -3.7228 C   0  0  0  0  0  0  0  0  0  0  0  0
   -0.8067   -0.8558   -3.3188 O   0  5  0  0  0  0  0  0  0  0  0  0
    0.3725    0.1359   -4.9265 O   0  0  0  0  0  0  0  0  0  0  0  0
    0.8507   -0.0665    1.0100 C   0  0  0  0  0  0  0  0  0  0  0  0
    2.0156   -0.1723    1.3790 O   0  0  0  0  0  0  0  0  0  0  0  0
   -0.0430    0.6384    1.7949 N   0  0  0  0  0  0  0  0  0  0  0  0
   -1.0108    0.5741    1.4954 H   0  0  0  0  0  0  0  0  0  0  0  0
    0.2438    1.0276    3.1670 C   0  0  0  0  0  0  0  0  0  0  0  0
    1.1320    1.6664    3.2072 H   0  0  0  0  0  0  0  0  0  0  0  0
   -0.6004    1.5850    3.5833 H   0  0  0  0  0  0  0  0  0  0  0  0
    0.4160    0.1413    3.7860 H   0  0  0  0  0  0  0  0  0  0  0  0
  1  2  1  0  0  0  0
  2  3  1  0  0  0  0
  2  4  1  0  0  0  0
  2  5  1  0  0  0  0
  5  6  2  0  0  0  0
  5  7  1  0  0  0  0
  7  8  1  0  0  0  0
  7  9  1  0  0  0  0
  9 10  1  0  0  0  0
  9 11  1  0  0  0  0
  9 20  1  0  0  0  0
 11 12  1  0  0  0  0
 11 13  1  0  0  0  0
 11 14  1  0  0  0  0
 14 15  1  0  0  0  0
 14 16  1  0  0  0  0
 14 17  1  0  0  0  0
 17 18  1  0  0  0  0
 17 19  2  0  0  0  0
 20 21  2  0  0  0  0
 20 22  1  0  0  0  0
 22 23  1  0  0  0  0
 22 24  1  0  0  0  0
 24 25  1  0  0  0  0
 24 26  1  0  0  0  0
 24 27  1  0  0  0  0
M  CHG  1  18  -1
M  END
$$$$

  -OEChem-04042215583D

 27 26  0     1  0  0  0  0  0999 V2000
   -2.6489   -3.8972    0.1879 H   0  0  0  0  0  0  0  0  0  0  0  0
   -2.5326   -2.9482   -0.3424 C   0  0  0  0  0  0  0  0  0  0  0  0
   -3.4254   -2.3388   -0.1829 H   0  0  0  0  0  0  0  0  0  0  0  0
   -2.4294   -3.1526   -1.4117 H   0  0  0  0  0  0  0  0  0  0  0  0
   -1.3056   -2.2094    0.1601 C   0  0  0  0  0  0  0  0  0  0  0  0
   -0.7307   -2.6016    1.1636 O   0  0  0  0  0  0  0  0  0  0  0  0
   -0.8812   -1.0868   -0.5152 N   0  0  0  0  0  0  0  0  0  0  0  0
   -1.2998   -0.9766   -1.4481 H   0  0  0  0  0  0  0  0  0  0  0  0
    0.4693   -0.5103   -0.4139 C   0  0  1  0  0  0  0  0  0  0  0  0
    1.2169   -1.2387   -0.7409 H   0  0  0  0  0  0  0  0  0  0  0  0
    0.3972    0.7094   -1.3566 C   0  0  0  0  0  0  0  0  0  0  0  0
   -0.6304    1.0574   -1.5183 H   0  0  0  0  0  0  0  0  0  0  0  0
    0.9214    1.5439   -0.8784 H   0  0  0  0  0  0  0  0  0  0  0  0
    1.1302    0.4344   -2.6825 C   0  0  0  0  0  0  0  0  0  0  0  0
    1.7225    1.3133   -2.9548 H   0  0  0  0  0  0  0  0  0  0  0  0
    1.8146   -0.4151   -2.6159 H   0  0  0  0  0  0  0  0  0  0  0  0
    0.0839    0.1847   -3.7745 C   0  0  0  0  0  0  0  0  0  0  0  0
   -0.8549   -0.6123   -3.4900 O   0  5  0  0  0  0  0  0  0  0  0  0
    0.2083    0.7808   -4.8707 O   0  0  0  0  0  0  0  0  0  0  0  0
    0.8660   -0.0698    1.0121 C   0  0  0  0  0  0  0  0  0  0  0  0
    2.0211   -0.1871    1.4069 O   0  0  0  0  0  0  0  0  0  0  0  0
   -0.0399    0.6396    1.7784 N   0  0  0  0  0  0  0  0  0  0  0  0
   -1.0000    0.5989    1.4517 H   0  0  0  0  0  0  0  0  0  0  0  0
    0.2205    1.0308    3.1548 C   0  0  0  0  0  0  0  0  0  0  0  0
    1.1066    1.6716    3.2102 H   0  0  0  0  0  0  0  0  0  0  0  0
   -0.6322    1.5871    3.5544 H   0  0  0  0  0  0  0  0  0  0  0  0
    0.3825    0.1454    3.7781 H   0  0  0  0  0  0  0  0  0  0  0  0
  1  2  1  0  0  0  0
  2  3  1  0  0  0  0
  2  4  1  0  0  0  0
  2  5  1  0  0  0  0
  5  6  2  0  0  0  0
  5  7  1  0  0  0  0
  7  8  1  0  0  0  0
  7  9  1  0  0  0  0
  9 10  1  0  0  0  0
  9 11  1  0  0  0  0
  9 20  1  0  0  0  0
 11 12  1  0  0  0  0
 11 13  1  0  0  0  0
 11 14  1  0  0  0  0
 14 15  1  0  0  0  0
 14 16  1  0  0  0  0
 14 17  1  0  0  0  0
 17 18  1  0  0  0  0
 17 19  2  0  0  0  0
 20 21  2  0  0  0  0
 20 22  1  0  0  0  0
 22 23  1  0  0  0  0
 22 24  1  0  0  0  0
 24 25  1  0  0  0  0
 24 26  1  0  0  0  0
 24 27  1  0  0  0  0
M  CHG  1  18  -1
M  END
$$$$

  -OEChem-04042215583D

 27 26  0     1  0  0  0  0  0999 V2000
   -2.7030   -3.8687    0.2521 H   0  0  0  0  0  0  0  0  0  0  0  0
   -2.5640   -2.9355   -0.3005 C   0  0  0  0  0  0  0  0  0  0  0  0
   -3.4273   -2.2885   -0.1281 H   0  0  0  0  0  0  0  0  0  0  0  0
   -2.4997   -3.1647   -1.3676 H   0  0  0  0  0  0  0  0  0  0  0  0
   -1.2953   -2.2372    0.1543 C   0  0  0  0  0  0  0  0  0  0  0  0
   -0.6753   -2.6705    1.1121 O   0  0  0  0  0  0  0  0  0  0  0  0
   -0.8742   -1.1110   -0.5188 N   0  0  0  0  0  0  0  0  0  0  0  0
   -1.3495   -0.9356   -1.4091 H   0  0  0  0  0  0  0  0  0  0  0  0
    0.4738   -0.5251   -0.4199 C   0  0  1  0  0  0  0  0  0  0  0  0
    1.2286   -1.2475   -0.7444 H   0  0  0  0  0  0  0  0  0  0  0  0
    0.4027    0.6955   -1.3601 C   0  0  0  0  0  0  0  0  0  0  0  0
   -0.6308    1.0255   -1.5197 H   0  0  0  0  0  0  0  0  0  0  0  0
    0.9091    1.5402   -0.8807 H   0  0  0  0  0  0  0  0  0  0  0  0
    1.1383    0.4375   -2.6904 C   0  0  0  0  0  0  0  0  0  0  0  0
    1.9403    1.1713   -2.8154 H   0  0  0  0  0  0  0  0  0  0  0  0
    1.5925   -0.5560   -2.7267 H   0  0  0  0  0  0  0  0  0  0  0  0
    0.1405    0.5661   -3.8424 C   0  0  0  0  0  0  0  0  0  0  0  0
   -0.8822   -0.1703   -3.7774 O   0  5  0  0  0  0  0  0  0  0  0  0
    0.3771    1.3870   -4.7607 O   0  0  0  0  0  0  0  0  0  0  0  0
    0.8671   -0.0841    1.0072 C   0  0  0  0  0  0  0  0  0  0  0  0
    2.0193   -0.2077    1.4072 O   0  0  0  0  0  0  0  0  0  0  0  0
   -0.0421    0.6184    1.7764 N   0  0  0  0  0  0  0  0  0  0  0  0
   -0.9987    0.6092    1.4380 H   0  0  0  0  0  0  0  0  0  0  0  0
    0.2236    1.0390    3.1432 C   0  0  0  0  0  0  0  0  0  0  0  0
    1.1040    1.6885    3.1799 H   0  0  0  0  0  0  0  0  0  0  0  0
   -0.6316    1.5955    3.5377 H   0  0  0  0  0  0  0  0  0  0  0  0
    0.3982    0.1678    3.7826 H   0  0  0  0  0  0  0  0  0  0  0  0
  1  2  1  0  0  0  0
  2  3  1  0  0  0  0
  2  4  1  0  0  0  0
  2  5  1  0  0  0  0
  5  6  2  0  0  0  0
  5  7  1  0  0  0  0
  7  8  1  0  0  0  0
  7  9  1  0  0  0  0
  9 10  1  0  0  0  0
  9 11  1  0  0  0  0
  9 20  1  0  0  0  0
 11 12  1  0  0  0  0
 11 13  1  0  0  0  0
 11 14  1  0  0  0  0
 14 15  1  0  0  0  0
 14 16  1  0  0  0  0
 14 17  1  0  0  0  0
 17 18  1  0  0  0  0
 17 19  2  0  0  0  0
 20 21  2  0  0  0  0
 20 22  1  0  0  0  0
 22 23  1  0  0  0  0
 22 24  1  0  0  0  0
 24 25  1  0  0  0  0
 24 26  1  0  0  0  0
 24 27  1  0  0  0  0
M  CHG  1  18  -1
M  END
$$$$

  -OEChem-04042215583D

 27 26  0     1  0  0  0  0  0999 V2000
   -2.7355   -3.8488    0.3356 H   0  0  0  0  0  0  0  0  0  0  0  0
   -2.5896   -2.9296   -0.2383 C   0  0  0  0  0  0  0  0  0  0  0  0
   -3.4246   -2.2528   -0.0411 H   0  0  0  0  0  0  0  0  0  0  0  0
   -2.5773   -3.1780   -1.3029 H   0  0  0  0  0  0  0  0  0  0  0  0
   -1.2814   -2.2656    0.1527 C   0  0  0  0  0  0  0  0  0  0  0  0
   -0.6136   -2.7335    1.0599 O   0  0  0  0  0  0  0  0  0  0  0  0
   -0.8778   -1.1320   -0.5201 N   0  0  0  0  0  0  0  0  0  0  0  0
   -1.4083   -0.9050   -1.3624 H   0  0  0  0  0  0  0  0  0  0  0  0
    0.4653   -0.5301   -0.4353 C   0  0  1  0  0  0  0  0  0  0  0  0
    1.2257   -1.2438   -0.7677 H   0  0  0  0  0  0  0  0  0  0  0  0
    0.4030    0.6976   -1.3685 C   0  0  0  0  0  0  0  0  0  0  0  0
   -0.6377    0.9945   -1.5430 H   0  0  0  0  0  0  0  0  0  0  0  0
    0.8830    1.5561   -0.8865 H   0  0  0  0  0  0  0  0  0  0  0  0
    1.1419    0.4490   -2.6984 C   0  0  0  0  0  0  0  0  0  0  0  0
    2.1110    0.9573   -2.6877 H   0  0  0  0  0  0  0  0  0  0  0  0
    1.3282   -0.6173   -2.8532 H   0  0  0  0  0  0  0  0  0  0  0  0
    0.2933    0.9444   -3.8694 C   0  0  0  0  0  0  0  0  0  0  0  0
   -0.8126    0.3666   -4.0428 O   0  5  0  0  0  0  0  0  0  0  0  0
    0.7253    1.8927   -4.5680 O   0  0  0  0  0  0  0  0  0  0  0  0
    0.8640   -0.0913    0.9912 C   0  0  0  0  0  0  0  0  0  0  0  0
    2.0169   -0.2168    1.3878 O   0  0  0  0  0  0  0  0  0  0  0  0
   -0.0465    0.5962    1.7726 N   0  0  0  0  0  0  0  0  0  0  0  0
   -1.0005    0.6145    1.4280 H   0  0  0  0  0  0  0  0  0  0  0  0
    0.2289    1.0290    3.1338 C   0  0  0  0  0  0  0  0  0  0  0  0
    1.0968    1.6960    3.1559 H   0  0  0  0  0  0  0  0  0  0  0  0
   -0.6320    1.5703    3.5368 H   0  0  0  0  0  0  0  0  0  0  0  0
    0.4293    0.1649    3.7753 H   0  0  0  0  0  0  0  0  0  0  0  0
  1  2  1  0  0  0  0
  2  3  1  0  0  0  0
  2  4  1  0  0  0  0
  2  5  1  0  0  0  0
  5  6  2  0  0  0  0
  5  7  1  0  0  0  0
  7  8  1  0  0  0  0
  7  9  1  0  0  0  0
  9 10  1  0  0  0  0
  9 11  1  0  0  0  0
  9 20  1  0  0  0  0
 11 12  1  0  0  0  0
 11 13  1  0  0  0  0
 11 14  1  0  0  0  0
 14 15  1  0  0  0  0
 14 16  1  0  0  0  0
 14 17  1  0  0  0  0
 17 18  1  0  0  0  0
 17 19  2  0  0  0  0
 20 21  2  0  0  0  0
 20 22  1  0  0  0  0
 22 23  1  0  0  0  0
 22 24  1  0  0  0  0
 24 25  1  0  0  0  0
 24 26  1  0  0  0  0
 24 27  1  0  0  0  0
M  CHG  1  18  -1
M  END
$$$$

  -OEChem-04042215583D

 27 26  0     1  0  0  0  0  0999 V2000
   -2.7482   -3.8440    0.3675 H   0  0  0  0  0  0  0  0  0  0  0  0
   -2.6012   -2.9315   -0.2172 C   0  0  0  0  0  0  0  0  0  0  0  0
   -3.4235   -2.2425   -0.0094 H   0  0  0  0  0  0  0  0  0  0  0  0
   -2.6123   -3.1887   -1.2796 H   0  0  0  0  0  0  0  0  0  0  0  0
   -1.2770   -2.2820    0.1438 C   0  0  0  0  0  0  0  0  0  0  0  0
   -0.5814   -2.7724    1.0171 O   0  0  0  0  0  0  0  0  0  0  0  0
   -0.8879   -1.1389   -0.5219 N   0  0  0  0  0  0  0  0  0  0  0  0
   -1.4518   -0.8792   -1.3302 H   0  0  0  0  0  0  0  0  0  0  0  0
    0.4513   -0.5263   -0.4442 C   0  0  1  0  0  0  0  0  0  0  0  0
    1.2126   -1.2339   -0.7891 H   0  0  0  0  0  0  0  0  0  0  0  0
    0.3920    0.7060   -1.3715 C   0  0  0  0  0  0  0  0  0  0  0  0
   -0.6504    0.9849   -1.5637 H   0  0  0  0  0  0  0  0  0  0  0  0
    0.8587    1.5715   -0.8886 H   0  0  0  0  0  0  0  0  0  0  0  0
    1.1348    0.4528   -2.6944 C   0  0  0  0  0  0  0  0  0  0  0  0
    2.1936    0.7072   -2.5856 H   0  0  0  0  0  0  0  0  0  0  0  0
    1.0713   -0.6043   -2.9694 H   0  0  0  0  0  0  0  0  0  0  0  0
    0.4999    1.2618   -3.8250 C   0  0  0  0  0  0  0  0  0  0  0  0
   -0.6563    0.9171   -4.1837 O   0  5  0  0  0  0  0  0  0  0  0  0
    1.1454    2.2221   -4.3099 O   0  0  0  0  0  0  0  0  0  0  0  0
    0.8609   -0.0966    0.9823 C   0  0  0  0  0  0  0  0  0  0  0  0
    2.0158   -0.2280    1.3705 O   0  0  0  0  0  0  0  0  0  0  0  0
   -0.0451    0.5769    1.7811 N   0  0  0  0  0  0  0  0  0  0  0  0
   -0.9980    0.6222    1.4371 H   0  0  0  0  0  0  0  0  0  0  0  0
    0.2505    1.0269    3.1327 C   0  0  0  0  0  0  0  0  0  0  0  0
    1.0941    1.7246    3.1279 H   0  0  0  0  0  0  0  0  0  0  0  0
   -0.6184    1.5390    3.5563 H   0  0  0  0  0  0  0  0  0  0  0  0
    0.4988    0.1744    3.7730 H   0  0  0  0  0  0  0  0  0  0  0  0
  1  2  1  0  0  0  0
  2  3  1  0  0  0  0
  2  4  1  0  0  0  0
  2  5  1  0  0  0  0
  5  6  2  0  0  0  0
  5  7  1  0  0  0  0
  7  8  1  0  0  0  0
  7  9  1  0  0  0  0
  9 10  1  0  0  0  0
  9 11  1  0  0  0  0
  9 20  1  0  0  0  0
 11 12  1  0  0  0  0
 11 13  1  0  0  0  0
 11 14  1  0  0  0  0
 14 15  1  0  0  0  0
 14 16  1  0  0  0  0
 14 17  1  0  0  0  0
 17 18  1  0  0  0  0
 17 19  2  0  0  0  0
 20 21  2  0  0  0  0
 20 22  1  0  0  0  0
 22 23  1  0  0  0  0
 22 24  1  0  0  0  0
 24 25  1  0  0  0  0
 24 26  1  0  0  0  0
 24 27  1  0  0  0  0
M  CHG  1  18  -1
M  END
$$$$

  -OEChem-04042215583D

 27 26  0     1  0  0  0  0  0999 V2000
   -2.7696   -3.8154    0.4282 H   0  0  0  0  0  0  0  0  0  0  0  0
   -2.6080   -2.9268   -0.1887 C   0  0  0  0  0  0  0  0  0  0  0  0
   -3.4070   -2.2089    0.0124 H   0  0  0  0  0  0  0  0  0  0  0  0
   -2.6471   -3.2171   -1.2417 H   0  0  0  0  0  0  0  0  0  0  0  0
   -1.2592   -2.3045    0.1269 C   0  0  0  0  0  0  0  0  0  0  0  0
   -0.5317   -2.8269    0.9539 O   0  0  0  0  0  0  0  0  0  0  0  0
   -0.8818   -1.1521   -0.5303 N   0  0  0  0  0  0  0  0  0  0  0  0
   -1.4784   -0.8553   -1.2997 H   0  0  0  0  0  0  0  0  0  0  0  0
    0.4527   -0.5287   -0.4551 C   0  0  1  0  0  0  0  0  0  0  0  0
    1.2179   -1.2270   -0.8108 H   0  0  0  0  0  0  0  0  0  0  0  0
    0.3863    0.7100   -1.3727 C   0  0  0  0  0  0  0  0  0  0  0  0
   -0.6554    0.9863   -1.5712 H   0  0  0  0  0  0  0  0  0  0  0  0
    0.8522    1.5721   -0.8825 H   0  0  0  0  0  0  0  0  0  0  0  0
    1.1289    0.4649   -2.6938 C   0  0  0  0  0  0  0  0  0  0  0  0
    2.2097    0.4719   -2.5226 H   0  0  0  0  0  0  0  0  0  0  0  0
    0.8584   -0.5154   -3.0974 H   0  0  0  0  0  0  0  0  0  0  0  0
    0.7495    1.5278   -3.7245 C   0  0  0  0  0  0  0  0  0  0  0  0
   -0.4255    1.4869   -4.1719 O   0  5  0  0  0  0  0  0  0  0  0  0
    1.6119    2.3789   -4.0503 O   0  0  0  0  0  0  0  0  0  0  0  0
    0.8621   -0.1100    0.9747 C   0  0  0  0  0  0  0  0  0  0  0  0
    2.0146   -0.2481    1.3666 O   0  0  0  0  0  0  0  0  0  0  0  0
   -0.0494    0.5473    1.7809 N   0  0  0  0  0  0  0  0  0  0  0  0
   -0.9921    0.6356    1.4182 H   0  0  0  0  0  0  0  0  0  0  0  0
    0.2497    1.0155    3.1253 C   0  0  0  0  0  0  0  0  0  0  0  0
    1.0581    1.7534    3.1019 H   0  0  0  0  0  0  0  0  0  0  0  0
   -0.6352    1.4851    3.5648 H   0  0  0  0  0  0  0  0  0  0  0  0
    0.5517    0.1784    3.7630 H   0  0  0  0  0  0  0  0  0  0  0  0
  1  2  1  0  0  0  0
  2  3  1  0  0  0  0
  2  4  1  0  0  0  0
  2  5  1  0  0  0  0
  5  6  2  0  0  0  0
  5  7  1  0  0  0  0
  7  8  1  0  0  0  0
  7  9  1  0  0  0  0
  9 10  1  0  0  0  0
  9 11  1  0  0  0  0
  9 20  1  0  0  0  0
 11 12  1  0  0  0  0
 11 13  1  0  0  0  0
 11 14  1  0  0  0  0
 14 15  1  0  0  0  0
 14 16  1  0  0  0  0
 14 17  1  0  0  0  0
 17 18  1  0  0  0  0
 17 19  2  0  0  0  0
 20 21  2  0  0  0  0
 20 22  1  0  0  0  0
 22 23  1  0  0  0  0
 22 24  1  0  0  0  0
 24 25  1  0  0  0  0
 24 26  1  0  0  0  0
 24 27  1  0  0  0  0
M  CHG  1  18  -1
M  END
$$$$

  -OEChem-04042215583D

 27 26  0     1  0  0  0  0  0999 V2000
   -2.7639   -3.8260    0.4054 H   0  0  0  0  0  0  0  0  0  0  0  0
   -2.6059   -2.9276   -0.1978 C   0  0  0  0  0  0  0  0  0  0  0  0
   -3.4010   -2.2110    0.0227 H   0  0  0  0  0  0  0  0  0  0  0  0
   -2.6553   -3.2004   -1.2551 H   0  0  0  0  0  0  0  0  0  0  0  0
   -1.2524   -2.3145    0.1156 C   0  0  0  0  0  0  0  0  0  0  0  0
   -0.5224   -2.8472    0.9336 O   0  0  0  0  0  0  0  0  0  0  0  0
   -0.8707   -1.1617   -0.5378 N   0  0  0  0  0  0  0  0  0  0  0  0
   -1.4760   -0.8448   -1.2918 H   0  0  0  0  0  0  0  0  0  0  0  0
    0.4623   -0.5369   -0.4556 C   0  0  1  0  0  0  0  0  0  0  0  0
    1.2346   -1.2241   -0.8174 H   0  0  0  0  0  0  0  0  0  0  0  0
    0.3789    0.7040   -1.3620 C   0  0  0  0  0  0  0  0  0  0  0  0
   -0.6251    1.1421   -1.3349 H   0  0  0  0  0  0  0  0  0  0  0  0
    1.0738    1.4693   -0.9973 H   0  0  0  0  0  0  0  0  0  0  0  0
    0.7799    0.3625   -2.8044 C   0  0  0  0  0  0  0  0  0  0  0  0
    1.8027   -0.0266   -2.8236 H   0  0  0  0  0  0  0  0  0  0  0  0
    0.1178   -0.4114   -3.2032 H   0  0  0  0  0  0  0  0  0  0  0  0
    0.6905    1.5995   -3.6966 C   0  0  0  0  0  0  0  0  0  0  0  0
   -0.4604    2.0606   -3.9060 O   0  5  0  0  0  0  0  0  0  0  0  0
    1.7506    2.0715   -4.1735 O   0  0  0  0  0  0  0  0  0  0  0  0
    0.8653   -0.1179    0.9758 C   0  0  0  0  0  0  0  0  0  0  0  0
    2.0154   -0.2612    1.3728 O   0  0  0  0  0  0  0  0  0  0  0  0
   -0.0475    0.5387    1.7810 N   0  0  0  0  0  0  0  0  0  0  0  0
   -0.9835    0.6506    1.4077 H   0  0  0  0  0  0  0  0  0  0  0  0
    0.2541    1.0174    3.1210 C   0  0  0  0  0  0  0  0  0  0  0  0
    1.0635    1.7541    3.0900 H   0  0  0  0  0  0  0  0  0  0  0  0
   -0.6293    1.4917    3.5581 H   0  0  0  0  0  0  0  0  0  0  0  0
    0.5555    0.1848    3.7647 H   0  0  0  0  0  0  0  0  0  0  0  0
  1  2  1  0  0  0  0
  2  3  1  0  0  0  0
  2  4  1  0  0  0  0
  2  5  1  0  0  0  0
  5  6  2  0  0  0  0
  5  7  1  0  0  0  0
  7  8  1  0  0  0  0
  7  9  1  0  0  0  0
  9 10  1  0  0  0  0
  9 11  1  0  0  0  0
  9 20  1  0  0  0  0
 11 12  1  0  0  0  0
 11 13  1  0  0  0  0
 11 14  1  0  0  0  0
 14 15  1  0  0  0  0
 14 16  1  0  0  0  0
 14 17  1  0  0  0  0
 17 18  1  0  0  0  0
 17 19  2  0  0  0  0
 20 21  2  0  0  0  0
 20 22  1  0  0  0  0
 22 23  1  0  0  0  0
 22 24  1  0  0  0  0
 24 25  1  0  0  0  0
 24 26  1  0  0  0  0
 24 27  1  0  0  0  0
M  CHG  1  18  -1
M  END
$$$$

  -OEChem-04042215583D

 27 26  0     1  0  0  0  0  0999 V2000
   -2.7437   -3.8414    0.4028 H   0  0  0  0  0  0  0  0  0  0  0  0
   -2.5963   -2.9339   -0.1898 C   0  0  0  0  0  0  0  0  0  0  0  0
   -3.3930   -2.2247    0.0476 H   0  0  0  0  0  0  0  0  0  0  0  0
   -2.6537   -3.1929   -1.2501 H   0  0  0  0  0  0  0  0  0  0  0  0
   -1.2438   -2.3171    0.1201 C   0  0  0  0  0  0  0  0  0  0  0  0
   -0.5119   -2.8478    0.9374 O   0  0  0  0  0  0  0  0  0  0  0  0
   -0.8663   -1.1641   -0.5362 N   0  0  0  0  0  0  0  0  0  0  0  0
   -1.4738   -0.8504   -1.2887 H   0  0  0  0  0  0  0  0  0  0  0  0
    0.4655   -0.5363   -0.4560 C   0  0  1  0  0  0  0  0  0  0  0  0
    1.2397   -1.2231   -0.8140 H   0  0  0  0  0  0  0  0  0  0  0  0
    0.3779    0.7059   -1.3626 C   0  0  0  0  0  0  0  0  0  0  0  0
   -0.6195    1.1580   -1.3303 H   0  0  0  0  0  0  0  0  0  0  0  0
    1.0830    1.4588   -0.9909 H   0  0  0  0  0  0  0  0  0  0  0  0
    0.7751    0.3803   -2.8121 C   0  0  0  0  0  0  0  0  0  0  0  0
    1.6832   -0.2304   -2.8199 H   0  0  0  0  0  0  0  0  0  0  0  0
   -0.0209   -0.1938   -3.2942 H   0  0  0  0  0  0  0  0  0  0  0  0
    1.0387    1.6550   -3.6146 C   0  0  0  0  0  0  0  0  0  0  0  0
    0.0982    2.4864   -3.6839 O   0  5  0  0  0  0  0  0  0  0  0  0
    2.1478    1.7776   -4.1883 O   0  0  0  0  0  0  0  0  0  0  0  0
    0.8648   -0.1156    0.9766 C   0  0  0  0  0  0  0  0  0  0  0  0
    2.0106   -0.2683    1.3817 O   0  0  0  0  0  0  0  0  0  0  0  0
   -0.0514    0.5392    1.7797 N   0  0  0  0  0  0  0  0  0  0  0  0
   -0.9848    0.6548    1.4016 H   0  0  0  0  0  0  0  0  0  0  0  0
    0.2398    1.0011    3.1280 C   0  0  0  0  0  0  0  0  0  0  0  0
    1.0690    1.7158    3.1169 H   0  0  0  0  0  0  0  0  0  0  0  0
   -0.6381    1.4966    3.5528 H   0  0  0  0  0  0  0  0  0  0  0  0
    0.5075    0.1563    3.7709 H   0  0  0  0  0  0  0  0  0  0  0  0
  1  2  1  0  0  0  0
  2  3  1  0  0  0  0
  2  4  1  0  0  0  0
  2  5  1  0  0  0  0
  5  6  2  0  0  0  0
  5  7  1  0  0  0  0
  7  8  1  0  0  0  0
  7  9  1  0  0  0  0
  9 10  1  0  0  0  0
  9 11  1  0  0  0  0
  9 20  1  0  0  0  0
 11 12  1  0  0  0  0
 11 13  1  0  0  0  0
 11 14  1  0  0  0  0
 14 15  1  0  0  0  0
 14 16  1  0  0  0  0
 14 17  1  0  0  0  0
 17 18  1  0  0  0  0
 17 19  2  0  0  0  0
 20 21  2  0  0  0  0
 20 22  1  0  0  0  0
 22 23  1  0  0  0  0
 22 24  1  0  0  0  0
 24 25  1  0  0  0  0
 24 26  1  0  0  0  0
 24 27  1  0  0  0  0
M  CHG  1  18  -1
M  END
$$$$

  -OEChem-04042215583D

 27 26  0     1  0  0  0  0  0999 V2000
   -2.7135   -3.8604    0.3783 H   0  0  0  0  0  0  0  0  0  0  0  0
   -2.5854   -2.9329   -0.1870 C   0  0  0  0  0  0  0  0  0  0  0  0
   -3.3916   -2.2442    0.0774 H   0  0  0  0  0  0  0  0  0  0  0  0
   -2.6461   -3.1612   -1.2541 H   0  0  0  0  0  0  0  0  0  0  0  0
   -1.2409   -2.3042    0.1331 C   0  0  0  0  0  0  0  0  0  0  0  0
   -0.5185   -2.8202    0.9676 O   0  0  0  0  0  0  0  0  0  0  0  0
   -0.8635   -1.1550   -0.5298 N   0  0  0  0  0  0  0  0  0  0  0  0
   -1.4612   -0.8598   -1.2969 H   0  0  0  0  0  0  0  0  0  0  0  0
    0.4692   -0.5280   -0.4530 C   0  0  1  0  0  0  0  0  0  0  0  0
    1.2446   -1.2172   -0.8035 H   0  0  0  0  0  0  0  0  0  0  0  0
    0.3785    0.7099   -1.3678 C   0  0  0  0  0  0  0  0  0  0  0  0
   -0.6139    1.1719   -1.3326 H   0  0  0  0  0  0  0  0  0  0  0  0
    1.0878    1.4569   -0.9920 H   0  0  0  0  0  0  0  0  0  0  0  0
    0.7713    0.3917   -2.8239 C   0  0  0  0  0  0  0  0  0  0  0  0
    1.5098   -0.4153   -2.8452 H   0  0  0  0  0  0  0  0  0  0  0  0
   -0.1091    0.0511   -3.3755 H   0  0  0  0  0  0  0  0  0  0  0  0
    1.3797    1.6049   -3.5299 C   0  0  0  0  0  0  0  0  0  0  0  0
    0.7018    2.6634   -3.5298 O   0  5  0  0  0  0  0  0  0  0  0  0
    2.4805    1.4586   -4.1144 O   0  0  0  0  0  0  0  0  0  0  0  0
    0.8664   -0.1012    0.9791 C   0  0  0  0  0  0  0  0  0  0  0  0
    2.0068   -0.2690    1.3933 O   0  0  0  0  0  0  0  0  0  0  0  0
   -0.0496    0.5577    1.7793 N   0  0  0  0  0  0  0  0  0  0  0  0
   -0.9880    0.6528    1.4084 H   0  0  0  0  0  0  0  0  0  0  0  0
    0.2266    0.9741    3.1458 C   0  0  0  0  0  0  0  0  0  0  0  0
    1.0856    1.6524    3.1739 H   0  0  0  0  0  0  0  0  0  0  0  0
   -0.6396    1.4968    3.5620 H   0  0  0  0  0  0  0  0  0  0  0  0
    0.4418    0.1030    3.7731 H   0  0  0  0  0  0  0  0  0  0  0  0
  1  2  1  0  0  0  0
  2  3  1  0  0  0  0
  2  4  1  0  0  0  0
  2  5  1  0  0  0  0
  5  6  2  0  0  0  0
  5  7  1  0  0  0  0
  7  8  1  0  0  0  0
  7  9  1  0  0  0  0
  9 10  1  0  0  0  0
  9 11  1  0  0  0  0
  9 20  1  0  0  0  0
 11 12  1  0  0  0  0
 11 13  1  0  0  0  0
 11 14  1  0  0  0  0
 14 15  1  0  0  0  0
 14 16  1  0  0  0  0
 14 17  1  0  0  0  0
 17 18  1  0  0  0  0
 17 19  2  0  0  0  0
 20 21  2  0  0  0  0
 20 22  1  0  0  0  0
 22 23  1  0  0  0  0
 22 24  1  0  0  0  0
 24 25  1  0  0  0  0
 24 26  1  0  0  0  0
 24 27  1  0  0  0  0
M  CHG  1  18  -1
M  END
$$$$

  -OEChem-04042215583D

 27 26  0     1  0  0  0  0  0999 V2000
   -2.7359   -3.8473    0.3928 H   0  0  0  0  0  0  0  0  0  0  0  0
   -2.5866   -2.9413   -0.2016 C   0  0  0  0  0  0  0  0  0  0  0  0
   -3.3961   -2.2401    0.0157 H   0  0  0  0  0  0  0  0  0  0  0  0
   -2.6182   -3.2068   -1.2614 H   0  0  0  0  0  0  0  0  0  0  0  0
   -1.2478   -2.3081    0.1335 C   0  0  0  0  0  0  0  0  0  0  0  0
   -0.5343   -2.8229    0.9762 O   0  0  0  0  0  0  0  0  0  0  0  0
   -0.8667   -1.1578   -0.5264 N   0  0  0  0  0  0  0  0  0  0  0  0
   -1.4541   -0.8713   -1.3041 H   0  0  0  0  0  0  0  0  0  0  0  0
    0.4699   -0.5385   -0.4495 C   0  0  1  0  0  0  0  0  0  0  0  0
    1.2445   -1.2263   -0.8051 H   0  0  0  0  0  0  0  0  0  0  0  0
    0.3812    0.7109   -1.3511 C   0  0  0  0  0  0  0  0  0  0  0  0
   -0.6096    1.1747   -1.3040 H   0  0  0  0  0  0  0  0  0  0  0  0
    1.0909    1.4518   -0.9640 H   0  0  0  0  0  0  0  0  0  0  0  0
    0.7635    0.4144   -2.8175 C   0  0  0  0  0  0  0  0  0  0  0  0
    1.2641   -0.5552   -2.8930 H   0  0  0  0  0  0  0  0  0  0  0  0
   -0.1458    0.3581   -3.4224 H   0  0  0  0  0  0  0  0  0  0  0  0
    1.6927    1.4766   -3.4085 C   0  0  0  0  0  0  0  0  0  0  0  0
    1.2714    2.6606   -3.4209 O   0  5  0  0  0  0  0  0  0  0  0  0
    2.7850    1.0984   -3.8971 O   0  0  0  0  0  0  0  0  0  0  0  0
    0.8676   -0.1215    0.9858 C   0  0  0  0  0  0  0  0  0  0  0  0
    2.0049   -0.2983    1.4039 O   0  0  0  0  0  0  0  0  0  0  0  0
   -0.0482    0.5377    1.7862 N   0  0  0  0  0  0  0  0  0  0  0  0
   -0.9822    0.6483    1.4093 H   0  0  0  0  0  0  0  0  0  0  0  0
    0.2343    0.9742    3.1448 C   0  0  0  0  0  0  0  0  0  0  0  0
    1.0837    1.6649    3.1558 H   0  0  0  0  0  0  0  0  0  0  0  0
   -0.6355    1.4897    3.5624 H   0  0  0  0  0  0  0  0  0  0  0  0
    0.4675    0.1142    3.7808 H   0  0  0  0  0  0  0  0  0  0  0  0
  1  2  1  0  0  0  0
  2  3  1  0  0  0  0
  2  4  1  0  0  0  0
  2  5  1  0  0  0  0
  5  6  2  0  0  0  0
  5  7  1  0  0  0  0
  7  8  1  0  0  0  0
  7  9  1  0  0  0  0
  9 10  1  0  0  0  0
  9 11  1  0  0  0  0
  9 20  1  0  0  0  0
 11 12  1  0  0  0  0
 11 13  1  0  0  0  0
 11 14  1  0  0  0  0
 14 15  1  0  0  0  0
 14 16  1  0  0  0  0
 14 17  1  0  0  0  0
 17 18  1  0  0  0  0
 17 19  2  0  0  0  0
 20 21  2  0  0  0  0
 20 22  1  0  0  0  0
 22 23  1  0  0  0  0
 22 24  1  0  0  0  0
 24 25  1  0  0  0  0
 24 26  1  0  0  0  0
 24 27  1  0  0  0  0
M  CHG  1  18  -1
M  END
$$$$

  -OEChem-04042215583D

 27 26  0     1  0  0  0  0  0999 V2000
   -2.7165   -3.8537    0.3790 H   0  0  0  0  0  0  0  0  0  0  0  0
   -2.5749   -2.9418   -0.2083 C   0  0  0  0  0  0  0  0  0  0  0  0
   -3.3943   -2.2520    0.0084 H   0  0  0  0  0  0  0  0  0  0  0  0
   -2.5969   -3.2009   -1.2699 H   0  0  0  0  0  0  0  0  0  0  0  0
   -1.2461   -2.2945    0.1399 C   0  0  0  0  0  0  0  0  0  0  0  0
   -0.5431   -2.7940    1.0003 O   0  0  0  0  0  0  0  0  0  0  0  0
   -0.8681   -1.1441   -0.5222 N   0  0  0  0  0  0  0  0  0  0  0  0
   -1.4441   -0.8779   -1.3154 H   0  0  0  0  0  0  0  0  0  0  0  0
    0.4701   -0.5254   -0.4493 C   0  0  1  0  0  0  0  0  0  0  0  0
    1.2459   -1.2106   -0.8095 H   0  0  0  0  0  0  0  0  0  0  0  0
    0.3847    0.7278   -1.3467 C   0  0  0  0  0  0  0  0  0  0  0  0
   -0.6138    1.1748   -1.3021 H   0  0  0  0  0  0  0  0  0  0  0  0
    1.0794    1.4822   -0.9587 H   0  0  0  0  0  0  0  0  0  0  0  0
    0.7637    0.4271   -2.8136 C   0  0  0  0  0  0  0  0  0  0  0  0
    0.9782   -0.6375   -2.9469 H   0  0  0  0  0  0  0  0  0  0  0  0
   -0.0925    0.6624   -3.4520 H   0  0  0  0  0  0  0  0  0  0  0  0
    1.9613    1.2418   -3.3045 C   0  0  0  0  0  0  0  0  0  0  0  0
    1.8268    2.4901   -3.3522 O   0  5  0  0  0  0  0  0  0  0  0  0
    2.9778    0.6134   -3.6871 O   0  0  0  0  0  0  0  0  0  0  0  0
    0.8685   -0.1103    0.9869 C   0  0  0  0  0  0  0  0  0  0  0  0
    2.0038   -0.2894    1.4085 O   0  0  0  0  0  0  0  0  0  0  0  0
   -0.0478    0.5479    1.7879 N   0  0  0  0  0  0  0  0  0  0  0  0
   -0.9903    0.6231    1.4239 H   0  0  0  0  0  0  0  0  0  0  0  0
    0.2237    0.9469    3.1604 C   0  0  0  0  0  0  0  0  0  0  0  0
    1.0869    1.6192    3.2003 H   0  0  0  0  0  0  0  0  0  0  0  0
   -0.6412    1.4713    3.5770 H   0  0  0  0  0  0  0  0  0  0  0  0
    0.4298    0.0677    3.7793 H   0  0  0  0  0  0  0  0  0  0  0  0
  1  2  1  0  0  0  0
  2  3  1  0  0  0  0
  2  4  1  0  0  0  0
  2  5  1  0  0  0  0
  5  6  2  0  0  0  0
  5  7  1  0  0  0  0
  7  8  1  0  0  0  0
  7  9  1  0  0  0  0
  9 10  1  0  0  0  0
  9 11  1  0  0  0  0
  9 20  1  0  0  0  0
 11 12  1  0  0  0  0
 11 13  1  0  0  0  0
 11 14  1  0  0  0  0
 14 15  1  0  0  0  0
 14 16  1  0  0  0  0
 14 17  1  0  0  0  0
 17 18  1  0  0  0  0
 17 19  2  0  0  0  0
 20 21  2  0  0  0  0
 20 22  1  0  0  0  0
 22 23  1  0  0  0  0
 22 24  1  0  0  0  0
 24 25  1  0  0  0  0
 24 26  1  0  0  0  0
 24 27  1  0  0  0  0
M  CHG  1  18  -1
M  END
$$$$

  -OEChem-04042215583D

 27 26  0     1  0  0  0  0  0999 V2000
   -2.6955   -3.8672    0.3443 H   0  0  0  0  0  0  0  0  0  0  0  0
   -2.5594   -2.9479   -0.2326 C   0  0  0  0  0  0  0  0  0  0  0  0
   -3.3970   -2.2763   -0.0291 H   0  0  0  0  0  0  0  0  0  0  0  0
   -2.5530   -3.1990   -1.2963 H   0  0  0  0  0  0  0  0  0  0  0  0
   -1.2521   -2.2767    0.1493 C   0  0  0  0  0  0  0  0  0  0  0  0
   -0.5768   -2.7489    1.0463 O   0  0  0  0  0  0  0  0  0  0  0  0
   -0.8730   -1.1282   -0.5158 N   0  0  0  0  0  0  0  0  0  0  0  0
   -1.4280   -0.8922   -1.3330 H   0  0  0  0  0  0  0  0  0  0  0  0
    0.4683   -0.5138   -0.4469 C   0  0  1  0  0  0  0  0  0  0  0  0
    1.2426   -1.1975   -0.8151 H   0  0  0  0  0  0  0  0  0  0  0  0
    0.3859    0.7432   -1.3393 C   0  0  0  0  0  0  0  0  0  0  0  0
   -0.6191    1.1753   -1.2967 H   0  0  0  0  0  0  0  0  0  0  0  0
    1.0709    1.5097   -0.9577 H   0  0  0  0  0  0  0  0  0  0  0  0
    0.7594    0.4341   -2.8033 C   0  0  0  0  0  0  0  0  0  0  0  0
    0.6856   -0.6395   -3.0026 H   0  0  0  0  0  0  0  0  0  0  0  0
    0.0357    0.9298   -3.4567 H   0  0  0  0  0  0  0  0  0  0  0  0
    2.1489    0.9382   -3.1920 C   0  0  0  0  0  0  0  0  0  0  0  0
    2.3082    2.1805   -3.2869 O   0  5  0  0  0  0  0  0  0  0  0  0
    3.0259    0.0782   -3.4479 O   0  0  0  0  0  0  0  0  0  0  0  0
    0.8701   -0.0994    0.9890 C   0  0  0  0  0  0  0  0  0  0  0  0
    2.0038   -0.2817    1.4131 O   0  0  0  0  0  0  0  0  0  0  0  0
   -0.0450    0.5620    1.7892 N   0  0  0  0  0  0  0  0  0  0  0  0
   -0.9935    0.6066    1.4365 H   0  0  0  0  0  0  0  0  0  0  0  0
    0.2196    0.9286    3.1721 C   0  0  0  0  0  0  0  0  0  0  0  0
    1.0916    1.5877    3.2326 H   0  0  0  0  0  0  0  0  0  0  0  0
   -0.6413    1.4566    3.5921 H   0  0  0  0  0  0  0  0  0  0  0  0
    0.4080    0.0340    3.7745 H   0  0  0  0  0  0  0  0  0  0  0  0
  1  2  1  0  0  0  0
  2  3  1  0  0  0  0
  2  4  1  0  0  0  0
  2  5  1  0  0  0  0
  5  6  2  0  0  0  0
  5  7  1  0  0  0  0
  7  8  1  0  0  0  0
  7  9  1  0  0  0  0
  9 10  1  0  0  0  0
  9 11  1  0  0  0  0
  9 20  1  0  0  0  0
 11 12  1  0  0  0  0
 11 13  1  0  0  0  0
 11 14  1  0  0  0  0
 14 15  1  0  0  0  0
 14 16  1  0  0  0  0
 14 17  1  0  0  0  0
 17 18  1  0  0  0  0
 17 19  2  0  0  0  0
 20 21  2  0  0  0  0
 20 22  1  0  0  0  0
 22 23  1  0  0  0  0
 22 24  1  0  0  0  0
 24 25  1  0  0  0  0
 24 26  1  0  0  0  0
 24 27  1  0  0  0  0
M  CHG  1  18  -1
M  END
$$$$

  -OEChem-04042215583D

 27 26  0     1  0  0  0  0  0999 V2000
   -2.6937   -3.8683    0.3289 H   0  0  0  0  0  0  0  0  0  0  0  0
   -2.5468   -2.9592   -0.2613 C   0  0  0  0  0  0  0  0  0  0  0  0
   -3.3993   -2.2942   -0.1027 H   0  0  0  0  0  0  0  0  0  0  0  0
   -2.4981   -3.2321   -1.3185 H   0  0  0  0  0  0  0  0  0  0  0  0
   -1.2615   -2.2646    0.1536 C   0  0  0  0  0  0  0  0  0  0  0  0
   -0.6106   -2.7157    1.0789 O   0  0  0  0  0  0  0  0  0  0  0  0
   -0.8798   -1.1175   -0.5125 N   0  0  0  0  0  0  0  0  0  0  0  0
   -1.4155   -0.9053   -1.3486 H   0  0  0  0  0  0  0  0  0  0  0  0
    0.4649   -0.5092   -0.4449 C   0  0  1  0  0  0  0  0  0  0  0  0
    1.2358   -1.1945   -0.8190 H   0  0  0  0  0  0  0  0  0  0  0  0
    0.3880    0.7534   -1.3301 C   0  0  0  0  0  0  0  0  0  0  0  0
   -0.6170    1.1850   -1.2848 H   0  0  0  0  0  0  0  0  0  0  0  0
    1.0778    1.5184   -0.9539 H   0  0  0  0  0  0  0  0  0  0  0  0
    0.7556    0.4449   -2.7922 C   0  0  0  0  0  0  0  0  0  0  0  0
    0.4233   -0.5613   -3.0655 H   0  0  0  0  0  0  0  0  0  0  0  0
    0.2206    1.1465   -3.4388 H   0  0  0  0  0  0  0  0  0  0  0  0
    2.2468    0.5998   -3.0819 C   0  0  0  0  0  0  0  0  0  0  0  0
    2.6945    1.7631   -3.2332 O   0  5  0  0  0  0  0  0  0  0  0  0
    2.9199   -0.4532   -3.1952 O   0  0  0  0  0  0  0  0  0  0  0  0
    0.8691   -0.0977    0.9919 C   0  0  0  0  0  0  0  0  0  0  0  0
    2.0044   -0.2701    1.4156 O   0  0  0  0  0  0  0  0  0  0  0  0
   -0.0457    0.5671    1.7902 N   0  0  0  0  0  0  0  0  0  0  0  0
   -0.9996    0.5791    1.4494 H   0  0  0  0  0  0  0  0  0  0  0  0
    0.2172    0.9241    3.1761 C   0  0  0  0  0  0  0  0  0  0  0  0
    1.0998    1.5684    3.2453 H   0  0  0  0  0  0  0  0  0  0  0  0
   -0.6371    1.4649    3.5935 H   0  0  0  0  0  0  0  0  0  0  0  0
    0.3874    0.0239    3.7754 H   0  0  0  0  0  0  0  0  0  0  0  0
  1  2  1  0  0  0  0
  2  3  1  0  0  0  0
  2  4  1  0  0  0  0
  2  5  1  0  0  0  0
  5  6  2  0  0  0  0
  5  7  1  0  0  0  0
  7  8  1  0  0  0  0
  7  9  1  0  0  0  0
  9 10  1  0  0  0  0
  9 11  1  0  0  0  0
  9 20  1  0  0  0  0
 11 12  1  0  0  0  0
 11 13  1  0  0  0  0
 11 14  1  0  0  0  0
 14 15  1  0  0  0  0
 14 16  1  0  0  0  0
 14 17  1  0  0  0  0
 17 18  1  0  0  0  0
 17 19  2  0  0  0  0
 20 21  2  0  0  0  0
 20 22  1  0  0  0  0
 22 23  1  0  0  0  0
 22 24  1  0  0  0  0
 24 25  1  0  0  0  0
 24 26  1  0  0  0  0
 24 27  1  0  0  0  0
M  CHG  1  18  -1
M  END
$$$$

  -OEChem-04042215583D

 27 26  0     1  0  0  0  0  0999 V2000
   -2.7102   -3.8580    0.3325 H   0  0  0  0  0  0  0  0  0  0  0  0
   -2.5371   -2.9722   -0.2853 C   0  0  0  0  0  0  0  0  0  0  0  0
   -3.3992   -2.3068   -0.1969 H   0  0  0  0  0  0  0  0  0  0  0  0
   -2.4328   -3.2862   -1.3271 H   0  0  0  0  0  0  0  0  0  0  0  0
   -1.2772   -2.2542    0.1659 C   0  0  0  0  0  0  0  0  0  0  0  0
   -0.6684   -2.6703    1.1355 O   0  0  0  0  0  0  0  0  0  0  0  0
   -0.8846   -1.1142   -0.5066 N   0  0  0  0  0  0  0  0  0  0  0  0
   -1.3885   -0.9364   -1.3701 H   0  0  0  0  0  0  0  0  0  0  0  0
    0.4661   -0.5194   -0.4352 C   0  0  1  0  0  0  0  0  0  0  0  0
    1.2303   -1.2151   -0.8036 H   0  0  0  0  0  0  0  0  0  0  0  0
    0.4007    0.7491   -1.3161 C   0  0  0  0  0  0  0  0  0  0  0  0
   -0.5965    1.1975   -1.2609 H   0  0  0  0  0  0  0  0  0  0  0  0
    1.1080    1.4968   -0.9383 H   0  0  0  0  0  0  0  0  0  0  0  0
    0.7619    0.4645   -2.7833 C   0  0  0  0  0  0  0  0  0  0  0  0
    0.2095   -0.4103   -3.1390 H   0  0  0  0  0  0  0  0  0  0  0  0
    0.4441    1.3166   -3.3912 H   0  0  0  0  0  0  0  0  0  0  0  0
    2.2564    0.2550   -3.0150 C   0  0  0  0  0  0  0  0  0  0  0  0
    2.9731    1.2725   -3.1764 O   0  5  0  0  0  0  0  0  0  0  0  0
    2.6623   -0.9313   -3.0734 O   0  0  0  0  0  0  0  0  0  0  0  0
    0.8654   -0.1052    1.0024 C   0  0  0  0  0  0  0  0  0  0  0  0
    2.0009   -0.2669    1.4302 O   0  0  0  0  0  0  0  0  0  0  0  0
   -0.0507    0.5720    1.7884 N   0  0  0  0  0  0  0  0  0  0  0  0
   -1.0062    0.5572    1.4520 H   0  0  0  0  0  0  0  0  0  0  0  0
    0.2047    0.9278    3.1758 C   0  0  0  0  0  0  0  0  0  0  0  0
    1.0896    1.5683    3.2501 H   0  0  0  0  0  0  0  0  0  0  0  0
   -0.6500    1.4723    3.5873 H   0  0  0  0  0  0  0  0  0  0  0  0
    0.3672    0.0270    3.7764 H   0  0  0  0  0  0  0  0  0  0  0  0
  1  2  1  0  0  0  0
  2  3  1  0  0  0  0
  2  4  1  0  0  0  0
  2  5  1  0  0  0  0
  5  6  2  0  0  0  0
  5  7  1  0  0  0  0
  7  8  1  0  0  0  0
  7  9  1  0  0  0  0
  9 10  1  0  0  0  0
  9 11  1  0  0  0  0
  9 20  1  0  0  0  0
 11 12  1  0  0  0  0
 11 13  1  0  0  0  0
 11 14  1  0  0  0  0
 14 15  1  0  0  0  0
 14 16  1  0  0  0  0
 14 17  1  0  0  0  0
 17 18  1  0  0  0  0
 17 19  2  0  0  0  0
 20 21  2  0  0  0  0
 20 22  1  0  0  0  0
 22 23  1  0  0  0  0
 22 24  1  0  0  0  0
 24 25  1  0  0  0  0
 24 26  1  0  0  0  0
 24 27  1  0  0  0  0
M  CHG  1  18  -1
M  END
$$$$

  -OEChem-04042215583D

 27 26  0     1  0  0  0  0  0999 V2000
   -2.7021   -3.8769    0.3128 H   0  0  0  0  0  0  0  0  0  0  0  0
   -2.5299   -2.9889   -0.3021 C   0  0  0  0  0  0  0  0  0  0  0  0
   -3.4071   -2.3404   -0.2396 H   0  0  0  0  0  0  0  0  0  0  0  0
   -2.3900   -3.3029   -1.3398 H   0  0  0  0  0  0  0  0  0  0  0  0
   -1.2978   -2.2454    0.1829 C   0  0  0  0  0  0  0  0  0  0  0  0
   -0.7290   -2.6275    1.1905 O   0  0  0  0  0  0  0  0  0  0  0  0
   -0.8930   -1.1147   -0.4980 N   0  0  0  0  0  0  0  0  0  0  0  0
   -1.3627   -0.9727   -1.3873 H   0  0  0  0  0  0  0  0  0  0  0  0
    0.4629   -0.5343   -0.4177 C   0  0  1  0  0  0  0  0  0  0  0  0
    1.2196   -1.2464   -0.7666 H   0  0  0  0  0  0  0  0  0  0  0  0
    0.4172    0.7331   -1.3047 C   0  0  0  0  0  0  0  0  0  0  0  0
   -0.5679    1.2070   -1.2444 H   0  0  0  0  0  0  0  0  0  0  0  0
    1.1447    1.4582   -0.9217 H   0  0  0  0  0  0  0  0  0  0  0  0
    0.7812    0.4751   -2.7781 C   0  0  0  0  0  0  0  0  0  0  0  0
    0.0508   -0.2151   -3.2105 H   0  0  0  0  0  0  0  0  0  0  0  0
    0.6999    1.4173   -3.3281 H   0  0  0  0  0  0  0  0  0  0  0  0
    2.1829   -0.0892   -3.0001 C   0  0  0  0  0  0  0  0  0  0  0  0
    3.1359    0.7215   -3.0891 O   0  5  0  0  0  0  0  0  0  0  0  0
    2.2802   -1.3353   -3.1233 O   0  0  0  0  0  0  0  0  0  0  0  0
    0.8535   -0.1122    1.0205 C   0  0  0  0  0  0  0  0  0  0  0  0
    1.9895   -0.2629    1.4513 O   0  0  0  0  0  0  0  0  0  0  0  0
   -0.0624    0.5816    1.7926 N   0  0  0  0  0  0  0  0  0  0  0  0
   -1.0193    0.5453    1.4611 H   0  0  0  0  0  0  0  0  0  0  0  0
    0.1893    0.9509    3.1774 C   0  0  0  0  0  0  0  0  0  0  0  0
    1.0783    1.5859    3.2486 H   0  0  0  0  0  0  0  0  0  0  0  0
   -0.6633    1.5061    3.5790 H   0  0  0  0  0  0  0  0  0  0  0  0
    0.3427    0.0557    3.7889 H   0  0  0  0  0  0  0  0  0  0  0  0
  1  2  1  0  0  0  0
  2  3  1  0  0  0  0
  2  4  1  0  0  0  0
  2  5  1  0  0  0  0
  5  6  2  0  0  0  0
  5  7  1  0  0  0  0
  7  8  1  0  0  0  0
  7  9  1  0  0  0  0
  9 10  1  0  0  0  0
  9 11  1  0  0  0  0
  9 20  1  0  0  0  0
 11 12  1  0  0  0  0
 11 13  1  0  0  0  0
 11 14  1  0  0  0  0
 14 15  1  0  0  0  0
 14 16  1  0  0  0  0
 14 17  1  0  0  0  0
 17 18  1  0  0  0  0
 17 19  2  0  0  0  0
 20 21  2  0  0  0  0
 20 22  1  0  0  0  0
 22 23  1  0  0  0  0
 22 24  1  0  0  0  0
 24 25  1  0  0  0  0
 24 26  1  0  0  0  0
 24 27  1  0  0  0  0
M  CHG  1  18  -1
M  END
$$$$

  -OEChem-04042215583D

 27 26  0     1  0  0  0  0  0999 V2000
   -2.7073   -3.8837    0.3072 H   0  0  0  0  0  0  0  0  0  0  0  0
   -2.5153   -3.0114   -0.3240 C   0  0  0  0  0  0  0  0  0  0  0  0
   -3.4082   -2.3819   -0.3393 H   0  0  0  0  0  0  0  0  0  0  0  0
   -2.3021   -3.3546   -1.3398 H   0  0  0  0  0  0  0  0  0  0  0  0
   -1.3328   -2.2241    0.2122 C   0  0  0  0  0  0  0  0  0  0  0  0
   -0.8278   -2.5528    1.2719 O   0  0  0  0  0  0  0  0  0  0  0  0
   -0.9095   -1.1082   -0.4818 N   0  0  0  0  0  0  0  0  0  0  0  0
   -1.3342   -1.0166   -1.4004 H   0  0  0  0  0  0  0  0  0  0  0  0
    0.4552   -0.5519   -0.3951 C   0  0  1  0  0  0  0  0  0  0  0  0
    1.2023   -1.2836   -0.7201 H   0  0  0  0  0  0  0  0  0  0  0  0
    0.4397    0.7126   -1.2907 C   0  0  0  0  0  0  0  0  0  0  0  0
   -0.5277    1.2206   -1.2228 H   0  0  0  0  0  0  0  0  0  0  0  0
    1.1921    1.4084   -0.9017 H   0  0  0  0  0  0  0  0  0  0  0  0
    0.8039    0.4802   -2.7720 C   0  0  0  0  0  0  0  0  0  0  0  0
   -0.0577    0.0267   -3.2708 H   0  0  0  0  0  0  0  0  0  0  0  0
    0.9741    1.4508   -3.2471 H   0  0  0  0  0  0  0  0  0  0  0  0
    2.0175   -0.4097   -3.0331 C   0  0  0  0  0  0  0  0  0  0  0  0
    3.1413    0.1357   -3.1385 O   0  5  0  0  0  0  0  0  0  0  0  0
    1.7963   -1.6403   -3.1628 O   0  0  0  0  0  0  0  0  0  0  0  0
    0.8397   -0.1199    1.0421 C   0  0  0  0  0  0  0  0  0  0  0  0
    1.9769   -0.2621    1.4739 O   0  0  0  0  0  0  0  0  0  0  0  0
   -0.0713    0.5989    1.7967 N   0  0  0  0  0  0  0  0  0  0  0  0
   -1.0297    0.5414    1.4716 H   0  0  0  0  0  0  0  0  0  0  0  0
    0.1770    0.9792    3.1791 C   0  0  0  0  0  0  0  0  0  0  0  0
    1.0700    1.6087    3.2487 H   0  0  0  0  0  0  0  0  0  0  0  0
   -0.6733    1.5439    3.5724 H   0  0  0  0  0  0  0  0  0  0  0  0
    0.3221    0.0885    3.7990 H   0  0  0  0  0  0  0  0  0  0  0  0
  1  2  1  0  0  0  0
  2  3  1  0  0  0  0
  2  4  1  0  0  0  0
  2  5  1  0  0  0  0
  5  6  2  0  0  0  0
  5  7  1  0  0  0  0
  7  8  1  0  0  0  0
  7  9  1  0  0  0  0
  9 10  1  0  0  0  0
  9 11  1  0  0  0  0
  9 20  1  0  0  0  0
 11 12  1  0  0  0  0
 11 13  1  0  0  0  0
 11 14  1  0  0  0  0
 14 15  1  0  0  0  0
 14 16  1  0  0  0  0
 14 17  1  0  0  0  0
 17 18  1  0  0  0  0
 17 19  2  0  0  0  0
 20 21  2  0  0  0  0
 20 22  1  0  0  0  0
 22 23  1  0  0  0  0
 22 24  1  0  0  0  0
 24 25  1  0  0  0  0
 24 26  1  0  0  0  0
 24 27  1  0  0  0  0
M  CHG  1  18  -1
M  END
$$$$

  -OEChem-04042215583D

 27 26  0     1  0  0  0  0  0999 V2000
   -2.7352   -3.8674    0.3277 H   0  0  0  0  0  0  0  0  0  0  0  0
   -2.5049   -3.0301   -0.3369 C   0  0  0  0  0  0  0  0  0  0  0  0
   -3.3988   -2.4125   -0.4522 H   0  0  0  0  0  0  0  0  0  0  0  0
   -2.2163   -3.4274   -1.3138 H   0  0  0  0  0  0  0  0  0  0  0  0
   -1.3693   -2.2005    0.2352 C   0  0  0  0  0  0  0  0  0  0  0  0
   -0.9203   -2.4792    1.3345 O   0  0  0  0  0  0  0  0  0  0  0  0
   -0.9308   -1.0989   -0.4715 N   0  0  0  0  0  0  0  0  0  0  0  0
   -1.3081   -1.0622   -1.4154 H   0  0  0  0  0  0  0  0  0  0  0  0
    0.4425   -0.5678   -0.3787 C   0  0  1  0  0  0  0  0  0  0  0  0
    1.1792   -1.3182   -0.6834 H   0  0  0  0  0  0  0  0  0  0  0  0
    0.4598    0.6928   -1.2822 C   0  0  0  0  0  0  0  0  0  0  0  0
   -0.4922    1.2291   -1.2131 H   0  0  0  0  0  0  0  0  0  0  0  0
    1.2297    1.3656   -0.8875 H   0  0  0  0  0  0  0  0  0  0  0  0
    0.8265    0.4724   -2.7680 C   0  0  0  0  0  0  0  0  0  0  0  0
   -0.0998    0.2909   -3.3208 H   0  0  0  0  0  0  0  0  0  0  0  0
    1.2568    1.3969   -3.1649 H   0  0  0  0  0  0  0  0  0  0  0  0
    1.7723   -0.6857   -3.0790 C   0  0  0  0  0  0  0  0  0  0  0  0
    2.9906   -0.4402   -3.2408 O   0  5  0  0  0  0  0  0  0  0  0  0
    1.2455   -1.8245   -3.1715 O   0  0  0  0  0  0  0  0  0  0  0  0
    0.8263   -0.1275    1.0562 C   0  0  0  0  0  0  0  0  0  0  0  0
    1.9648   -0.2684    1.4864 O   0  0  0  0  0  0  0  0  0  0  0  0
   -0.0755    0.6165    1.7969 N   0  0  0  0  0  0  0  0  0  0  0  0
   -1.0356    0.5499    1.4775 H   0  0  0  0  0  0  0  0  0  0  0  0
    0.1747    1.0112    3.1748 C   0  0  0  0  0  0  0  0  0  0  0  0
    1.0772    1.6277    3.2394 H   0  0  0  0  0  0  0  0  0  0  0  0
   -0.6680    1.5945    3.5570 H   0  0  0  0  0  0  0  0  0  0  0  0
    0.3033    0.1268    3.8069 H   0  0  0  0  0  0  0  0  0  0  0  0
  1  2  1  0  0  0  0
  2  3  1  0  0  0  0
  2  4  1  0  0  0  0
  2  5  1  0  0  0  0
  5  6  2  0  0  0  0
  5  7  1  0  0  0  0
  7  8  1  0  0  0  0
  7  9  1  0  0  0  0
  9 10  1  0  0  0  0
  9 11  1  0  0  0  0
  9 20  1  0  0  0  0
 11 12  1  0  0  0  0
 11 13  1  0  0  0  0
 11 14  1  0  0  0  0
 14 15  1  0  0  0  0
 14 16  1  0  0  0  0
 14 17  1  0  0  0  0
 17 18  1  0  0  0  0
 17 19  2  0  0  0  0
 20 21  2  0  0  0  0
 20 22  1  0  0  0  0
 22 23  1  0  0  0  0
 22 24  1  0  0  0  0
 24 25  1  0  0  0  0
 24 26  1  0  0  0  0
 24 27  1  0  0  0  0
M  CHG  1  18  -1
M  END
$$$$

  -OEChem-04042215583D

 27 26  0     1  0  0  0  0  0999 V2000
   -2.7361   -3.8658    0.3209 H   0  0  0  0  0  0  0  0  0  0  0  0
   -2.5009   -3.0334   -0.3481 C   0  0  0  0  0  0  0  0  0  0  0  0
   -3.4066   -2.4458   -0.5163 H   0  0  0  0  0  0  0  0  0  0  0  0
   -2.1551   -3.4378   -1.3037 H   0  0  0  0  0  0  0  0  0  0  0  0
   -1.4180   -2.1593    0.2584 C   0  0  0  0  0  0  0  0  0  0  0  0
   -1.0336   -2.3814    1.3954 O   0  0  0  0  0  0  0  0  0  0  0  0
   -0.9582   -1.0776   -0.4638 N   0  0  0  0  0  0  0  0  0  0  0  0
   -1.2834   -1.1042   -1.4296 H   0  0  0  0  0  0  0  0  0  0  0  0
    0.4249   -0.5775   -0.3666 C   0  0  1  0  0  0  0  0  0  0  0  0
    1.1480   -1.3491   -0.6508 H   0  0  0  0  0  0  0  0  0  0  0  0
    0.4831    0.6704   -1.2868 C   0  0  0  0  0  0  0  0  0  0  0  0
   -0.4582    1.2272   -1.2326 H   0  0  0  0  0  0  0  0  0  0  0  0
    1.2611    1.3331   -0.8913 H   0  0  0  0  0  0  0  0  0  0  0  0
    0.8565    0.4269   -2.7706 C   0  0  0  0  0  0  0  0  0  0  0  0
   -0.0510    0.5354   -3.3718 H   0  0  0  0  0  0  0  0  0  0  0  0
    1.5454    1.2133   -3.0938 H   0  0  0  0  0  0  0  0  0  0  0  0
    1.4640   -0.9322   -3.1141 C   0  0  0  0  0  0  0  0  0  0  0  0
    2.6908   -1.0074   -3.3581 O   0  5  0  0  0  0  0  0  0  0  0  0
    0.6621   -1.9037   -3.1293 O   0  0  0  0  0  0  0  0  0  0  0  0
    0.8117   -0.1251    1.0637 C   0  0  0  0  0  0  0  0  0  0  0  0
    1.9516   -0.2694    1.4904 O   0  0  0  0  0  0  0  0  0  0  0  0
   -0.0753    0.6507    1.7891 N   0  0  0  0  0  0  0  0  0  0  0  0
   -1.0382    0.5782    1.4777 H   0  0  0  0  0  0  0  0  0  0  0  0
    0.1812    1.0607    3.1616 C   0  0  0  0  0  0  0  0  0  0  0  0
    1.0972    1.6577    3.2189 H   0  0  0  0  0  0  0  0  0  0  0  0
   -0.6492    1.6682    3.5329 H   0  0  0  0  0  0  0  0  0  0  0  0
    0.2887    0.1835    3.8077 H   0  0  0  0  0  0  0  0  0  0  0  0
  1  2  1  0  0  0  0
  2  3  1  0  0  0  0
  2  4  1  0  0  0  0
  2  5  1  0  0  0  0
  5  6  2  0  0  0  0
  5  7  1  0  0  0  0
  7  8  1  0  0  0  0
  7  9  1  0  0  0  0
  9 10  1  0  0  0  0
  9 11  1  0  0  0  0
  9 20  1  0  0  0  0
 11 12  1  0  0  0  0
 11 13  1  0  0  0  0
 11 14  1  0  0  0  0
 14 15  1  0  0  0  0
 14 16  1  0  0  0  0
 14 17  1  0  0  0  0
 17 18  1  0  0  0  0
 17 19  2  0  0  0  0
 20 21  2  0  0  0  0
 20 22  1  0  0  0  0
 22 23  1  0  0  0  0
 22 24  1  0  0  0  0
 24 25  1  0  0  0  0
 24 26  1  0  0  0  0
 24 27  1  0  0  0  0
M  CHG  1  18  -1
M  END
$$$$

  -OEChem-04042215583D

 27 26  0     1  0  0  0  0  0999 V2000
   -2.5420   -3.9875    0.3891 H   0  0  0  0  0  0  0  0  0  0  0  0
   -2.4005   -3.1247   -0.2675 C   0  0  0  0  0  0  0  0  0  0  0  0
   -3.3543   -2.6050   -0.3847 H   0  0  0  0  0  0  0  0  0  0  0  0
   -2.0660   -3.4795   -1.2468 H   0  0  0  0  0  0  0  0  0  0  0  0
   -1.3631   -2.1824    0.3154 C   0  0  0  0  0  0  0  0  0  0  0  0
   -0.9578   -2.3610    1.4535 O   0  0  0  0  0  0  0  0  0  0  0  0
   -0.9670   -1.0924   -0.4298 N   0  0  0  0  0  0  0  0  0  0  0  0
   -1.2932   -1.1752   -1.3965 H   0  0  0  0  0  0  0  0  0  0  0  0
    0.4044   -0.5563   -0.3889 C   0  0  1  0  0  0  0  0  0  0  0  0
    1.1360   -1.3094   -0.7016 H   0  0  0  0  0  0  0  0  0  0  0  0
    0.3980    0.6871   -1.3169 C   0  0  0  0  0  0  0  0  0  0  0  0
   -0.5656    1.2015   -1.2391 H   0  0  0  0  0  0  0  0  0  0  0  0
    1.1565    1.3894   -0.9536 H   0  0  0  0  0  0  0  0  0  0  0  0
    0.7220    0.4329   -2.8115 C   0  0  0  0  0  0  0  0  0  0  0  0
   -0.1205    0.7841   -3.4143 H   0  0  0  0  0  0  0  0  0  0  0  0
    1.5899    1.0382   -3.0902 H   0  0  0  0  0  0  0  0  0  0  0  0
    1.0011   -1.0206   -3.1963 C   0  0  0  0  0  0  0  0  0  0  0  0
    0.0106   -1.7997   -3.1454 O   0  5  0  0  0  0  0  0  0  0  0  0
    2.1632   -1.3565   -3.5220 O   0  0  0  0  0  0  0  0  0  0  0  0
    0.8409   -0.0866    1.0203 C   0  0  0  0  0  0  0  0  0  0  0  0
    2.0057   -0.1894    1.3890 O   0  0  0  0  0  0  0  0  0  0  0  0
   -0.0330    0.6703    1.7804 N   0  0  0  0  0  0  0  0  0  0  0  0
   -1.0074    0.5566    1.5201 H   0  0  0  0  0  0  0  0  0  0  0  0
    0.2761    1.0953    3.1371 C   0  0  0  0  0  0  0  0  0  0  0  0
    1.1735    1.7223    3.1476 H   0  0  0  0  0  0  0  0  0  0  0  0
   -0.5548    1.6771    3.5466 H   0  0  0  0  0  0  0  0  0  0  0  0
    0.4436    0.2251    3.7800 H   0  0  0  0  0  0  0  0  0  0  0  0
  1  2  1  0  0  0  0
  2  3  1  0  0  0  0
  2  4  1  0  0  0  0
  2  5  1  0  0  0  0
  5  6  2  0  0  0  0
  5  7  1  0  0  0  0
  7  8  1  0  0  0  0
  7  9  1  0  0  0  0
  9 10  1  0  0  0  0
  9 11  1  0  0  0  0
  9 20  1  0  0  0  0
 11 12  1  0  0  0  0
 11 13  1  0  0  0  0
 11 14  1  0  0  0  0
 14 15  1  0  0  0  0
 14 16  1  0  0  0  0
 14 17  1  0  0  0  0
 17 18  1  0  0  0  0
 17 19  2  0  0  0  0
 20 21  2  0  0  0  0
 20 22  1  0  0  0  0
 22 23  1  0  0  0  0
 22 24  1  0  0  0  0
 24 25  1  0  0  0  0
 24 26  1  0  0  0  0
 24 27  1  0  0  0  0
M  CHG  1  18  -1
M  END
$$$$

  -OEChem-04042215583D

 27 26  0     1  0  0  0  0  0999 V2000
   -2.5420   -3.9958    0.3613 H   0  0  0  0  0  0  0  0  0  0  0  0
   -2.4189   -3.1143   -0.2736 C   0  0  0  0  0  0  0  0  0  0  0  0
   -3.3721   -2.5845   -0.3379 H   0  0  0  0  0  0  0  0  0  0  0  0
   -2.1257   -3.4405   -1.2759 H   0  0  0  0  0  0  0  0  0  0  0  0
   -1.3527   -2.1967    0.2962 C   0  0  0  0  0  0  0  0  0  0  0  0
   -0.9084   -2.4079    1.4146 O   0  0  0  0  0  0  0  0  0  0  0  0
   -0.9662   -1.0956   -0.4368 N   0  0  0  0  0  0  0  0  0  0  0  0
   -1.3096   -1.1602   -1.4032 H   0  0  0  0  0  0  0  0  0  0  0  0
    0.4010   -0.5468   -0.4014 C   0  0  1  0  0  0  0  0  0  0  0  0
    1.1338   -1.2907   -0.7343 H   0  0  0  0  0  0  0  0  0  0  0  0
    0.3899    0.6993   -1.3245 C   0  0  0  0  0  0  0  0  0  0  0  0
   -0.5893    1.1854   -1.2588 H   0  0  0  0  0  0  0  0  0  0  0  0
    1.1255    1.4245   -0.9597 H   0  0  0  0  0  0  0  0  0  0  0  0
    0.7185    0.4347   -2.8150 C   0  0  0  0  0  0  0  0  0  0  0  0
    0.0382    1.0187   -3.4414 H   0  0  0  0  0  0  0  0  0  0  0  0
    1.7325    0.7942   -3.0156 H   0  0  0  0  0  0  0  0  0  0  0  0
    0.6428   -1.0342   -3.2415 C   0  0  0  0  0  0  0  0  0  0  0  0
   -0.5005   -1.5662   -3.1983 O   0  5  0  0  0  0  0  0  0  0  0  0
    1.6967   -1.6292   -3.5648 O   0  0  0  0  0  0  0  0  0  0  0  0
    0.8475   -0.0882    1.0070 C   0  0  0  0  0  0  0  0  0  0  0  0
    2.0190   -0.1784    1.3586 O   0  0  0  0  0  0  0  0  0  0  0  0
   -0.0259    0.6525    1.7827 N   0  0  0  0  0  0  0  0  0  0  0  0
   -1.0016    0.5401    1.5263 H   0  0  0  0  0  0  0  0  0  0  0  0
    0.2925    1.0721    3.1387 C   0  0  0  0  0  0  0  0  0  0  0  0
    1.1827    1.7096    3.1434 H   0  0  0  0  0  0  0  0  0  0  0  0
   -0.5407    1.6415    3.5607 H   0  0  0  0  0  0  0  0  0  0  0  0
    0.4773    0.1996    3.7738 H   0  0  0  0  0  0  0  0  0  0  0  0
  1  2  1  0  0  0  0
  2  3  1  0  0  0  0
  2  4  1  0  0  0  0
  2  5  1  0  0  0  0
  5  6  2  0  0  0  0
  5  7  1  0  0  0  0
  7  8  1  0  0  0  0
  7  9  1  0  0  0  0
  9 10  1  0  0  0  0
  9 11  1  0  0  0  0
  9 20  1  0  0  0  0
 11 12  1  0  0  0  0
 11 13  1  0  0  0  0
 11 14  1  0  0  0  0
 14 15  1  0  0  0  0
 14 16  1  0  0  0  0
 14 17  1  0  0  0  0
 17 18  1  0  0  0  0
 17 19  2  0  0  0  0
 20 21  2  0  0  0  0
 20 22  1  0  0  0  0
 22 23  1  0  0  0  0
 22 24  1  0  0  0  0
 24 25  1  0  0  0  0
 24 26  1  0  0  0  0
 24 27  1  0  0  0  0
M  CHG  1  18  -1
M  END
$$$$

  -OEChem-04042215583D

 27 26  0     1  0  0  0  0  0999 V2000
   -2.5113   -4.0204    0.3015 H   0  0  0  0  0  0  0  0  0  0  0  0
   -2.4429   -3.0941   -0.2751 C   0  0  0  0  0  0  0  0  0  0  0  0
   -3.3972   -2.5657   -0.2176 H   0  0  0  0  0  0  0  0  0  0  0  0
   -2.2389   -3.3450   -1.3201 H   0  0  0  0  0  0  0  0  0  0  0  0
   -1.3301   -2.2154    0.2662 C   0  0  0  0  0  0  0  0  0  0  0  0
   -0.8272   -2.4754    1.3489 O   0  0  0  0  0  0  0  0  0  0  0  0
   -0.9573   -1.0988   -0.4498 N   0  0  0  0  0  0  0  0  0  0  0  0
   -1.3481   -1.1089   -1.4021 H   0  0  0  0  0  0  0  0  0  0  0  0
    0.4006   -0.5254   -0.4164 C   0  0  1  0  0  0  0  0  0  0  0  0
    1.1372   -1.2586   -0.7651 H   0  0  0  0  0  0  0  0  0  0  0  0
    0.3829    0.7175   -1.3414 C   0  0  0  0  0  0  0  0  0  0  0  0
   -0.6067    1.1843   -1.2941 H   0  0  0  0  0  0  0  0  0  0  0  0
    1.1020    1.4591   -0.9771 H   0  0  0  0  0  0  0  0  0  0  0  0
    0.7304    0.4280   -2.8204 C   0  0  0  0  0  0  0  0  0  0  0  0
    0.2530    1.1764   -3.4591 H   0  0  0  0  0  0  0  0  0  0  0  0
    1.8126    0.5301   -2.9482 H   0  0  0  0  0  0  0  0  0  0  0  0
    0.3252   -0.9722   -3.2944 C   0  0  0  0  0  0  0  0  0  0  0  0
   -0.9041   -1.2515   -3.2463 O   0  5  0  0  0  0  0  0  0  0  0  0
    1.2238   -1.7723   -3.6430 O   0  0  0  0  0  0  0  0  0  0  0  0
    0.8498   -0.0768    0.9932 C   0  0  0  0  0  0  0  0  0  0  0  0
    2.0262   -0.1479    1.3329 O   0  0  0  0  0  0  0  0  0  0  0  0
   -0.0315    0.6381    1.7835 N   0  0  0  0  0  0  0  0  0  0  0  0
   -1.0065    0.5200    1.5260 H   0  0  0  0  0  0  0  0  0  0  0  0
    0.2844    1.0415    3.1451 C   0  0  0  0  0  0  0  0  0  0  0  0
    1.1631    1.6943    3.1581 H   0  0  0  0  0  0  0  0  0  0  0  0
   -0.5575    1.5890    3.5786 H   0  0  0  0  0  0  0  0  0  0  0  0
    0.4864    0.1626    3.7660 H   0  0  0  0  0  0  0  0  0  0  0  0
  1  2  1  0  0  0  0
  2  3  1  0  0  0  0
  2  4  1  0  0  0  0
  2  5  1  0  0  0  0
  5  6  2  0  0  0  0
  5  7  1  0  0  0  0
  7  8  1  0  0  0  0
  7  9  1  0  0  0  0
  9 10  1  0  0  0  0
  9 11  1  0  0  0  0
  9 20  1  0  0  0  0
 11 12  1  0  0  0  0
 11 13  1  0  0  0  0
 11 14  1  0  0  0  0
 14 15  1  0  0  0  0
 14 16  1  0  0  0  0
 14 17  1  0  0  0  0
 17 18  1  0  0  0  0
 17 19  2  0  0  0  0
 20 21  2  0  0  0  0
 20 22  1  0  0  0  0
 22 23  1  0  0  0  0
 22 24  1  0  0  0  0
 24 25  1  0  0  0  0
 24 26  1  0  0  0  0
 24 27  1  0  0  0  0
M  CHG  1  18  -1
M  END
$$$$

  -OEChem-04042215583D

 27 26  0     1  0  0  0  0  0999 V2000
   -2.5272   -4.0120    0.2697 H   0  0  0  0  0  0  0  0  0  0  0  0
   -2.4665   -3.0675   -0.2775 C   0  0  0  0  0  0  0  0  0  0  0  0
   -3.4003   -2.5161   -0.1443 H   0  0  0  0  0  0  0  0  0  0  0  0
   -2.3318   -3.2850   -1.3412 H   0  0  0  0  0  0  0  0  0  0  0  0
   -1.2993   -2.2388    0.2268 C   0  0  0  0  0  0  0  0  0  0  0  0
   -0.7291   -2.5594    1.2588 O   0  0  0  0  0  0  0  0  0  0  0  0
   -0.9397   -1.1051   -0.4677 N   0  0  0  0  0  0  0  0  0  0  0  0
   -1.3860   -1.0445   -1.3940 H   0  0  0  0  0  0  0  0  0  0  0  0
    0.4050   -0.5024   -0.4292 C   0  0  1  0  0  0  0  0  0  0  0  0
    1.1500   -1.2213   -0.7892 H   0  0  0  0  0  0  0  0  0  0  0  0
    0.3705    0.7367   -1.3545 C   0  0  0  0  0  0  0  0  0  0  0  0
   -0.6250    1.1921   -1.3212 H   0  0  0  0  0  0  0  0  0  0  0  0
    1.0799    1.4879   -0.9912 H   0  0  0  0  0  0  0  0  0  0  0  0
    0.7408    0.4213   -2.8199 C   0  0  0  0  0  0  0  0  0  0  0  0
    0.4767    1.2743   -3.4510 H   0  0  0  0  0  0  0  0  0  0  0  0
    1.8244    0.2828   -2.8860 H   0  0  0  0  0  0  0  0  0  0  0  0
    0.0521   -0.8362   -3.3648 C   0  0  0  0  0  0  0  0  0  0  0  0
   -1.2014   -0.9053   -3.2449 O   0  5  0  0  0  0  0  0  0  0  0  0
    0.7702   -1.7463   -3.8394 O   0  0  0  0  0  0  0  0  0  0  0  0
    0.8494   -0.0636    0.9837 C   0  0  0  0  0  0  0  0  0  0  0  0
    2.0281   -0.1195    1.3185 O   0  0  0  0  0  0  0  0  0  0  0  0
   -0.0429    0.6213    1.7881 N   0  0  0  0  0  0  0  0  0  0  0  0
   -1.0162    0.5097    1.5218 H   0  0  0  0  0  0  0  0  0  0  0  0
    0.2677    1.0095    3.1553 C   0  0  0  0  0  0  0  0  0  0  0  0
    1.1380    1.6733    3.1776 H   0  0  0  0  0  0  0  0  0  0  0  0
   -0.5812    1.5397    3.5971 H   0  0  0  0  0  0  0  0  0  0  0  0
    0.4815    0.1242    3.7631 H   0  0  0  0  0  0  0  0  0  0  0  0
  1  2  1  0  0  0  0
  2  3  1  0  0  0  0
  2  4  1  0  0  0  0
  2  5  1  0  0  0  0
  5  6  2  0  0  0  0
  5  7  1  0  0  0  0
  7  8  1  0  0  0  0
  7  9  1  0  0  0  0
  9 10  1  0  0  0  0
  9 11  1  0  0  0  0
  9 20  1  0  0  0  0
 11 12  1  0  0  0  0
 11 13  1  0  0  0  0
 11 14  1  0  0  0  0
 14 15  1  0  0  0  0
 14 16  1  0  0  0  0
 14 17  1  0  0  0  0
 17 18  1  0  0  0  0
 17 19  2  0  0  0  0
 20 21  2  0  0  0  0
 20 22  1  0  0  0  0
 22 23  1  0  0  0  0
 22 24  1  0  0  0  0
 24 25  1  0  0  0  0
 24 26  1  0  0  0  0
 24 27  1  0  0  0  0
M  CHG  1  18  -1
M  END
$$$$

  -OEChem-04042215583D

 27 26  0     1  0  0  0  0  0999 V2000
   -2.5645   -3.9848    0.2567 H   0  0  0  0  0  0  0  0  0  0  0  0
   -2.4924   -3.0328   -0.2758 C   0  0  0  0  0  0  0  0  0  0  0  0
   -3.3993   -2.4514   -0.0934 H   0  0  0  0  0  0  0  0  0  0  0  0
   -2.4108   -3.2338   -1.3479 H   0  0  0  0  0  0  0  0  0  0  0  0
   -1.2760   -2.2557    0.1929 C   0  0  0  0  0  0  0  0  0  0  0  0
   -0.6572   -2.6310    1.1773 O   0  0  0  0  0  0  0  0  0  0  0  0
   -0.9151   -1.1120   -0.4834 N   0  0  0  0  0  0  0  0  0  0  0  0
   -1.4065   -0.9835   -1.3796 H   0  0  0  0  0  0  0  0  0  0  0  0
    0.4195   -0.4911   -0.4342 C   0  0  1  0  0  0  0  0  0  0  0  0
    1.1740   -1.1978   -0.7964 H   0  0  0  0  0  0  0  0  0  0  0  0
    0.3638    0.7455   -1.3584 C   0  0  0  0  0  0  0  0  0  0  0  0
   -0.6313    1.2027   -1.3267 H   0  0  0  0  0  0  0  0  0  0  0  0
    1.0731    1.4979   -0.9980 H   0  0  0  0  0  0  0  0  0  0  0  0
    0.7501    0.4103   -2.8137 C   0  0  0  0  0  0  0  0  0  0  0  0
    0.7041    1.3245   -3.4115 H   0  0  0  0  0  0  0  0  0  0  0  0
    1.7829    0.0489   -2.8367 H   0  0  0  0  0  0  0  0  0  0  0  0
   -0.1667   -0.6372   -3.4619 C   0  0  0  0  0  0  0  0  0  0  0  0
   -1.3976   -0.5994   -3.1891 O   0  5  0  0  0  0  0  0  0  0  0  0
    0.3683   -1.5012   -4.1946 O   0  0  0  0  0  0  0  0  0  0  0  0
    0.8515   -0.0590    0.9836 C   0  0  0  0  0  0  0  0  0  0  0  0
    2.0282   -0.1107    1.3257 O   0  0  0  0  0  0  0  0  0  0  0  0
   -0.0536    0.6055    1.7901 N   0  0  0  0  0  0  0  0  0  0  0  0
   -1.0236    0.5031    1.5084 H   0  0  0  0  0  0  0  0  0  0  0  0
    0.2429    0.9905    3.1610 C   0  0  0  0  0  0  0  0  0  0  0  0
    1.1072    1.6617    3.1926 H   0  0  0  0  0  0  0  0  0  0  0  0
   -0.6137    1.5115    3.5982 H   0  0  0  0  0  0  0  0  0  0  0  0
    0.4591    0.1047    3.7668 H   0  0  0  0  0  0  0  0  0  0  0  0
  1  2  1  0  0  0  0
  2  3  1  0  0  0  0
  2  4  1  0  0  0  0
  2  5  1  0  0  0  0
  5  6  2  0  0  0  0
  5  7  1  0  0  0  0
  7  8  1  0  0  0  0
  7  9  1  0  0  0  0
  9 10  1  0  0  0  0
  9 11  1  0  0  0  0
  9 20  1  0  0  0  0
 11 12  1  0  0  0  0
 11 13  1  0  0  0  0
 11 14  1  0  0  0  0
 14 15  1  0  0  0  0
 14 16  1  0  0  0  0
 14 17  1  0  0  0  0
 17 18  1  0  0  0  0
 17 19  2  0  0  0  0
 20 21  2  0  0  0  0
 20 22  1  0  0  0  0
 22 23  1  0  0  0  0
 22 24  1  0  0  0  0
 24 25  1  0  0  0  0
 24 26  1  0  0  0  0
 24 27  1  0  0  0  0
M  CHG  1  18  -1
M  END
$$$$

  -OEChem-04042215583D

 27 26  0     1  0  0  0  0  0999 V2000
   -2.6087   -3.9544    0.2690 H   0  0  0  0  0  0  0  0  0  0  0  0
   -2.5219   -3.0014   -0.2597 C   0  0  0  0  0  0  0  0  0  0  0  0
   -3.4042   -2.3930   -0.0469 H   0  0  0  0  0  0  0  0  0  0  0  0
   -2.4788   -3.1965   -1.3350 H   0  0  0  0  0  0  0  0  0  0  0  0
   -1.2688   -2.2656    0.1785 C   0  0  0  0  0  0  0  0  0  0  0  0
   -0.6205   -2.6800    1.1275 O   0  0  0  0  0  0  0  0  0  0  0  0
   -0.8987   -1.1212   -0.4910 N   0  0  0  0  0  0  0  0  0  0  0  0
   -1.4127   -0.9512   -1.3679 H   0  0  0  0  0  0  0  0  0  0  0  0
    0.4318   -0.4957   -0.4315 C   0  0  1  0  0  0  0  0  0  0  0  0
    1.1922   -1.1986   -0.7870 H   0  0  0  0  0  0  0  0  0  0  0  0
    0.3654    0.7386   -1.3565 C   0  0  0  0  0  0  0  0  0  0  0  0
   -0.6228    1.2105   -1.3193 H   0  0  0  0  0  0  0  0  0  0  0  0
    1.0843    1.4822   -0.9966 H   0  0  0  0  0  0  0  0  0  0  0  0
    0.7604    0.3972   -2.8091 C   0  0  0  0  0  0  0  0  0  0  0  0
    0.9475    1.3338   -3.3416 H   0  0  0  0  0  0  0  0  0  0  0  0
    1.6917   -0.1768   -2.8116 H   0  0  0  0  0  0  0  0  0  0  0  0
   -0.3153   -0.3734   -3.5934 C   0  0  0  0  0  0  0  0  0  0  0  0
   -1.4844   -0.4468   -3.1246 O   0  5  0  0  0  0  0  0  0  0  0  0
    0.0496   -0.9130   -4.6639 O   0  0  0  0  0  0  0  0  0  0  0  0
    0.8497   -0.0627    0.9898 C   0  0  0  0  0  0  0  0  0  0  0  0
    2.0217   -0.1240    1.3463 O   0  0  0  0  0  0  0  0  0  0  0  0
   -0.0635    0.5983    1.7899 N   0  0  0  0  0  0  0  0  0  0  0  0
   -1.0302    0.5174    1.4900 H   0  0  0  0  0  0  0  0  0  0  0  0
    0.2200    0.9895    3.1619 C   0  0  0  0  0  0  0  0  0  0  0  0
    1.0830    1.6620    3.1990 H   0  0  0  0  0  0  0  0  0  0  0  0
   -0.6413    1.5113    3.5889 H   0  0  0  0  0  0  0  0  0  0  0  0
    0.4316    0.1065    3.7735 H   0  0  0  0  0  0  0  0  0  0  0  0
  1  2  1  0  0  0  0
  2  3  1  0  0  0  0
  2  4  1  0  0  0  0
  2  5  1  0  0  0  0
  5  6  2  0  0  0  0
  5  7  1  0  0  0  0
  7  8  1  0  0  0  0
  7  9  1  0  0  0  0
  9 10  1  0  0  0  0
  9 11  1  0  0  0  0
  9 20  1  0  0  0  0
 11 12  1  0  0  0  0
 11 13  1  0  0  0  0
 11 14  1  0  0  0  0
 14 15  1  0  0  0  0
 14 16  1  0  0  0  0
 14 17  1  0  0  0  0
 17 18  1  0  0  0  0
 17 19  2  0  0  0  0
 20 21  2  0  0  0  0
 20 22  1  0  0  0  0
 22 23  1  0  0  0  0
 22 24  1  0  0  0  0
 24 25  1  0  0  0  0
 24 26  1  0  0  0  0
 24 27  1  0  0  0  0
M  CHG  1  18  -1
M  END
$$$$

  -OEChem-04042215583D

 27 26  0     1  0  0  0  0  0999 V2000
   -2.6472   -3.9340    0.2852 H   0  0  0  0  0  0  0  0  0  0  0  0
   -2.5486   -2.9863   -0.2508 C   0  0  0  0  0  0  0  0  0  0  0  0
   -3.4293   -2.3708   -0.0527 H   0  0  0  0  0  0  0  0  0  0  0  0
   -2.4948   -3.1911   -1.3237 H   0  0  0  0  0  0  0  0  0  0  0  0
   -1.2960   -2.2540    0.1949 C   0  0  0  0  0  0  0  0  0  0  0  0
   -0.6645   -2.6614    1.1582 O   0  0  0  0  0  0  0  0  0  0  0  0
   -0.9076   -1.1231   -0.4868 N   0  0  0  0  0  0  0  0  0  0  0  0
   -1.3882   -0.9888   -1.3883 H   0  0  0  0  0  0  0  0  0  0  0  0
    0.4303   -0.5165   -0.4250 C   0  0  1  0  0  0  0  0  0  0  0  0
    1.1827   -1.2351   -0.7639 H   0  0  0  0  0  0  0  0  0  0  0  0
    0.3912    0.7121   -1.3614 C   0  0  0  0  0  0  0  0  0  0  0  0
   -0.5873    1.2041   -1.3311 H   0  0  0  0  0  0  0  0  0  0  0  0
    1.1232    1.4414   -0.9977 H   0  0  0  0  0  0  0  0  0  0  0  0
    0.7888    0.3690   -2.8140 C   0  0  0  0  0  0  0  0  0  0  0  0
    1.2436    1.2587   -3.2603 H   0  0  0  0  0  0  0  0  0  0  0  0
    1.5412   -0.4242   -2.8277 H   0  0  0  0  0  0  0  0  0  0  0  0
   -0.4010   -0.0437   -3.6962 C   0  0  0  0  0  0  0  0  0  0  0  0
   -1.3690   -0.6538   -3.1661 O   0  5  0  0  0  0  0  0  0  0  0  0
   -0.3307    0.2453   -4.9141 O   0  0  0  0  0  0  0  0  0  0  0  0
    0.8431   -0.0728    0.9950 C   0  0  0  0  0  0  0  0  0  0  0  0
    2.0111   -0.1492    1.3615 O   0  0  0  0  0  0  0  0  0  0  0  0
   -0.0666    0.6106    1.7805 N   0  0  0  0  0  0  0  0  0  0  0  0
   -1.0314    0.5479    1.4706 H   0  0  0  0  0  0  0  0  0  0  0  0
    0.2113    1.0208    3.1480 C   0  0  0  0  0  0  0  0  0  0  0  0
    1.0817    1.6840    3.1803 H   0  0  0  0  0  0  0  0  0  0  0  0
   -0.6474    1.5588    3.5599 H   0  0  0  0  0  0  0  0  0  0  0  0
    0.4088    0.1456    3.7752 H   0  0  0  0  0  0  0  0  0  0  0  0
  1  2  1  0  0  0  0
  2  3  1  0  0  0  0
  2  4  1  0  0  0  0
  2  5  1  0  0  0  0
  5  6  2  0  0  0  0
  5  7  1  0  0  0  0
  7  8  1  0  0  0  0
  7  9  1  0  0  0  0
  9 10  1  0  0  0  0
  9 11  1  0  0  0  0
  9 20  1  0  0  0  0
 11 12  1  0  0  0  0
 11 13  1  0  0  0  0
 11 14  1  0  0  0  0
 14 15  1  0  0  0  0
 14 16  1  0  0  0  0
 14 17  1  0  0  0  0
 17 18  1  0  0  0  0
 17 19  2  0  0  0  0
 20 21  2  0  0  0  0
 20 22  1  0  0  0  0
 22 23  1  0  0  0  0
 22 24  1  0  0  0  0
 24 25  1  0  0  0  0
 24 26  1  0  0  0  0
 24 27  1  0  0  0  0
M  CHG  1  18  -1
M  END
$$$$

  -OEChem-04042215583D

 27 26  0     1  0  0  0  0  0999 V2000
   -2.6692   -3.8948    0.2157 H   0  0  0  0  0  0  0  0  0  0  0  0
   -2.5523   -2.9411   -0.3058 C   0  0  0  0  0  0  0  0  0  0  0  0
   -3.4241   -2.3145   -0.1030 H   0  0  0  0  0  0  0  0  0  0  0  0
   -2.4968   -3.1311   -1.3813 H   0  0  0  0  0  0  0  0  0  0  0  0
   -1.2901   -2.2362    0.1566 C   0  0  0  0  0  0  0  0  0  0  0  0
   -0.6737   -2.6628    1.1211 O   0  0  0  0  0  0  0  0  0  0  0  0
   -0.8696   -1.1121   -0.5171 N   0  0  0  0  0  0  0  0  0  0  0  0
   -1.3449   -0.9486   -1.4175 H   0  0  0  0  0  0  0  0  0  0  0  0
    0.4740   -0.5183   -0.4237 C   0  0  1  0  0  0  0  0  0  0  0  0
    1.2362   -1.2308   -0.7528 H   0  0  0  0  0  0  0  0  0  0  0  0
    0.3982    0.7020   -1.3601 C   0  0  0  0  0  0  0  0  0  0  0  0
   -0.5844    1.1872   -1.3206 H   0  0  0  0  0  0  0  0  0  0  0  0
    1.1244    1.4449   -1.0132 H   0  0  0  0  0  0  0  0  0  0  0  0
    0.7968    0.3253   -2.8012 C   0  0  0  0  0  0  0  0  0  0  0  0
    1.4569    1.0997   -3.2034 H   0  0  0  0  0  0  0  0  0  0  0  0
    1.3400   -0.6225   -2.8423 H   0  0  0  0  0  0  0  0  0  0  0  0
   -0.4572    0.2412   -3.6777 C   0  0  0  0  0  0  0  0  0  0  0  0
   -1.3981   -0.4868   -3.2542 O   0  5  0  0  0  0  0  0  0  0  0  0
   -0.4851    0.8936   -4.7479 O   0  0  0  0  0  0  0  0  0  0  0  0
    0.8635   -0.0709    1.0012 C   0  0  0  0  0  0  0  0  0  0  0  0
    2.0214   -0.1680    1.3939 O   0  0  0  0  0  0  0  0  0  0  0  0
   -0.0524    0.6272    1.7660 N   0  0  0  0  0  0  0  0  0  0  0  0
   -1.0107    0.5865    1.4331 H   0  0  0  0  0  0  0  0  0  0  0  0
    0.2036    1.0402    3.1369 C   0  0  0  0  0  0  0  0  0  0  0  0
    1.0825    1.6912    3.1839 H   0  0  0  0  0  0  0  0  0  0  0  0
   -0.6554    1.5927    3.5286 H   0  0  0  0  0  0  0  0  0  0  0  0
    0.3755    0.1655    3.7725 H   0  0  0  0  0  0  0  0  0  0  0  0
  1  2  1  0  0  0  0
  2  3  1  0  0  0  0
  2  4  1  0  0  0  0
  2  5  1  0  0  0  0
  5  6  2  0  0  0  0
  5  7  1  0  0  0  0
  7  8  1  0  0  0  0
  7  9  1  0  0  0  0
  9 10  1  0  0  0  0
  9 11  1  0  0  0  0
  9 20  1  0  0  0  0
 11 12  1  0  0  0  0
 11 13  1  0  0  0  0
 11 14  1  0  0  0  0
 14 15  1  0  0  0  0
 14 16  1  0  0  0  0
 14 17  1  0  0  0  0
 17 18  1  0  0  0  0
 17 19  2  0  0  0  0
 20 21  2  0  0  0  0
 20 22  1  0  0  0  0
 22 23  1  0  0  0  0
 22 24  1  0  0  0  0
 24 25  1  0  0  0  0
 24 26  1  0  0  0  0
 24 27  1  0  0  0  0
M  CHG  1  18  -1
M  END
$$$$

  -OEChem-04042215583D

 27 26  0     1  0  0  0  0  0999 V2000
   -2.7121   -3.8440    0.2228 H   0  0  0  0  0  0  0  0  0  0  0  0
   -2.5675   -2.8996   -0.3088 C   0  0  0  0  0  0  0  0  0  0  0  0
   -3.4093   -2.2372   -0.0932 H   0  0  0  0  0  0  0  0  0  0  0  0
   -2.5415   -3.0997   -1.3835 H   0  0  0  0  0  0  0  0  0  0  0  0
   -1.2696   -2.2429    0.1244 C   0  0  0  0  0  0  0  0  0  0  0  0
   -0.6342   -2.7082    1.0575 O   0  0  0  0  0  0  0  0  0  0  0  0
   -0.8366   -1.1166   -0.5384 N   0  0  0  0  0  0  0  0  0  0  0  0
   -1.3401   -0.8918   -1.4067 H   0  0  0  0  0  0  0  0  0  0  0  0
    0.5062   -0.5208   -0.4258 C   0  0  1  0  0  0  0  0  0  0  0  0
    1.2807   -1.2194   -0.7575 H   0  0  0  0  0  0  0  0  0  0  0  0
    0.3950    0.6948   -1.3563 C   0  0  0  0  0  0  0  0  0  0  0  0
   -0.5991    1.1558   -1.3050 H   0  0  0  0  0  0  0  0  0  0  0  0
    1.1023    1.4604   -1.0197 H   0  0  0  0  0  0  0  0  0  0  0  0
    0.7957    0.3088   -2.7938 C   0  0  0  0  0  0  0  0  0  0  0  0
    1.6427    0.9209   -3.1184 H   0  0  0  0  0  0  0  0  0  0  0  0
    1.0945   -0.7402   -2.8732 H   0  0  0  0  0  0  0  0  0  0  0  0
   -0.3988    0.5557   -3.7127 C   0  0  0  0  0  0  0  0  0  0  0  0
   -1.4464   -0.0876   -3.4238 O   0  5  0  0  0  0  0  0  0  0  0  0
   -0.2884    1.3633   -4.6655 O   0  0  0  0  0  0  0  0  0  0  0  0
    0.8811   -0.0755    1.0033 C   0  0  0  0  0  0  0  0  0  0  0  0
    2.0315   -0.1870    1.4131 O   0  0  0  0  0  0  0  0  0  0  0  0
   -0.0415    0.6211    1.7612 N   0  0  0  0  0  0  0  0  0  0  0  0
   -0.9930    0.6104    1.4075 H   0  0  0  0  0  0  0  0  0  0  0  0
    0.2025    1.0405    3.1323 C   0  0  0  0  0  0  0  0  0  0  0  0
    1.0783    1.6955    3.1825 H   0  0  0  0  0  0  0  0  0  0  0  0
   -0.6616    1.5908    3.5159 H   0  0  0  0  0  0  0  0  0  0  0  0
    0.3735    0.1689    3.7723 H   0  0  0  0  0  0  0  0  0  0  0  0
  1  2  1  0  0  0  0
  2  3  1  0  0  0  0
  2  4  1  0  0  0  0
  2  5  1  0  0  0  0
  5  6  2  0  0  0  0
  5  7  1  0  0  0  0
  7  8  1  0  0  0  0
  7  9  1  0  0  0  0
  9 10  1  0  0  0  0
  9 11  1  0  0  0  0
  9 20  1  0  0  0  0
 11 12  1  0  0  0  0
 11 13  1  0  0  0  0
 11 14  1  0  0  0  0
 14 15  1  0  0  0  0
 14 16  1  0  0  0  0
 14 17  1  0  0  0  0
 17 18  1  0  0  0  0
 17 19  2  0  0  0  0
 20 21  2  0  0  0  0
 20 22  1  0  0  0  0
 22 23  1  0  0  0  0
 22 24  1  0  0  0  0
 24 25  1  0  0  0  0
 24 26  1  0  0  0  0
 24 27  1  0  0  0  0
M  CHG  1  18  -1
M  END
$$$$

  -OEChem-04042215583D

 27 26  0     1  0  0  0  0  0999 V2000
   -2.7412   -3.8329    0.3030 H   0  0  0  0  0  0  0  0  0  0  0  0
   -2.5890   -2.9058   -0.2563 C   0  0  0  0  0  0  0  0  0  0  0  0
   -3.4092   -2.2187   -0.0340 H   0  0  0  0  0  0  0  0  0  0  0  0
   -2.5971   -3.1341   -1.3254 H   0  0  0  0  0  0  0  0  0  0  0  0
   -1.2644   -2.2703    0.1264 C   0  0  0  0  0  0  0  0  0  0  0  0
   -0.5892   -2.7631    1.0153 O   0  0  0  0  0  0  0  0  0  0  0  0
   -0.8489   -1.1360   -0.5361 N   0  0  0  0  0  0  0  0  0  0  0  0
   -1.3961   -0.8688   -1.3583 H   0  0  0  0  0  0  0  0  0  0  0  0
    0.4914   -0.5308   -0.4367 C   0  0  1  0  0  0  0  0  0  0  0  0
    1.2650   -1.2260   -0.7793 H   0  0  0  0  0  0  0  0  0  0  0  0
    0.3967    0.6942   -1.3584 C   0  0  0  0  0  0  0  0  0  0  0  0
   -0.6076    1.1323   -1.3142 H   0  0  0  0  0  0  0  0  0  0  0  0
    1.0874    1.4710   -1.0127 H   0  0  0  0  0  0  0  0  0  0  0  0
    0.7983    0.3241   -2.7990 C   0  0  0  0  0  0  0  0  0  0  0  0
    1.8068    0.6908   -3.0123 H   0  0  0  0  0  0  0  0  0  0  0  0
    0.8023   -0.7606   -2.9415 H   0  0  0  0  0  0  0  0  0  0  0  0
   -0.2039    0.9226   -3.7827 C   0  0  0  0  0  0  0  0  0  0  0  0
   -1.3755    0.4633   -3.7180 O   0  5  0  0  0  0  0  0  0  0  0  0
    0.1744    1.8237   -4.5688 O   0  0  0  0  0  0  0  0  0  0  0  0
    0.8767   -0.0925    0.9925 C   0  0  0  0  0  0  0  0  0  0  0  0
    2.0285   -0.2087    1.3956 O   0  0  0  0  0  0  0  0  0  0  0  0
   -0.0435    0.5920    1.7648 N   0  0  0  0  0  0  0  0  0  0  0  0
   -0.9927    0.6147    1.4065 H   0  0  0  0  0  0  0  0  0  0  0  0
    0.2180    1.0394    3.1239 C   0  0  0  0  0  0  0  0  0  0  0  0
    1.0837    1.7091    3.1473 H   0  0  0  0  0  0  0  0  0  0  0  0
   -0.6483    1.5825    3.5128 H   0  0  0  0  0  0  0  0  0  0  0  0
    0.4142    0.1826    3.7764 H   0  0  0  0  0  0  0  0  0  0  0  0
  1  2  1  0  0  0  0
  2  3  1  0  0  0  0
  2  4  1  0  0  0  0
  2  5  1  0  0  0  0
  5  6  2  0  0  0  0
  5  7  1  0  0  0  0
  7  8  1  0  0  0  0
  7  9  1  0  0  0  0
  9 10  1  0  0  0  0
  9 11  1  0  0  0  0
  9 20  1  0  0  0  0
 11 12  1  0  0  0  0
 11 13  1  0  0  0  0
 11 14  1  0  0  0  0
 14 15  1  0  0  0  0
 14 16  1  0  0  0  0
 14 17  1  0  0  0  0
 17 18  1  0  0  0  0
 17 19  2  0  0  0  0
 20 21  2  0  0  0  0
 20 22  1  0  0  0  0
 22 23  1  0  0  0  0
 22 24  1  0  0  0  0
 24 25  1  0  0  0  0
 24 26  1  0  0  0  0
 24 27  1  0  0  0  0
M  CHG  1  18  -1
M  END
$$$$

  -OEChem-04042215583D

 27 26  0     1  0  0  0  0  0999 V2000
   -2.7551   -3.8268    0.3660 H   0  0  0  0  0  0  0  0  0  0  0  0
   -2.6010   -2.9152   -0.2180 C   0  0  0  0  0  0  0  0  0  0  0  0
   -3.4086   -2.2130    0.0030 H   0  0  0  0  0  0  0  0  0  0  0  0
   -2.6310   -3.1687   -1.2809 H   0  0  0  0  0  0  0  0  0  0  0  0
   -1.2618   -2.2886    0.1269 C   0  0  0  0  0  0  0  0  0  0  0  0
   -0.5588   -2.7961    0.9846 O   0  0  0  0  0  0  0  0  0  0  0  0
   -0.8645   -1.1468   -0.5352 N   0  0  0  0  0  0  0  0  0  0  0  0
   -1.4413   -0.8577   -1.3256 H   0  0  0  0  0  0  0  0  0  0  0  0
    0.4722   -0.5314   -0.4472 C   0  0  1  0  0  0  0  0  0  0  0  0
    1.2439   -1.2248   -0.7978 H   0  0  0  0  0  0  0  0  0  0  0  0
    0.3923    0.6994   -1.3648 C   0  0  0  0  0  0  0  0  0  0  0  0
   -0.6171    1.1259   -1.3347 H   0  0  0  0  0  0  0  0  0  0  0  0
    1.0754    1.4799   -1.0124 H   0  0  0  0  0  0  0  0  0  0  0  0
    0.7977    0.3358   -2.8033 C   0  0  0  0  0  0  0  0  0  0  0  0
    1.8803    0.4371   -2.9252 H   0  0  0  0  0  0  0  0  0  0  0  0
    0.5340   -0.7033   -3.0231 H   0  0  0  0  0  0  0  0  0  0  0  0
    0.0609    1.2259   -3.8012 C   0  0  0  0  0  0  0  0  0  0  0  0
   -1.1740    1.0183   -3.9254 O   0  5  0  0  0  0  0  0  0  0  0  0
    0.7075    2.1073   -4.4163 O   0  0  0  0  0  0  0  0  0  0  0  0
    0.8681   -0.0983    0.9809 C   0  0  0  0  0  0  0  0  0  0  0  0
    2.0213   -0.2223    1.3767 O   0  0  0  0  0  0  0  0  0  0  0  0
   -0.0468    0.5748    1.7695 N   0  0  0  0  0  0  0  0  0  0  0  0
   -0.9939    0.6300    1.4103 H   0  0  0  0  0  0  0  0  0  0  0  0
    0.2352    1.0306    3.1216 C   0  0  0  0  0  0  0  0  0  0  0  0
    1.0788    1.7285    3.1218 H   0  0  0  0  0  0  0  0  0  0  0  0
   -0.6378    1.5441    3.5350 H   0  0  0  0  0  0  0  0  0  0  0  0
    0.4774    0.1805    3.7677 H   0  0  0  0  0  0  0  0  0  0  0  0
  1  2  1  0  0  0  0
  2  3  1  0  0  0  0
  2  4  1  0  0  0  0
  2  5  1  0  0  0  0
  5  6  2  0  0  0  0
  5  7  1  0  0  0  0
  7  8  1  0  0  0  0
  7  9  1  0  0  0  0
  9 10  1  0  0  0  0
  9 11  1  0  0  0  0
  9 20  1  0  0  0  0
 11 12  1  0  0  0  0
 11 13  1  0  0  0  0
 11 14  1  0  0  0  0
 14 15  1  0  0  0  0
 14 16  1  0  0  0  0
 14 17  1  0  0  0  0
 17 18  1  0  0  0  0
 17 19  2  0  0  0  0
 20 21  2  0  0  0  0
 20 22  1  0  0  0  0
 22 23  1  0  0  0  0
 22 24  1  0  0  0  0
 24 25  1  0  0  0  0
 24 26  1  0  0  0  0
 24 27  1  0  0  0  0
M  CHG  1  18  -1
M  END
$$$$

  -OEChem-04042215583D

 27 26  0     1  0  0  0  0  0999 V2000
   -2.7609   -3.8295    0.3851 H   0  0  0  0  0  0  0  0  0  0  0  0
   -2.6059   -2.9241   -0.2083 C   0  0  0  0  0  0  0  0  0  0  0  0
   -3.4094   -2.2165    0.0106 H   0  0  0  0  0  0  0  0  0  0  0  0
   -2.6422   -3.1878   -1.2684 H   0  0  0  0  0  0  0  0  0  0  0  0
   -1.2615   -2.3011    0.1232 C   0  0  0  0  0  0  0  0  0  0  0  0
   -0.5436   -2.8216    0.9601 O   0  0  0  0  0  0  0  0  0  0  0  0
   -0.8734   -1.1532   -0.5347 N   0  0  0  0  0  0  0  0  0  0  0  0
   -1.4648   -0.8514   -1.3072 H   0  0  0  0  0  0  0  0  0  0  0  0
    0.4621   -0.5340   -0.4518 C   0  0  1  0  0  0  0  0  0  0  0  0
    1.2318   -1.2258   -0.8101 H   0  0  0  0  0  0  0  0  0  0  0  0
    0.3845    0.7024   -1.3635 C   0  0  0  0  0  0  0  0  0  0  0  0
   -0.6239    1.1311   -1.3394 H   0  0  0  0  0  0  0  0  0  0  0  0
    1.0711    1.4778   -1.0056 H   0  0  0  0  0  0  0  0  0  0  0  0
    0.7876    0.3465   -2.8020 C   0  0  0  0  0  0  0  0  0  0  0  0
    1.8695    0.1926   -2.8606 H   0  0  0  0  0  0  0  0  0  0  0  0
    0.2999   -0.5833   -3.1094 H   0  0  0  0  0  0  0  0  0  0  0  0
    0.3604    1.4529   -3.7641 C   0  0  0  0  0  0  0  0  0  0  0  0
   -0.8724    1.5507   -3.9937 O   0  5  0  0  0  0  0  0  0  0  0  0
    1.2439    2.1959   -4.2552 O   0  0  0  0  0  0  0  0  0  0  0  0
    0.8666   -0.1089    0.9769 C   0  0  0  0  0  0  0  0  0  0  0  0
    2.0190   -0.2455    1.3704 O   0  0  0  0  0  0  0  0  0  0  0  0
   -0.0441    0.5563    1.7771 N   0  0  0  0  0  0  0  0  0  0  0  0
   -0.9865    0.6433    1.4126 H   0  0  0  0  0  0  0  0  0  0  0  0
    0.2533    1.0284    3.1203 C   0  0  0  0  0  0  0  0  0  0  0  0
    1.0731    1.7538    3.0978 H   0  0  0  0  0  0  0  0  0  0  0  0
   -0.6270    1.5142    3.5512 H   0  0  0  0  0  0  0  0  0  0  0  0
    0.5381    0.1904    3.7647 H   0  0  0  0  0  0  0  0  0  0  0  0
  1  2  1  0  0  0  0
  2  3  1  0  0  0  0
  2  4  1  0  0  0  0
  2  5  1  0  0  0  0
  5  6  2  0  0  0  0
  5  7  1  0  0  0  0
  7  8  1  0  0  0  0
  7  9  1  0  0  0  0
  9 10  1  0  0  0  0
  9 11  1  0  0  0  0
  9 20  1  0  0  0  0
 11 12  1  0  0  0  0
 11 13  1  0  0  0  0
 11 14  1  0  0  0  0
 14 15  1  0  0  0  0
 14 16  1  0  0  0  0
 14 17  1  0  0  0  0
 17 18  1  0  0  0  0
 17 19  2  0  0  0  0
 20 21  2  0  0  0  0
 20 22  1  0  0  0  0
 22 23  1  0  0  0  0
 22 24  1  0  0  0  0
 24 25  1  0  0  0  0
 24 26  1  0  0  0  0
 24 27  1  0  0  0  0
M  CHG  1  18  -1
M  END
$$$$

  -OEChem-04042215583D

 27 26  0     1  0  0  0  0  0999 V2000
   -2.7679   -3.8332    0.4028 H   0  0  0  0  0  0  0  0  0  0  0  0
   -2.6124   -2.9330   -0.1985 C   0  0  0  0  0  0  0  0  0  0  0  0
   -3.4068   -2.2170    0.0266 H   0  0  0  0  0  0  0  0  0  0  0  0
   -2.6645   -3.2026   -1.2565 H   0  0  0  0  0  0  0  0  0  0  0  0
   -1.2584   -2.3203    0.1125 C   0  0  0  0  0  0  0  0  0  0  0  0
   -0.5256   -2.8552    0.9270 O   0  0  0  0  0  0  0  0  0  0  0  0
   -0.8782   -1.1664   -0.5394 N   0  0  0  0  0  0  0  0  0  0  0  0
   -1.4872   -0.8425   -1.2877 H   0  0  0  0  0  0  0  0  0  0  0  0
    0.4535   -0.5403   -0.4562 C   0  0  1  0  0  0  0  0  0  0  0  0
    1.2226   -1.2278   -0.8237 H   0  0  0  0  0  0  0  0  0  0  0  0
    0.3795    0.6997   -1.3604 C   0  0  0  0  0  0  0  0  0  0  0  0
   -0.5269    1.2768   -1.1455 H   0  0  0  0  0  0  0  0  0  0  0  0
    1.2378    1.3491   -1.1542 H   0  0  0  0  0  0  0  0  0  0  0  0
    0.4208    0.3080   -2.8466 C   0  0  0  0  0  0  0  0  0  0  0  0
    1.3463   -0.2354   -3.0606 H   0  0  0  0  0  0  0  0  0  0  0  0
   -0.4175   -0.3504   -3.0902 H   0  0  0  0  0  0  0  0  0  0  0  0
    0.3432    1.5484   -3.7338 C   0  0  0  0  0  0  0  0  0  0  0  0
   -0.7684    2.1330   -3.7853 O   0  5  0  0  0  0  0  0  0  0  0  0
    1.3711    1.9017   -4.3603 O   0  0  0  0  0  0  0  0  0  0  0  0
    0.8626   -0.1198    0.9720 C   0  0  0  0  0  0  0  0  0  0  0  0
    2.0169   -0.2557    1.3598 O   0  0  0  0  0  0  0  0  0  0  0  0
   -0.0472    0.5371    1.7803 N   0  0  0  0  0  0  0  0  0  0  0  0
   -0.9840    0.6509    1.4088 H   0  0  0  0  0  0  0  0  0  0  0  0
    0.2608    1.0260    3.1152 C   0  0  0  0  0  0  0  0  0  0  0  0
    1.0678    1.7646    3.0753 H   0  0  0  0  0  0  0  0  0  0  0  0
   -0.6216    1.5006    3.5542 H   0  0  0  0  0  0  0  0  0  0  0  0
    0.5685    0.1986    3.7626 H   0  0  0  0  0  0  0  0  0  0  0  0
  1  2  1  0  0  0  0
  2  3  1  0  0  0  0
  2  4  1  0  0  0  0
  2  5  1  0  0  0  0
  5  6  2  0  0  0  0
  5  7  1  0  0  0  0
  7  8  1  0  0  0  0
  7  9  1  0  0  0  0
  9 10  1  0  0  0  0
  9 11  1  0  0  0  0
  9 20  1  0  0  0  0
 11 12  1  0  0  0  0
 11 13  1  0  0  0  0
 11 14  1  0  0  0  0
 14 15  1  0  0  0  0
 14 16  1  0  0  0  0
 14 17  1  0  0  0  0
 17 18  1  0  0  0  0
 17 19  2  0  0  0  0
 20 21  2  0  0  0  0
 20 22  1  0  0  0  0
 22 23  1  0  0  0  0
 22 24  1  0  0  0  0
 24 25  1  0  0  0  0
 24 26  1  0  0  0  0
 24 27  1  0  0  0  0
M  CHG  1  18  -1
M  END
$$$$

  -OEChem-04042215583D

 27 26  0     1  0  0  0  0  0999 V2000
   -2.7471   -3.8504    0.3787 H   0  0  0  0  0  0  0  0  0  0  0  0
   -2.6012   -2.9402   -0.2099 C   0  0  0  0  0  0  0  0  0  0  0  0
   -3.4080   -2.2395    0.0188 H   0  0  0  0  0  0  0  0  0  0  0  0
   -2.6420   -3.1974   -1.2715 H   0  0  0  0  0  0  0  0  0  0  0  0
   -1.2591   -2.3111    0.1193 C   0  0  0  0  0  0  0  0  0  0  0  0
   -0.5376   -2.8306    0.9532 O   0  0  0  0  0  0  0  0  0  0  0  0
   -0.8789   -1.1587   -0.5356 N   0  0  0  0  0  0  0  0  0  0  0  0
   -1.4746   -0.8543   -1.3017 H   0  0  0  0  0  0  0  0  0  0  0  0
    0.4542   -0.5353   -0.4533 C   0  0  1  0  0  0  0  0  0  0  0  0
    1.2237   -1.2237   -0.8189 H   0  0  0  0  0  0  0  0  0  0  0  0
    0.3762    0.7060   -1.3563 C   0  0  0  0  0  0  0  0  0  0  0  0
   -0.5196    1.2975   -1.1382 H   0  0  0  0  0  0  0  0  0  0  0  0
    1.2454    1.3412   -1.1491 H   0  0  0  0  0  0  0  0  0  0  0  0
    0.4113    0.3213   -2.8457 C   0  0  0  0  0  0  0  0  0  0  0  0
    1.1916   -0.4269   -3.0160 H   0  0  0  0  0  0  0  0  0  0  0  0
   -0.5450   -0.1183   -3.1420 H   0  0  0  0  0  0  0  0  0  0  0  0
    0.6994    1.5378   -3.7244 C   0  0  0  0  0  0  0  0  0  0  0  0
   -0.1492    2.4646   -3.7030 O   0  5  0  0  0  0  0  0  0  0  0  0
    1.7312    1.5252   -4.4380 O   0  0  0  0  0  0  0  0  0  0  0  0
    0.8638   -0.1138    0.9751 C   0  0  0  0  0  0  0  0  0  0  0  0
    2.0146   -0.2611    1.3685 O   0  0  0  0  0  0  0  0  0  0  0  0
   -0.0450    0.5460    1.7821 N   0  0  0  0  0  0  0  0  0  0  0  0
   -0.9851    0.6481    1.4163 H   0  0  0  0  0  0  0  0  0  0  0  0
    0.2575    1.0096    3.1270 C   0  0  0  0  0  0  0  0  0  0  0  0
    1.0923    1.7176    3.1080 H   0  0  0  0  0  0  0  0  0  0  0  0
   -0.6138    1.5130    3.5560 H   0  0  0  0  0  0  0  0  0  0  0  0
    0.5232    0.1647    3.7704 H   0  0  0  0  0  0  0  0  0  0  0  0
  1  2  1  0  0  0  0
  2  3  1  0  0  0  0
  2  4  1  0  0  0  0
  2  5  1  0  0  0  0
  5  6  2  0  0  0  0
  5  7  1  0  0  0  0
  7  8  1  0  0  0  0
  7  9  1  0  0  0  0
  9 10  1  0  0  0  0
  9 11  1  0  0  0  0
  9 20  1  0  0  0  0
 11 12  1  0  0  0  0
 11 13  1  0  0  0  0
 11 14  1  0  0  0  0
 14 15  1  0  0  0  0
 14 16  1  0  0  0  0
 14 17  1  0  0  0  0
 17 18  1  0  0  0  0
 17 19  2  0  0  0  0
 20 21  2  0  0  0  0
 20 22  1  0  0  0  0
 22 23  1  0  0  0  0
 22 24  1  0  0  0  0
 24 25  1  0  0  0  0
 24 26  1  0  0  0  0
 24 27  1  0  0  0  0
M  CHG  1  18  -1
M  END
$$$$

  -OEChem-04042215583D

 27 26  0     1  0  0  0  0  0999 V2000
   -2.7392   -3.8536    0.3697 H   0  0  0  0  0  0  0  0  0  0  0  0
   -2.5947   -2.9410   -0.2154 C   0  0  0  0  0  0  0  0  0  0  0  0
   -3.4083   -2.2466    0.0081 H   0  0  0  0  0  0  0  0  0  0  0  0
   -2.6253   -3.1961   -1.2777 H   0  0  0  0  0  0  0  0  0  0  0  0
   -1.2595   -2.3032    0.1257 C   0  0  0  0  0  0  0  0  0  0  0  0
   -0.5485   -2.8117    0.9750 O   0  0  0  0  0  0  0  0  0  0  0  0
   -0.8786   -1.1520   -0.5318 N   0  0  0  0  0  0  0  0  0  0  0  0
   -1.4632   -0.8642   -1.3120 H   0  0  0  0  0  0  0  0  0  0  0  0
    0.4564   -0.5316   -0.4512 C   0  0  1  0  0  0  0  0  0  0  0  0
    1.2263   -1.2199   -0.8162 H   0  0  0  0  0  0  0  0  0  0  0  0
    0.3768    0.7112   -1.3540 C   0  0  0  0  0  0  0  0  0  0  0  0
   -0.5111    1.3124   -1.1315 H   0  0  0  0  0  0  0  0  0  0  0  0
    1.2520    1.3368   -1.1424 H   0  0  0  0  0  0  0  0  0  0  0  0
    0.4061    0.3355   -2.8486 C   0  0  0  0  0  0  0  0  0  0  0  0
    0.9846   -0.5824   -2.9915 H   0  0  0  0  0  0  0  0  0  0  0  0
   -0.6112    0.1447   -3.2010 H   0  0  0  0  0  0  0  0  0  0  0  0
    1.0417    1.4354   -3.6995 C   0  0  0  0  0  0  0  0  0  0  0  0
    0.4803    2.5594   -3.6878 O   0  5  0  0  0  0  0  0  0  0  0  0
    2.0462    1.1416   -4.3918 O   0  0  0  0  0  0  0  0  0  0  0  0
    0.8655   -0.1105    0.9781 C   0  0  0  0  0  0  0  0  0  0  0  0
    2.0133   -0.2670    1.3762 O   0  0  0  0  0  0  0  0  0  0  0  0
   -0.0424    0.5514    1.7847 N   0  0  0  0  0  0  0  0  0  0  0  0
   -0.9866    0.6367    1.4261 H   0  0  0  0  0  0  0  0  0  0  0  0
    0.2527    0.9907    3.1396 C   0  0  0  0  0  0  0  0  0  0  0  0
    1.1035    1.6797    3.1420 H   0  0  0  0  0  0  0  0  0  0  0  0
   -0.6125    1.5090    3.5632 H   0  0  0  0  0  0  0  0  0  0  0  0
    0.4899    0.1316    3.7753 H   0  0  0  0  0  0  0  0  0  0  0  0
  1  2  1  0  0  0  0
  2  3  1  0  0  0  0
  2  4  1  0  0  0  0
  2  5  1  0  0  0  0
  5  6  2  0  0  0  0
  5  7  1  0  0  0  0
  7  8  1  0  0  0  0
  7  9  1  0  0  0  0
  9 10  1  0  0  0  0
  9 11  1  0  0  0  0
  9 20  1  0  0  0  0
 11 12  1  0  0  0  0
 11 13  1  0  0  0  0
 11 14  1  0  0  0  0
 14 15  1  0  0  0  0
 14 16  1  0  0  0  0
 14 17  1  0  0  0  0
 17 18  1  0  0  0  0
 17 19  2  0  0  0  0
 20 21  2  0  0  0  0
 20 22  1  0  0  0  0
 22 23  1  0  0  0  0
 22 24  1  0  0  0  0
 24 25  1  0  0  0  0
 24 26  1  0  0  0  0
 24 27  1  0  0  0  0
M  CHG  1  18  -1
M  END
$$$$

  -OEChem-04042215583D

 27 26  0     1  0  0  0  0  0999 V2000
   -2.7321   -3.8546    0.3563 H   0  0  0  0  0  0  0  0  0  0  0  0
   -2.5881   -2.9399   -0.2257 C   0  0  0  0  0  0  0  0  0  0  0  0
   -3.4104   -2.2526   -0.0122 H   0  0  0  0  0  0  0  0  0  0  0  0
   -2.6022   -3.1940   -1.2886 H   0  0  0  0  0  0  0  0  0  0  0  0
   -1.2631   -2.2912    0.1338 C   0  0  0  0  0  0  0  0  0  0  0  0
   -0.5669   -2.7869    1.0025 O   0  0  0  0  0  0  0  0  0  0  0  0
   -0.8792   -1.1422   -0.5262 N   0  0  0  0  0  0  0  0  0  0  0  0
   -1.4497   -0.8731   -1.3232 H   0  0  0  0  0  0  0  0  0  0  0  0
    0.4592   -0.5276   -0.4482 C   0  0  1  0  0  0  0  0  0  0  0  0
    1.2280   -1.2165   -0.8149 H   0  0  0  0  0  0  0  0  0  0  0  0
    0.3812    0.7176   -1.3488 C   0  0  0  0  0  0  0  0  0  0  0  0
   -0.5054    1.3185   -1.1212 H   0  0  0  0  0  0  0  0  0  0  0  0
    1.2555    1.3431   -1.1326 H   0  0  0  0  0  0  0  0  0  0  0  0
    0.4032    0.3489   -2.8478 C   0  0  0  0  0  0  0  0  0  0  0  0
    0.7233   -0.6895   -2.9777 H   0  0  0  0  0  0  0  0  0  0  0  0
   -0.6077    0.4313   -3.2566 H   0  0  0  0  0  0  0  0  0  0  0  0
    1.3450    1.2432   -3.6548 C   0  0  0  0  0  0  0  0  0  0  0  0
    1.0657    2.4670   -3.7063 O   0  5  0  0  0  0  0  0  0  0  0  0
    2.3032    0.6988   -4.2551 O   0  0  0  0  0  0  0  0  0  0  0  0
    0.8689   -0.1081    0.9817 C   0  0  0  0  0  0  0  0  0  0  0  0
    2.0141   -0.2709    1.3847 O   0  0  0  0  0  0  0  0  0  0  0  0
   -0.0388    0.5574    1.7858 N   0  0  0  0  0  0  0  0  0  0  0  0
   -0.9865    0.6245    1.4328 H   0  0  0  0  0  0  0  0  0  0  0  0
    0.2470    0.9699    3.1512 C   0  0  0  0  0  0  0  0  0  0  0  0
    1.1083    1.6454    3.1743 H   0  0  0  0  0  0  0  0  0  0  0  0
   -0.6149    1.4952    3.5731 H   0  0  0  0  0  0  0  0  0  0  0  0
    0.4631    0.0972    3.7759 H   0  0  0  0  0  0  0  0  0  0  0  0
  1  2  1  0  0  0  0
  2  3  1  0  0  0  0
  2  4  1  0  0  0  0
  2  5  1  0  0  0  0
  5  6  2  0  0  0  0
  5  7  1  0  0  0  0
  7  8  1  0  0  0  0
  7  9  1  0  0  0  0
  9 10  1  0  0  0  0
  9 11  1  0  0  0  0
  9 20  1  0  0  0  0
 11 12  1  0  0  0  0
 11 13  1  0  0  0  0
 11 14  1  0  0  0  0
 14 15  1  0  0  0  0
 14 16  1  0  0  0  0
 14 17  1  0  0  0  0
 17 18  1  0  0  0  0
 17 19  2  0  0  0  0
 20 21  2  0  0  0  0
 20 22  1  0  0  0  0
 22 23  1  0  0  0  0
 22 24  1  0  0  0  0
 24 25  1  0  0  0  0
 24 26  1  0  0  0  0
 24 27  1  0  0  0  0
M  CHG  1  18  -1
M  END
$$$$

  -OEChem-04042215583D

 27 26  0     1  0  0  0  0  0999 V2000
   -2.7238   -3.8604    0.3386 H   0  0  0  0  0  0  0  0  0  0  0  0
   -2.5806   -2.9459   -0.2439 C   0  0  0  0  0  0  0  0  0  0  0  0
   -3.4155   -2.2686   -0.0484 H   0  0  0  0  0  0  0  0  0  0  0  0
   -2.5713   -3.2044   -1.3059 H   0  0  0  0  0  0  0  0  0  0  0  0
   -1.2711   -2.2790    0.1386 C   0  0  0  0  0  0  0  0  0  0  0  0
   -0.5922   -2.7562    1.0308 O   0  0  0  0  0  0  0  0  0  0  0  0
   -0.8876   -1.1300   -0.5220 N   0  0  0  0  0  0  0  0  0  0  0  0
   -1.4414   -0.8839   -1.3379 H   0  0  0  0  0  0  0  0  0  0  0  0
    0.4540   -0.5203   -0.4458 C   0  0  1  0  0  0  0  0  0  0  0  0
    1.2201   -1.2102   -0.8179 H   0  0  0  0  0  0  0  0  0  0  0  0
    0.3854    0.7288   -1.3423 C   0  0  0  0  0  0  0  0  0  0  0  0
   -0.5103    1.3158   -1.1144 H   0  0  0  0  0  0  0  0  0  0  0  0
    1.2491    1.3670   -1.1207 H   0  0  0  0  0  0  0  0  0  0  0  0
    0.4046    0.3626   -2.8429 C   0  0  0  0  0  0  0  0  0  0  0  0
    0.4254   -0.7236   -2.9750 H   0  0  0  0  0  0  0  0  0  0  0  0
   -0.5163    0.7254   -3.3083 H   0  0  0  0  0  0  0  0  0  0  0  0
    1.5920    0.9727   -3.5870 C   0  0  0  0  0  0  0  0  0  0  0  0
    1.5924    2.2184   -3.7470 O   0  5  0  0  0  0  0  0  0  0  0  0
    2.4664    0.1899   -4.0311 O   0  0  0  0  0  0  0  0  0  0  0  0
    0.8674   -0.1052    0.9850 C   0  0  0  0  0  0  0  0  0  0  0  0
    2.0131   -0.2666    1.3861 O   0  0  0  0  0  0  0  0  0  0  0  0
   -0.0375    0.5619    1.7913 N   0  0  0  0  0  0  0  0  0  0  0  0
   -0.9919    0.5988    1.4526 H   0  0  0  0  0  0  0  0  0  0  0  0
    0.2480    0.9543    3.1630 C   0  0  0  0  0  0  0  0  0  0  0  0
    1.1175    1.6187    3.1984 H   0  0  0  0  0  0  0  0  0  0  0  0
   -0.6089    1.4854    3.5875 H   0  0  0  0  0  0  0  0  0  0  0  0
    0.4508    0.0715    3.7777 H   0  0  0  0  0  0  0  0  0  0  0  0
  1  2  1  0  0  0  0
  2  3  1  0  0  0  0
  2  4  1  0  0  0  0
  2  5  1  0  0  0  0
  5  6  2  0  0  0  0
  5  7  1  0  0  0  0
  7  8  1  0  0  0  0
  7  9  1  0  0  0  0
  9 10  1  0  0  0  0
  9 11  1  0  0  0  0
  9 20  1  0  0  0  0
 11 12  1  0  0  0  0
 11 13  1  0  0  0  0
 11 14  1  0  0  0  0
 14 15  1  0  0  0  0
 14 16  1  0  0  0  0
 14 17  1  0  0  0  0
 17 18  1  0  0  0  0
 17 19  2  0  0  0  0
 20 21  2  0  0  0  0
 20 22  1  0  0  0  0
 22 23  1  0  0  0  0
 22 24  1  0  0  0  0
 24 25  1  0  0  0  0
 24 26  1  0  0  0  0
 24 27  1  0  0  0  0
M  CHG  1  18  -1
M  END
$$$$

  -OEChem-04042215583D

 27 26  0     1  0  0  0  0  0999 V2000
   -2.7389   -3.8515    0.3375 H   0  0  0  0  0  0  0  0  0  0  0  0
   -2.5745   -2.9567   -0.2698 C   0  0  0  0  0  0  0  0  0  0  0  0
   -3.4186   -2.2766   -0.1318 H   0  0  0  0  0  0  0  0  0  0  0  0
   -2.5207   -3.2508   -1.3212 H   0  0  0  0  0  0  0  0  0  0  0  0
   -1.2830   -2.2721    0.1413 C   0  0  0  0  0  0  0  0  0  0  0  0
   -0.6262   -2.7314    1.0590 O   0  0  0  0  0  0  0  0  0  0  0  0
   -0.8976   -1.1234   -0.5189 N   0  0  0  0  0  0  0  0  0  0  0  0
   -1.4350   -0.8977   -1.3512 H   0  0  0  0  0  0  0  0  0  0  0  0
    0.4478   -0.5198   -0.4449 C   0  0  1  0  0  0  0  0  0  0  0  0
    1.2099   -1.2109   -0.8250 H   0  0  0  0  0  0  0  0  0  0  0  0
    0.3900    0.7368   -1.3326 C   0  0  0  0  0  0  0  0  0  0  0  0
   -0.5120    1.3124   -1.1010 H   0  0  0  0  0  0  0  0  0  0  0  0
    1.2471    1.3834   -1.1099 H   0  0  0  0  0  0  0  0  0  0  0  0
    0.4044    0.3791   -2.8334 C   0  0  0  0  0  0  0  0  0  0  0  0
    0.1307   -0.6686   -2.9904 H   0  0  0  0  0  0  0  0  0  0  0  0
   -0.3484    0.9862   -3.3445 H   0  0  0  0  0  0  0  0  0  0  0  0
    1.7544    0.6567   -3.4911 C   0  0  0  0  0  0  0  0  0  0  0  0
    2.0146    1.8436   -3.8077 O   0  5  0  0  0  0  0  0  0  0  0  0
    2.5052   -0.3266   -3.7003 O   0  0  0  0  0  0  0  0  0  0  0  0
    0.8654   -0.1100    0.9867 C   0  0  0  0  0  0  0  0  0  0  0  0
    2.0126   -0.2656    1.3859 O   0  0  0  0  0  0  0  0  0  0  0  0
   -0.0378    0.5591    1.7938 N   0  0  0  0  0  0  0  0  0  0  0  0
   -0.9963    0.5754    1.4656 H   0  0  0  0  0  0  0  0  0  0  0  0
    0.2509    0.9469    3.1660 C   0  0  0  0  0  0  0  0  0  0  0  0
    1.1249    1.6053    3.2017 H   0  0  0  0  0  0  0  0  0  0  0  0
   -0.6018    1.4832    3.5922 H   0  0  0  0  0  0  0  0  0  0  0  0
    0.4480    0.0617    3.7792 H   0  0  0  0  0  0  0  0  0  0  0  0
  1  2  1  0  0  0  0
  2  3  1  0  0  0  0
  2  4  1  0  0  0  0
  2  5  1  0  0  0  0
  5  6  2  0  0  0  0
  5  7  1  0  0  0  0
  7  8  1  0  0  0  0
  7  9  1  0  0  0  0
  9 10  1  0  0  0  0
  9 11  1  0  0  0  0
  9 20  1  0  0  0  0
 11 12  1  0  0  0  0
 11 13  1  0  0  0  0
 11 14  1  0  0  0  0
 14 15  1  0  0  0  0
 14 16  1  0  0  0  0
 14 17  1  0  0  0  0
 17 18  1  0  0  0  0
 17 19  2  0  0  0  0
 20 21  2  0  0  0  0
 20 22  1  0  0  0  0
 22 23  1  0  0  0  0
 22 24  1  0  0  0  0
 24 25  1  0  0  0  0
 24 26  1  0  0  0  0
 24 27  1  0  0  0  0
M  CHG  1  18  -1
M  END
$$$$

  -OEChem-04042215583D

 27 26  0     1  0  0  0  0  0999 V2000
   -2.7494   -3.8339    0.3507 H   0  0  0  0  0  0  0  0  0  0  0  0
   -2.5559   -2.9717   -0.2936 C   0  0  0  0  0  0  0  0  0  0  0  0
   -3.4124   -2.2951   -0.2437 H   0  0  0  0  0  0  0  0  0  0  0  0
   -2.4368   -3.3220   -1.3221 H   0  0  0  0  0  0  0  0  0  0  0  0
   -1.2967   -2.2513    0.1554 C   0  0  0  0  0  0  0  0  0  0  0  0
   -0.6782   -2.6706    1.1180 O   0  0  0  0  0  0  0  0  0  0  0  0
   -0.9091   -1.1074   -0.5124 N   0  0  0  0  0  0  0  0  0  0  0  0
   -1.4169   -0.9221   -1.3725 H   0  0  0  0  0  0  0  0  0  0  0  0
    0.4416   -0.5142   -0.4431 C   0  0  1  0  0  0  0  0  0  0  0  0
    1.1973   -1.2131   -0.8232 H   0  0  0  0  0  0  0  0  0  0  0  0
    0.4005    0.7471   -1.3268 C   0  0  0  0  0  0  0  0  0  0  0  0
   -0.4971    1.3281   -1.0918 H   0  0  0  0  0  0  0  0  0  0  0  0
    1.2645    1.3854   -1.1071 H   0  0  0  0  0  0  0  0  0  0  0  0
    0.4086    0.3989   -2.8278 C   0  0  0  0  0  0  0  0  0  0  0  0
   -0.1298   -0.5340   -3.0179 H   0  0  0  0  0  0  0  0  0  0  0  0
   -0.1203    1.1893   -3.3686 H   0  0  0  0  0  0  0  0  0  0  0  0
    1.8199    0.3061   -3.4017 C   0  0  0  0  0  0  0  0  0  0  0  0
    2.3453    1.3561   -3.8456 O   0  5  0  0  0  0  0  0  0  0  0  0
    2.3537   -0.8296   -3.4139 O   0  0  0  0  0  0  0  0  0  0  0  0
    0.8608   -0.1047    0.9887 C   0  0  0  0  0  0  0  0  0  0  0  0
    2.0102   -0.2478    1.3861 O   0  0  0  0  0  0  0  0  0  0  0  0
   -0.0418    0.5721    1.7904 N   0  0  0  0  0  0  0  0  0  0  0  0
   -1.0046    0.5477    1.4750 H   0  0  0  0  0  0  0  0  0  0  0  0
    0.2389    0.9320    3.1718 C   0  0  0  0  0  0  0  0  0  0  0  0
    1.1157    1.5853    3.2264 H   0  0  0  0  0  0  0  0  0  0  0  0
   -0.6145    1.4640    3.6020 H   0  0  0  0  0  0  0  0  0  0  0  0
    0.4275    0.0340    3.7687 H   0  0  0  0  0  0  0  0  0  0  0  0
  1  2  1  0  0  0  0
  2  3  1  0  0  0  0
  2  4  1  0  0  0  0
  2  5  1  0  0  0  0
  5  6  2  0  0  0  0
  5  7  1  0  0  0  0
  7  8  1  0  0  0  0
  7  9  1  0  0  0  0
  9 10  1  0  0  0  0
  9 11  1  0  0  0  0
  9 20  1  0  0  0  0
 11 12  1  0  0  0  0
 11 13  1  0  0  0  0
 11 14  1  0  0  0  0
 14 15  1  0  0  0  0
 14 16  1  0  0  0  0
 14 17  1  0  0  0  0
 17 18  1  0  0  0  0
 17 19  2  0  0  0  0
 20 21  2  0  0  0  0
 20 22  1  0  0  0  0
 22 23  1  0  0  0  0
 22 24  1  0  0  0  0
 24 25  1  0  0  0  0
 24 26  1  0  0  0  0
 24 27  1  0  0  0  0
M  CHG  1  18  -1
M  END
$$$$

  -OEChem-04042215583D

 27 26  0     1  0  0  0  0  0999 V2000
   -2.7481   -3.8408    0.3405 H   0  0  0  0  0  0  0  0  0  0  0  0
   -2.5403   -2.9909   -0.3156 C   0  0  0  0  0  0  0  0  0  0  0  0
   -3.4082   -2.3270   -0.3190 H   0  0  0  0  0  0  0  0  0  0  0  0
   -2.3707   -3.3631   -1.3293 H   0  0  0  0  0  0  0  0  0  0  0  0
   -1.3130   -2.2401    0.1694 C   0  0  0  0  0  0  0  0  0  0  0  0
   -0.7371   -2.6211    1.1737 O   0  0  0  0  0  0  0  0  0  0  0  0
   -0.9184   -1.1031   -0.5062 N   0  0  0  0  0  0  0  0  0  0  0  0
   -1.3915   -0.9591   -1.3938 H   0  0  0  0  0  0  0  0  0  0  0  0
    0.4368   -0.5219   -0.4319 C   0  0  1  0  0  0  0  0  0  0  0  0
    1.1865   -1.2330   -0.8000 H   0  0  0  0  0  0  0  0  0  0  0  0
    0.4104    0.7417   -1.3167 C   0  0  0  0  0  0  0  0  0  0  0  0
   -0.4768    1.3375   -1.0800 H   0  0  0  0  0  0  0  0  0  0  0  0
    1.2871    1.3619   -1.0962 H   0  0  0  0  0  0  0  0  0  0  0  0
    0.4199    0.4114   -2.8208 C   0  0  0  0  0  0  0  0  0  0  0  0
   -0.3291   -0.3522   -3.0491 H   0  0  0  0  0  0  0  0  0  0  0  0
    0.1386    1.3119   -3.3748 H   0  0  0  0  0  0  0  0  0  0  0  0
    1.7854   -0.0457   -3.3277 C   0  0  0  0  0  0  0  0  0  0  0  0
    2.5918    0.8293   -3.7255 O   0  5  0  0  0  0  0  0  0  0  0  0
    1.9977   -1.2831   -3.3402 O   0  0  0  0  0  0  0  0  0  0  0  0
    0.8519   -0.1071    0.9999 C   0  0  0  0  0  0  0  0  0  0  0  0
    2.0024   -0.2411    1.3980 O   0  0  0  0  0  0  0  0  0  0  0  0
   -0.0495    0.5826    1.7917 N   0  0  0  0  0  0  0  0  0  0  0  0
   -1.0138    0.5353    1.4834 H   0  0  0  0  0  0  0  0  0  0  0  0
    0.2296    0.9486    3.1720 C   0  0  0  0  0  0  0  0  0  0  0  0
    1.1111    1.5957    3.2256 H   0  0  0  0  0  0  0  0  0  0  0  0
   -0.6211    1.4896    3.5964 H   0  0  0  0  0  0  0  0  0  0  0  0
    0.4099    0.0528    3.7751 H   0  0  0  0  0  0  0  0  0  0  0  0
  1  2  1  0  0  0  0
  2  3  1  0  0  0  0
  2  4  1  0  0  0  0
  2  5  1  0  0  0  0
  5  6  2  0  0  0  0
  5  7  1  0  0  0  0
  7  8  1  0  0  0  0
  7  9  1  0  0  0  0
  9 10  1  0  0  0  0
  9 11  1  0  0  0  0
  9 20  1  0  0  0  0
 11 12  1  0  0  0  0
 11 13  1  0  0  0  0
 11 14  1  0  0  0  0
 14 15  1  0  0  0  0
 14 16  1  0  0  0  0
 14 17  1  0  0  0  0
 17 18  1  0  0  0  0
 17 19  2  0  0  0  0
 20 21  2  0  0  0  0
 20 22  1  0  0  0  0
 22 23  1  0  0  0  0
 22 24  1  0  0  0  0
 24 25  1  0  0  0  0
 24 26  1  0  0  0  0
 24 27  1  0  0  0  0
M  CHG  1  18  -1
M  END
$$$$

  -OEChem-04042215583D

 27 26  0     1  0  0  0  0  0999 V2000
   -2.6876   -3.9039    0.2738 H   0  0  0  0  0  0  0  0  0  0  0  0
   -2.5235   -3.0125   -0.3381 C   0  0  0  0  0  0  0  0  0  0  0  0
   -3.4240   -2.3941   -0.3116 H   0  0  0  0  0  0  0  0  0  0  0  0
   -2.3348   -3.3252   -1.3685 H   0  0  0  0  0  0  0  0  0  0  0  0
   -1.3362   -2.2250    0.1875 C   0  0  0  0  0  0  0  0  0  0  0  0
   -0.8133   -2.5602    1.2368 O   0  0  0  0  0  0  0  0  0  0  0  0
   -0.9284   -1.0990   -0.4984 N   0  0  0  0  0  0  0  0  0  0  0  0
   -1.3582   -1.0016   -1.4144 H   0  0  0  0  0  0  0  0  0  0  0  0
    0.4324   -0.5347   -0.4144 C   0  0  1  0  0  0  0  0  0  0  0  0
    1.1763   -1.2603   -0.7635 H   0  0  0  0  0  0  0  0  0  0  0  0
    0.4240    0.7268   -1.3046 C   0  0  0  0  0  0  0  0  0  0  0  0
   -0.4472    1.3454   -1.0670 H   0  0  0  0  0  0  0  0  0  0  0  0
    1.3174    1.3216   -1.0824 H   0  0  0  0  0  0  0  0  0  0  0  0
    0.4377    0.4154   -2.8136 C   0  0  0  0  0  0  0  0  0  0  0  0
   -0.4692   -0.1341   -3.0821 H   0  0  0  0  0  0  0  0  0  0  0  0
    0.4149    1.3604   -3.3643 H   0  0  0  0  0  0  0  0  0  0  0  0
    1.6545   -0.3807   -3.2781 C   0  0  0  0  0  0  0  0  0  0  0  0
    2.6890    0.2486   -3.6043 O   0  5  0  0  0  0  0  0  0  0  0  0
    1.5225   -1.6293   -3.3251 O   0  0  0  0  0  0  0  0  0  0  0  0
    0.8412   -0.1100    1.0166 C   0  0  0  0  0  0  0  0  0  0  0  0
    1.9912   -0.2397    1.4184 O   0  0  0  0  0  0  0  0  0  0  0  0
   -0.0576    0.5999    1.7934 N   0  0  0  0  0  0  0  0  0  0  0  0
   -1.0224    0.5410    1.4873 H   0  0  0  0  0  0  0  0  0  0  0  0
    0.2183    0.9779    3.1711 C   0  0  0  0  0  0  0  0  0  0  0  0
    1.1081    1.6138    3.2234 H   0  0  0  0  0  0  0  0  0  0  0  0
   -0.6274    1.5351    3.5844 H   0  0  0  0  0  0  0  0  0  0  0  0
    0.3834    0.0866    3.7850 H   0  0  0  0  0  0  0  0  0  0  0  0
  1  2  1  0  0  0  0
  2  3  1  0  0  0  0
  2  4  1  0  0  0  0
  2  5  1  0  0  0  0
  5  6  2  0  0  0  0
  5  7  1  0  0  0  0
  7  8  1  0  0  0  0
  7  9  1  0  0  0  0
  9 10  1  0  0  0  0
  9 11  1  0  0  0  0
  9 20  1  0  0  0  0
 11 12  1  0  0  0  0
 11 13  1  0  0  0  0
 11 14  1  0  0  0  0
 14 15  1  0  0  0  0
 14 16  1  0  0  0  0
 14 17  1  0  0  0  0
 17 18  1  0  0  0  0
 17 19  2  0  0  0  0
 20 21  2  0  0  0  0
 20 22  1  0  0  0  0
 22 23  1  0  0  0  0
 22 24  1  0  0  0  0
 24 25  1  0  0  0  0
 24 26  1  0  0  0  0
 24 27  1  0  0  0  0
M  CHG  1  18  -1
M  END
$$$$

  -OEChem-04042215583D

 27 26  0     1  0  0  0  0  0999 V2000
   -2.6749   -3.9143    0.2672 H   0  0  0  0  0  0  0  0  0  0  0  0
   -2.4931   -3.0411   -0.3654 C   0  0  0  0  0  0  0  0  0  0  0  0
   -3.4114   -2.4526   -0.4305 H   0  0  0  0  0  0  0  0  0  0  0  0
   -2.2169   -3.3849   -1.3662 H   0  0  0  0  0  0  0  0  0  0  0  0
   -1.3728   -2.1957    0.2137 C   0  0  0  0  0  0  0  0  0  0  0  0
   -0.9229   -2.4693    1.3144 O   0  0  0  0  0  0  0  0  0  0  0  0
   -0.9495   -1.0841   -0.4854 N   0  0  0  0  0  0  0  0  0  0  0  0
   -1.3240   -1.0514   -1.4311 H   0  0  0  0  0  0  0  0  0  0  0  0
    0.4204   -0.5468   -0.3949 C   0  0  1  0  0  0  0  0  0  0  0  0
    1.1535   -1.2916   -0.7244 H   0  0  0  0  0  0  0  0  0  0  0  0
    0.4416    0.7111   -1.2918 C   0  0  0  0  0  0  0  0  0  0  0  0
   -0.4042    1.3634   -1.0521 H   0  0  0  0  0  0  0  0  0  0  0  0
    1.3575    1.2694   -1.0672 H   0  0  0  0  0  0  0  0  0  0  0  0
    0.4558    0.4179   -2.8067 C   0  0  0  0  0  0  0  0  0  0  0  0
   -0.5517    0.1249   -3.1161 H   0  0  0  0  0  0  0  0  0  0  0  0
    0.6979    1.3415   -3.3406 H   0  0  0  0  0  0  0  0  0  0  0  0
    1.4247   -0.6737   -3.2531 C   0  0  0  0  0  0  0  0  0  0  0  0
    2.5853   -0.3460   -3.5942 O   0  5  0  0  0  0  0  0  0  0  0  0
    0.9729   -1.8475   -3.2567 O   0  0  0  0  0  0  0  0  0  0  0  0
    0.8271   -0.1152    1.0348 C   0  0  0  0  0  0  0  0  0  0  0  0
    1.9773   -0.2461    1.4369 O   0  0  0  0  0  0  0  0  0  0  0  0
   -0.0630    0.6206    1.7971 N   0  0  0  0  0  0  0  0  0  0  0  0
   -1.0296    0.5459    1.4991 H   0  0  0  0  0  0  0  0  0  0  0  0
    0.2139    1.0082    3.1720 C   0  0  0  0  0  0  0  0  0  0  0  0
    1.1124    1.6320    3.2204 H   0  0  0  0  0  0  0  0  0  0  0  0
   -0.6252    1.5813    3.5768 H   0  0  0  0  0  0  0  0  0  0  0  0
    0.3640    0.1208    3.7954 H   0  0  0  0  0  0  0  0  0  0  0  0
  1  2  1  0  0  0  0
  2  3  1  0  0  0  0
  2  4  1  0  0  0  0
  2  5  1  0  0  0  0
  5  6  2  0  0  0  0
  5  7  1  0  0  0  0
  7  8  1  0  0  0  0
  7  9  1  0  0  0  0
  9 10  1  0  0  0  0
  9 11  1  0  0  0  0
  9 20  1  0  0  0  0
 11 12  1  0  0  0  0
 11 13  1  0  0  0  0
 11 14  1  0  0  0  0
 14 15  1  0  0  0  0
 14 16  1  0  0  0  0
 14 17  1  0  0  0  0
 17 18  1  0  0  0  0
 17 19  2  0  0  0  0
 20 21  2  0  0  0  0
 20 22  1  0  0  0  0
 22 23  1  0  0  0  0
 22 24  1  0  0  0  0
 24 25  1  0  0  0  0
 24 26  1  0  0  0  0
 24 27  1  0  0  0  0
M  CHG  1  18  -1
M  END
$$$$

  -OEChem-04042215583D

 27 26  0     1  0  0  0  0  0999 V2000
   -2.6644   -3.9203    0.2760 H   0  0  0  0  0  0  0  0  0  0  0  0
   -2.4665   -3.0652   -0.3762 C   0  0  0  0  0  0  0  0  0  0  0  0
   -3.3942   -2.5069   -0.5221 H   0  0  0  0  0  0  0  0  0  0  0  0
   -2.1168   -3.4354   -1.3444 H   0  0  0  0  0  0  0  0  0  0  0  0
   -1.4090   -2.1664    0.2388 C   0  0  0  0  0  0  0  0  0  0  0  0
   -1.0244   -2.3815    1.3775 O   0  0  0  0  0  0  0  0  0  0  0  0
   -0.9726   -1.0702   -0.4752 N   0  0  0  0  0  0  0  0  0  0  0  0
   -1.2919   -1.1067   -1.4436 H   0  0  0  0  0  0  0  0  0  0  0  0
    0.4053   -0.5575   -0.3803 C   0  0  1  0  0  0  0  0  0  0  0  0
    1.1280   -1.3193   -0.6936 H   0  0  0  0  0  0  0  0  0  0  0  0
    0.4561    0.6923   -1.2885 C   0  0  0  0  0  0  0  0  0  0  0  0
   -0.3715    1.3692   -1.0529 H   0  0  0  0  0  0  0  0  0  0  0  0
    1.3854    1.2261   -1.0607 H   0  0  0  0  0  0  0  0  0  0  0  0
    0.4729    0.4034   -2.8072 C   0  0  0  0  0  0  0  0  0  0  0  0
   -0.5611    0.3875   -3.1647 H   0  0  0  0  0  0  0  0  0  0  0  0
    0.9739    1.2303   -3.3191 H   0  0  0  0  0  0  0  0  0  0  0  0
    1.1258   -0.9101   -3.2292 C   0  0  0  0  0  0  0  0  0  0  0  0
    2.3266   -0.9074   -3.5864 O   0  5  0  0  0  0  0  0  0  0  0  0
    0.3892   -1.9299   -3.1696 O   0  0  0  0  0  0  0  0  0  0  0  0
    0.8137   -0.1156    1.0454 C   0  0  0  0  0  0  0  0  0  0  0  0
    1.9647   -0.2498    1.4452 O   0  0  0  0  0  0  0  0  0  0  0  0
   -0.0661    0.6461    1.7934 N   0  0  0  0  0  0  0  0  0  0  0  0
   -1.0347    0.5600    1.5032 H   0  0  0  0  0  0  0  0  0  0  0  0
    0.2138    1.0454    3.1642 C   0  0  0  0  0  0  0  0  0  0  0  0
    1.1251    1.6504    3.2091 H   0  0  0  0  0  0  0  0  0  0  0  0
   -0.6147    1.6415    3.5576 H   0  0  0  0  0  0  0  0  0  0  0  0
    0.3429    0.1631    3.7993 H   0  0  0  0  0  0  0  0  0  0  0  0
  1  2  1  0  0  0  0
  2  3  1  0  0  0  0
  2  4  1  0  0  0  0
  2  5  1  0  0  0  0
  5  6  2  0  0  0  0
  5  7  1  0  0  0  0
  7  8  1  0  0  0  0
  7  9  1  0  0  0  0
  9 10  1  0  0  0  0
  9 11  1  0  0  0  0
  9 20  1  0  0  0  0
 11 12  1  0  0  0  0
 11 13  1  0  0  0  0
 11 14  1  0  0  0  0
 14 15  1  0  0  0  0
 14 16  1  0  0  0  0
 14 17  1  0  0  0  0
 17 18  1  0  0  0  0
 17 19  2  0  0  0  0
 20 21  2  0  0  0  0
 20 22  1  0  0  0  0
 22 23  1  0  0  0  0
 22 24  1  0  0  0  0
 24 25  1  0  0  0  0
 24 26  1  0  0  0  0
 24 27  1  0  0  0  0
M  CHG  1  18  -1
M  END
$$$$

  -OEChem-04042215583D

 27 26  0     1  0  0  0  0  0999 V2000
   -2.6606   -3.9282    0.2954 H   0  0  0  0  0  0  0  0  0  0  0  0
   -2.4685   -3.0733   -0.3584 C   0  0  0  0  0  0  0  0  0  0  0  0
   -3.4012   -2.5268   -0.5152 H   0  0  0  0  0  0  0  0  0  0  0  0
   -2.1063   -3.4421   -1.3226 H   0  0  0  0  0  0  0  0  0  0  0  0
   -1.4283   -2.1576    0.2604 C   0  0  0  0  0  0  0  0  0  0  0  0
   -1.0659   -2.3462    1.4117 O   0  0  0  0  0  0  0  0  0  0  0  0
   -0.9826   -1.0743   -0.4660 N   0  0  0  0  0  0  0  0  0  0  0  0
   -1.2713   -1.1578   -1.4459 H   0  0  0  0  0  0  0  0  0  0  0  0
    0.3986   -0.5712   -0.3718 C   0  0  1  0  0  0  0  0  0  0  0  0
    1.1170   -1.3405   -0.6773 H   0  0  0  0  0  0  0  0  0  0  0  0
    0.4667    0.6681   -1.2946 C   0  0  0  0  0  0  0  0  0  0  0  0
   -0.3590    1.3502   -1.0676 H   0  0  0  0  0  0  0  0  0  0  0  0
    1.3958    1.2002   -1.0623 H   0  0  0  0  0  0  0  0  0  0  0  0
    0.4901    0.3787   -2.8163 C   0  0  0  0  0  0  0  0  0  0  0  0
   -0.4892    0.6362   -3.2306 H   0  0  0  0  0  0  0  0  0  0  0  0
    1.2199    1.0411   -3.2919 H   0  0  0  0  0  0  0  0  0  0  0  0
    0.7945   -1.0628   -3.2203 C   0  0  0  0  0  0  0  0  0  0  0  0
    1.9584   -1.3671   -3.5687 O   0  5  0  0  0  0  0  0  0  0  0  0
   -0.1696   -1.8704   -3.1320 O   0  0  0  0  0  0  0  0  0  0  0  0
    0.8059   -0.1146    1.0493 C   0  0  0  0  0  0  0  0  0  0  0  0
    1.9577   -0.2462    1.4489 O   0  0  0  0  0  0  0  0  0  0  0  0
   -0.0699    0.6633    1.7850 N   0  0  0  0  0  0  0  0  0  0  0  0
   -1.0391    0.5759    1.4958 H   0  0  0  0  0  0  0  0  0  0  0  0
    0.2108    1.0823    3.1497 C   0  0  0  0  0  0  0  0  0  0  0  0
    1.1272    1.6800    3.1865 H   0  0  0  0  0  0  0  0  0  0  0  0
   -0.6129    1.6922    3.5317 H   0  0  0  0  0  0  0  0  0  0  0  0
    0.3302    0.2094    3.7995 H   0  0  0  0  0  0  0  0  0  0  0  0
  1  2  1  0  0  0  0
  2  3  1  0  0  0  0
  2  4  1  0  0  0  0
  2  5  1  0  0  0  0
  5  6  2  0  0  0  0
  5  7  1  0  0  0  0
  7  8  1  0  0  0  0
  7  9  1  0  0  0  0
  9 10  1  0  0  0  0
  9 11  1  0  0  0  0
  9 20  1  0  0  0  0
 11 12  1  0  0  0  0
 11 13  1  0  0  0  0
 11 14  1  0  0  0  0
 14 15  1  0  0  0  0
 14 16  1  0  0  0  0
 14 17  1  0  0  0  0
 17 18  1  0  0  0  0
 17 19  2  0  0  0  0
 20 21  2  0  0  0  0
 20 22  1  0  0  0  0
 22 23  1  0  0  0  0
 22 24  1  0  0  0  0
 24 25  1  0  0  0  0
 24 26  1  0  0  0  0
 24 27  1  0  0  0  0
M  CHG  1  18  -1
M  END
$$$$

  -OEChem-04042215583D

 27 26  0     1  0  0  0  0  0999 V2000
   -2.5072   -4.0297    0.3811 H   0  0  0  0  0  0  0  0  0  0  0  0
   -2.4183   -3.1363   -0.2427 C   0  0  0  0  0  0  0  0  0  0  0  0
   -3.3802   -2.6190   -0.2658 H   0  0  0  0  0  0  0  0  0  0  0  0
   -2.1556   -3.4425   -1.2597 H   0  0  0  0  0  0  0  0  0  0  0  0
   -1.3454   -2.2135    0.3056 C   0  0  0  0  0  0  0  0  0  0  0  0
   -0.8803   -2.4217    1.4162 O   0  0  0  0  0  0  0  0  0  0  0  0
   -0.9740   -1.1112   -0.4339 N   0  0  0  0  0  0  0  0  0  0  0  0
   -1.3352   -1.1782   -1.3944 H   0  0  0  0  0  0  0  0  0  0  0  0
    0.3895   -0.5497   -0.4039 C   0  0  1  0  0  0  0  0  0  0  0  0
    1.1201   -1.2931   -0.7438 H   0  0  0  0  0  0  0  0  0  0  0  0
    0.3886    0.6868   -1.3334 C   0  0  0  0  0  0  0  0  0  0  0  0
   -0.4656    1.3242   -1.0827 H   0  0  0  0  0  0  0  0  0  0  0  0
    1.2933    1.2688   -1.1269 H   0  0  0  0  0  0  0  0  0  0  0  0
    0.3719    0.4000   -2.8573 C   0  0  0  0  0  0  0  0  0  0  0  0
   -0.5073    0.8829   -3.2942 H   0  0  0  0  0  0  0  0  0  0  0  0
    1.2507    0.8666   -3.3123 H   0  0  0  0  0  0  0  0  0  0  0  0
    0.3517   -1.0766   -3.2555 C   0  0  0  0  0  0  0  0  0  0  0  0
   -0.7674   -1.6533   -3.1863 O   0  5  0  0  0  0  0  0  0  0  0  0
    1.4304   -1.6398   -3.5519 O   0  0  0  0  0  0  0  0  0  0  0  0
    0.8424   -0.0801    0.9983 C   0  0  0  0  0  0  0  0  0  0  0  0
    2.0175   -0.1566    1.3414 O   0  0  0  0  0  0  0  0  0  0  0  0
   -0.0324    0.6576    1.7750 N   0  0  0  0  0  0  0  0  0  0  0  0
   -1.0084    0.5338    1.5245 H   0  0  0  0  0  0  0  0  0  0  0  0
    0.2877    1.0822    3.1290 C   0  0  0  0  0  0  0  0  0  0  0  0
    1.1692    1.7314    3.1294 H   0  0  0  0  0  0  0  0  0  0  0  0
   -0.5511    1.6403    3.5550 H   0  0  0  0  0  0  0  0  0  0  0  0
    0.4868    0.2125    3.7636 H   0  0  0  0  0  0  0  0  0  0  0  0
  1  2  1  0  0  0  0
  2  3  1  0  0  0  0
  2  4  1  0  0  0  0
  2  5  1  0  0  0  0
  5  6  2  0  0  0  0
  5  7  1  0  0  0  0
  7  8  1  0  0  0  0
  7  9  1  0  0  0  0
  9 10  1  0  0  0  0
  9 11  1  0  0  0  0
  9 20  1  0  0  0  0
 11 12  1  0  0  0  0
 11 13  1  0  0  0  0
 11 14  1  0  0  0  0
 14 15  1  0  0  0  0
 14 16  1  0  0  0  0
 14 17  1  0  0  0  0
 17 18  1  0  0  0  0
 17 19  2  0  0  0  0
 20 21  2  0  0  0  0
 20 22  1  0  0  0  0
 22 23  1  0  0  0  0
 22 24  1  0  0  0  0
 24 25  1  0  0  0  0
 24 26  1  0  0  0  0
 24 27  1  0  0  0  0
M  CHG  1  18  -1
M  END
$$$$

  -OEChem-04042215583D

 27 26  0     1  0  0  0  0  0999 V2000
   -2.5857   -3.9852    0.4515 H   0  0  0  0  0  0  0  0  0  0  0  0
   -2.4427   -3.1272   -0.2106 C   0  0  0  0  0  0  0  0  0  0  0  0
   -3.3704   -2.5518   -0.2547 H   0  0  0  0  0  0  0  0  0  0  0  0
   -2.2046   -3.4908   -1.2144 H   0  0  0  0  0  0  0  0  0  0  0  0
   -1.3124   -2.2496    0.2951 C   0  0  0  0  0  0  0  0  0  0  0  0
   -0.7763   -2.5072    1.3626 O   0  0  0  0  0  0  0  0  0  0  0  0
   -0.9633   -1.1324   -0.4316 N   0  0  0  0  0  0  0  0  0  0  0  0
   -1.3881   -1.1410   -1.3690 H   0  0  0  0  0  0  0  0  0  0  0  0
    0.3859   -0.5353   -0.4141 C   0  0  1  0  0  0  0  0  0  0  0  0
    1.1236   -1.2662   -0.7654 H   0  0  0  0  0  0  0  0  0  0  0  0
    0.3748    0.6950   -1.3524 C   0  0  0  0  0  0  0  0  0  0  0  0
   -0.5070    1.2996   -1.1167 H   0  0  0  0  0  0  0  0  0  0  0  0
    1.2533    1.3128   -1.1373 H   0  0  0  0  0  0  0  0  0  0  0  0
    0.3758    0.4013   -2.8757 C   0  0  0  0  0  0  0  0  0  0  0  0
   -0.3200    1.0851   -3.3703 H   0  0  0  0  0  0  0  0  0  0  0  0
    1.3736    0.6217   -3.2674 H   0  0  0  0  0  0  0  0  0  0  0  0
    0.0240   -1.0335   -3.2760 C   0  0  0  0  0  0  0  0  0  0  0  0
   -1.1925   -1.3550   -3.2029 O   0  5  0  0  0  0  0  0  0  0  0  0
    0.9533   -1.8221   -3.5643 O   0  0  0  0  0  0  0  0  0  0  0  0
    0.8422   -0.0677    0.9865 C   0  0  0  0  0  0  0  0  0  0  0  0
    2.0241   -0.1110    1.3118 O   0  0  0  0  0  0  0  0  0  0  0  0
   -0.0425    0.6387    1.7806 N   0  0  0  0  0  0  0  0  0  0  0  0
   -1.0181    0.5033    1.5344 H   0  0  0  0  0  0  0  0  0  0  0  0
    0.2814    1.0586    3.1352 C   0  0  0  0  0  0  0  0  0  0  0  0
    1.1445    1.7319    3.1320 H   0  0  0  0  0  0  0  0  0  0  0  0
   -0.5675    1.5887    3.5765 H   0  0  0  0  0  0  0  0  0  0  0  0
    0.5122    0.1886    3.7583 H   0  0  0  0  0  0  0  0  0  0  0  0
  1  2  1  0  0  0  0
  2  3  1  0  0  0  0
  2  4  1  0  0  0  0
  2  5  1  0  0  0  0
  5  6  2  0  0  0  0
  5  7  1  0  0  0  0
  7  8  1  0  0  0  0
  7  9  1  0  0  0  0
  9 10  1  0  0  0  0
  9 11  1  0  0  0  0
  9 20  1  0  0  0  0
 11 12  1  0  0  0  0
 11 13  1  0  0  0  0
 11 14  1  0  0  0  0
 14 15  1  0  0  0  0
 14 16  1  0  0  0  0
 14 17  1  0  0  0  0
 17 18  1  0  0  0  0
 17 19  2  0  0  0  0
 20 21  2  0  0  0  0
 20 22  1  0  0  0  0
 22 23  1  0  0  0  0
 22 24  1  0  0  0  0
 24 25  1  0  0  0  0
 24 26  1  0  0  0  0
 24 27  1  0  0  0  0
M  CHG  1  18  -1
M  END
$$$$

  -OEChem-04042215583D

 27 26  0     1  0  0  0  0  0999 V2000
   -2.5858   -3.9993    0.4142 H   0  0  0  0  0  0  0  0  0  0  0  0
   -2.4778   -3.1038   -0.2034 C   0  0  0  0  0  0  0  0  0  0  0  0
   -3.3990   -2.5189   -0.1495 H   0  0  0  0  0  0  0  0  0  0  0  0
   -2.3128   -3.4075   -1.2413 H   0  0  0  0  0  0  0  0  0  0  0  0
   -1.3045   -2.2683    0.2745 C   0  0  0  0  0  0  0  0  0  0  0  0
   -0.7118   -2.5804    1.2968 O   0  0  0  0  0  0  0  0  0  0  0  0
   -0.9623   -1.1390   -0.4356 N   0  0  0  0  0  0  0  0  0  0  0  0
   -1.4483   -1.0739   -1.3405 H   0  0  0  0  0  0  0  0  0  0  0  0
    0.3789   -0.5251   -0.4208 C   0  0  1  0  0  0  0  0  0  0  0  0
    1.1157   -1.2541   -0.7771 H   0  0  0  0  0  0  0  0  0  0  0  0
    0.3785    0.7007   -1.3646 C   0  0  0  0  0  0  0  0  0  0  0  0
   -0.5142    1.2962   -1.1475 H   0  0  0  0  0  0  0  0  0  0  0  0
    1.2472    1.3291   -1.1420 H   0  0  0  0  0  0  0  0  0  0  0  0
    0.4007    0.3918   -2.8834 C   0  0  0  0  0  0  0  0  0  0  0  0
   -0.0644    1.2210   -3.4242 H   0  0  0  0  0  0  0  0  0  0  0  0
    1.4457    0.3417   -3.2046 H   0  0  0  0  0  0  0  0  0  0  0  0
   -0.2773   -0.9158   -3.2995 C   0  0  0  0  0  0  0  0  0  0  0  0
   -1.5289   -0.9741   -3.1650 O   0  5  0  0  0  0  0  0  0  0  0  0
    0.4441   -1.8773   -3.6517 O   0  0  0  0  0  0  0  0  0  0  0  0
    0.8374   -0.0688    0.9817 C   0  0  0  0  0  0  0  0  0  0  0  0
    2.0223   -0.0999    1.2979 O   0  0  0  0  0  0  0  0  0  0  0  0
   -0.0525    0.6165    1.7880 N   0  0  0  0  0  0  0  0  0  0  0  0
   -1.0281    0.4875    1.5380 H   0  0  0  0  0  0  0  0  0  0  0  0
    0.2733    1.0420    3.1401 C   0  0  0  0  0  0  0  0  0  0  0  0
    1.1259    1.7286    3.1306 H   0  0  0  0  0  0  0  0  0  0  0  0
   -0.5808    1.5596    3.5865 H   0  0  0  0  0  0  0  0  0  0  0  0
    0.5213    0.1764    3.7629 H   0  0  0  0  0  0  0  0  0  0  0  0
  1  2  1  0  0  0  0
  2  3  1  0  0  0  0
  2  4  1  0  0  0  0
  2  5  1  0  0  0  0
  5  6  2  0  0  0  0
  5  7  1  0  0  0  0
  7  8  1  0  0  0  0
  7  9  1  0  0  0  0
  9 10  1  0  0  0  0
  9 11  1  0  0  0  0
  9 20  1  0  0  0  0
 11 12  1  0  0  0  0
 11 13  1  0  0  0  0
 11 14  1  0  0  0  0
 14 15  1  0  0  0  0
 14 16  1  0  0  0  0
 14 17  1  0  0  0  0
 17 18  1  0  0  0  0
 17 19  2  0  0  0  0
 20 21  2  0  0  0  0
 20 22  1  0  0  0  0
 22 23  1  0  0  0  0
 22 24  1  0  0  0  0
 24 25  1  0  0  0  0
 24 26  1  0  0  0  0
 24 27  1  0  0  0  0
M  CHG  1  18  -1
M  END
$$$$

  -OEChem-04042215583D

 27 26  0     1  0  0  0  0  0999 V2000
   -2.5640   -4.0176    0.3596 H   0  0  0  0  0  0  0  0  0  0  0  0
   -2.5038   -3.0736   -0.1885 C   0  0  0  0  0  0  0  0  0  0  0  0
   -3.4045   -2.4872    0.0081 H   0  0  0  0  0  0  0  0  0  0  0  0
   -2.4500   -3.2896   -1.2595 H   0  0  0  0  0  0  0  0  0  0  0  0
   -1.2739   -2.2927    0.2366 C   0  0  0  0  0  0  0  0  0  0  0  0
   -0.6196   -2.6635    1.2000 O   0  0  0  0  0  0  0  0  0  0  0  0
   -0.9404   -1.1491   -0.4536 N   0  0  0  0  0  0  0  0  0  0  0  0
   -1.4859   -1.0049   -1.3145 H   0  0  0  0  0  0  0  0  0  0  0  0
    0.3870   -0.5083   -0.4340 C   0  0  1  0  0  0  0  0  0  0  0  0
    1.1349   -1.2230   -0.7945 H   0  0  0  0  0  0  0  0  0  0  0  0
    0.3718    0.7195   -1.3742 C   0  0  0  0  0  0  0  0  0  0  0  0
   -0.5275    1.3082   -1.1642 H   0  0  0  0  0  0  0  0  0  0  0  0
    1.2354    1.3545   -1.1504 H   0  0  0  0  0  0  0  0  0  0  0  0
    0.4104    0.3950   -2.8879 C   0  0  0  0  0  0  0  0  0  0  0  0
    0.1715    1.3017   -3.4507 H   0  0  0  0  0  0  0  0  0  0  0  0
    1.4328    0.1067   -3.1508 H   0  0  0  0  0  0  0  0  0  0  0  0
   -0.5337   -0.7230   -3.3392 C   0  0  0  0  0  0  0  0  0  0  0  0
   -1.7567   -0.5889   -3.0678 O   0  5  0  0  0  0  0  0  0  0  0  0
   -0.0343   -1.7427   -3.8684 O   0  0  0  0  0  0  0  0  0  0  0  0
    0.8361   -0.0608    0.9733 C   0  0  0  0  0  0  0  0  0  0  0  0
    2.0206   -0.0827    1.2919 O   0  0  0  0  0  0  0  0  0  0  0  0
   -0.0658    0.5957    1.7899 N   0  0  0  0  0  0  0  0  0  0  0  0
   -1.0390    0.4751    1.5265 H   0  0  0  0  0  0  0  0  0  0  0  0
    0.2490    0.9999    3.1512 C   0  0  0  0  0  0  0  0  0  0  0  0
    1.1000    1.6886    3.1600 H   0  0  0  0  0  0  0  0  0  0  0  0
   -0.6095    1.5078    3.6000 H   0  0  0  0  0  0  0  0  0  0  0  0
    0.4944    0.1244    3.7609 H   0  0  0  0  0  0  0  0  0  0  0  0
  1  2  1  0  0  0  0
  2  3  1  0  0  0  0
  2  4  1  0  0  0  0
  2  5  1  0  0  0  0
  5  6  2  0  0  0  0
  5  7  1  0  0  0  0
  7  8  1  0  0  0  0
  7  9  1  0  0  0  0
  9 10  1  0  0  0  0
  9 11  1  0  0  0  0
  9 20  1  0  0  0  0
 11 12  1  0  0  0  0
 11 13  1  0  0  0  0
 11 14  1  0  0  0  0
 14 15  1  0  0  0  0
 14 16  1  0  0  0  0
 14 17  1  0  0  0  0
 17 18  1  0  0  0  0
 17 19  2  0  0  0  0
 20 21  2  0  0  0  0
 20 22  1  0  0  0  0
 22 23  1  0  0  0  0
 22 24  1  0  0  0  0
 24 25  1  0  0  0  0
 24 26  1  0  0  0  0
 24 27  1  0  0  0  0
M  CHG  1  18  -1
M  END
$$$$

  -OEChem-04042215583D

 27 26  0     1  0  0  0  0  0999 V2000
   -2.6033   -3.9775    0.3569 H   0  0  0  0  0  0  0  0  0  0  0  0
   -2.5280   -3.0275   -0.1787 C   0  0  0  0  0  0  0  0  0  0  0  0
   -3.3885   -2.4043    0.0760 H   0  0  0  0  0  0  0  0  0  0  0  0
   -2.5420   -3.2259   -1.2541 H   0  0  0  0  0  0  0  0  0  0  0  0
   -1.2429   -2.3109    0.1923 C   0  0  0  0  0  0  0  0  0  0  0  0
   -0.5417   -2.7431    1.0949 O   0  0  0  0  0  0  0  0  0  0  0  0
   -0.9044   -1.1581   -0.4789 N   0  0  0  0  0  0  0  0  0  0  0  0
   -1.4996   -0.9324   -1.2880 H   0  0  0  0  0  0  0  0  0  0  0  0
    0.4125   -0.5001   -0.4445 C   0  0  1  0  0  0  0  0  0  0  0  0
    1.1744   -1.1983   -0.8064 H   0  0  0  0  0  0  0  0  0  0  0  0
    0.3708    0.7324   -1.3748 C   0  0  0  0  0  0  0  0  0  0  0  0
   -0.5288    1.3198   -1.1621 H   0  0  0  0  0  0  0  0  0  0  0  0
    1.2338    1.3693   -1.1548 H   0  0  0  0  0  0  0  0  0  0  0  0
    0.4178    0.3894   -2.8827 C   0  0  0  0  0  0  0  0  0  0  0  0
    0.4030    1.3231   -3.4517 H   0  0  0  0  0  0  0  0  0  0  0  0
    1.3652   -0.1138   -3.0984 H   0  0  0  0  0  0  0  0  0  0  0  0
   -0.7357   -0.4886   -3.3836 C   0  0  0  0  0  0  0  0  0  0  0  0
   -1.8901   -0.2594   -2.9332 O   0  5  0  0  0  0  0  0  0  0  0  0
   -0.4567   -1.4279   -4.1640 O   0  0  0  0  0  0  0  0  0  0  0  0
    0.8412   -0.0605    0.9709 C   0  0  0  0  0  0  0  0  0  0  0  0
    2.0205   -0.0858    1.3075 O   0  0  0  0  0  0  0  0  0  0  0  0
   -0.0777    0.5752    1.7848 N   0  0  0  0  0  0  0  0  0  0  0  0
   -1.0457    0.4770    1.4938 H   0  0  0  0  0  0  0  0  0  0  0  0
    0.2116    0.9695    3.1545 C   0  0  0  0  0  0  0  0  0  0  0  0
    1.0610    1.6595    3.1838 H   0  0  0  0  0  0  0  0  0  0  0  0
   -0.6560    1.4726    3.5911 H   0  0  0  0  0  0  0  0  0  0  0  0
    0.4479    0.0899    3.7621 H   0  0  0  0  0  0  0  0  0  0  0  0
  1  2  1  0  0  0  0
  2  3  1  0  0  0  0
  2  4  1  0  0  0  0
  2  5  1  0  0  0  0
  5  6  2  0  0  0  0
  5  7  1  0  0  0  0
  7  8  1  0  0  0  0
  7  9  1  0  0  0  0
  9 10  1  0  0  0  0
  9 11  1  0  0  0  0
  9 20  1  0  0  0  0
 11 12  1  0  0  0  0
 11 13  1  0  0  0  0
 11 14  1  0  0  0  0
 14 15  1  0  0  0  0
 14 16  1  0  0  0  0
 14 17  1  0  0  0  0
 17 18  1  0  0  0  0
 17 19  2  0  0  0  0
 20 21  2  0  0  0  0
 20 22  1  0  0  0  0
 22 23  1  0  0  0  0
 22 24  1  0  0  0  0
 24 25  1  0  0  0  0
 24 26  1  0  0  0  0
 24 27  1  0  0  0  0
M  CHG  1  18  -1
M  END
$$$$

  -OEChem-04042215583D

 27 26  0     1  0  0  0  0  0999 V2000
   -2.6463   -3.9359    0.3517 H   0  0  0  0  0  0  0  0  0  0  0  0
   -2.5499   -2.9864   -0.1815 C   0  0  0  0  0  0  0  0  0  0  0  0
   -3.3808   -2.3340    0.0978 H   0  0  0  0  0  0  0  0  0  0  0  0
   -2.5983   -3.1780   -1.2571 H   0  0  0  0  0  0  0  0  0  0  0  0
   -1.2316   -2.3174    0.1613 C   0  0  0  0  0  0  0  0  0  0  0  0
   -0.5091   -2.7952    1.0231 O   0  0  0  0  0  0  0  0  0  0  0  0
   -0.8792   -1.1618   -0.4968 N   0  0  0  0  0  0  0  0  0  0  0  0
   -1.5001   -0.8770   -1.2672 H   0  0  0  0  0  0  0  0  0  0  0  0
    0.4334   -0.5009   -0.4441 C   0  0  1  0  0  0  0  0  0  0  0  0
    1.2052   -1.1890   -0.8033 H   0  0  0  0  0  0  0  0  0  0  0  0
    0.3698    0.7336   -1.3674 C   0  0  0  0  0  0  0  0  0  0  0  0
   -0.5218    1.3311   -1.1484 H   0  0  0  0  0  0  0  0  0  0  0  0
    1.2389    1.3649   -1.1545 H   0  0  0  0  0  0  0  0  0  0  0  0
    0.4216    0.3711   -2.8704 C   0  0  0  0  0  0  0  0  0  0  0  0
    0.6405    1.2839   -3.4313 H   0  0  0  0  0  0  0  0  0  0  0  0
    1.2445   -0.3286   -3.0435 H   0  0  0  0  0  0  0  0  0  0  0  0
   -0.8718   -0.2207   -3.4520 C   0  0  0  0  0  0  0  0  0  0  0  0
   -1.9513   -0.0721   -2.8181 O   0  5  0  0  0  0  0  0  0  0  0  0
   -0.7668   -0.8626   -4.5228 O   0  0  0  0  0  0  0  0  0  0  0  0
    0.8438   -0.0655    0.9776 C   0  0  0  0  0  0  0  0  0  0  0  0
    2.0179   -0.0995    1.3310 O   0  0  0  0  0  0  0  0  0  0  0  0
   -0.0846    0.5648    1.7851 N   0  0  0  0  0  0  0  0  0  0  0  0
   -1.0485    0.4937    1.4729 H   0  0  0  0  0  0  0  0  0  0  0  0
    0.1899    0.9683    3.1553 C   0  0  0  0  0  0  0  0  0  0  0  0
    1.0352    1.6630    3.1885 H   0  0  0  0  0  0  0  0  0  0  0  0
   -0.6843    1.4693    3.5812 H   0  0  0  0  0  0  0  0  0  0  0  0
    0.4247    0.0934    3.7699 H   0  0  0  0  0  0  0  0  0  0  0  0
  1  2  1  0  0  0  0
  2  3  1  0  0  0  0
  2  4  1  0  0  0  0
  2  5  1  0  0  0  0
  5  6  2  0  0  0  0
  5  7  1  0  0  0  0
  7  8  1  0  0  0  0
  7  9  1  0  0  0  0
  9 10  1  0  0  0  0
  9 11  1  0  0  0  0
  9 20  1  0  0  0  0
 11 12  1  0  0  0  0
 11 13  1  0  0  0  0
 11 14  1  0  0  0  0
 14 15  1  0  0  0  0
 14 16  1  0  0  0  0
 14 17  1  0  0  0  0
 17 18  1  0  0  0  0
 17 19  2  0  0  0  0
 20 21  2  0  0  0  0
 20 22  1  0  0  0  0
 22 23  1  0  0  0  0
 22 24  1  0  0  0  0
 24 25  1  0  0  0  0
 24 26  1  0  0  0  0
 24 27  1  0  0  0  0
M  CHG  1  18  -1
M  END
$$$$

  -OEChem-04042215583D

 27 26  0     1  0  0  0  0  0999 V2000
   -2.6758   -3.9219    0.3761 H   0  0  0  0  0  0  0  0  0  0  0  0
   -2.5725   -2.9769   -0.1636 C   0  0  0  0  0  0  0  0  0  0  0  0
   -3.3985   -2.3167    0.1119 H   0  0  0  0  0  0  0  0  0  0  0  0
   -2.6231   -3.1752   -1.2378 H   0  0  0  0  0  0  0  0  0  0  0  0
   -1.2487   -2.3161    0.1746 C   0  0  0  0  0  0  0  0  0  0  0  0
   -0.5281   -2.7977    1.0357 O   0  0  0  0  0  0  0  0  0  0  0  0
   -0.8851   -1.1688   -0.4918 N   0  0  0  0  0  0  0  0  0  0  0  0
   -1.4903   -0.8985   -1.2797 H   0  0  0  0  0  0  0  0  0  0  0  0
    0.4309   -0.5180   -0.4392 C   0  0  1  0  0  0  0  0  0  0  0  0
    1.1994   -1.2151   -0.7871 H   0  0  0  0  0  0  0  0  0  0  0  0
    0.3852    0.7139   -1.3687 C   0  0  0  0  0  0  0  0  0  0  0  0
   -0.4968    1.3274   -1.1550 H   0  0  0  0  0  0  0  0  0  0  0  0
    1.2642    1.3301   -1.1518 H   0  0  0  0  0  0  0  0  0  0  0  0
    0.4394    0.3513   -2.8721 C   0  0  0  0  0  0  0  0  0  0  0  0
    0.9267    1.1784   -3.3970 H   0  0  0  0  0  0  0  0  0  0  0  0
    1.0597   -0.5379   -3.0155 H   0  0  0  0  0  0  0  0  0  0  0  0
   -0.9235    0.1207   -3.5469 C   0  0  0  0  0  0  0  0  0  0  0  0
   -1.9207   -0.1803   -2.8375 O   0  5  0  0  0  0  0  0  0  0  0  0
   -0.9524    0.2201   -4.7961 O   0  0  0  0  0  0  0  0  0  0  0  0
    0.8370   -0.0745    0.9814 C   0  0  0  0  0  0  0  0  0  0  0  0
    2.0090   -0.1156    1.3408 O   0  0  0  0  0  0  0  0  0  0  0  0
   -0.0905    0.5691    1.7792 N   0  0  0  0  0  0  0  0  0  0  0  0
   -1.0531    0.5101    1.4608 H   0  0  0  0  0  0  0  0  0  0  0  0
    0.1840    1.0004    3.1408 C   0  0  0  0  0  0  0  0  0  0  0  0
    1.0296    1.6956    3.1596 H   0  0  0  0  0  0  0  0  0  0  0  0
   -0.6901    1.5101    3.5564 H   0  0  0  0  0  0  0  0  0  0  0  0
    0.4191    0.1385    3.7732 H   0  0  0  0  0  0  0  0  0  0  0  0
  1  2  1  0  0  0  0
  2  3  1  0  0  0  0
  2  4  1  0  0  0  0
  2  5  1  0  0  0  0
  5  6  2  0  0  0  0
  5  7  1  0  0  0  0
  7  8  1  0  0  0  0
  7  9  1  0  0  0  0
  9 10  1  0  0  0  0
  9 11  1  0  0  0  0
  9 20  1  0  0  0  0
 11 12  1  0  0  0  0
 11 13  1  0  0  0  0
 11 14  1  0  0  0  0
 14 15  1  0  0  0  0
 14 16  1  0  0  0  0
 14 17  1  0  0  0  0
 17 18  1  0  0  0  0
 17 19  2  0  0  0  0
 20 21  2  0  0  0  0
 20 22  1  0  0  0  0
 22 23  1  0  0  0  0
 22 24  1  0  0  0  0
 24 25  1  0  0  0  0
 24 26  1  0  0  0  0
 24 27  1  0  0  0  0
M  CHG  1  18  -1
M  END
$$$$

  -OEChem-04042215583D

 27 26  0     1  0  0  0  0  0999 V2000
   -2.6976   -3.8927    0.2877 H   0  0  0  0  0  0  0  0  0  0  0  0
   -2.5781   -2.9432   -0.2407 C   0  0  0  0  0  0  0  0  0  0  0  0
   -3.4173   -2.2887    0.0069 H   0  0  0  0  0  0  0  0  0  0  0  0
   -2.5861   -3.1338   -1.3175 H   0  0  0  0  0  0  0  0  0  0  0  0
   -1.2716   -2.2783    0.1528 C   0  0  0  0  0  0  0  0  0  0  0  0
   -0.5949   -2.7471    1.0557 O   0  0  0  0  0  0  0  0  0  0  0  0
   -0.8729   -1.1440   -0.5157 N   0  0  0  0  0  0  0  0  0  0  0  0
   -1.4272   -0.9086   -1.3525 H   0  0  0  0  0  0  0  0  0  0  0  0
    0.4578   -0.5216   -0.4347 C   0  0  1  0  0  0  0  0  0  0  0  0
    1.2253   -1.2248   -0.7725 H   0  0  0  0  0  0  0  0  0  0  0  0
    0.3980    0.6986   -1.3698 C   0  0  0  0  0  0  0  0  0  0  0  0
   -0.4883    1.3091   -1.1622 H   0  0  0  0  0  0  0  0  0  0  0  0
    1.2727    1.3267   -1.1702 H   0  0  0  0  0  0  0  0  0  0  0  0
    0.4500    0.2804   -2.8550 C   0  0  0  0  0  0  0  0  0  0  0  0
    1.1437    0.9403   -3.3851 H   0  0  0  0  0  0  0  0  0  0  0  0
    0.8222   -0.7421   -2.9673 H   0  0  0  0  0  0  0  0  0  0  0  0
   -0.9319    0.3969   -3.5054 C   0  0  0  0  0  0  0  0  0  0  0  0
   -1.8517   -0.3139   -3.0165 O   0  5  0  0  0  0  0  0  0  0  0  0
   -1.0771    1.1924   -4.4633 O   0  0  0  0  0  0  0  0  0  0  0  0
    0.8511   -0.0721    0.9872 C   0  0  0  0  0  0  0  0  0  0  0  0
    2.0153   -0.1425    1.3664 O   0  0  0  0  0  0  0  0  0  0  0  0
   -0.0723    0.6025    1.7637 N   0  0  0  0  0  0  0  0  0  0  0  0
   -1.0311    0.5673    1.4305 H   0  0  0  0  0  0  0  0  0  0  0  0
    0.1942    1.0489    3.1218 C   0  0  0  0  0  0  0  0  0  0  0  0
    1.0545    1.7257    3.1405 H   0  0  0  0  0  0  0  0  0  0  0  0
   -0.6737    1.5840    3.5178 H   0  0  0  0  0  0  0  0  0  0  0  0
    0.4022    0.1920    3.7706 H   0  0  0  0  0  0  0  0  0  0  0  0
  1  2  1  0  0  0  0
  2  3  1  0  0  0  0
  2  4  1  0  0  0  0
  2  5  1  0  0  0  0
  5  6  2  0  0  0  0
  5  7  1  0  0  0  0
  7  8  1  0  0  0  0
  7  9  1  0  0  0  0
  9 10  1  0  0  0  0
  9 11  1  0  0  0  0
  9 20  1  0  0  0  0
 11 12  1  0  0  0  0
 11 13  1  0  0  0  0
 11 14  1  0  0  0  0
 14 15  1  0  0  0  0
 14 16  1  0  0  0  0
 14 17  1  0  0  0  0
 17 18  1  0  0  0  0
 17 19  2  0  0  0  0
 20 21  2  0  0  0  0
 20 22  1  0  0  0  0
 22 23  1  0  0  0  0
 22 24  1  0  0  0  0
 24 25  1  0  0  0  0
 24 26  1  0  0  0  0
 24 27  1  0  0  0  0
M  CHG  1  18  -1
M  END
$$$$

  -OEChem-04042215583D

 27 26  0     1  0  0  0  0  0999 V2000
   -2.7340   -3.8280    0.2480 H   0  0  0  0  0  0  0  0  0  0  0  0
   -2.5846   -2.8837   -0.2822 C   0  0  0  0  0  0  0  0  0  0  0  0
   -3.3973   -2.1994   -0.0267 H   0  0  0  0  0  0  0  0  0  0  0  0
   -2.6099   -3.0747   -1.3585 H   0  0  0  0  0  0  0  0  0  0  0  0
   -1.2513   -2.2672    0.1001 C   0  0  0  0  0  0  0  0  0  0  0  0
   -0.5722   -2.7758    0.9787 O   0  0  0  0  0  0  0  0  0  0  0  0
   -0.8291   -1.1303   -0.5499 N   0  0  0  0  0  0  0  0  0  0  0  0
   -1.3974   -0.8301   -1.3554 H   0  0  0  0  0  0  0  0  0  0  0  0
    0.5045   -0.5125   -0.4347 C   0  0  1  0  0  0  0  0  0  0  0  0
    1.2851   -1.1977   -0.7799 H   0  0  0  0  0  0  0  0  0  0  0  0
    0.3891    0.7015   -1.3611 C   0  0  0  0  0  0  0  0  0  0  0  0
   -0.5167    1.2788   -1.1396 H   0  0  0  0  0  0  0  0  0  0  0  0
    1.2399    1.3673   -1.1818 H   0  0  0  0  0  0  0  0  0  0  0  0
    0.4414    0.2458   -2.8345 C   0  0  0  0  0  0  0  0  0  0  0  0
    1.2879    0.7242   -3.3362 H   0  0  0  0  0  0  0  0  0  0  0  0
    0.5753   -0.8363   -2.9257 H   0  0  0  0  0  0  0  0  0  0  0  0
   -0.8553    0.6513   -3.5272 C   0  0  0  0  0  0  0  0  0  0  0  0
   -1.8942    0.0892   -3.0821 O   0  5  0  0  0  0  0  0  0  0  0  0
   -0.8307    1.4949   -4.4541 O   0  0  0  0  0  0  0  0  0  0  0  0
    0.8787   -0.0699    0.9943 C   0  0  0  0  0  0  0  0  0  0  0  0
    2.0332   -0.1637    1.3968 O   0  0  0  0  0  0  0  0  0  0  0  0
   -0.0514    0.6074    1.7606 N   0  0  0  0  0  0  0  0  0  0  0  0
   -1.0021    0.6023    1.4036 H   0  0  0  0  0  0  0  0  0  0  0  0
    0.1954    1.0444    3.1257 C   0  0  0  0  0  0  0  0  0  0  0  0
    1.0601    1.7149    3.1633 H   0  0  0  0  0  0  0  0  0  0  0  0
   -0.6753    1.5834    3.5104 H   0  0  0  0  0  0  0  0  0  0  0  0
    0.3861    0.1823    3.7728 H   0  0  0  0  0  0  0  0  0  0  0  0
  1  2  1  0  0  0  0
  2  3  1  0  0  0  0
  2  4  1  0  0  0  0
  2  5  1  0  0  0  0
  5  6  2  0  0  0  0
  5  7  1  0  0  0  0
  7  8  1  0  0  0  0
  7  9  1  0  0  0  0
  9 10  1  0  0  0  0
  9 11  1  0  0  0  0
  9 20  1  0  0  0  0
 11 12  1  0  0  0  0
 11 13  1  0  0  0  0
 11 14  1  0  0  0  0
 14 15  1  0  0  0  0
 14 16  1  0  0  0  0
 14 17  1  0  0  0  0
 17 18  1  0  0  0  0
 17 19  2  0  0  0  0
 20 21  2  0  0  0  0
 20 22  1  0  0  0  0
 22 23  1  0  0  0  0
 22 24  1  0  0  0  0
 24 25  1  0  0  0  0
 24 26  1  0  0  0  0
 24 27  1  0  0  0  0
M  CHG  1  18  -1
M  END
$$$$

  -OEChem-04042215583D

 27 26  0     1  0  0  0  0  0999 V2000
   -2.7552   -3.8158    0.3166 H   0  0  0  0  0  0  0  0  0  0  0  0
   -2.6004   -2.8881   -0.2410 C   0  0  0  0  0  0  0  0  0  0  0  0
   -3.3967   -2.1844    0.0140 H   0  0  0  0  0  0  0  0  0  0  0  0
   -2.6503   -3.1065   -1.3109 H   0  0  0  0  0  0  0  0  0  0  0  0
   -1.2491   -2.2863    0.1004 C   0  0  0  0  0  0  0  0  0  0  0  0
   -0.5433   -2.8135    0.9453 O   0  0  0  0  0  0  0  0  0  0  0  0
   -0.8391   -1.1438   -0.5500 N   0  0  0  0  0  0  0  0  0  0  0  0
   -1.4298   -0.8157   -1.3203 H   0  0  0  0  0  0  0  0  0  0  0  0
    0.4937   -0.5227   -0.4414 C   0  0  1  0  0  0  0  0  0  0  0  0
    1.2720   -1.2070   -0.7941 H   0  0  0  0  0  0  0  0  0  0  0  0
    0.3905    0.6968   -1.3624 C   0  0  0  0  0  0  0  0  0  0  0  0
   -0.5264    1.2559   -1.1408 H   0  0  0  0  0  0  0  0  0  0  0  0
    1.2294    1.3754   -1.1745 H   0  0  0  0  0  0  0  0  0  0  0  0
    0.4439    0.2591   -2.8409 C   0  0  0  0  0  0  0  0  0  0  0  0
    1.4294    0.4872   -3.2579 H   0  0  0  0  0  0  0  0  0  0  0  0
    0.2864   -0.8182   -2.9482 H   0  0  0  0  0  0  0  0  0  0  0  0
   -0.6388    0.9834   -3.6324 C   0  0  0  0  0  0  0  0  0  0  0  0
   -1.8206    0.6379   -3.3651 O   0  5  0  0  0  0  0  0  0  0  0  0
   -0.3135    1.8608   -4.4670 O   0  0  0  0  0  0  0  0  0  0  0  0
    0.8760   -0.0858    0.9877 C   0  0  0  0  0  0  0  0  0  0  0  0
    2.0297   -0.1930    1.3880 O   0  0  0  0  0  0  0  0  0  0  0  0
   -0.0493    0.5855    1.7652 N   0  0  0  0  0  0  0  0  0  0  0  0
   -0.9961    0.6207    1.4007 H   0  0  0  0  0  0  0  0  0  0  0  0
    0.2130    1.0402    3.1217 C   0  0  0  0  0  0  0  0  0  0  0  0
    1.0682    1.7234    3.1385 H   0  0  0  0  0  0  0  0  0  0  0  0
   -0.6595    1.5703    3.5149 H   0  0  0  0  0  0  0  0  0  0  0  0
    0.4268    0.1879    3.7747 H   0  0  0  0  0  0  0  0  0  0  0  0
  1  2  1  0  0  0  0
  2  3  1  0  0  0  0
  2  4  1  0  0  0  0
  2  5  1  0  0  0  0
  5  6  2  0  0  0  0
  5  7  1  0  0  0  0
  7  8  1  0  0  0  0
  7  9  1  0  0  0  0
  9 10  1  0  0  0  0
  9 11  1  0  0  0  0
  9 20  1  0  0  0  0
 11 12  1  0  0  0  0
 11 13  1  0  0  0  0
 11 14  1  0  0  0  0
 14 15  1  0  0  0  0
 14 16  1  0  0  0  0
 14 17  1  0  0  0  0
 17 18  1  0  0  0  0
 17 19  2  0  0  0  0
 20 21  2  0  0  0  0
 20 22  1  0  0  0  0
 22 23  1  0  0  0  0
 22 24  1  0  0  0  0
 24 25  1  0  0  0  0
 24 26  1  0  0  0  0
 24 27  1  0  0  0  0
M  CHG  1  18  -1
M  END
$$$$

  -OEChem-04042215583D

 27 26  0     1  0  0  0  0  0999 V2000
   -2.7651   -3.8251    0.3795 H   0  0  0  0  0  0  0  0  0  0  0  0
   -2.6104   -2.9131   -0.2039 C   0  0  0  0  0  0  0  0  0  0  0  0
   -3.4015   -2.1994    0.0393 H   0  0  0  0  0  0  0  0  0  0  0  0
   -2.6695   -3.1602   -1.2670 H   0  0  0  0  0  0  0  0  0  0  0  0
   -1.2539   -2.3087    0.1117 C   0  0  0  0  0  0  0  0  0  0  0  0
   -0.5311   -2.8376    0.9398 O   0  0  0  0  0  0  0  0  0  0  0  0
   -0.8600   -1.1623   -0.5435 N   0  0  0  0  0  0  0  0  0  0  0  0
   -1.4648   -0.8325   -1.2967 H   0  0  0  0  0  0  0  0  0  0  0  0
    0.4711   -0.5360   -0.4497 C   0  0  1  0  0  0  0  0  0  0  0  0
    1.2449   -1.2232   -0.8074 H   0  0  0  0  0  0  0  0  0  0  0  0
    0.3905    0.6918   -1.3658 C   0  0  0  0  0  0  0  0  0  0  0  0
   -0.5303    1.2462   -1.1502 H   0  0  0  0  0  0  0  0  0  0  0  0
    1.2288    1.3680   -1.1653 H   0  0  0  0  0  0  0  0  0  0  0  0
    0.4427    0.2799   -2.8492 C   0  0  0  0  0  0  0  0  0  0  0  0
    1.4831    0.2297   -3.1838 H   0  0  0  0  0  0  0  0  0  0  0  0
    0.0035   -0.7108   -2.9968 H   0  0  0  0  0  0  0  0  0  0  0  0
   -0.3407    1.2730   -3.7020 C   0  0  0  0  0  0  0  0  0  0  0  0
   -1.5942    1.1995   -3.6214 O   0  5  0  0  0  0  0  0  0  0  0  0
    0.2892    2.0975   -4.4066 O   0  0  0  0  0  0  0  0  0  0  0  0
    0.8661   -0.1015    0.9774 C   0  0  0  0  0  0  0  0  0  0  0  0
    2.0221   -0.2133    1.3687 O   0  0  0  0  0  0  0  0  0  0  0  0
   -0.0523    0.5639    1.7683 N   0  0  0  0  0  0  0  0  0  0  0  0
   -0.9964    0.6312    1.4027 H   0  0  0  0  0  0  0  0  0  0  0  0
    0.2336    1.0429    3.1115 C   0  0  0  0  0  0  0  0  0  0  0  0
    1.0632    1.7570    3.0944 H   0  0  0  0  0  0  0  0  0  0  0  0
   -0.6458    1.5444    3.5261 H   0  0  0  0  0  0  0  0  0  0  0  0
    0.4983    0.2062    3.7660 H   0  0  0  0  0  0  0  0  0  0  0  0
  1  2  1  0  0  0  0
  2  3  1  0  0  0  0
  2  4  1  0  0  0  0
  2  5  1  0  0  0  0
  5  6  2  0  0  0  0
  5  7  1  0  0  0  0
  7  8  1  0  0  0  0
  7  9  1  0  0  0  0
  9 10  1  0  0  0  0
  9 11  1  0  0  0  0
  9 20  1  0  0  0  0
 11 12  1  0  0  0  0
 11 13  1  0  0  0  0
 11 14  1  0  0  0  0
 14 15  1  0  0  0  0
 14 16  1  0  0  0  0
 14 17  1  0  0  0  0
 17 18  1  0  0  0  0
 17 19  2  0  0  0  0
 20 21  2  0  0  0  0
 20 22  1  0  0  0  0
 22 23  1  0  0  0  0
 22 24  1  0  0  0  0
 24 25  1  0  0  0  0
 24 26  1  0  0  0  0
 24 27  1  0  0  0  0
M  CHG  1  18  -1
M  END
$$$$

  -OEChem-04042215583D

 27 26  0     1  0  0  0  0  0999 V2000
   -2.7740   -3.8213    0.4161 H   0  0  0  0  0  0  0  0  0  0  0  0
   -2.6156   -2.9245   -0.1894 C   0  0  0  0  0  0  0  0  0  0  0  0
   -3.4031   -2.2016    0.0380 H   0  0  0  0  0  0  0  0  0  0  0  0
   -2.6771   -3.1969   -1.2460 H   0  0  0  0  0  0  0  0  0  0  0  0
   -1.2553   -2.3207    0.1106 C   0  0  0  0  0  0  0  0  0  0  0  0
   -0.5205   -2.8574    0.9225 O   0  0  0  0  0  0  0  0  0  0  0  0
   -0.8719   -1.1690   -0.5426 N   0  0  0  0  0  0  0  0  0  0  0  0
   -1.4847   -0.8370   -1.2858 H   0  0  0  0  0  0  0  0  0  0  0  0
    0.4590   -0.5411   -0.4560 C   0  0  1  0  0  0  0  0  0  0  0  0
    1.2299   -1.2290   -0.8189 H   0  0  0  0  0  0  0  0  0  0  0  0
    0.3871    0.6946   -1.3653 C   0  0  0  0  0  0  0  0  0  0  0  0
   -0.5291    1.2569   -1.1520 H   0  0  0  0  0  0  0  0  0  0  0  0
    1.2330    1.3598   -1.1595 H   0  0  0  0  0  0  0  0  0  0  0  0
    0.4356    0.2972   -2.8510 C   0  0  0  0  0  0  0  0  0  0  0  0
    1.4501   -0.0129   -3.1193 H   0  0  0  0  0  0  0  0  0  0  0  0
   -0.2313   -0.5471   -3.0468 H   0  0  0  0  0  0  0  0  0  0  0  0
   -0.0047    1.4641   -3.7311 C   0  0  0  0  0  0  0  0  0  0  0  0
   -1.2358    1.7199   -3.7435 O   0  5  0  0  0  0  0  0  0  0  0  0
    0.8673    2.0925   -4.3777 O   0  0  0  0  0  0  0  0  0  0  0  0
    0.8617   -0.1158    0.9724 C   0  0  0  0  0  0  0  0  0  0  0  0
    2.0174   -0.2383    1.3610 O   0  0  0  0  0  0  0  0  0  0  0  0
   -0.0526    0.5424    1.7743 N   0  0  0  0  0  0  0  0  0  0  0  0
   -0.9921    0.6386    1.4040 H   0  0  0  0  0  0  0  0  0  0  0  0
    0.2473    1.0349    3.1098 C   0  0  0  0  0  0  0  0  0  0  0  0
    1.0439    1.7847    3.0701 H   0  0  0  0  0  0  0  0  0  0  0  0
   -0.6421    1.4972    3.5478 H   0  0  0  0  0  0  0  0  0  0  0  0
    0.5654    0.2122    3.7582 H   0  0  0  0  0  0  0  0  0  0  0  0
  1  2  1  0  0  0  0
  2  3  1  0  0  0  0
  2  4  1  0  0  0  0
  2  5  1  0  0  0  0
  5  6  2  0  0  0  0
  5  7  1  0  0  0  0
  7  8  1  0  0  0  0
  7  9  1  0  0  0  0
  9 10  1  0  0  0  0
  9 11  1  0  0  0  0
  9 20  1  0  0  0  0
 11 12  1  0  0  0  0
 11 13  1  0  0  0  0
 11 14  1  0  0  0  0
 14 15  1  0  0  0  0
 14 16  1  0  0  0  0
 14 17  1  0  0  0  0
 17 18  1  0  0  0  0
 17 19  2  0  0  0  0
 20 21  2  0  0  0  0
 20 22  1  0  0  0  0
 22 23  1  0  0  0  0
 22 24  1  0  0  0  0
 24 25  1  0  0  0  0
 24 26  1  0  0  0  0
 24 27  1  0  0  0  0
M  CHG  1  18  -1
M  END
$$$$

  -OEChem-04042215583D

 27 26  0     1  0  0  0  0  0999 V2000
   -2.7653   -3.8457    0.4472 H   0  0  0  0  0  0  0  0  0  0  0  0
   -2.6231   -2.9456   -0.1575 C   0  0  0  0  0  0  0  0  0  0  0  0
   -3.4083   -2.2270    0.0902 H   0  0  0  0  0  0  0  0  0  0  0  0
   -2.7062   -3.2136   -1.2139 H   0  0  0  0  0  0  0  0  0  0  0  0
   -1.2593   -2.3373    0.1173 C   0  0  0  0  0  0  0  0  0  0  0  0
   -0.5059   -2.8741    0.9117 O   0  0  0  0  0  0  0  0  0  0  0  0
   -0.8964   -1.1785   -0.5355 N   0  0  0  0  0  0  0  0  0  0  0  0
   -1.5257   -0.8438   -1.2617 H   0  0  0  0  0  0  0  0  0  0  0  0
    0.4286   -0.5371   -0.4624 C   0  0  1  0  0  0  0  0  0  0  0  0
    1.1921   -1.2303   -0.8309 H   0  0  0  0  0  0  0  0  0  0  0  0
    0.3797    0.6972   -1.3788 C   0  0  0  0  0  0  0  0  0  0  0  0
   -0.3789    1.3989   -1.0149 H   0  0  0  0  0  0  0  0  0  0  0  0
    1.3474    1.2098   -1.3422 H   0  0  0  0  0  0  0  0  0  0  0  0
    0.0706    0.3258   -2.8419 C   0  0  0  0  0  0  0  0  0  0  0  0
    0.8373   -0.3588   -3.2168 H   0  0  0  0  0  0  0  0  0  0  0  0
   -0.8953   -0.1793   -2.9210 H   0  0  0  0  0  0  0  0  0  0  0  0
    0.0279    1.5738   -3.7202 C   0  0  0  0  0  0  0  0  0  0  0  0
   -0.9886    2.3045   -3.6105 O   0  5  0  0  0  0  0  0  0  0  0  0
    0.9864    1.7869   -4.5009 O   0  0  0  0  0  0  0  0  0  0  0  0
    0.8489   -0.1122    0.9609 C   0  0  0  0  0  0  0  0  0  0  0  0
    2.0093   -0.2341    1.3352 O   0  0  0  0  0  0  0  0  0  0  0  0
   -0.0590    0.5344    1.7795 N   0  0  0  0  0  0  0  0  0  0  0  0
   -1.0016    0.6362    1.4191 H   0  0  0  0  0  0  0  0  0  0  0  0
    0.2563    1.0197    3.1142 C   0  0  0  0  0  0  0  0  0  0  0  0
    1.0322    1.7906    3.0673 H   0  0  0  0  0  0  0  0  0  0  0  0
   -0.6353    1.4529    3.5769 H   0  0  0  0  0  0  0  0  0  0  0  0
    0.6098    0.1982    3.7457 H   0  0  0  0  0  0  0  0  0  0  0  0
  1  2  1  0  0  0  0
  2  3  1  0  0  0  0
  2  4  1  0  0  0  0
  2  5  1  0  0  0  0
  5  6  2  0  0  0  0
  5  7  1  0  0  0  0
  7  8  1  0  0  0  0
  7  9  1  0  0  0  0
  9 10  1  0  0  0  0
  9 11  1  0  0  0  0
  9 20  1  0  0  0  0
 11 12  1  0  0  0  0
 11 13  1  0  0  0  0
 11 14  1  0  0  0  0
 14 15  1  0  0  0  0
 14 16  1  0  0  0  0
 14 17  1  0  0  0  0
 17 18  1  0  0  0  0
 17 19  2  0  0  0  0
 20 21  2  0  0  0  0
 20 22  1  0  0  0  0
 22 23  1  0  0  0  0
 22 24  1  0  0  0  0
 24 25  1  0  0  0  0
 24 26  1  0  0  0  0
 24 27  1  0  0  0  0
M  CHG  1  18  -1
M  END
$$$$

  -OEChem-04042215583D

 27 26  0     1  0  0  0  0  0999 V2000
   -2.7649   -3.8646    0.3885 H   0  0  0  0  0  0  0  0  0  0  0  0
   -2.6178   -2.9609   -0.2094 C   0  0  0  0  0  0  0  0  0  0  0  0
   -3.4275   -2.2595    0.0064 H   0  0  0  0  0  0  0  0  0  0  0  0
   -2.6522   -3.2306   -1.2680 H   0  0  0  0  0  0  0  0  0  0  0  0
   -1.2785   -2.3253    0.1195 C   0  0  0  0  0  0  0  0  0  0  0  0
   -0.5496   -2.8456    0.9465 O   0  0  0  0  0  0  0  0  0  0  0  0
   -0.9075   -1.1667   -0.5295 N   0  0  0  0  0  0  0  0  0  0  0  0
   -1.5101   -0.8576   -1.2883 H   0  0  0  0  0  0  0  0  0  0  0  0
    0.4234   -0.5377   -0.4518 C   0  0  1  0  0  0  0  0  0  0  0  0
    1.1829   -1.2325   -0.8262 H   0  0  0  0  0  0  0  0  0  0  0  0
    0.3724    0.7027   -1.3596 C   0  0  0  0  0  0  0  0  0  0  0  0
   -0.3711    1.4187   -0.9926 H   0  0  0  0  0  0  0  0  0  0  0  0
    1.3503    1.1967   -1.3267 H   0  0  0  0  0  0  0  0  0  0  0  0
    0.0527    0.3347   -2.8212 C   0  0  0  0  0  0  0  0  0  0  0  0
    0.6518   -0.5303   -3.1223 H   0  0  0  0  0  0  0  0  0  0  0  0
   -1.0022    0.0654   -2.9244 H   0  0  0  0  0  0  0  0  0  0  0  0
    0.3608    1.4980   -3.7618 C   0  0  0  0  0  0  0  0  0  0  0  0
   -0.3960    2.4981   -3.6906 O   0  5  0  0  0  0  0  0  0  0  0  0
    1.3198    1.3772   -4.5618 O   0  0  0  0  0  0  0  0  0  0  0  0
    0.8517   -0.1202    0.9716 C   0  0  0  0  0  0  0  0  0  0  0  0
    2.0127   -0.2499    1.3409 O   0  0  0  0  0  0  0  0  0  0  0  0
   -0.0472    0.5334    1.7944 N   0  0  0  0  0  0  0  0  0  0  0  0
   -0.9936    0.6317    1.4438 H   0  0  0  0  0  0  0  0  0  0  0  0
    0.2821    1.0265    3.1227 C   0  0  0  0  0  0  0  0  0  0  0  0
    1.1005    1.7518    3.0684 H   0  0  0  0  0  0  0  0  0  0  0  0
   -0.5878    1.5188    3.5671 H   0  0  0  0  0  0  0  0  0  0  0  0
    0.5834    0.1990    3.7730 H   0  0  0  0  0  0  0  0  0  0  0  0
  1  2  1  0  0  0  0
  2  3  1  0  0  0  0
  2  4  1  0  0  0  0
  2  5  1  0  0  0  0
  5  6  2  0  0  0  0
  5  7  1  0  0  0  0
  7  8  1  0  0  0  0
  7  9  1  0  0  0  0
  9 10  1  0  0  0  0
  9 11  1  0  0  0  0
  9 20  1  0  0  0  0
 11 12  1  0  0  0  0
 11 13  1  0  0  0  0
 11 14  1  0  0  0  0
 14 15  1  0  0  0  0
 14 16  1  0  0  0  0
 14 17  1  0  0  0  0
 17 18  1  0  0  0  0
 17 19  2  0  0  0  0
 20 21  2  0  0  0  0
 20 22  1  0  0  0  0
 22 23  1  0  0  0  0
 22 24  1  0  0  0  0
 24 25  1  0  0  0  0
 24 26  1  0  0  0  0
 24 27  1  0  0  0  0
M  CHG  1  18  -1
M  END
$$$$

  -OEChem-04042215583D

 27 26  0     1  0  0  0  0  0999 V2000
   -2.7485   -3.8667    0.3637 H   0  0  0  0  0  0  0  0  0  0  0  0
   -2.6067   -2.9557   -0.2249 C   0  0  0  0  0  0  0  0  0  0  0  0
   -3.4289   -2.2677   -0.0133 H   0  0  0  0  0  0  0  0  0  0  0  0
   -2.6241   -3.2161   -1.2863 H   0  0  0  0  0  0  0  0  0  0  0  0
   -1.2808   -2.3041    0.1259 C   0  0  0  0  0  0  0  0  0  0  0  0
   -0.5695   -2.8050    0.9797 O   0  0  0  0  0  0  0  0  0  0  0  0
   -0.9074   -1.1480   -0.5267 N   0  0  0  0  0  0  0  0  0  0  0  0
   -1.4874   -0.8679   -1.3138 H   0  0  0  0  0  0  0  0  0  0  0  0
    0.4267   -0.5249   -0.4485 C   0  0  1  0  0  0  0  0  0  0  0  0
    1.1852   -1.2215   -0.8222 H   0  0  0  0  0  0  0  0  0  0  0  0
    0.3741    0.7143   -1.3579 C   0  0  0  0  0  0  0  0  0  0  0  0
   -0.3603    1.4393   -0.9916 H   0  0  0  0  0  0  0  0  0  0  0  0
    1.3568    1.1991   -1.3249 H   0  0  0  0  0  0  0  0  0  0  0  0
    0.0492    0.3434   -2.8196 C   0  0  0  0  0  0  0  0  0  0  0  0
    0.4336   -0.6571   -3.0425 H   0  0  0  0  0  0  0  0  0  0  0  0
   -1.0343    0.3241   -2.9666 H   0  0  0  0  0  0  0  0  0  0  0  0
    0.6769    1.3259   -3.8075 C   0  0  0  0  0  0  0  0  0  0  0  0
    0.2525    2.5078   -3.7825 O   0  5  0  0  0  0  0  0  0  0  0  0
    1.5390    0.8882   -4.6074 O   0  0  0  0  0  0  0  0  0  0  0  0
    0.8547   -0.1070    0.9754 C   0  0  0  0  0  0  0  0  0  0  0  0
    2.0131   -0.2454    1.3491 O   0  0  0  0  0  0  0  0  0  0  0  0
   -0.0424    0.5518    1.7963 N   0  0  0  0  0  0  0  0  0  0  0  0
   -0.9968    0.6163    1.4604 H   0  0  0  0  0  0  0  0  0  0  0  0
    0.2749    0.9984    3.1441 C   0  0  0  0  0  0  0  0  0  0  0  0
    1.1223    1.6915    3.1283 H   0  0  0  0  0  0  0  0  0  0  0  0
   -0.5846    1.5153    3.5806 H   0  0  0  0  0  0  0  0  0  0  0  0
    0.5269    0.1434    3.7796 H   0  0  0  0  0  0  0  0  0  0  0  0
  1  2  1  0  0  0  0
  2  3  1  0  0  0  0
  2  4  1  0  0  0  0
  2  5  1  0  0  0  0
  5  6  2  0  0  0  0
  5  7  1  0  0  0  0
  7  8  1  0  0  0  0
  7  9  1  0  0  0  0
  9 10  1  0  0  0  0
  9 11  1  0  0  0  0
  9 20  1  0  0  0  0
 11 12  1  0  0  0  0
 11 13  1  0  0  0  0
 11 14  1  0  0  0  0
 14 15  1  0  0  0  0
 14 16  1  0  0  0  0
 14 17  1  0  0  0  0
 17 18  1  0  0  0  0
 17 19  2  0  0  0  0
 20 21  2  0  0  0  0
 20 22  1  0  0  0  0
 22 23  1  0  0  0  0
 22 24  1  0  0  0  0
 24 25  1  0  0  0  0
 24 26  1  0  0  0  0
 24 27  1  0  0  0  0
M  CHG  1  18  -1
M  END
$$$$

  -OEChem-04042215583D

 27 26  0     1  0  0  0  0  0999 V2000
   -2.7335   -3.8741    0.3440 H   0  0  0  0  0  0  0  0  0  0  0  0
   -2.5988   -2.9557   -0.2342 C   0  0  0  0  0  0  0  0  0  0  0  0
   -3.4336   -2.2821   -0.0257 H   0  0  0  0  0  0  0  0  0  0  0  0
   -2.5999   -3.2070   -1.2980 H   0  0  0  0  0  0  0  0  0  0  0  0
   -1.2870   -2.2880    0.1380 C   0  0  0  0  0  0  0  0  0  0  0  0
   -0.5938   -2.7703    1.0169 O   0  0  0  0  0  0  0  0  0  0  0  0
   -0.9108   -1.1355   -0.5198 N   0  0  0  0  0  0  0  0  0  0  0  0
   -1.4753   -0.8769   -1.3250 H   0  0  0  0  0  0  0  0  0  0  0  0
    0.4271   -0.5187   -0.4457 C   0  0  1  0  0  0  0  0  0  0  0  0
    1.1824   -1.2188   -0.8197 H   0  0  0  0  0  0  0  0  0  0  0  0
    0.3804    0.7202   -1.3568 C   0  0  0  0  0  0  0  0  0  0  0  0
   -0.3520    1.4455   -0.9876 H   0  0  0  0  0  0  0  0  0  0  0  0
    1.3632    1.2049   -1.3189 H   0  0  0  0  0  0  0  0  0  0  0  0
    0.0502    0.3560   -2.8219 C   0  0  0  0  0  0  0  0  0  0  0  0
    0.1710   -0.7202   -2.9800 H   0  0  0  0  0  0  0  0  0  0  0  0
   -0.9934    0.6041   -3.0343 H   0  0  0  0  0  0  0  0  0  0  0  0
    0.9532    1.0832   -3.8180 C   0  0  0  0  0  0  0  0  0  0  0  0
    0.8336    2.3308   -3.8954 O   0  5  0  0  0  0  0  0  0  0  0  0
    1.7221    0.3891   -4.5265 O   0  0  0  0  0  0  0  0  0  0  0  0
    0.8569   -0.0996    0.9776 C   0  0  0  0  0  0  0  0  0  0  0  0
    2.0136   -0.2427    1.3543 O   0  0  0  0  0  0  0  0  0  0  0  0
   -0.0395    0.5651    1.7948 N   0  0  0  0  0  0  0  0  0  0  0  0
   -0.9981    0.6036    1.4674 H   0  0  0  0  0  0  0  0  0  0  0  0
    0.2669    0.9767    3.1561 C   0  0  0  0  0  0  0  0  0  0  0  0
    1.1308    1.6492    3.1675 H   0  0  0  0  0  0  0  0  0  0  0  0
   -0.5873    1.5046    3.5901 H   0  0  0  0  0  0  0  0  0  0  0  0
    0.4893    0.1031    3.7772 H   0  0  0  0  0  0  0  0  0  0  0  0
  1  2  1  0  0  0  0
  2  3  1  0  0  0  0
  2  4  1  0  0  0  0
  2  5  1  0  0  0  0
  5  6  2  0  0  0  0
  5  7  1  0  0  0  0
  7  8  1  0  0  0  0
  7  9  1  0  0  0  0
  9 10  1  0  0  0  0
  9 11  1  0  0  0  0
  9 20  1  0  0  0  0
 11 12  1  0  0  0  0
 11 13  1  0  0  0  0
 11 14  1  0  0  0  0
 14 15  1  0  0  0  0
 14 16  1  0  0  0  0
 14 17  1  0  0  0  0
 17 18  1  0  0  0  0
 17 19  2  0  0  0  0
 20 21  2  0  0  0  0
 20 22  1  0  0  0  0
 22 23  1  0  0  0  0
 22 24  1  0  0  0  0
 24 25  1  0  0  0  0
 24 26  1  0  0  0  0
 24 27  1  0  0  0  0
M  CHG  1  18  -1
M  END
$$$$

  -OEChem-04042215583D

 27 26  0     1  0  0  0  0  0999 V2000
   -2.7505   -3.8668    0.3507 H   0  0  0  0  0  0  0  0  0  0  0  0
   -2.6012   -2.9628   -0.2467 C   0  0  0  0  0  0  0  0  0  0  0  0
   -3.4424   -2.2858   -0.0787 H   0  0  0  0  0  0  0  0  0  0  0  0
   -2.5723   -3.2411   -1.3033 H   0  0  0  0  0  0  0  0  0  0  0  0
   -1.3014   -2.2825    0.1446 C   0  0  0  0  0  0  0  0  0  0  0  0
   -0.6258   -2.7484    1.0457 O   0  0  0  0  0  0  0  0  0  0  0  0
   -0.9234   -1.1315   -0.5149 N   0  0  0  0  0  0  0  0  0  0  0  0
   -1.4720   -0.8938   -1.3372 H   0  0  0  0  0  0  0  0  0  0  0  0
    0.4192   -0.5226   -0.4444 C   0  0  1  0  0  0  0  0  0  0  0  0
    1.1693   -1.2267   -0.8229 H   0  0  0  0  0  0  0  0  0  0  0  0
    0.3871    0.7205   -1.3523 C   0  0  0  0  0  0  0  0  0  0  0  0
   -0.3532    1.4346   -0.9772 H   0  0  0  0  0  0  0  0  0  0  0  0
    1.3638    1.2160   -1.3037 H   0  0  0  0  0  0  0  0  0  0  0  0
    0.0549    0.3774   -2.8238 C   0  0  0  0  0  0  0  0  0  0  0  0
   -0.1208   -0.6954   -2.9472 H   0  0  0  0  0  0  0  0  0  0  0  0
   -0.8658    0.8921   -3.1135 H   0  0  0  0  0  0  0  0  0  0  0  0
    1.1697    0.7924   -3.7826 C   0  0  0  0  0  0  0  0  0  0  0  0
    1.2719    2.0135   -4.0563 O   0  5  0  0  0  0  0  0  0  0  0  0
    1.8919   -0.1156   -4.2607 O   0  0  0  0  0  0  0  0  0  0  0  0
    0.8536   -0.1083    0.9794 C   0  0  0  0  0  0  0  0  0  0  0  0
    2.0115   -0.2491    1.3533 O   0  0  0  0  0  0  0  0  0  0  0  0
   -0.0389    0.5602    1.7980 N   0  0  0  0  0  0  0  0  0  0  0  0
   -1.0026    0.5756    1.4839 H   0  0  0  0  0  0  0  0  0  0  0  0
    0.2734    0.9672    3.1596 C   0  0  0  0  0  0  0  0  0  0  0  0
    1.1392    1.6375    3.1691 H   0  0  0  0  0  0  0  0  0  0  0  0
   -0.5774    1.4971    3.5977 H   0  0  0  0  0  0  0  0  0  0  0  0
    0.4955    0.0915    3.7781 H   0  0  0  0  0  0  0  0  0  0  0  0
  1  2  1  0  0  0  0
  2  3  1  0  0  0  0
  2  4  1  0  0  0  0
  2  5  1  0  0  0  0
  5  6  2  0  0  0  0
  5  7  1  0  0  0  0
  7  8  1  0  0  0  0
  7  9  1  0  0  0  0
  9 10  1  0  0  0  0
  9 11  1  0  0  0  0
  9 20  1  0  0  0  0
 11 12  1  0  0  0  0
 11 13  1  0  0  0  0
 11 14  1  0  0  0  0
 14 15  1  0  0  0  0
 14 16  1  0  0  0  0
 14 17  1  0  0  0  0
 17 18  1  0  0  0  0
 17 19  2  0  0  0  0
 20 21  2  0  0  0  0
 20 22  1  0  0  0  0
 22 23  1  0  0  0  0
 22 24  1  0  0  0  0
 24 25  1  0  0  0  0
 24 26  1  0  0  0  0
 24 27  1  0  0  0  0
M  CHG  1  18  -1
M  END
$$$$

  -OEChem-04042215583D

 27 26  0     1  0  0  0  0  0999 V2000
   -2.7548   -3.8629    0.3609 H   0  0  0  0  0  0  0  0  0  0  0  0
   -2.5956   -2.9733   -0.2551 C   0  0  0  0  0  0  0  0  0  0  0  0
   -3.4480   -2.3009   -0.1306 H   0  0  0  0  0  0  0  0  0  0  0  0
   -2.5312   -3.2781   -1.3028 H   0  0  0  0  0  0  0  0  0  0  0  0
   -1.3145   -2.2703    0.1574 C   0  0  0  0  0  0  0  0  0  0  0  0
   -0.6622   -2.7076    1.0895 O   0  0  0  0  0  0  0  0  0  0  0  0
   -0.9380   -1.1224   -0.5088 N   0  0  0  0  0  0  0  0  0  0  0  0
   -1.4703   -0.9128   -1.3491 H   0  0  0  0  0  0  0  0  0  0  0  0
    0.4080   -0.5194   -0.4455 C   0  0  1  0  0  0  0  0  0  0  0  0
    1.1521   -1.2304   -0.8240 H   0  0  0  0  0  0  0  0  0  0  0  0
    0.3973    0.7248   -1.3537 C   0  0  0  0  0  0  0  0  0  0  0  0
   -0.3497    1.4310   -0.9769 H   0  0  0  0  0  0  0  0  0  0  0  0
    1.3705    1.2264   -1.2977 H   0  0  0  0  0  0  0  0  0  0  0  0
    0.0661    0.3984   -2.8286 C   0  0  0  0  0  0  0  0  0  0  0  0
   -0.4051   -0.5822   -2.9344 H   0  0  0  0  0  0  0  0  0  0  0  0
   -0.6498    1.1383   -3.1988 H   0  0  0  0  0  0  0  0  0  0  0  0
    1.3045    0.4517   -3.7199 C   0  0  0  0  0  0  0  0  0  0  0  0
    1.6451    1.5674   -4.1837 O   0  5  0  0  0  0  0  0  0  0  0  0
    1.8922   -0.6337   -3.9468 O   0  0  0  0  0  0  0  0  0  0  0  0
    0.8470   -0.1046    0.9772 C   0  0  0  0  0  0  0  0  0  0  0  0
    2.0073   -0.2354    1.3472 O   0  0  0  0  0  0  0  0  0  0  0  0
   -0.0432    0.5685    1.7947 N   0  0  0  0  0  0  0  0  0  0  0  0
   -1.0112    0.5518    1.4942 H   0  0  0  0  0  0  0  0  0  0  0  0
    0.2668    0.9503    3.1640 C   0  0  0  0  0  0  0  0  0  0  0  0
    1.1343    1.6177    3.1883 H   0  0  0  0  0  0  0  0  0  0  0  0
   -0.5837    1.4741    3.6097 H   0  0  0  0  0  0  0  0  0  0  0  0
    0.4852    0.0630    3.7670 H   0  0  0  0  0  0  0  0  0  0  0  0
  1  2  1  0  0  0  0
  2  3  1  0  0  0  0
  2  4  1  0  0  0  0
  2  5  1  0  0  0  0
  5  6  2  0  0  0  0
  5  7  1  0  0  0  0
  7  8  1  0  0  0  0
  7  9  1  0  0  0  0
  9 10  1  0  0  0  0
  9 11  1  0  0  0  0
  9 20  1  0  0  0  0
 11 12  1  0  0  0  0
 11 13  1  0  0  0  0
 11 14  1  0  0  0  0
 14 15  1  0  0  0  0
 14 16  1  0  0  0  0
 14 17  1  0  0  0  0
 17 18  1  0  0  0  0
 17 19  2  0  0  0  0
 20 21  2  0  0  0  0
 20 22  1  0  0  0  0
 22 23  1  0  0  0  0
 22 24  1  0  0  0  0
 24 25  1  0  0  0  0
 24 26  1  0  0  0  0
 24 27  1  0  0  0  0
M  CHG  1  18  -1
M  END
$$$$

  -OEChem-04042215583D

 27 26  0     1  0  0  0  0  0999 V2000
   -2.7709   -3.8490    0.3714 H   0  0  0  0  0  0  0  0  0  0  0  0
   -2.5776   -2.9951   -0.2841 C   0  0  0  0  0  0  0  0  0  0  0  0
   -3.4438   -2.3295   -0.2605 H   0  0  0  0  0  0  0  0  0  0  0  0
   -2.4354   -3.3605   -1.3045 H   0  0  0  0  0  0  0  0  0  0  0  0
   -1.3358   -2.2508    0.1739 C   0  0  0  0  0  0  0  0  0  0  0  0
   -0.7295   -2.6442    1.1556 O   0  0  0  0  0  0  0  0  0  0  0  0
   -0.9542   -1.1092   -0.5008 N   0  0  0  0  0  0  0  0  0  0  0  0
   -1.4503   -0.9482   -1.3730 H   0  0  0  0  0  0  0  0  0  0  0  0
    0.3996   -0.5231   -0.4416 C   0  0  1  0  0  0  0  0  0  0  0  0
    1.1337   -1.2449   -0.8210 H   0  0  0  0  0  0  0  0  0  0  0  0
    0.4117    0.7291   -1.3419 C   0  0  0  0  0  0  0  0  0  0  0  0
   -0.3235    1.4431   -0.9571 H   0  0  0  0  0  0  0  0  0  0  0  0
    1.3935    1.2134   -1.2868 H   0  0  0  0  0  0  0  0  0  0  0  0
    0.0736    0.4293   -2.8186 C   0  0  0  0  0  0  0  0  0  0  0  0
   -0.6496   -0.3830   -2.9193 H   0  0  0  0  0  0  0  0  0  0  0  0
   -0.3907    1.3204   -3.2516 H   0  0  0  0  0  0  0  0  0  0  0  0
    1.3190    0.1043   -3.6383 C   0  0  0  0  0  0  0  0  0  0  0  0
    1.8418    1.0234   -4.3143 O   0  5  0  0  0  0  0  0  0  0  0  0
    1.7266   -1.0821   -3.5949 O   0  0  0  0  0  0  0  0  0  0  0  0
    0.8427   -0.1104    0.9809 C   0  0  0  0  0  0  0  0  0  0  0  0
    2.0041   -0.2372    1.3495 O   0  0  0  0  0  0  0  0  0  0  0  0
   -0.0434    0.5752    1.7928 N   0  0  0  0  0  0  0  0  0  0  0  0
   -1.0131    0.5373    1.4997 H   0  0  0  0  0  0  0  0  0  0  0  0
    0.2625    0.9419    3.1670 C   0  0  0  0  0  0  0  0  0  0  0  0
    1.1454    1.5881    3.2037 H   0  0  0  0  0  0  0  0  0  0  0  0
   -0.5796    1.4838    3.6072 H   0  0  0  0  0  0  0  0  0  0  0  0
    0.4530    0.0462    3.7669 H   0  0  0  0  0  0  0  0  0  0  0  0
  1  2  1  0  0  0  0
  2  3  1  0  0  0  0
  2  4  1  0  0  0  0
  2  5  1  0  0  0  0
  5  6  2  0  0  0  0
  5  7  1  0  0  0  0
  7  8  1  0  0  0  0
  7  9  1  0  0  0  0
  9 10  1  0  0  0  0
  9 11  1  0  0  0  0
  9 20  1  0  0  0  0
 11 12  1  0  0  0  0
 11 13  1  0  0  0  0
 11 14  1  0  0  0  0
 14 15  1  0  0  0  0
 14 16  1  0  0  0  0
 14 17  1  0  0  0  0
 17 18  1  0  0  0  0
 17 19  2  0  0  0  0
 20 21  2  0  0  0  0
 20 22  1  0  0  0  0
 22 23  1  0  0  0  0
 22 24  1  0  0  0  0
 24 25  1  0  0  0  0
 24 26  1  0  0  0  0
 24 27  1  0  0  0  0
M  CHG  1  18  -1
M  END
$$$$

  -OEChem-04042215583D

 27 26  0     1  0  0  0  0  0999 V2000
   -2.7390   -3.8809    0.3199 H   0  0  0  0  0  0  0  0  0  0  0  0
   -2.5467   -3.0218   -0.3288 C   0  0  0  0  0  0  0  0  0  0  0  0
   -3.4383   -2.3908   -0.3542 H   0  0  0  0  0  0  0  0  0  0  0  0
   -2.3368   -3.3845   -1.3385 H   0  0  0  0  0  0  0  0  0  0  0  0
   -1.3611   -2.2269    0.1880 C   0  0  0  0  0  0  0  0  0  0  0  0
   -0.8142   -2.5689    1.2230 O   0  0  0  0  0  0  0  0  0  0  0  0
   -0.9726   -1.0920   -0.4935 N   0  0  0  0  0  0  0  0  0  0  0  0
   -1.4194   -0.9874   -1.4006 H   0  0  0  0  0  0  0  0  0  0  0  0
    0.3870   -0.5228   -0.4265 C   0  0  1  0  0  0  0  0  0  0  0  0
    1.1130   -1.2578   -0.7951 H   0  0  0  0  0  0  0  0  0  0  0  0
    0.4194    0.7287   -1.3287 C   0  0  0  0  0  0  0  0  0  0  0  0
   -0.3013    1.4596   -0.9490 H   0  0  0  0  0  0  0  0  0  0  0  0
    1.4126    1.1892   -1.2770 H   0  0  0  0  0  0  0  0  0  0  0  0
    0.0847    0.4305   -2.8046 C   0  0  0  0  0  0  0  0  0  0  0  0
   -0.8240   -0.1693   -2.8970 H   0  0  0  0  0  0  0  0  0  0  0  0
   -0.1135    1.3809   -3.3091 H   0  0  0  0  0  0  0  0  0  0  0  0
    1.2315   -0.2585   -3.5372 C   0  0  0  0  0  0  0  0  0  0  0  0
    2.0700    0.4523   -4.1413 O   0  5  0  0  0  0  0  0  0  0  0  0
    1.2413   -1.5139   -3.4985 O   0  0  0  0  0  0  0  0  0  0  0  0
    0.8300   -0.1078    0.9954 C   0  0  0  0  0  0  0  0  0  0  0  0
    1.9937   -0.2282    1.3598 O   0  0  0  0  0  0  0  0  0  0  0  0
   -0.0510    0.5932    1.7993 N   0  0  0  0  0  0  0  0  0  0  0  0
   -1.0235    0.5310    1.5187 H   0  0  0  0  0  0  0  0  0  0  0  0
    0.2605    0.9699    3.1695 C   0  0  0  0  0  0  0  0  0  0  0  0
    1.1351    1.6279    3.1962 H   0  0  0  0  0  0  0  0  0  0  0  0
   -0.5853    1.5029    3.6134 H   0  0  0  0  0  0  0  0  0  0  0  0
    0.4675    0.0797    3.7723 H   0  0  0  0  0  0  0  0  0  0  0  0
  1  2  1  0  0  0  0
  2  3  1  0  0  0  0
  2  4  1  0  0  0  0
  2  5  1  0  0  0  0
  5  6  2  0  0  0  0
  5  7  1  0  0  0  0
  7  8  1  0  0  0  0
  7  9  1  0  0  0  0
  9 10  1  0  0  0  0
  9 11  1  0  0  0  0
  9 20  1  0  0  0  0
 11 12  1  0  0  0  0
 11 13  1  0  0  0  0
 11 14  1  0  0  0  0
 14 15  1  0  0  0  0
 14 16  1  0  0  0  0
 14 17  1  0  0  0  0
 17 18  1  0  0  0  0
 17 19  2  0  0  0  0
 20 21  2  0  0  0  0
 20 22  1  0  0  0  0
 22 23  1  0  0  0  0
 22 24  1  0  0  0  0
 24 25  1  0  0  0  0
 24 26  1  0  0  0  0
 24 27  1  0  0  0  0
M  CHG  1  18  -1
M  END
$$$$

  -OEChem-04042215583D

 27 26  0     1  0  0  0  0  0999 V2000
   -2.6962   -3.9081    0.2883 H   0  0  0  0  0  0  0  0  0  0  0  0
   -2.5111   -3.0445   -0.3565 C   0  0  0  0  0  0  0  0  0  0  0  0
   -3.4247   -2.4490   -0.4228 H   0  0  0  0  0  0  0  0  0  0  0  0
   -2.2449   -3.4026   -1.3548 H   0  0  0  0  0  0  0  0  0  0  0  0
   -1.3797   -2.2017    0.2040 C   0  0  0  0  0  0  0  0  0  0  0  0
   -0.8950   -2.4893    1.2864 O   0  0  0  0  0  0  0  0  0  0  0  0
   -0.9814   -1.0773   -0.4889 N   0  0  0  0  0  0  0  0  0  0  0  0
   -1.3734   -1.0364   -1.4276 H   0  0  0  0  0  0  0  0  0  0  0  0
    0.3841   -0.5263   -0.4129 C   0  0  1  0  0  0  0  0  0  0  0  0
    1.1047   -1.2734   -0.7662 H   0  0  0  0  0  0  0  0  0  0  0  0
    0.4315    0.7229   -1.3183 C   0  0  0  0  0  0  0  0  0  0  0  0
   -0.2681    1.4757   -0.9420 H   0  0  0  0  0  0  0  0  0  0  0  0
    1.4378    1.1542   -1.2718 H   0  0  0  0  0  0  0  0  0  0  0  0
    0.0970    0.4268   -2.7943 C   0  0  0  0  0  0  0  0  0  0  0  0
   -0.9304    0.0637   -2.8854 H   0  0  0  0  0  0  0  0  0  0  0  0
    0.1518    1.3638   -3.3564 H   0  0  0  0  0  0  0  0  0  0  0  0
    1.0447   -0.5764   -3.4429 C   0  0  0  0  0  0  0  0  0  0  0  0
    2.0882   -0.1546   -3.9949 O   0  5  0  0  0  0  0  0  0  0  0  0
    0.6943   -1.7821   -3.3797 O   0  0  0  0  0  0  0  0  0  0  0  0
    0.8210   -0.1037    1.0088 C   0  0  0  0  0  0  0  0  0  0  0  0
    1.9834   -0.2250    1.3779 O   0  0  0  0  0  0  0  0  0  0  0  0
   -0.0575    0.6170    1.7979 N   0  0  0  0  0  0  0  0  0  0  0  0
   -1.0300    0.5395    1.5197 H   0  0  0  0  0  0  0  0  0  0  0  0
    0.2464    0.9956    3.1692 C   0  0  0  0  0  0  0  0  0  0  0  0
    1.1409    1.6259    3.2042 H   0  0  0  0  0  0  0  0  0  0  0  0
   -0.5884    1.5587    3.5962 H   0  0  0  0  0  0  0  0  0  0  0  0
    0.4162    0.1041    3.7816 H   0  0  0  0  0  0  0  0  0  0  0  0
  1  2  1  0  0  0  0
  2  3  1  0  0  0  0
  2  4  1  0  0  0  0
  2  5  1  0  0  0  0
  5  6  2  0  0  0  0
  5  7  1  0  0  0  0
  7  8  1  0  0  0  0
  7  9  1  0  0  0  0
  9 10  1  0  0  0  0
  9 11  1  0  0  0  0
  9 20  1  0  0  0  0
 11 12  1  0  0  0  0
 11 13  1  0  0  0  0
 11 14  1  0  0  0  0
 14 15  1  0  0  0  0
 14 16  1  0  0  0  0
 14 17  1  0  0  0  0
 17 18  1  0  0  0  0
 17 19  2  0  0  0  0
 20 21  2  0  0  0  0
 20 22  1  0  0  0  0
 22 23  1  0  0  0  0
 22 24  1  0  0  0  0
 24 25  1  0  0  0  0
 24 26  1  0  0  0  0
 24 27  1  0  0  0  0
M  CHG  1  18  -1
M  END
$$$$

  -OEChem-04042215583D

 27 26  0     1  0  0  0  0  0999 V2000
   -2.6129   -3.9639    0.2278 H   0  0  0  0  0  0  0  0  0  0  0  0
   -2.4724   -3.0719   -0.3886 C   0  0  0  0  0  0  0  0  0  0  0  0
   -3.4228   -2.5389   -0.4668 H   0  0  0  0  0  0  0  0  0  0  0  0
   -2.1546   -3.3828   -1.3881 H   0  0  0  0  0  0  0  0  0  0  0  0
   -1.4182   -2.1684    0.2243 C   0  0  0  0  0  0  0  0  0  0  0  0
   -1.0141   -2.3929    1.3546 O   0  0  0  0  0  0  0  0  0  0  0  0
   -1.0013   -1.0598   -0.4814 N   0  0  0  0  0  0  0  0  0  0  0  0
   -1.3270   -1.0948   -1.4488 H   0  0  0  0  0  0  0  0  0  0  0  0
    0.3738   -0.5379   -0.3933 C   0  0  1  0  0  0  0  0  0  0  0  0
    1.0847   -1.3016   -0.7307 H   0  0  0  0  0  0  0  0  0  0  0  0
    0.4445    0.7054   -1.3060 C   0  0  0  0  0  0  0  0  0  0  0  0
   -0.2307    1.4824   -0.9342 H   0  0  0  0  0  0  0  0  0  0  0  0
    1.4641    1.1036   -1.2597 H   0  0  0  0  0  0  0  0  0  0  0  0
    0.1118    0.4173   -2.7858 C   0  0  0  0  0  0  0  0  0  0  0  0
   -0.9718    0.3153   -2.8966 H   0  0  0  0  0  0  0  0  0  0  0  0
    0.4130    1.2794   -3.3879 H   0  0  0  0  0  0  0  0  0  0  0  0
    0.7750   -0.8333   -3.3532 C   0  0  0  0  0  0  0  0  0  0  0  0
    1.9048   -0.7399   -3.8866 O   0  5  0  0  0  0  0  0  0  0  0  0
    0.1177   -1.8995   -3.2258 O   0  0  0  0  0  0  0  0  0  0  0  0
    0.8081   -0.1070    1.0268 C   0  0  0  0  0  0  0  0  0  0  0  0
    1.9685   -0.2389    1.3995 O   0  0  0  0  0  0  0  0  0  0  0  0
   -0.0597    0.6430    1.8000 N   0  0  0  0  0  0  0  0  0  0  0  0
   -1.0335    0.5612    1.5263 H   0  0  0  0  0  0  0  0  0  0  0  0
    0.2467    1.0337    3.1673 C   0  0  0  0  0  0  0  0  0  0  0  0
    1.1500    1.6515    3.1964 H   0  0  0  0  0  0  0  0  0  0  0  0
   -0.5808    1.6138    3.5862 H   0  0  0  0  0  0  0  0  0  0  0  0
    0.4034    0.1472    3.7904 H   0  0  0  0  0  0  0  0  0  0  0  0
  1  2  1  0  0  0  0
  2  3  1  0  0  0  0
  2  4  1  0  0  0  0
  2  5  1  0  0  0  0
  5  6  2  0  0  0  0
  5  7  1  0  0  0  0
  7  8  1  0  0  0  0
  7  9  1  0  0  0  0
  9 10  1  0  0  0  0
  9 11  1  0  0  0  0
  9 20  1  0  0  0  0
 11 12  1  0  0  0  0
 11 13  1  0  0  0  0
 11 14  1  0  0  0  0
 14 15  1  0  0  0  0
 14 16  1  0  0  0  0
 14 17  1  0  0  0  0
 17 18  1  0  0  0  0
 17 19  2  0  0  0  0
 20 21  2  0  0  0  0
 20 22  1  0  0  0  0
 22 23  1  0  0  0  0
 22 24  1  0  0  0  0
 24 25  1  0  0  0  0
 24 26  1  0  0  0  0
 24 27  1  0  0  0  0
M  CHG  1  18  -1
M  END
$$$$

  -OEChem-04042215583D

 27 26  0     1  0  0  0  0  0999 V2000
   -2.6507   -3.9490    0.2910 H   0  0  0  0  0  0  0  0  0  0  0  0
   -2.4690   -3.0909   -0.3616 C   0  0  0  0  0  0  0  0  0  0  0  0
   -3.4050   -2.5460   -0.5040 H   0  0  0  0  0  0  0  0  0  0  0  0
   -2.1192   -3.4543   -1.3324 H   0  0  0  0  0  0  0  0  0  0  0  0
   -1.4223   -2.1757    0.2473 C   0  0  0  0  0  0  0  0  0  0  0  0
   -1.0232   -2.3842    1.3832 O   0  0  0  0  0  0  0  0  0  0  0  0
   -1.0037   -1.0754   -0.4695 N   0  0  0  0  0  0  0  0  0  0  0  0
   -1.3128   -1.1469   -1.4452 H   0  0  0  0  0  0  0  0  0  0  0  0
    0.3717   -0.5520   -0.3832 C   0  0  1  0  0  0  0  0  0  0  0  0
    1.0831   -1.3193   -0.7105 H   0  0  0  0  0  0  0  0  0  0  0  0
    0.4507    0.6825   -1.3083 C   0  0  0  0  0  0  0  0  0  0  0  0
   -0.2145    1.4704   -0.9407 H   0  0  0  0  0  0  0  0  0  0  0  0
    1.4751    1.0673   -1.2559 H   0  0  0  0  0  0  0  0  0  0  0  0
    0.1300    0.4108   -2.7969 C   0  0  0  0  0  0  0  0  0  0  0  0
   -0.9410    0.5689   -2.9549 H   0  0  0  0  0  0  0  0  0  0  0  0
    0.6551    1.1457   -3.4139 H   0  0  0  0  0  0  0  0  0  0  0  0
    0.4747   -0.9916   -3.2927 C   0  0  0  0  0  0  0  0  0  0  0  0
    1.6271   -1.2201   -3.7263 O   0  5  0  0  0  0  0  0  0  0  0  0
   -0.4395   -1.8511   -3.1760 O   0  0  0  0  0  0  0  0  0  0  0  0
    0.8014   -0.1054    1.0331 C   0  0  0  0  0  0  0  0  0  0  0  0
    1.9642   -0.2213    1.4045 O   0  0  0  0  0  0  0  0  0  0  0  0
   -0.0698    0.6525    1.7943 N   0  0  0  0  0  0  0  0  0  0  0  0
   -1.0434    0.5563    1.5229 H   0  0  0  0  0  0  0  0  0  0  0  0
    0.2332    1.0650    3.1559 C   0  0  0  0  0  0  0  0  0  0  0  0
    1.1393    1.6791    3.1780 H   0  0  0  0  0  0  0  0  0  0  0  0
   -0.5928    1.6566    3.5612 H   0  0  0  0  0  0  0  0  0  0  0  0
    0.3825    0.1888    3.7950 H   0  0  0  0  0  0  0  0  0  0  0  0
  1  2  1  0  0  0  0
  2  3  1  0  0  0  0
  2  4  1  0  0  0  0
  2  5  1  0  0  0  0
  5  6  2  0  0  0  0
  5  7  1  0  0  0  0
  7  8  1  0  0  0  0
  7  9  1  0  0  0  0
  9 10  1  0  0  0  0
  9 11  1  0  0  0  0
  9 20  1  0  0  0  0
 11 12  1  0  0  0  0
 11 13  1  0  0  0  0
 11 14  1  0  0  0  0
 14 15  1  0  0  0  0
 14 16  1  0  0  0  0
 14 17  1  0  0  0  0
 17 18  1  0  0  0  0
 17 19  2  0  0  0  0
 20 21  2  0  0  0  0
 20 22  1  0  0  0  0
 22 23  1  0  0  0  0
 22 24  1  0  0  0  0
 24 25  1  0  0  0  0
 24 26  1  0  0  0  0
 24 27  1  0  0  0  0
M  CHG  1  18  -1
M  END
$$$$

  -OEChem-04042215583D

 27 26  0     1  0  0  0  0  0999 V2000
   -2.6651   -3.9572    0.3603 H   0  0  0  0  0  0  0  0  0  0  0  0
   -2.5045   -3.0911   -0.2870 C   0  0  0  0  0  0  0  0  0  0  0  0
   -3.4352   -2.5240   -0.3634 H   0  0  0  0  0  0  0  0  0  0  0  0
   -2.2220   -3.4433   -1.2835 H   0  0  0  0  0  0  0  0  0  0  0  0
   -1.4041   -2.2086    0.2732 C   0  0  0  0  0  0  0  0  0  0  0  0
   -0.9495   -2.4407    1.3837 O   0  0  0  0  0  0  0  0  0  0  0  0
   -0.9956   -1.1112   -0.4536 N   0  0  0  0  0  0  0  0  0  0  0  0
   -1.3477   -1.1606   -1.4186 H   0  0  0  0  0  0  0  0  0  0  0  0
    0.3731   -0.5646   -0.3786 C   0  0  1  0  0  0  0  0  0  0  0  0
    1.0909   -1.3304   -0.6956 H   0  0  0  0  0  0  0  0  0  0  0  0
    0.4593    0.6547   -1.3251 C   0  0  0  0  0  0  0  0  0  0  0  0
   -0.2169    1.4391   -0.9704 H   0  0  0  0  0  0  0  0  0  0  0  0
    1.4784    1.0503   -1.2555 H   0  0  0  0  0  0  0  0  0  0  0  0
    0.1659    0.3946   -2.8251 C   0  0  0  0  0  0  0  0  0  0  0  0
   -0.8198    0.8081   -3.0589 H   0  0  0  0  0  0  0  0  0  0  0  0
    0.8928    0.9462   -3.4286 H   0  0  0  0  0  0  0  0  0  0  0  0
    0.1733   -1.0695   -3.2651 C   0  0  0  0  0  0  0  0  0  0  0  0
    1.2636   -1.5976   -3.5822 O   0  5  0  0  0  0  0  0  0  0  0  0
   -0.9293   -1.6761   -3.1988 O   0  0  0  0  0  0  0  0  0  0  0  0
    0.7955   -0.0963    1.0324 C   0  0  0  0  0  0  0  0  0  0  0  0
    1.9624   -0.1803    1.4006 O   0  0  0  0  0  0  0  0  0  0  0  0
   -0.0890    0.6549    1.7846 N   0  0  0  0  0  0  0  0  0  0  0  0
   -1.0606    0.5432    1.5121 H   0  0  0  0  0  0  0  0  0  0  0  0
    0.2069    1.0913    3.1403 C   0  0  0  0  0  0  0  0  0  0  0  0
    1.0977    1.7276    3.1527 H   0  0  0  0  0  0  0  0  0  0  0  0
   -0.6324    1.6670    3.5409 H   0  0  0  0  0  0  0  0  0  0  0  0
    0.3796    0.2267    3.7893 H   0  0  0  0  0  0  0  0  0  0  0  0
  1  2  1  0  0  0  0
  2  3  1  0  0  0  0
  2  4  1  0  0  0  0
  2  5  1  0  0  0  0
  5  6  2  0  0  0  0
  5  7  1  0  0  0  0
  7  8  1  0  0  0  0
  7  9  1  0  0  0  0
  9 10  1  0  0  0  0
  9 11  1  0  0  0  0
  9 20  1  0  0  0  0
 11 12  1  0  0  0  0
 11 13  1  0  0  0  0
 11 14  1  0  0  0  0
 14 15  1  0  0  0  0
 14 16  1  0  0  0  0
 14 17  1  0  0  0  0
 17 18  1  0  0  0  0
 17 19  2  0  0  0  0
 20 21  2  0  0  0  0
 20 22  1  0  0  0  0
 22 23  1  0  0  0  0
 22 24  1  0  0  0  0
 24 25  1  0  0  0  0
 24 26  1  0  0  0  0
 24 27  1  0  0  0  0
M  CHG  1  18  -1
M  END
$$$$

  -OEChem-04042215583D

 27 26  0     1  0  0  0  0  0999 V2000
   -2.6867   -3.9551    0.4289 H   0  0  0  0  0  0  0  0  0  0  0  0
   -2.5330   -3.0875   -0.2182 C   0  0  0  0  0  0  0  0  0  0  0  0
   -3.4497   -2.4937   -0.2437 H   0  0  0  0  0  0  0  0  0  0  0  0
   -2.3102   -3.4367   -1.2309 H   0  0  0  0  0  0  0  0  0  0  0  0
   -1.3817   -2.2418    0.2939 C   0  0  0  0  0  0  0  0  0  0  0  0
   -0.8570   -2.5158    1.3632 O   0  0  0  0  0  0  0  0  0  0  0  0
   -0.9921   -1.1383   -0.4333 N   0  0  0  0  0  0  0  0  0  0  0  0
   -1.4144   -1.1291   -1.3712 H   0  0  0  0  0  0  0  0  0  0  0  0
    0.3661   -0.5630   -0.3789 C   0  0  1  0  0  0  0  0  0  0  0  0
    1.0872   -1.3272   -0.6921 H   0  0  0  0  0  0  0  0  0  0  0  0
    0.4595    0.6404   -1.3473 C   0  0  0  0  0  0  0  0  0  0  0  0
   -0.2417    1.4093   -1.0076 H   0  0  0  0  0  0  0  0  0  0  0  0
    1.4661    1.0633   -1.2601 H   0  0  0  0  0  0  0  0  0  0  0  0
    0.1904    0.3824   -2.8557 C   0  0  0  0  0  0  0  0  0  0  0  0
   -0.6309    1.0293   -3.1787 H   0  0  0  0  0  0  0  0  0  0  0  0
    1.0750    0.6896   -3.4216 H   0  0  0  0  0  0  0  0  0  0  0  0
   -0.1485   -1.0540   -3.2573 C   0  0  0  0  0  0  0  0  0  0  0  0
    0.7913   -1.8355   -3.5303 O   0  5  0  0  0  0  0  0  0  0  0  0
   -1.3613   -1.3880   -3.1857 O   0  0  0  0  0  0  0  0  0  0  0  0
    0.7910   -0.0859    1.0276 C   0  0  0  0  0  0  0  0  0  0  0  0
    1.9634   -0.1413    1.3843 O   0  0  0  0  0  0  0  0  0  0  0  0
   -0.1037    0.6457    1.7870 N   0  0  0  0  0  0  0  0  0  0  0  0
   -1.0745    0.5278    1.5139 H   0  0  0  0  0  0  0  0  0  0  0  0
    0.1916    1.0917    3.1397 C   0  0  0  0  0  0  0  0  0  0  0  0
    1.0603    1.7580    3.1423 H   0  0  0  0  0  0  0  0  0  0  0  0
   -0.6629    1.6381    3.5495 H   0  0  0  0  0  0  0  0  0  0  0  0
    0.4004    0.2338    3.7869 H   0  0  0  0  0  0  0  0  0  0  0  0
  1  2  1  0  0  0  0
  2  3  1  0  0  0  0
  2  4  1  0  0  0  0
  2  5  1  0  0  0  0
  5  6  2  0  0  0  0
  5  7  1  0  0  0  0
  7  8  1  0  0  0  0
  7  9  1  0  0  0  0
  9 10  1  0  0  0  0
  9 11  1  0  0  0  0
  9 20  1  0  0  0  0
 11 12  1  0  0  0  0
 11 13  1  0  0  0  0
 11 14  1  0  0  0  0
 14 15  1  0  0  0  0
 14 16  1  0  0  0  0
 14 17  1  0  0  0  0
 17 18  1  0  0  0  0
 17 19  2  0  0  0  0
 20 21  2  0  0  0  0
 20 22  1  0  0  0  0
 22 23  1  0  0  0  0
 22 24  1  0  0  0  0
 24 25  1  0  0  0  0
 24 26  1  0  0  0  0
 24 27  1  0  0  0  0
M  CHG  1  18  -1
M  END
$$$$

  -OEChem-04042215583D

 27 26  0     1  0  0  0  0  0999 V2000
   -2.6528   -3.9982    0.4336 H   0  0  0  0  0  0  0  0  0  0  0  0
   -2.5664   -3.0760   -0.1467 C   0  0  0  0  0  0  0  0  0  0  0  0
   -3.4772   -2.4864   -0.0201 H   0  0  0  0  0  0  0  0  0  0  0  0
   -2.4569   -3.3337   -1.2043 H   0  0  0  0  0  0  0  0  0  0  0  0
   -1.3624   -2.2730    0.3102 C   0  0  0  0  0  0  0  0  0  0  0  0
   -0.7741   -2.5880    1.3343 O   0  0  0  0  0  0  0  0  0  0  0  0
   -0.9868   -1.1656   -0.4173 N   0  0  0  0  0  0  0  0  0  0  0  0
   -1.4784   -1.0898   -1.3175 H   0  0  0  0  0  0  0  0  0  0  0  0
    0.3595   -0.5633   -0.3814 C   0  0  1  0  0  0  0  0  0  0  0  0
    1.0847   -1.3256   -0.6877 H   0  0  0  0  0  0  0  0  0  0  0  0
    0.4597    0.6258   -1.3693 C   0  0  0  0  0  0  0  0  0  0  0  0
   -0.2687    1.3777   -1.0488 H   0  0  0  0  0  0  0  0  0  0  0  0
    1.4521    1.0781   -1.2678 H   0  0  0  0  0  0  0  0  0  0  0  0
    0.2132    0.3610   -2.8815 C   0  0  0  0  0  0  0  0  0  0  0  0
   -0.3832    1.1816   -3.2908 H   0  0  0  0  0  0  0  0  0  0  0  0
    1.1825    0.3929   -3.3885 H   0  0  0  0  0  0  0  0  0  0  0  0
   -0.4539   -0.9613   -3.2626 C   0  0  0  0  0  0  0  0  0  0  0  0
    0.2766   -1.9256   -3.5877 O   0  5  0  0  0  0  0  0  0  0  0  0
   -1.7021   -1.0314   -3.1100 O   0  0  0  0  0  0  0  0  0  0  0  0
    0.7856   -0.0747    1.0197 C   0  0  0  0  0  0  0  0  0  0  0  0
    1.9618   -0.1059    1.3666 O   0  0  0  0  0  0  0  0  0  0  0  0
   -0.1185    0.6397    1.7838 N   0  0  0  0  0  0  0  0  0  0  0  0
   -1.0886    0.5168    1.5098 H   0  0  0  0  0  0  0  0  0  0  0  0
    0.1763    1.1034    3.1304 C   0  0  0  0  0  0  0  0  0  0  0  0
    1.0410    1.7747    3.1242 H   0  0  0  0  0  0  0  0  0  0  0  0
   -0.6806    1.6498    3.5349 H   0  0  0  0  0  0  0  0  0  0  0  0
    0.3910    0.2541    3.7870 H   0  0  0  0  0  0  0  0  0  0  0  0
  1  2  1  0  0  0  0
  2  3  1  0  0  0  0
  2  4  1  0  0  0  0
  2  5  1  0  0  0  0
  5  6  2  0  0  0  0
  5  7  1  0  0  0  0
  7  8  1  0  0  0  0
  7  9  1  0  0  0  0
  9 10  1  0  0  0  0
  9 11  1  0  0  0  0
  9 20  1  0  0  0  0
 11 12  1  0  0  0  0
 11 13  1  0  0  0  0
 11 14  1  0  0  0  0
 14 15  1  0  0  0  0
 14 16  1  0  0  0  0
 14 17  1  0  0  0  0
 17 18  1  0  0  0  0
 17 19  2  0  0  0  0
 20 21  2  0  0  0  0
 20 22  1  0  0  0  0
 22 23  1  0  0  0  0
 22 24  1  0  0  0  0
 24 25  1  0  0  0  0
 24 26  1  0  0  0  0
 24 27  1  0  0  0  0
M  CHG  1  18  -1
M  END
$$$$

  -OEChem-04042215583D

 27 26  0     1  0  0  0  0  0999 V2000
   -2.7142   -3.9464    0.5321 H   0  0  0  0  0  0  0  0  0  0  0  0
   -2.6045   -3.0409   -0.0704 C   0  0  0  0  0  0  0  0  0  0  0  0
   -3.4758   -2.4002    0.0846 H   0  0  0  0  0  0  0  0  0  0  0  0
   -2.5568   -3.3220   -1.1265 H   0  0  0  0  0  0  0  0  0  0  0  0
   -1.3396   -2.2967    0.3161 C   0  0  0  0  0  0  0  0  0  0  0  0
   -0.6831   -2.6663    1.2787 O   0  0  0  0  0  0  0  0  0  0  0  0
   -0.9737   -1.1865   -0.4107 N   0  0  0  0  0  0  0  0  0  0  0  0
   -1.5361   -1.0333   -1.2577 H   0  0  0  0  0  0  0  0  0  0  0  0
    0.3619   -0.5636   -0.3947 C   0  0  1  0  0  0  0  0  0  0  0  0
    1.0912   -1.3224   -0.6982 H   0  0  0  0  0  0  0  0  0  0  0  0
    0.4552    0.6162   -1.3959 C   0  0  0  0  0  0  0  0  0  0  0  0
   -0.2861    1.3599   -1.0853 H   0  0  0  0  0  0  0  0  0  0  0  0
    1.4409    1.0831   -1.2982 H   0  0  0  0  0  0  0  0  0  0  0  0
    0.2116    0.3323   -2.9046 C   0  0  0  0  0  0  0  0  0  0  0  0
   -0.1434    1.2487   -3.3848 H   0  0  0  0  0  0  0  0  0  0  0  0
    1.1803    0.0933   -3.3542 H   0  0  0  0  0  0  0  0  0  0  0  0
   -0.7457   -0.8056   -3.2620 C   0  0  0  0  0  0  0  0  0  0  0  0
   -0.2639   -1.8708   -3.7120 O   0  5  0  0  0  0  0  0  0  0  0  0
   -1.9585   -0.6442   -2.9640 O   0  0  0  0  0  0  0  0  0  0  0  0
    0.7916   -0.0676    1.0021 C   0  0  0  0  0  0  0  0  0  0  0  0
    1.9707   -0.0839    1.3407 O   0  0  0  0  0  0  0  0  0  0  0  0
   -0.1174    0.6318    1.7741 N   0  0  0  0  0  0  0  0  0  0  0  0
   -1.0872    0.5188    1.4948 H   0  0  0  0  0  0  0  0  0  0  0  0
    0.1792    1.1107    3.1150 C   0  0  0  0  0  0  0  0  0  0  0  0
    1.0305    1.7987    3.0970 H   0  0  0  0  0  0  0  0  0  0  0  0
   -0.6850    1.6435    3.5223 H   0  0  0  0  0  0  0  0  0  0  0  0
    0.4153    0.2704    3.7760 H   0  0  0  0  0  0  0  0  0  0  0  0
  1  2  1  0  0  0  0
  2  3  1  0  0  0  0
  2  4  1  0  0  0  0
  2  5  1  0  0  0  0
  5  6  2  0  0  0  0
  5  7  1  0  0  0  0
  7  8  1  0  0  0  0
  7  9  1  0  0  0  0
  9 10  1  0  0  0  0
  9 11  1  0  0  0  0
  9 20  1  0  0  0  0
 11 12  1  0  0  0  0
 11 13  1  0  0  0  0
 11 14  1  0  0  0  0
 14 15  1  0  0  0  0
 14 16  1  0  0  0  0
 14 17  1  0  0  0  0
 17 18  1  0  0  0  0
 17 19  2  0  0  0  0
 20 21  2  0  0  0  0
 20 22  1  0  0  0  0
 22 23  1  0  0  0  0
 22 24  1  0  0  0  0
 24 25  1  0  0  0  0
 24 26  1  0  0  0  0
 24 27  1  0  0  0  0
M  CHG  1  18  -1
M  END
$$$$

  -OEChem-04042215583D

 27 26  0     1  0  0  0  0  0999 V2000
   -2.5944   -4.0106    0.5152 H   0  0  0  0  0  0  0  0  0  0  0  0
   -2.5276   -3.0846   -0.0619 C   0  0  0  0  0  0  0  0  0  0  0  0
   -3.3779   -2.4456    0.1882 H   0  0  0  0  0  0  0  0  0  0  0  0
   -2.5703   -3.3271   -1.1276 H   0  0  0  0  0  0  0  0  0  0  0  0
   -1.2292   -2.3615    0.2450 C   0  0  0  0  0  0  0  0  0  0  0  0
   -0.4768   -2.7934    1.1059 O   0  0  0  0  0  0  0  0  0  0  0  0
   -0.9323   -1.2049   -0.4391 N   0  0  0  0  0  0  0  0  0  0  0  0
   -1.5894   -0.9577   -1.1906 H   0  0  0  0  0  0  0  0  0  0  0  0
    0.3692   -0.5162   -0.4408 C   0  0  1  0  0  0  0  0  0  0  0  0
    1.1242   -1.2234   -0.7996 H   0  0  0  0  0  0  0  0  0  0  0  0
    0.3694    0.7051   -1.3944 C   0  0  0  0  0  0  0  0  0  0  0  0
   -0.3901    1.4067   -1.0342 H   0  0  0  0  0  0  0  0  0  0  0  0
    1.3388    1.2085   -1.3176 H   0  0  0  0  0  0  0  0  0  0  0  0
    0.0864    0.4458   -2.8985 C   0  0  0  0  0  0  0  0  0  0  0  0
   -0.0950    1.4064   -3.3883 H   0  0  0  0  0  0  0  0  0  0  0  0
    0.9929    0.0213   -3.3409 H   0  0  0  0  0  0  0  0  0  0  0  0
   -1.0799   -0.4876   -3.2303 C   0  0  0  0  0  0  0  0  0  0  0  0
   -2.1999   -0.2104   -2.7260 O   0  5  0  0  0  0  0  0  0  0  0  0
   -0.8428   -1.5206   -3.8981 O   0  0  0  0  0  0  0  0  0  0  0  0
    0.8187   -0.0603    0.9625 C   0  0  0  0  0  0  0  0  0  0  0  0
    2.0063   -0.0496    1.2700 O   0  0  0  0  0  0  0  0  0  0  0  0
   -0.0967    0.5573    1.7942 N   0  0  0  0  0  0  0  0  0  0  0  0
   -1.0689    0.4414    1.5237 H   0  0  0  0  0  0  0  0  0  0  0  0
    0.2158    0.9774    3.1510 C   0  0  0  0  0  0  0  0  0  0  0  0
    1.0451    1.6920    3.1503 H   0  0  0  0  0  0  0  0  0  0  0  0
   -0.6545    1.4609    3.6043 H   0  0  0  0  0  0  0  0  0  0  0  0
    0.4928    0.1127    3.7626 H   0  0  0  0  0  0  0  0  0  0  0  0
  1  2  1  0  0  0  0
  2  3  1  0  0  0  0
  2  4  1  0  0  0  0
  2  5  1  0  0  0  0
  5  6  2  0  0  0  0
  5  7  1  0  0  0  0
  7  8  1  0  0  0  0
  7  9  1  0  0  0  0
  9 10  1  0  0  0  0
  9 11  1  0  0  0  0
  9 20  1  0  0  0  0
 11 12  1  0  0  0  0
 11 13  1  0  0  0  0
 11 14  1  0  0  0  0
 14 15  1  0  0  0  0
 14 16  1  0  0  0  0
 14 17  1  0  0  0  0
 17 18  1  0  0  0  0
 17 19  2  0  0  0  0
 20 21  2  0  0  0  0
 20 22  1  0  0  0  0
 22 23  1  0  0  0  0
 22 24  1  0  0  0  0
 24 25  1  0  0  0  0
 24 26  1  0  0  0  0
 24 27  1  0  0  0  0
M  CHG  1  18  -1
M  END
$$$$

  -OEChem-04042215583D

 27 26  0     1  0  0  0  0  0999 V2000
   -2.6308   -3.9798    0.4666 H   0  0  0  0  0  0  0  0  0  0  0  0
   -2.5560   -3.0345   -0.0773 C   0  0  0  0  0  0  0  0  0  0  0  0
   -3.3645   -2.3730    0.2432 H   0  0  0  0  0  0  0  0  0  0  0  0
   -2.6657   -3.2319   -1.1473 H   0  0  0  0  0  0  0  0  0  0  0  0
   -1.2143   -2.3758    0.1861 C   0  0  0  0  0  0  0  0  0  0  0  0
   -0.4344   -2.8712    0.9861 O   0  0  0  0  0  0  0  0  0  0  0  0
   -0.9018   -1.2101   -0.4746 N   0  0  0  0  0  0  0  0  0  0  0  0
   -1.5990   -0.8732   -1.1514 H   0  0  0  0  0  0  0  0  0  0  0  0
    0.3948   -0.5161   -0.4496 C   0  0  1  0  0  0  0  0  0  0  0  0
    1.1613   -1.2086   -0.8118 H   0  0  0  0  0  0  0  0  0  0  0  0
    0.3749    0.7178   -1.3837 C   0  0  0  0  0  0  0  0  0  0  0  0
   -0.3802    1.4218   -1.0179 H   0  0  0  0  0  0  0  0  0  0  0  0
    1.3461    1.2182   -1.3134 H   0  0  0  0  0  0  0  0  0  0  0  0
    0.0934    0.4362   -2.8822 C   0  0  0  0  0  0  0  0  0  0  0  0
    0.1339    1.3862   -3.4220 H   0  0  0  0  0  0  0  0  0  0  0  0
    0.8972   -0.1973   -3.2693 H   0  0  0  0  0  0  0  0  0  0  0  0
   -1.2497   -0.2276   -3.2082 C   0  0  0  0  0  0  0  0  0  0  0  0
   -2.2550    0.1117   -2.5293 O   0  5  0  0  0  0  0  0  0  0  0  0
   -1.2596   -1.1258   -4.0815 O   0  0  0  0  0  0  0  0  0  0  0  0
    0.8230   -0.0751    0.9647 C   0  0  0  0  0  0  0  0  0  0  0  0
    2.0049   -0.0759    1.2930 O   0  0  0  0  0  0  0  0  0  0  0  0
   -0.1051    0.5285    1.7924 N   0  0  0  0  0  0  0  0  0  0  0  0
   -1.0723    0.4568    1.4900 H   0  0  0  0  0  0  0  0  0  0  0  0
    0.1889    0.9599    3.1499 C   0  0  0  0  0  0  0  0  0  0  0  0
    1.0015    1.6935    3.1516 H   0  0  0  0  0  0  0  0  0  0  0  0
   -0.6953    1.4244    3.5960 H   0  0  0  0  0  0  0  0  0  0  0  0
    0.4820    0.1041    3.7665 H   0  0  0  0  0  0  0  0  0  0  0  0
  1  2  1  0  0  0  0
  2  3  1  0  0  0  0
  2  4  1  0  0  0  0
  2  5  1  0  0  0  0
  5  6  2  0  0  0  0
  5  7  1  0  0  0  0
  7  8  1  0  0  0  0
  7  9  1  0  0  0  0
  9 10  1  0  0  0  0
  9 11  1  0  0  0  0
  9 20  1  0  0  0  0
 11 12  1  0  0  0  0
 11 13  1  0  0  0  0
 11 14  1  0  0  0  0
 14 15  1  0  0  0  0
 14 16  1  0  0  0  0
 14 17  1  0  0  0  0
 17 18  1  0  0  0  0
 17 19  2  0  0  0  0
 20 21  2  0  0  0  0
 20 22  1  0  0  0  0
 22 23  1  0  0  0  0
 22 24  1  0  0  0  0
 24 25  1  0  0  0  0
 24 26  1  0  0  0  0
 24 27  1  0  0  0  0
M  CHG  1  18  -1
M  END
$$$$

  -OEChem-04042215583D

 27 26  0     1  0  0  0  0  0999 V2000
   -2.6649   -3.9284    0.4618 H   0  0  0  0  0  0  0  0  0  0  0  0
   -2.5702   -2.9881   -0.0878 C   0  0  0  0  0  0  0  0  0  0  0  0
   -3.3483   -2.2986    0.2490 H   0  0  0  0  0  0  0  0  0  0  0  0
   -2.7114   -3.1847   -1.1540 H   0  0  0  0  0  0  0  0  0  0  0  0
   -1.2012   -2.3746    0.1428 C   0  0  0  0  0  0  0  0  0  0  0  0
   -0.4075   -2.9126    0.9003 O   0  0  0  0  0  0  0  0  0  0  0  0
   -0.8740   -1.2060   -0.5048 N   0  0  0  0  0  0  0  0  0  0  0  0
   -1.5893   -0.8108   -1.1294 H   0  0  0  0  0  0  0  0  0  0  0  0
    0.4220   -0.5145   -0.4550 C   0  0  1  0  0  0  0  0  0  0  0  0
    1.1974   -1.1963   -0.8182 H   0  0  0  0  0  0  0  0  0  0  0  0
    0.3792    0.7267   -1.3741 C   0  0  0  0  0  0  0  0  0  0  0  0
   -0.3655    1.4388   -1.0023 H   0  0  0  0  0  0  0  0  0  0  0  0
    1.3543    1.2212   -1.3170 H   0  0  0  0  0  0  0  0  0  0  0  0
    0.0937    0.4135   -2.8639 C   0  0  0  0  0  0  0  0  0  0  0  0
    0.3541    1.3000   -3.4489 H   0  0  0  0  0  0  0  0  0  0  0  0
    0.7502   -0.4005   -3.1855 H   0  0  0  0  0  0  0  0  0  0  0  0
   -1.3570    0.0495   -3.2159 C   0  0  0  0  0  0  0  0  0  0  0  0
   -2.2674    0.2962   -2.3800 O   0  5  0  0  0  0  0  0  0  0  0  0
   -1.5448   -0.5324   -4.3093 O   0  0  0  0  0  0  0  0  0  0  0  0
    0.8288   -0.0824    0.9677 C   0  0  0  0  0  0  0  0  0  0  0  0
    2.0040   -0.0982    1.3183 O   0  0  0  0  0  0  0  0  0  0  0  0
   -0.1109    0.5181    1.7843 N   0  0  0  0  0  0  0  0  0  0  0  0
   -1.0704    0.4843    1.4515 H   0  0  0  0  0  0  0  0  0  0  0  0
    0.1619    0.9577    3.1433 C   0  0  0  0  0  0  0  0  0  0  0  0
    0.9736    1.6921    3.1529 H   0  0  0  0  0  0  0  0  0  0  0  0
   -0.7298    1.4233    3.5730 H   0  0  0  0  0  0  0  0  0  0  0  0
    0.4463    0.1055    3.7689 H   0  0  0  0  0  0  0  0  0  0  0  0
  1  2  1  0  0  0  0
  2  3  1  0  0  0  0
  2  4  1  0  0  0  0
  2  5  1  0  0  0  0
  5  6  2  0  0  0  0
  5  7  1  0  0  0  0
  7  8  1  0  0  0  0
  7  9  1  0  0  0  0
  9 10  1  0  0  0  0
  9 11  1  0  0  0  0
  9 20  1  0  0  0  0
 11 12  1  0  0  0  0
 11 13  1  0  0  0  0
 11 14  1  0  0  0  0
 14 15  1  0  0  0  0
 14 16  1  0  0  0  0
 14 17  1  0  0  0  0
 17 18  1  0  0  0  0
 17 19  2  0  0  0  0
 20 21  2  0  0  0  0
 20 22  1  0  0  0  0
 22 23  1  0  0  0  0
 22 24  1  0  0  0  0
 24 25  1  0  0  0  0
 24 26  1  0  0  0  0
 24 27  1  0  0  0  0
M  CHG  1  18  -1
M  END
$$$$

  -OEChem-04042215583D

 27 26  0     1  0  0  0  0  0999 V2000
   -2.6942   -3.9032    0.4772 H   0  0  0  0  0  0  0  0  0  0  0  0
   -2.5860   -2.9710   -0.0833 C   0  0  0  0  0  0  0  0  0  0  0  0
   -3.3532   -2.2661    0.2466 H   0  0  0  0  0  0  0  0  0  0  0  0
   -2.7322   -3.1773   -1.1469 H   0  0  0  0  0  0  0  0  0  0  0  0
   -1.2080   -2.3750    0.1403 C   0  0  0  0  0  0  0  0  0  0  0  0
   -0.4170   -2.9243    0.8924 O   0  0  0  0  0  0  0  0  0  0  0  0
   -0.8690   -1.2111   -0.5092 N   0  0  0  0  0  0  0  0  0  0  0  0
   -1.5732   -0.8184   -1.1483 H   0  0  0  0  0  0  0  0  0  0  0  0
    0.4288   -0.5262   -0.4520 C   0  0  1  0  0  0  0  0  0  0  0  0
    1.2056   -1.2096   -0.8088 H   0  0  0  0  0  0  0  0  0  0  0  0
    0.3874    0.7138   -1.3720 C   0  0  0  0  0  0  0  0  0  0  0  0
   -0.3515    1.4340   -1.0044 H   0  0  0  0  0  0  0  0  0  0  0  0
    1.3663    1.2010   -1.3163 H   0  0  0  0  0  0  0  0  0  0  0  0
    0.1030    0.3893   -2.8591 C   0  0  0  0  0  0  0  0  0  0  0  0
    0.6012    1.1511   -3.4664 H   0  0  0  0  0  0  0  0  0  0  0  0
    0.5497   -0.5764   -3.1123 H   0  0  0  0  0  0  0  0  0  0  0  0
   -1.3782    0.3752   -3.2734 C   0  0  0  0  0  0  0  0  0  0  0  0
   -2.2645    0.2284   -2.3895 O   0  5  0  0  0  0  0  0  0  0  0  0
   -1.6163    0.4710   -4.5000 O   0  0  0  0  0  0  0  0  0  0  0  0
    0.8269   -0.0896    0.9718 C   0  0  0  0  0  0  0  0  0  0  0  0
    1.9993   -0.1107    1.3312 O   0  0  0  0  0  0  0  0  0  0  0  0
   -0.1155    0.5194    1.7790 N   0  0  0  0  0  0  0  0  0  0  0  0
   -1.0720    0.4986    1.4367 H   0  0  0  0  0  0  0  0  0  0  0  0
    0.1554    0.9909    3.1278 C   0  0  0  0  0  0  0  0  0  0  0  0
    0.9571    1.7363    3.1192 H   0  0  0  0  0  0  0  0  0  0  0  0
   -0.7413    1.4533    3.5505 H   0  0  0  0  0  0  0  0  0  0  0  0
    0.4533    0.1564    3.7704 H   0  0  0  0  0  0  0  0  0  0  0  0
  1  2  1  0  0  0  0
  2  3  1  0  0  0  0
  2  4  1  0  0  0  0
  2  5  1  0  0  0  0
  5  6  2  0  0  0  0
  5  7  1  0  0  0  0
  7  8  1  0  0  0  0
  7  9  1  0  0  0  0
  9 10  1  0  0  0  0
  9 11  1  0  0  0  0
  9 20  1  0  0  0  0
 11 12  1  0  0  0  0
 11 13  1  0  0  0  0
 11 14  1  0  0  0  0
 14 15  1  0  0  0  0
 14 16  1  0  0  0  0
 14 17  1  0  0  0  0
 17 18  1  0  0  0  0
 17 19  2  0  0  0  0
 20 21  2  0  0  0  0
 20 22  1  0  0  0  0
 22 23  1  0  0  0  0
 22 24  1  0  0  0  0
 24 25  1  0  0  0  0
 24 26  1  0  0  0  0
 24 27  1  0  0  0  0
M  CHG  1  18  -1
M  END
$$$$

  -OEChem-04042215583D

 27 26  0     1  0  0  0  0  0999 V2000
   -2.7106   -3.8815    0.3899 H   0  0  0  0  0  0  0  0  0  0  0  0
   -2.5925   -2.9410   -0.1545 C   0  0  0  0  0  0  0  0  0  0  0  0
   -3.3893   -2.2545    0.1424 H   0  0  0  0  0  0  0  0  0  0  0  0
   -2.6795   -3.1376   -1.2265 H   0  0  0  0  0  0  0  0  0  0  0  0
   -1.2399   -2.3215    0.1445 C   0  0  0  0  0  0  0  0  0  0  0  0
   -0.4960   -2.8399    0.9635 O   0  0  0  0  0  0  0  0  0  0  0  0
   -0.8688   -1.1751   -0.5186 N   0  0  0  0  0  0  0  0  0  0  0  0
   -1.5102   -0.8519   -1.2571 H   0  0  0  0  0  0  0  0  0  0  0  0
    0.4466   -0.5195   -0.4478 C   0  0  1  0  0  0  0  0  0  0  0  0
    1.2173   -1.2162   -0.7917 H   0  0  0  0  0  0  0  0  0  0  0  0
    0.3971    0.6981   -1.3890 C   0  0  0  0  0  0  0  0  0  0  0  0
   -0.3473    1.4214   -1.0374 H   0  0  0  0  0  0  0  0  0  0  0  0
    1.3717    1.1961   -1.3558 H   0  0  0  0  0  0  0  0  0  0  0  0
    0.1043    0.2986   -2.8527 C   0  0  0  0  0  0  0  0  0  0  0  0
    0.7798    0.8529   -3.5114 H   0  0  0  0  0  0  0  0  0  0  0  0
    0.2958   -0.7660   -3.0160 H   0  0  0  0  0  0  0  0  0  0  0  0
   -1.3372    0.6313   -3.2458 C   0  0  0  0  0  0  0  0  0  0  0  0
   -2.2431   -0.0492   -2.6937 O   0  5  0  0  0  0  0  0  0  0  0  0
   -1.5388    1.5629   -4.0599 O   0  0  0  0  0  0  0  0  0  0  0  0
    0.8415   -0.0672    0.9721 C   0  0  0  0  0  0  0  0  0  0  0  0
    2.0088   -0.1175    1.3447 O   0  0  0  0  0  0  0  0  0  0  0  0
   -0.0927    0.5798    1.7591 N   0  0  0  0  0  0  0  0  0  0  0  0
   -1.0490    0.5563    1.4170 H   0  0  0  0  0  0  0  0  0  0  0  0
    0.1716    1.0421    3.1124 C   0  0  0  0  0  0  0  0  0  0  0  0
    1.0092    1.7471    3.1204 H   0  0  0  0  0  0  0  0  0  0  0  0
   -0.7103    1.5502    3.5138 H   0  0  0  0  0  0  0  0  0  0  0  0
    0.4133    0.1957    3.7635 H   0  0  0  0  0  0  0  0  0  0  0  0
  1  2  1  0  0  0  0
  2  3  1  0  0  0  0
  2  4  1  0  0  0  0
  2  5  1  0  0  0  0
  5  6  2  0  0  0  0
  5  7  1  0  0  0  0
  7  8  1  0  0  0  0
  7  9  1  0  0  0  0
  9 10  1  0  0  0  0
  9 11  1  0  0  0  0
  9 20  1  0  0  0  0
 11 12  1  0  0  0  0
 11 13  1  0  0  0  0
 11 14  1  0  0  0  0
 14 15  1  0  0  0  0
 14 16  1  0  0  0  0
 14 17  1  0  0  0  0
 17 18  1  0  0  0  0
 17 19  2  0  0  0  0
 20 21  2  0  0  0  0
 20 22  1  0  0  0  0
 22 23  1  0  0  0  0
 22 24  1  0  0  0  0
 24 25  1  0  0  0  0
 24 26  1  0  0  0  0
 24 27  1  0  0  0  0
M  CHG  1  18  -1
M  END
$$$$

  -OEChem-04042215583D

 27 26  0     1  0  0  0  0  0999 V2000
   -2.7540   -3.8219    0.3463 H   0  0  0  0  0  0  0  0  0  0  0  0
   -2.6047   -2.8905   -0.2064 C   0  0  0  0  0  0  0  0  0  0  0  0
   -3.3755   -2.1743    0.0892 H   0  0  0  0  0  0  0  0  0  0  0  0
   -2.7038   -3.0935   -1.2760 H   0  0  0  0  0  0  0  0  0  0  0  0
   -1.2294   -2.3176    0.0836 C   0  0  0  0  0  0  0  0  0  0  0  0
   -0.4879   -2.8767    0.8771 O   0  0  0  0  0  0  0  0  0  0  0  0
   -0.8333   -1.1663   -0.5567 N   0  0  0  0  0  0  0  0  0  0  0  0
   -1.4829   -0.7741   -1.2534 H   0  0  0  0  0  0  0  0  0  0  0  0
    0.4878   -0.5190   -0.4454 C   0  0  1  0  0  0  0  0  0  0  0  0
    1.2695   -1.1985   -0.7994 H   0  0  0  0  0  0  0  0  0  0  0  0
    0.3901    0.6991   -1.3715 C   0  0  0  0  0  0  0  0  0  0  0  0
   -0.3788    1.3889   -1.0045 H   0  0  0  0  0  0  0  0  0  0  0  0
    1.3419    1.2398   -1.3499 H   0  0  0  0  0  0  0  0  0  0  0  0
    0.0972    0.2651   -2.8264 C   0  0  0  0  0  0  0  0  0  0  0  0
    0.9002    0.6272   -3.4754 H   0  0  0  0  0  0  0  0  0  0  0  0
    0.0638   -0.8226   -2.9393 H   0  0  0  0  0  0  0  0  0  0  0  0
   -1.2230    0.8708   -3.2856 C   0  0  0  0  0  0  0  0  0  0  0  0
   -2.2424    0.4062   -2.7056 O   0  5  0  0  0  0  0  0  0  0  0  0
   -1.2339    1.7647   -4.1643 O   0  0  0  0  0  0  0  0  0  0  0  0
    0.8635   -0.0801    0.9833 C   0  0  0  0  0  0  0  0  0  0  0  0
    2.0230   -0.1518    1.3761 O   0  0  0  0  0  0  0  0  0  0  0  0
   -0.0758    0.5698    1.7619 N   0  0  0  0  0  0  0  0  0  0  0  0
   -1.0220    0.5941    1.3927 H   0  0  0  0  0  0  0  0  0  0  0  0
    0.1819    1.0523    3.1092 C   0  0  0  0  0  0  0  0  0  0  0  0
    1.0231    1.7530    3.1109 H   0  0  0  0  0  0  0  0  0  0  0  0
   -0.6996    1.5711    3.4970 H   0  0  0  0  0  0  0  0  0  0  0  0
    0.4153    0.2155    3.7752 H   0  0  0  0  0  0  0  0  0  0  0  0
  1  2  1  0  0  0  0
  2  3  1  0  0  0  0
  2  4  1  0  0  0  0
  2  5  1  0  0  0  0
  5  6  2  0  0  0  0
  5  7  1  0  0  0  0
  7  8  1  0  0  0  0
  7  9  1  0  0  0  0
  9 10  1  0  0  0  0
  9 11  1  0  0  0  0
  9 20  1  0  0  0  0
 11 12  1  0  0  0  0
 11 13  1  0  0  0  0
 11 14  1  0  0  0  0
 14 15  1  0  0  0  0
 14 16  1  0  0  0  0
 14 17  1  0  0  0  0
 17 18  1  0  0  0  0
 17 19  2  0  0  0  0
 20 21  2  0  0  0  0
 20 22  1  0  0  0  0
 22 23  1  0  0  0  0
 22 24  1  0  0  0  0
 24 25  1  0  0  0  0
 24 26  1  0  0  0  0
 24 27  1  0  0  0  0
M  CHG  1  18  -1
M  END
$$$$

  -OEChem-04042215583D

 27 26  0     1  0  0  0  0  0999 V2000
   -2.7571   -3.8271    0.4043 H   0  0  0  0  0  0  0  0  0  0  0  0
   -2.6132   -2.9056   -0.1665 C   0  0  0  0  0  0  0  0  0  0  0  0
   -3.3795   -2.1838    0.1272 H   0  0  0  0  0  0  0  0  0  0  0  0
   -2.7257   -3.1280   -1.2308 H   0  0  0  0  0  0  0  0  0  0  0  0
   -1.2334   -2.3307    0.0980 C   0  0  0  0  0  0  0  0  0  0  0  0
   -0.4785   -2.8906    0.8767 O   0  0  0  0  0  0  0  0  0  0  0  0
   -0.8496   -1.1779   -0.5497 N   0  0  0  0  0  0  0  0  0  0  0  0
   -1.5016   -0.7885   -1.2367 H   0  0  0  0  0  0  0  0  0  0  0  0
    0.4717   -0.5306   -0.4511 C   0  0  1  0  0  0  0  0  0  0  0  0
    1.2486   -1.2145   -0.8073 H   0  0  0  0  0  0  0  0  0  0  0  0
    0.3901    0.6884   -1.3796 C   0  0  0  0  0  0  0  0  0  0  0  0
   -0.3880    1.3654   -1.0087 H   0  0  0  0  0  0  0  0  0  0  0  0
    1.3359    1.2396   -1.3482 H   0  0  0  0  0  0  0  0  0  0  0  0
    0.0962    0.2834   -2.8436 C   0  0  0  0  0  0  0  0  0  0  0  0
    1.0134    0.3767   -3.4326 H   0  0  0  0  0  0  0  0  0  0  0  0
   -0.2305   -0.7558   -2.9330 H   0  0  0  0  0  0  0  0  0  0  0  0
   -0.9820    1.1844   -3.4322 C   0  0  0  0  0  0  0  0  0  0  0  0
   -2.1469    0.9705   -3.0043 O   0  5  0  0  0  0  0  0  0  0  0  0
   -0.6683    2.0649   -4.2679 O   0  0  0  0  0  0  0  0  0  0  0  0
    0.8595   -0.0920    0.9755 C   0  0  0  0  0  0  0  0  0  0  0  0
    2.0180   -0.1827    1.3659 O   0  0  0  0  0  0  0  0  0  0  0  0
   -0.0713    0.5579    1.7647 N   0  0  0  0  0  0  0  0  0  0  0  0
   -1.0137    0.6187    1.3916 H   0  0  0  0  0  0  0  0  0  0  0  0
    0.2018    1.0447    3.1077 C   0  0  0  0  0  0  0  0  0  0  0  0
    1.0330    1.7570    3.0957 H   0  0  0  0  0  0  0  0  0  0  0  0
   -0.6807    1.5508    3.5099 H   0  0  0  0  0  0  0  0  0  0  0  0
    0.4573    0.2116    3.7702 H   0  0  0  0  0  0  0  0  0  0  0  0
  1  2  1  0  0  0  0
  2  3  1  0  0  0  0
  2  4  1  0  0  0  0
  2  5  1  0  0  0  0
  5  6  2  0  0  0  0
  5  7  1  0  0  0  0
  7  8  1  0  0  0  0
  7  9  1  0  0  0  0
  9 10  1  0  0  0  0
  9 11  1  0  0  0  0
  9 20  1  0  0  0  0
 11 12  1  0  0  0  0
 11 13  1  0  0  0  0
 11 14  1  0  0  0  0
 14 15  1  0  0  0  0
 14 16  1  0  0  0  0
 14 17  1  0  0  0  0
 17 18  1  0  0  0  0
 17 19  2  0  0  0  0
 20 21  2  0  0  0  0
 20 22  1  0  0  0  0
 22 23  1  0  0  0  0
 22 24  1  0  0  0  0
 24 25  1  0  0  0  0
 24 26  1  0  0  0  0
 24 27  1  0  0  0  0
M  CHG  1  18  -1
M  END
$$$$

  -OEChem-04042215583D

 27 26  0     1  0  0  0  0  0999 V2000
   -2.7670   -3.8571    0.4373 H   0  0  0  0  0  0  0  0  0  0  0  0
   -2.6281   -2.9457   -0.1509 C   0  0  0  0  0  0  0  0  0  0  0  0
   -3.4036   -2.2266    0.1244 H   0  0  0  0  0  0  0  0  0  0  0  0
   -2.7313   -3.1907   -1.2112 H   0  0  0  0  0  0  0  0  0  0  0  0
   -1.2549   -2.3537    0.1119 C   0  0  0  0  0  0  0  0  0  0  0  0
   -0.4941   -2.9055    0.8897 O   0  0  0  0  0  0  0  0  0  0  0  0
   -0.8836   -1.1973   -0.5389 N   0  0  0  0  0  0  0  0  0  0  0  0
   -1.5314   -0.8262   -1.2344 H   0  0  0  0  0  0  0  0  0  0  0  0
    0.4384   -0.5509   -0.4531 C   0  0  1  0  0  0  0  0  0  0  0  0
    1.2075   -1.2422   -0.8124 H   0  0  0  0  0  0  0  0  0  0  0  0
    0.3861    0.6764   -1.3773 C   0  0  0  0  0  0  0  0  0  0  0  0
   -0.3934    1.3531   -1.0089 H   0  0  0  0  0  0  0  0  0  0  0  0
    1.3356    1.2208   -1.3309 H   0  0  0  0  0  0  0  0  0  0  0  0
    0.0939    0.3072   -2.8490 C   0  0  0  0  0  0  0  0  0  0  0  0
    1.0363    0.1092   -3.3681 H   0  0  0  0  0  0  0  0  0  0  0  0
   -0.5132   -0.5972   -2.9328 H   0  0  0  0  0  0  0  0  0  0  0  0
   -0.6571    1.4386   -3.5434 C   0  0  0  0  0  0  0  0  0  0  0  0
   -1.8895    1.5095   -3.3022 O   0  5  0  0  0  0  0  0  0  0  0  0
   -0.0205    2.2262   -4.2830 O   0  0  0  0  0  0  0  0  0  0  0  0
    0.8439   -0.1171    0.9709 C   0  0  0  0  0  0  0  0  0  0  0  0
    2.0065   -0.2140    1.3467 O   0  0  0  0  0  0  0  0  0  0  0  0
   -0.0737    0.5311    1.7770 N   0  0  0  0  0  0  0  0  0  0  0  0
   -1.0111    0.6367    1.4025 H   0  0  0  0  0  0  0  0  0  0  0  0
    0.2394    1.0655    3.0931 C   0  0  0  0  0  0  0  0  0  0  0  0
    1.0241    1.8254    3.0198 H   0  0  0  0  0  0  0  0  0  0  0  0
   -0.6499    1.5263    3.5330 H   0  0  0  0  0  0  0  0  0  0  0  0
    0.5810    0.2656    3.7579 H   0  0  0  0  0  0  0  0  0  0  0  0
  1  2  1  0  0  0  0
  2  3  1  0  0  0  0
  2  4  1  0  0  0  0
  2  5  1  0  0  0  0
  5  6  2  0  0  0  0
  5  7  1  0  0  0  0
  7  8  1  0  0  0  0
  7  9  1  0  0  0  0
  9 10  1  0  0  0  0
  9 11  1  0  0  0  0
  9 20  1  0  0  0  0
 11 12  1  0  0  0  0
 11 13  1  0  0  0  0
 11 14  1  0  0  0  0
 14 15  1  0  0  0  0
 14 16  1  0  0  0  0
 14 17  1  0  0  0  0
 17 18  1  0  0  0  0
 17 19  2  0  0  0  0
 20 21  2  0  0  0  0
 20 22  1  0  0  0  0
 22 23  1  0  0  0  0
 22 24  1  0  0  0  0
 24 25  1  0  0  0  0
 24 26  1  0  0  0  0
 24 27  1  0  0  0  0
M  CHG  1  18  -1
M  END
$$$$

  -OEChem-04042215583D

 27 26  0     1  0  0  0  0  0999 V2000
   -2.7752   -3.8541    0.4598 H   0  0  0  0  0  0  0  0  0  0  0  0
   -2.6310   -2.9550   -0.1460 C   0  0  0  0  0  0  0  0  0  0  0  0
   -3.4070   -2.2294    0.1101 H   0  0  0  0  0  0  0  0  0  0  0  0
   -2.7270   -3.2219   -1.2015 H   0  0  0  0  0  0  0  0  0  0  0  0
   -1.2588   -2.3593    0.1135 C   0  0  0  0  0  0  0  0  0  0  0  0
   -0.4961   -2.9093    0.8902 O   0  0  0  0  0  0  0  0  0  0  0  0
   -0.8942   -1.2004   -0.5375 N   0  0  0  0  0  0  0  0  0  0  0  0
   -1.5406   -0.8387   -1.2368 H   0  0  0  0  0  0  0  0  0  0  0  0
    0.4289   -0.5557   -0.4594 C   0  0  1  0  0  0  0  0  0  0  0  0
    1.1952   -1.2473   -0.8248 H   0  0  0  0  0  0  0  0  0  0  0  0
    0.3839    0.6789   -1.3760 C   0  0  0  0  0  0  0  0  0  0  0  0
   -0.3876    1.3647   -1.0080 H   0  0  0  0  0  0  0  0  0  0  0  0
    1.3420    1.2083   -1.3298 H   0  0  0  0  0  0  0  0  0  0  0  0
    0.0846    0.3208   -2.8461 C   0  0  0  0  0  0  0  0  0  0  0  0
    0.9683   -0.1384   -3.2990 H   0  0  0  0  0  0  0  0  0  0  0  0
   -0.7350   -0.3973   -2.9256 H   0  0  0  0  0  0  0  0  0  0  0  0
   -0.3138    1.5690   -3.6284 C   0  0  0  0  0  0  0  0  0  0  0  0
   -1.4975    1.9661   -3.4808 O   0  5  0  0  0  0  0  0  0  0  0  0
    0.5458    2.1215   -4.3559 O   0  0  0  0  0  0  0  0  0  0  0  0
    0.8420   -0.1288    0.9650 C   0  0  0  0  0  0  0  0  0  0  0  0
    2.0048   -0.2328    1.3375 O   0  0  0  0  0  0  0  0  0  0  0  0
   -0.0718    0.5160    1.7782 N   0  0  0  0  0  0  0  0  0  0  0  0
   -1.0067    0.6361    1.4030 H   0  0  0  0  0  0  0  0  0  0  0  0
    0.2516    1.0589    3.0881 C   0  0  0  0  0  0  0  0  0  0  0  0
    1.0025    1.8503    2.9982 H   0  0  0  0  0  0  0  0  0  0  0  0
   -0.6447    1.4815    3.5511 H   0  0  0  0  0  0  0  0  0  0  0  0
    0.6412    0.2724    3.7424 H   0  0  0  0  0  0  0  0  0  0  0  0
  1  2  1  0  0  0  0
  2  3  1  0  0  0  0
  2  4  1  0  0  0  0
  2  5  1  0  0  0  0
  5  6  2  0  0  0  0
  5  7  1  0  0  0  0
  7  8  1  0  0  0  0
  7  9  1  0  0  0  0
  9 10  1  0  0  0  0
  9 11  1  0  0  0  0
  9 20  1  0  0  0  0
 11 12  1  0  0  0  0
 11 13  1  0  0  0  0
 11 14  1  0  0  0  0
 14 15  1  0  0  0  0
 14 16  1  0  0  0  0
 14 17  1  0  0  0  0
 17 18  1  0  0  0  0
 17 19  2  0  0  0  0
 20 21  2  0  0  0  0
 20 22  1  0  0  0  0
 22 23  1  0  0  0  0
 22 24  1  0  0  0  0
 24 25  1  0  0  0  0
 24 26  1  0  0  0  0
 24 27  1  0  0  0  0
M  CHG  1  18  -1
M  END
$$$$

  -OEChem-04042215583D

 27 26  0     1  0  0  0  0  0999 V2000
   -2.7619   -3.8928    0.4898 H   0  0  0  0  0  0  0  0  0  0  0  0
   -2.6348   -2.9946   -0.1211 C   0  0  0  0  0  0  0  0  0  0  0  0
   -3.4197   -2.2793    0.1370 H   0  0  0  0  0  0  0  0  0  0  0  0
   -2.7342   -3.2683   -1.1745 H   0  0  0  0  0  0  0  0  0  0  0  0
   -1.2695   -2.3778    0.1263 C   0  0  0  0  0  0  0  0  0  0  0  0
   -0.4888   -2.9210    0.8892 O   0  0  0  0  0  0  0  0  0  0  0  0
   -0.9316   -1.2094   -0.5230 N   0  0  0  0  0  0  0  0  0  0  0  0
   -1.5902   -0.8586   -1.2142 H   0  0  0  0  0  0  0  0  0  0  0  0
    0.3859   -0.5508   -0.4639 C   0  0  1  0  0  0  0  0  0  0  0  0
    1.1414   -1.2501   -0.8375 H   0  0  0  0  0  0  0  0  0  0  0  0
    0.3665    0.6850   -1.3871 C   0  0  0  0  0  0  0  0  0  0  0  0
   -0.1949    1.4904   -0.9009 H   0  0  0  0  0  0  0  0  0  0  0  0
    1.3935    1.0398   -1.5269 H   0  0  0  0  0  0  0  0  0  0  0  0
   -0.2695    0.4207   -2.7676 C   0  0  0  0  0  0  0  0  0  0  0  0
    0.2797   -0.3745   -3.2807 H   0  0  0  0  0  0  0  0  0  0  0  0
   -1.3098    0.1011   -2.6690 H   0  0  0  0  0  0  0  0  0  0  0  0
   -0.2515    1.6882   -3.6184 C   0  0  0  0  0  0  0  0  0  0  0  0
   -1.1541    2.5326   -3.3931 O   0  5  0  0  0  0  0  0  0  0  0  0
    0.6456    1.8076   -4.4872 O   0  0  0  0  0  0  0  0  0  0  0  0
    0.8250   -0.1288    0.9546 C   0  0  0  0  0  0  0  0  0  0  0  0
    1.9953   -0.2280    1.3035 O   0  0  0  0  0  0  0  0  0  0  0  0
   -0.0774    0.5012    1.7921 N   0  0  0  0  0  0  0  0  0  0  0  0
   -1.0152    0.6346    1.4292 H   0  0  0  0  0  0  0  0  0  0  0  0
    0.2717    1.0471    3.0945 C   0  0  0  0  0  0  0  0  0  0  0  0
    0.9959    1.8607    2.9853 H   0  0  0  0  0  0  0  0  0  0  0  0
   -0.6216    1.4404    3.5885 H   0  0  0  0  0  0  0  0  0  0  0  0
    0.7046    0.2692    3.7318 H   0  0  0  0  0  0  0  0  0  0  0  0
  1  2  1  0  0  0  0
  2  3  1  0  0  0  0
  2  4  1  0  0  0  0
  2  5  1  0  0  0  0
  5  6  2  0  0  0  0
  5  7  1  0  0  0  0
  7  8  1  0  0  0  0
  7  9  1  0  0  0  0
  9 10  1  0  0  0  0
  9 11  1  0  0  0  0
  9 20  1  0  0  0  0
 11 12  1  0  0  0  0
 11 13  1  0  0  0  0
 11 14  1  0  0  0  0
 14 15  1  0  0  0  0
 14 16  1  0  0  0  0
 14 17  1  0  0  0  0
 17 18  1  0  0  0  0
 17 19  2  0  0  0  0
 20 21  2  0  0  0  0
 20 22  1  0  0  0  0
 22 23  1  0  0  0  0
 22 24  1  0  0  0  0
 24 25  1  0  0  0  0
 24 26  1  0  0  0  0
 24 27  1  0  0  0  0
M  CHG  1  18  -1
M  END
$$$$

  -OEChem-04042215583D

 27 26  0     1  0  0  0  0  0999 V2000
   -2.7597   -3.8912    0.4266 H   0  0  0  0  0  0  0  0  0  0  0  0
   -2.6265   -2.9878   -0.1751 C   0  0  0  0  0  0  0  0  0  0  0  0
   -3.4349   -2.2891    0.0546 H   0  0  0  0  0  0  0  0  0  0  0  0
   -2.6791   -3.2580   -1.2329 H   0  0  0  0  0  0  0  0  0  0  0  0
   -1.2838   -2.3468    0.1284 C   0  0  0  0  0  0  0  0  0  0  0  0
   -0.5336   -2.8670    0.9365 O   0  0  0  0  0  0  0  0  0  0  0  0
   -0.9347   -1.1807   -0.5190 N   0  0  0  0  0  0  0  0  0  0  0  0
   -1.5535   -0.8705   -1.2642 H   0  0  0  0  0  0  0  0  0  0  0  0
    0.3895   -0.5356   -0.4532 C   0  0  1  0  0  0  0  0  0  0  0  0
    1.1405   -1.2383   -0.8296 H   0  0  0  0  0  0  0  0  0  0  0  0
    0.3666    0.7014   -1.3735 C   0  0  0  0  0  0  0  0  0  0  0  0
   -0.1797    1.5200   -0.8928 H   0  0  0  0  0  0  0  0  0  0  0  0
    1.3983    1.0391   -1.5234 H   0  0  0  0  0  0  0  0  0  0  0  0
   -0.2801    0.4202   -2.7454 C   0  0  0  0  0  0  0  0  0  0  0  0
    0.0963   -0.5285   -3.1407 H   0  0  0  0  0  0  0  0  0  0  0  0
   -1.3662    0.3390   -2.6464 H   0  0  0  0  0  0  0  0  0  0  0  0
    0.0369    1.5309   -3.7444 C   0  0  0  0  0  0  0  0  0  0  0  0
   -0.5284    2.6374   -3.5621 O   0  5  0  0  0  0  0  0  0  0  0  0
    0.8075    1.2651   -4.6983 O   0  0  0  0  0  0  0  0  0  0  0  0
    0.8332   -0.1180    0.9651 C   0  0  0  0  0  0  0  0  0  0  0  0
    2.0024   -0.2291    1.3141 O   0  0  0  0  0  0  0  0  0  0  0  0
   -0.0620    0.5219    1.8026 N   0  0  0  0  0  0  0  0  0  0  0  0
   -1.0118    0.6201    1.4608 H   0  0  0  0  0  0  0  0  0  0  0  0
    0.2842    1.0300    3.1209 C   0  0  0  0  0  0  0  0  0  0  0  0
    1.0892    1.7682    3.0462 H   0  0  0  0  0  0  0  0  0  0  0  0
   -0.5852    1.5113    3.5781 H   0  0  0  0  0  0  0  0  0  0  0  0
    0.6112    0.2123    3.7712 H   0  0  0  0  0  0  0  0  0  0  0  0
  1  2  1  0  0  0  0
  2  3  1  0  0  0  0
  2  4  1  0  0  0  0
  2  5  1  0  0  0  0
  5  6  2  0  0  0  0
  5  7  1  0  0  0  0
  7  8  1  0  0  0  0
  7  9  1  0  0  0  0
  9 10  1  0  0  0  0
  9 11  1  0  0  0  0
  9 20  1  0  0  0  0
 11 12  1  0  0  0  0
 11 13  1  0  0  0  0
 11 14  1  0  0  0  0
 14 15  1  0  0  0  0
 14 16  1  0  0  0  0
 14 17  1  0  0  0  0
 17 18  1  0  0  0  0
 17 19  2  0  0  0  0
 20 21  2  0  0  0  0
 20 22  1  0  0  0  0
 22 23  1  0  0  0  0
 22 24  1  0  0  0  0
 24 25  1  0  0  0  0
 24 26  1  0  0  0  0
 24 27  1  0  0  0  0
M  CHG  1  18  -1
M  END
$$$$

  -OEChem-04042215583D

 27 26  0     1  0  0  0  0  0999 V2000
   -2.7451   -3.8903    0.3985 H   0  0  0  0  0  0  0  0  0  0  0  0
   -2.6168   -2.9797   -0.1935 C   0  0  0  0  0  0  0  0  0  0  0  0
   -3.4418   -2.2975    0.0257 H   0  0  0  0  0  0  0  0  0  0  0  0
   -2.6439   -3.2428   -1.2541 H   0  0  0  0  0  0  0  0  0  0  0  0
   -1.2921   -2.3175    0.1413 C   0  0  0  0  0  0  0  0  0  0  0  0
   -0.5649   -2.8135    0.9847 O   0  0  0  0  0  0  0  0  0  0  0  0
   -0.9367   -1.1569   -0.5131 N   0  0  0  0  0  0  0  0  0  0  0  0
   -1.5301   -0.8773   -1.2905 H   0  0  0  0  0  0  0  0  0  0  0  0
    0.3935   -0.5219   -0.4492 C   0  0  1  0  0  0  0  0  0  0  0  0
    1.1404   -1.2297   -0.8244 H   0  0  0  0  0  0  0  0  0  0  0  0
    0.3722    0.7115   -1.3739 C   0  0  0  0  0  0  0  0  0  0  0  0
   -0.1616    1.5405   -0.8975 H   0  0  0  0  0  0  0  0  0  0  0  0
    1.4081    1.0361   -1.5258 H   0  0  0  0  0  0  0  0  0  0  0  0
   -0.2817    0.4267   -2.7440 C   0  0  0  0  0  0  0  0  0  0  0  0
   -0.1167   -0.6193   -3.0215 H   0  0  0  0  0  0  0  0  0  0  0  0
   -1.3610    0.5940   -2.6858 H   0  0  0  0  0  0  0  0  0  0  0  0
    0.3079    1.3028   -3.8488 C   0  0  0  0  0  0  0  0  0  0  0  0
    0.1116    2.5401   -3.7646 O   0  5  0  0  0  0  0  0  0  0  0  0
    0.9084    0.7324   -4.7918 O   0  0  0  0  0  0  0  0  0  0  0  0
    0.8394   -0.1013    0.9677 C   0  0  0  0  0  0  0  0  0  0  0  0
    2.0062   -0.2228    1.3212 O   0  0  0  0  0  0  0  0  0  0  0  0
   -0.0529    0.5494    1.7999 N   0  0  0  0  0  0  0  0  0  0  0  0
   -1.0118    0.6057    1.4750 H   0  0  0  0  0  0  0  0  0  0  0  0
    0.2767    1.0000    3.1430 C   0  0  0  0  0  0  0  0  0  0  0  0
    1.1142    1.7046    3.1157 H   0  0  0  0  0  0  0  0  0  0  0  0
   -0.5843    1.5043    3.5915 H   0  0  0  0  0  0  0  0  0  0  0  0
    0.5496    0.1484    3.7745 H   0  0  0  0  0  0  0  0  0  0  0  0
  1  2  1  0  0  0  0
  2  3  1  0  0  0  0
  2  4  1  0  0  0  0
  2  5  1  0  0  0  0
  5  6  2  0  0  0  0
  5  7  1  0  0  0  0
  7  8  1  0  0  0  0
  7  9  1  0  0  0  0
  9 10  1  0  0  0  0
  9 11  1  0  0  0  0
  9 20  1  0  0  0  0
 11 12  1  0  0  0  0
 11 13  1  0  0  0  0
 11 14  1  0  0  0  0
 14 15  1  0  0  0  0
 14 16  1  0  0  0  0
 14 17  1  0  0  0  0
 17 18  1  0  0  0  0
 17 19  2  0  0  0  0
 20 21  2  0  0  0  0
 20 22  1  0  0  0  0
 22 23  1  0  0  0  0
 22 24  1  0  0  0  0
 24 25  1  0  0  0  0
 24 26  1  0  0  0  0
 24 27  1  0  0  0  0
M  CHG  1  18  -1
M  END
$$$$

  -OEChem-04042215583D

 27 26  0     1  0  0  0  0  0999 V2000
   -2.7483   -3.8897    0.3973 H   0  0  0  0  0  0  0  0  0  0  0  0
   -2.6181   -2.9811   -0.1971 C   0  0  0  0  0  0  0  0  0  0  0  0
   -3.4520   -2.3045    0.0047 H   0  0  0  0  0  0  0  0  0  0  0  0
   -2.6253   -3.2499   -1.2565 H   0  0  0  0  0  0  0  0  0  0  0  0
   -1.3051   -2.3055    0.1555 C   0  0  0  0  0  0  0  0  0  0  0  0
   -0.5940   -2.7832    1.0227 O   0  0  0  0  0  0  0  0  0  0  0  0
   -0.9483   -1.1487   -0.5048 N   0  0  0  0  0  0  0  0  0  0  0  0
   -1.5269   -0.8914   -1.3008 H   0  0  0  0  0  0  0  0  0  0  0  0
    0.3856   -0.5206   -0.4475 C   0  0  1  0  0  0  0  0  0  0  0  0
    1.1274   -1.2346   -0.8218 H   0  0  0  0  0  0  0  0  0  0  0  0
    0.3751    0.7101   -1.3775 C   0  0  0  0  0  0  0  0  0  0  0  0
   -0.1541    1.5404   -0.8986 H   0  0  0  0  0  0  0  0  0  0  0  0
    1.4135    1.0308   -1.5202 H   0  0  0  0  0  0  0  0  0  0  0  0
   -0.2789    0.4446   -2.7555 C   0  0  0  0  0  0  0  0  0  0  0  0
   -0.3713   -0.6306   -2.9363 H   0  0  0  0  0  0  0  0  0  0  0  0
   -1.2854    0.8725   -2.7754 H   0  0  0  0  0  0  0  0  0  0  0  0
    0.5464    1.0276   -3.9020 C   0  0  0  0  0  0  0  0  0  0  0  0
    0.5697    2.2776   -4.0153 O   0  5  0  0  0  0  0  0  0  0  0  0
    1.1196    0.2239   -4.6773 O   0  0  0  0  0  0  0  0  0  0  0  0
    0.8367   -0.0989    0.9679 C   0  0  0  0  0  0  0  0  0  0  0  0
    2.0039   -0.2216    1.3190 O   0  0  0  0  0  0  0  0  0  0  0  0
   -0.0506    0.5582    1.8006 N   0  0  0  0  0  0  0  0  0  0  0  0
   -1.0159    0.5861    1.4915 H   0  0  0  0  0  0  0  0  0  0  0  0
    0.2796    0.9821    3.1526 C   0  0  0  0  0  0  0  0  0  0  0  0
    1.1280    1.6740    3.1404 H   0  0  0  0  0  0  0  0  0  0  0  0
   -0.5752    1.4927    3.6055 H   0  0  0  0  0  0  0  0  0  0  0  0
    0.5364    0.1161    3.7712 H   0  0  0  0  0  0  0  0  0  0  0  0
  1  2  1  0  0  0  0
  2  3  1  0  0  0  0
  2  4  1  0  0  0  0
  2  5  1  0  0  0  0
  5  6  2  0  0  0  0
  5  7  1  0  0  0  0
  7  8  1  0  0  0  0
  7  9  1  0  0  0  0
  9 10  1  0  0  0  0
  9 11  1  0  0  0  0
  9 20  1  0  0  0  0
 11 12  1  0  0  0  0
 11 13  1  0  0  0  0
 11 14  1  0  0  0  0
 14 15  1  0  0  0  0
 14 16  1  0  0  0  0
 14 17  1  0  0  0  0
 17 18  1  0  0  0  0
 17 19  2  0  0  0  0
 20 21  2  0  0  0  0
 20 22  1  0  0  0  0
 22 23  1  0  0  0  0
 22 24  1  0  0  0  0
 24 25  1  0  0  0  0
 24 26  1  0  0  0  0
 24 27  1  0  0  0  0
M  CHG  1  18  -1
M  END
$$$$

  -OEChem-04042215583D

 27 26  0     1  0  0  0  0  0999 V2000
   -2.7554   -3.8955    0.4055 H   0  0  0  0  0  0  0  0  0  0  0  0
   -2.6226   -2.9915   -0.1957 C   0  0  0  0  0  0  0  0  0  0  0  0
   -3.4662   -2.3204   -0.0162 H   0  0  0  0  0  0  0  0  0  0  0  0
   -2.6084   -3.2715   -1.2523 H   0  0  0  0  0  0  0  0  0  0  0  0
   -1.3221   -2.3001    0.1728 C   0  0  0  0  0  0  0  0  0  0  0  0
   -0.6268   -2.7574    1.0635 O   0  0  0  0  0  0  0  0  0  0  0  0
   -0.9647   -1.1473   -0.4945 N   0  0  0  0  0  0  0  0  0  0  0  0
   -1.5312   -0.9129   -1.3059 H   0  0  0  0  0  0  0  0  0  0  0  0
    0.3734   -0.5268   -0.4469 C   0  0  1  0  0  0  0  0  0  0  0  0
    1.1078   -1.2488   -0.8211 H   0  0  0  0  0  0  0  0  0  0  0  0
    0.3845    0.7040   -1.3795 C   0  0  0  0  0  0  0  0  0  0  0  0
   -0.1505    1.5260   -0.8931 H   0  0  0  0  0  0  0  0  0  0  0  0
    1.4225    1.0326   -1.5065 H   0  0  0  0  0  0  0  0  0  0  0  0
   -0.2654    0.4727   -2.7681 C   0  0  0  0  0  0  0  0  0  0  0  0
   -0.6510   -0.5440   -2.8746 H   0  0  0  0  0  0  0  0  0  0  0  0
   -1.1121    1.1550   -2.8870 H   0  0  0  0  0  0  0  0  0  0  0  0
    0.7240    0.7089   -3.9080 C   0  0  0  0  0  0  0  0  0  0  0  0
    0.9482    1.8968   -4.2459 O   0  5  0  0  0  0  0  0  0  0  0  0
    1.2315   -0.3026   -4.4512 O   0  0  0  0  0  0  0  0  0  0  0  0
    0.8311   -0.1046    0.9669 C   0  0  0  0  0  0  0  0  0  0  0  0
    2.0001   -0.2219    1.3136 O   0  0  0  0  0  0  0  0  0  0  0  0
   -0.0519    0.5587    1.7995 N   0  0  0  0  0  0  0  0  0  0  0  0
   -1.0218    0.5606    1.5045 H   0  0  0  0  0  0  0  0  0  0  0  0
    0.2806    0.9720    3.1542 C   0  0  0  0  0  0  0  0  0  0  0  0
    1.1338    1.6580    3.1468 H   0  0  0  0  0  0  0  0  0  0  0  0
   -0.5710    1.4864    3.6090 H   0  0  0  0  0  0  0  0  0  0  0  0
    0.5306    0.1006    3.7681 H   0  0  0  0  0  0  0  0  0  0  0  0
  1  2  1  0  0  0  0
  2  3  1  0  0  0  0
  2  4  1  0  0  0  0
  2  5  1  0  0  0  0
  5  6  2  0  0  0  0
  5  7  1  0  0  0  0
  7  8  1  0  0  0  0
  7  9  1  0  0  0  0
  9 10  1  0  0  0  0
  9 11  1  0  0  0  0
  9 20  1  0  0  0  0
 11 12  1  0  0  0  0
 11 13  1  0  0  0  0
 11 14  1  0  0  0  0
 14 15  1  0  0  0  0
 14 16  1  0  0  0  0
 14 17  1  0  0  0  0
 17 18  1  0  0  0  0
 17 19  2  0  0  0  0
 20 21  2  0  0  0  0
 20 22  1  0  0  0  0
 22 23  1  0  0  0  0
 22 24  1  0  0  0  0
 24 25  1  0  0  0  0
 24 26  1  0  0  0  0
 24 27  1  0  0  0  0
M  CHG  1  18  -1
M  END
$$$$

  -OEChem-04042215583D

 27 26  0     1  0  0  0  0  0999 V2000
   -2.7868   -3.8750    0.4215 H   0  0  0  0  0  0  0  0  0  0  0  0
   -2.6265   -3.0003   -0.2152 C   0  0  0  0  0  0  0  0  0  0  0  0
   -3.4822   -2.3283   -0.1139 H   0  0  0  0  0  0  0  0  0  0  0  0
   -2.5530   -3.3308   -1.2545 H   0  0  0  0  0  0  0  0  0  0  0  0
   -1.3507   -2.2826    0.1881 C   0  0  0  0  0  0  0  0  0  0  0  0
   -0.6896   -2.7080    1.1200 O   0  0  0  0  0  0  0  0  0  0  0  0
   -0.9886   -1.1348   -0.4856 N   0  0  0  0  0  0  0  0  0  0  0  0
   -1.5290   -0.9377   -1.3235 H   0  0  0  0  0  0  0  0  0  0  0  0
    0.3579   -0.5315   -0.4454 C   0  0  1  0  0  0  0  0  0  0  0  0
    1.0801   -1.2656   -0.8218 H   0  0  0  0  0  0  0  0  0  0  0  0
    0.4034    0.7025   -1.3751 C   0  0  0  0  0  0  0  0  0  0  0  0
   -0.1309    1.5199   -0.8806 H   0  0  0  0  0  0  0  0  0  0  0  0
    1.4442    1.0275   -1.4906 H   0  0  0  0  0  0  0  0  0  0  0  0
   -0.2432    0.5073   -2.7704 C   0  0  0  0  0  0  0  0  0  0  0  0
   -0.9122   -0.3532   -2.8186 H   0  0  0  0  0  0  0  0  0  0  0  0
   -0.8488    1.3902   -2.9966 H   0  0  0  0  0  0  0  0  0  0  0  0
    0.8116    0.3584   -3.8635 C   0  0  0  0  0  0  0  0  0  0  0  0
    1.0428    1.3465   -4.6021 O   0  5  0  0  0  0  0  0  0  0  0  0
    1.3696   -0.7616   -3.9608 O   0  0  0  0  0  0  0  0  0  0  0  0
    0.8229   -0.1153    0.9684 C   0  0  0  0  0  0  0  0  0  0  0  0
    1.9947   -0.2243    1.3089 O   0  0  0  0  0  0  0  0  0  0  0  0
   -0.0546    0.5581    1.7992 N   0  0  0  0  0  0  0  0  0  0  0  0
   -1.0287    0.5291    1.5195 H   0  0  0  0  0  0  0  0  0  0  0  0
    0.2804    0.9545    3.1583 C   0  0  0  0  0  0  0  0  0  0  0  0
    1.1299    1.6451    3.1573 H   0  0  0  0  0  0  0  0  0  0  0  0
   -0.5724    1.4574    3.6236 H   0  0  0  0  0  0  0  0  0  0  0  0
    0.5379    0.0765    3.7596 H   0  0  0  0  0  0  0  0  0  0  0  0
  1  2  1  0  0  0  0
  2  3  1  0  0  0  0
  2  4  1  0  0  0  0
  2  5  1  0  0  0  0
  5  6  2  0  0  0  0
  5  7  1  0  0  0  0
  7  8  1  0  0  0  0
  7  9  1  0  0  0  0
  9 10  1  0  0  0  0
  9 11  1  0  0  0  0
  9 20  1  0  0  0  0
 11 12  1  0  0  0  0
 11 13  1  0  0  0  0
 11 14  1  0  0  0  0
 14 15  1  0  0  0  0
 14 16  1  0  0  0  0
 14 17  1  0  0  0  0
 17 18  1  0  0  0  0
 17 19  2  0  0  0  0
 20 21  2  0  0  0  0
 20 22  1  0  0  0  0
 22 23  1  0  0  0  0
 22 24  1  0  0  0  0
 24 25  1  0  0  0  0
 24 26  1  0  0  0  0
 24 27  1  0  0  0  0
M  CHG  1  18  -1
M  END
$$$$

  -OEChem-04042215583D

 27 26  0     1  0  0  0  0  0999 V2000
   -2.7777   -3.8891    0.3966 H   0  0  0  0  0  0  0  0  0  0  0  0
   -2.5987   -3.0340   -0.2612 C   0  0  0  0  0  0  0  0  0  0  0  0
   -3.4792   -2.3872   -0.2479 H   0  0  0  0  0  0  0  0  0  0  0  0
   -2.4408   -3.4007   -1.2788 H   0  0  0  0  0  0  0  0  0  0  0  0
   -1.3769   -2.2605    0.2019 C   0  0  0  0  0  0  0  0  0  0  0  0
   -0.7691   -2.6326    1.1917 O   0  0  0  0  0  0  0  0  0  0  0  0
   -1.0133   -1.1167   -0.4780 N   0  0  0  0  0  0  0  0  0  0  0  0
   -1.5023   -0.9848   -1.3591 H   0  0  0  0  0  0  0  0  0  0  0  0
    0.3389   -0.5273   -0.4333 C   0  0  1  0  0  0  0  0  0  0  0  0
    1.0518   -1.2731   -0.8052 H   0  0  0  0  0  0  0  0  0  0  0  0
    0.4121    0.7072   -1.3622 C   0  0  0  0  0  0  0  0  0  0  0  0
   -0.1166    1.5307   -0.8717 H   0  0  0  0  0  0  0  0  0  0  0  0
    1.4571    1.0180   -1.4749 H   0  0  0  0  0  0  0  0  0  0  0  0
   -0.2275    0.5200   -2.7583 C   0  0  0  0  0  0  0  0  0  0  0  0
   -1.1099   -0.1212   -2.7479 H   0  0  0  0  0  0  0  0  0  0  0  0
   -0.5649    1.5001   -3.1083 H   0  0  0  0  0  0  0  0  0  0  0  0
    0.7814   -0.0110   -3.7714 C   0  0  0  0  0  0  0  0  0  0  0  0
    1.3257    0.7999   -4.5592 O   0  5  0  0  0  0  0  0  0  0  0  0
    0.9830   -1.2503   -3.7561 O   0  0  0  0  0  0  0  0  0  0  0  0
    0.8081   -0.1112    0.9793 C   0  0  0  0  0  0  0  0  0  0  0  0
    1.9836   -0.2117    1.3111 O   0  0  0  0  0  0  0  0  0  0  0  0
   -0.0625    0.5742    1.8073 N   0  0  0  0  0  0  0  0  0  0  0  0
   -1.0406    0.5134    1.5467 H   0  0  0  0  0  0  0  0  0  0  0  0
    0.2817    0.9727    3.1633 C   0  0  0  0  0  0  0  0  0  0  0  0
    1.1338    1.6599    3.1552 H   0  0  0  0  0  0  0  0  0  0  0  0
   -0.5662    1.4803    3.6322 H   0  0  0  0  0  0  0  0  0  0  0  0
    0.5394    0.0954    3.7652 H   0  0  0  0  0  0  0  0  0  0  0  0
  1  2  1  0  0  0  0
  2  3  1  0  0  0  0
  2  4  1  0  0  0  0
  2  5  1  0  0  0  0
  5  6  2  0  0  0  0
  5  7  1  0  0  0  0
  7  8  1  0  0  0  0
  7  9  1  0  0  0  0
  9 10  1  0  0  0  0
  9 11  1  0  0  0  0
  9 20  1  0  0  0  0
 11 12  1  0  0  0  0
 11 13  1  0  0  0  0
 11 14  1  0  0  0  0
 14 15  1  0  0  0  0
 14 16  1  0  0  0  0
 14 17  1  0  0  0  0
 17 18  1  0  0  0  0
 17 19  2  0  0  0  0
 20 21  2  0  0  0  0
 20 22  1  0  0  0  0
 22 23  1  0  0  0  0
 22 24  1  0  0  0  0
 24 25  1  0  0  0  0
 24 26  1  0  0  0  0
 24 27  1  0  0  0  0
M  CHG  1  18  -1
M  END
$$$$

  -OEChem-04042215583D

 27 26  0     1  0  0  0  0  0999 V2000
   -2.7295   -3.9102    0.3537 H   0  0  0  0  0  0  0  0  0  0  0  0
   -2.5534   -3.0525   -0.3015 C   0  0  0  0  0  0  0  0  0  0  0  0
   -3.4606   -2.4445   -0.3405 H   0  0  0  0  0  0  0  0  0  0  0  0
   -2.3262   -3.4183   -1.3067 H   0  0  0  0  0  0  0  0  0  0  0  0
   -1.3924   -2.2232    0.2171 C   0  0  0  0  0  0  0  0  0  0  0  0
   -0.8527   -2.5337    1.2667 O   0  0  0  0  0  0  0  0  0  0  0  0
   -1.0210   -1.0897   -0.4755 N   0  0  0  0  0  0  0  0  0  0  0  0
   -1.4440   -1.0358   -1.4000 H   0  0  0  0  0  0  0  0  0  0  0  0
    0.3377   -0.5187   -0.4224 C   0  0  1  0  0  0  0  0  0  0  0  0
    1.0439   -1.2757   -0.7837 H   0  0  0  0  0  0  0  0  0  0  0  0
    0.4252    0.7132   -1.3536 C   0  0  0  0  0  0  0  0  0  0  0  0
   -0.0851    1.5531   -0.8717 H   0  0  0  0  0  0  0  0  0  0  0  0
    1.4759    0.9982   -1.4783 H   0  0  0  0  0  0  0  0  0  0  0  0
   -0.2189    0.5109   -2.7421 C   0  0  0  0  0  0  0  0  0  0  0  0
   -1.2321    0.1084   -2.6758 H   0  0  0  0  0  0  0  0  0  0  0  0
   -0.3103    1.4919   -3.2179 H   0  0  0  0  0  0  0  0  0  0  0  0
    0.6381   -0.3655   -3.6475 C   0  0  0  0  0  0  0  0  0  0  0  0
    1.4699    0.1779   -4.4127 O   0  5  0  0  0  0  0  0  0  0  0  0
    0.4309   -1.6021   -3.5624 O   0  0  0  0  0  0  0  0  0  0  0  0
    0.8014   -0.0954    0.9897 C   0  0  0  0  0  0  0  0  0  0  0  0
    1.9753   -0.1993    1.3267 O   0  0  0  0  0  0  0  0  0  0  0  0
   -0.0676    0.6096    1.8027 N   0  0  0  0  0  0  0  0  0  0  0  0
   -1.0451    0.5278    1.5438 H   0  0  0  0  0  0  0  0  0  0  0  0
    0.2637    0.9857    3.1685 C   0  0  0  0  0  0  0  0  0  0  0  0
    1.1467    1.6327    3.1842 H   0  0  0  0  0  0  0  0  0  0  0  0
   -0.5706    1.5301    3.6204 H   0  0  0  0  0  0  0  0  0  0  0  0
    0.4661    0.0939    3.7707 H   0  0  0  0  0  0  0  0  0  0  0  0
  1  2  1  0  0  0  0
  2  3  1  0  0  0  0
  2  4  1  0  0  0  0
  2  5  1  0  0  0  0
  5  6  2  0  0  0  0
  5  7  1  0  0  0  0
  7  8  1  0  0  0  0
  7  9  1  0  0  0  0
  9 10  1  0  0  0  0
  9 11  1  0  0  0  0
  9 20  1  0  0  0  0
 11 12  1  0  0  0  0
 11 13  1  0  0  0  0
 11 14  1  0  0  0  0
 14 15  1  0  0  0  0
 14 16  1  0  0  0  0
 14 17  1  0  0  0  0
 17 18  1  0  0  0  0
 17 19  2  0  0  0  0
 20 21  2  0  0  0  0
 20 22  1  0  0  0  0
 22 23  1  0  0  0  0
 22 24  1  0  0  0  0
 24 25  1  0  0  0  0
 24 26  1  0  0  0  0
 24 27  1  0  0  0  0
M  CHG  1  18  -1
M  END
$$$$

  -OEChem-04042215583D

 27 26  0     1  0  0  0  0  0999 V2000
   -2.6450   -3.9663    0.2604 H   0  0  0  0  0  0  0  0  0  0  0  0
   -2.5052   -3.0770   -0.3602 C   0  0  0  0  0  0  0  0  0  0  0  0
   -3.4501   -2.5316   -0.4198 H   0  0  0  0  0  0  0  0  0  0  0  0
   -2.2124   -3.3925   -1.3658 H   0  0  0  0  0  0  0  0  0  0  0  0
   -1.4276   -2.1856    0.2294 C   0  0  0  0  0  0  0  0  0  0  0  0
   -0.9728   -2.4359    1.3349 O   0  0  0  0  0  0  0  0  0  0  0  0
   -1.0373   -1.0644   -0.4711 N   0  0  0  0  0  0  0  0  0  0  0  0
   -1.3897   -1.0855   -1.4303 H   0  0  0  0  0  0  0  0  0  0  0  0
    0.3318   -0.5228   -0.4042 C   0  0  1  0  0  0  0  0  0  0  0  0
    1.0276   -1.2937   -0.7556 H   0  0  0  0  0  0  0  0  0  0  0  0
    0.4346    0.7064   -1.3369 C   0  0  0  0  0  0  0  0  0  0  0  0
   -0.0499    1.5648   -0.8611 H   0  0  0  0  0  0  0  0  0  0  0  0
    1.4921    0.9583   -1.4735 H   0  0  0  0  0  0  0  0  0  0  0  0
   -0.2162    0.4978   -2.7203 C   0  0  0  0  0  0  0  0  0  0  0  0
   -1.2946    0.3436   -2.6228 H   0  0  0  0  0  0  0  0  0  0  0  0
   -0.0838    1.4130   -3.3049 H   0  0  0  0  0  0  0  0  0  0  0  0
    0.4014   -0.6572   -3.4984 C   0  0  0  0  0  0  0  0  0  0  0  0
    1.4001   -0.4483   -4.2259 O   0  5  0  0  0  0  0  0  0  0  0  0
   -0.1578   -1.7726   -3.3331 O   0  0  0  0  0  0  0  0  0  0  0  0
    0.7946   -0.0977    1.0075 C   0  0  0  0  0  0  0  0  0  0  0  0
    1.9671   -0.2146    1.3467 O   0  0  0  0  0  0  0  0  0  0  0  0
   -0.0636    0.6336    1.8084 N   0  0  0  0  0  0  0  0  0  0  0  0
   -1.0427    0.5494    1.5543 H   0  0  0  0  0  0  0  0  0  0  0  0
    0.2718    1.0214    3.1700 C   0  0  0  0  0  0  0  0  0  0  0  0
    1.1712    1.6454    3.1808 H   0  0  0  0  0  0  0  0  0  0  0  0
   -0.5495    1.5943    3.6100 H   0  0  0  0  0  0  0  0  0  0  0  0
    0.4487    0.1341    3.7865 H   0  0  0  0  0  0  0  0  0  0  0  0
  1  2  1  0  0  0  0
  2  3  1  0  0  0  0
  2  4  1  0  0  0  0
  2  5  1  0  0  0  0
  5  6  2  0  0  0  0
  5  7  1  0  0  0  0
  7  8  1  0  0  0  0
  7  9  1  0  0  0  0
  9 10  1  0  0  0  0
  9 11  1  0  0  0  0
  9 20  1  0  0  0  0
 11 12  1  0  0  0  0
 11 13  1  0  0  0  0
 11 14  1  0  0  0  0
 14 15  1  0  0  0  0
 14 16  1  0  0  0  0
 14 17  1  0  0  0  0
 17 18  1  0  0  0  0
 17 19  2  0  0  0  0
 20 21  2  0  0  0  0
 20 22  1  0  0  0  0
 22 23  1  0  0  0  0
 22 24  1  0  0  0  0
 24 25  1  0  0  0  0
 24 26  1  0  0  0  0
 24 27  1  0  0  0  0
M  CHG  1  18  -1
M  END
$$$$

  -OEChem-04042215583D

 27 26  0     1  0  0  0  0  0999 V2000
   -2.6600   -3.9613    0.3120 H   0  0  0  0  0  0  0  0  0  0  0  0
   -2.5027   -3.0903   -0.3298 C   0  0  0  0  0  0  0  0  0  0  0  0
   -3.4388   -2.5330   -0.4107 H   0  0  0  0  0  0  0  0  0  0  0  0
   -2.2086   -3.4354   -1.3253 H   0  0  0  0  0  0  0  0  0  0  0  0
   -1.4157   -2.1995    0.2437 C   0  0  0  0  0  0  0  0  0  0  0  0
   -0.9548   -2.4438    1.3486 O   0  0  0  0  0  0  0  0  0  0  0  0
   -1.0240   -1.0847   -0.4660 N   0  0  0  0  0  0  0  0  0  0  0  0
   -1.3661   -1.1338   -1.4327 H   0  0  0  0  0  0  0  0  0  0  0  0
    0.3438   -0.5366   -0.3950 C   0  0  1  0  0  0  0  0  0  0  0  0
    1.0468   -1.3056   -0.7353 H   0  0  0  0  0  0  0  0  0  0  0  0
    0.4421    0.6888   -1.3342 C   0  0  0  0  0  0  0  0  0  0  0  0
   -0.0330    1.5549   -0.8628 H   0  0  0  0  0  0  0  0  0  0  0  0
    1.5029    0.9276   -1.4677 H   0  0  0  0  0  0  0  0  0  0  0  0
   -0.1951    0.4939   -2.7277 C   0  0  0  0  0  0  0  0  0  0  0  0
   -1.2828    0.5754   -2.6407 H   0  0  0  0  0  0  0  0  0  0  0  0
    0.1337    1.3058   -3.3828 H   0  0  0  0  0  0  0  0  0  0  0  0
    0.1456   -0.8384   -3.3895 C   0  0  0  0  0  0  0  0  0  0  0  0
    1.2317   -0.9569   -4.0019 O   0  5  0  0  0  0  0  0  0  0  0  0
   -0.7000   -1.7579   -3.2273 O   0  0  0  0  0  0  0  0  0  0  0  0
    0.7934   -0.0949    1.0158 C   0  0  0  0  0  0  0  0  0  0  0  0
    1.9654   -0.1957    1.3623 O   0  0  0  0  0  0  0  0  0  0  0  0
   -0.0753    0.6409    1.8009 N   0  0  0  0  0  0  0  0  0  0  0  0
   -1.0517    0.5449    1.5399 H   0  0  0  0  0  0  0  0  0  0  0  0
    0.2447    1.0440    3.1615 C   0  0  0  0  0  0  0  0  0  0  0  0
    1.1378    1.6771    3.1743 H   0  0  0  0  0  0  0  0  0  0  0  0
   -0.5862    1.6124    3.5893 H   0  0  0  0  0  0  0  0  0  0  0  0
    0.4248    0.1639    3.7872 H   0  0  0  0  0  0  0  0  0  0  0  0
  1  2  1  0  0  0  0
  2  3  1  0  0  0  0
  2  4  1  0  0  0  0
  2  5  1  0  0  0  0
  5  6  2  0  0  0  0
  5  7  1  0  0  0  0
  7  8  1  0  0  0  0
  7  9  1  0  0  0  0
  9 10  1  0  0  0  0
  9 11  1  0  0  0  0
  9 20  1  0  0  0  0
 11 12  1  0  0  0  0
 11 13  1  0  0  0  0
 11 14  1  0  0  0  0
 14 15  1  0  0  0  0
 14 16  1  0  0  0  0
 14 17  1  0  0  0  0
 17 18  1  0  0  0  0
 17 19  2  0  0  0  0
 20 21  2  0  0  0  0
 20 22  1  0  0  0  0
 22 23  1  0  0  0  0
 22 24  1  0  0  0  0
 24 25  1  0  0  0  0
 24 26  1  0  0  0  0
 24 27  1  0  0  0  0
M  CHG  1  18  -1
M  END
$$$$

  -OEChem-04042215583D

 27 26  0     1  0  0  0  0  0999 V2000
   -2.6816   -3.9671    0.3897 H   0  0  0  0  0  0  0  0  0  0  0  0
   -2.5200   -3.1050   -0.2629 C   0  0  0  0  0  0  0  0  0  0  0  0
   -3.4414   -2.5206   -0.3173 H   0  0  0  0  0  0  0  0  0  0  0  0
   -2.2697   -3.4630   -1.2659 H   0  0  0  0  0  0  0  0  0  0  0  0
   -1.3895   -2.2425    0.2679 C   0  0  0  0  0  0  0  0  0  0  0  0
   -0.8753   -2.5121    1.3433 O   0  0  0  0  0  0  0  0  0  0  0  0
   -1.0109   -1.1265   -0.4464 N   0  0  0  0  0  0  0  0  0  0  0  0
   -1.4061   -1.1420   -1.3955 H   0  0  0  0  0  0  0  0  0  0  0  0
    0.3472   -0.5506   -0.3848 C   0  0  1  0  0  0  0  0  0  0  0  0
    1.0609   -1.3147   -0.7146 H   0  0  0  0  0  0  0  0  0  0  0  0
    0.4436    0.6630   -1.3407 C   0  0  0  0  0  0  0  0  0  0  0  0
   -0.0326    1.5323   -0.8762 H   0  0  0  0  0  0  0  0  0  0  0  0
    1.5068    0.8990   -1.4571 H   0  0  0  0  0  0  0  0  0  0  0  0
   -0.1624    0.4904   -2.7553 C   0  0  0  0  0  0  0  0  0  0  0  0
   -1.2062    0.8176   -2.7240 H   0  0  0  0  0  0  0  0  0  0  0  0
    0.3604    1.1550   -3.4492 H   0  0  0  0  0  0  0  0  0  0  0  0
   -0.1312   -0.9320   -3.3149 C   0  0  0  0  0  0  0  0  0  0  0  0
    0.9475   -1.3743   -3.7719 O   0  5  0  0  0  0  0  0  0  0  0  0
   -1.1952   -1.5976   -3.2056 O   0  0  0  0  0  0  0  0  0  0  0  0
    0.7878   -0.0910    1.0230 C   0  0  0  0  0  0  0  0  0  0  0  0
    1.9637   -0.1544    1.3660 O   0  0  0  0  0  0  0  0  0  0  0  0
   -0.0967    0.6319    1.8023 N   0  0  0  0  0  0  0  0  0  0  0  0
   -1.0711    0.5186    1.5410 H   0  0  0  0  0  0  0  0  0  0  0  0
    0.2183    1.0712    3.1528 C   0  0  0  0  0  0  0  0  0  0  0  0
    1.0928    1.7299    3.1474 H   0  0  0  0  0  0  0  0  0  0  0  0
   -0.6263    1.6241    3.5741 H   0  0  0  0  0  0  0  0  0  0  0  0
    0.4272    0.2095    3.7950 H   0  0  0  0  0  0  0  0  0  0  0  0
  1  2  1  0  0  0  0
  2  3  1  0  0  0  0
  2  4  1  0  0  0  0
  2  5  1  0  0  0  0
  5  6  2  0  0  0  0
  5  7  1  0  0  0  0
  7  8  1  0  0  0  0
  7  9  1  0  0  0  0
  9 10  1  0  0  0  0
  9 11  1  0  0  0  0
  9 20  1  0  0  0  0
 11 12  1  0  0  0  0
 11 13  1  0  0  0  0
 11 14  1  0  0  0  0
 14 15  1  0  0  0  0
 14 16  1  0  0  0  0
 14 17  1  0  0  0  0
 17 18  1  0  0  0  0
 17 19  2  0  0  0  0
 20 21  2  0  0  0  0
 20 22  1  0  0  0  0
 22 23  1  0  0  0  0
 22 24  1  0  0  0  0
 24 25  1  0  0  0  0
 24 26  1  0  0  0  0
 24 27  1  0  0  0  0
M  CHG  1  18  -1
M  END
$$$$

  -OEChem-04042215583D

 27 26  0     1  0  0  0  0  0999 V2000
   -2.6606   -3.9995    0.4594 H   0  0  0  0  0  0  0  0  0  0  0  0
   -2.5400   -3.1152   -0.1717 C   0  0  0  0  0  0  0  0  0  0  0  0
   -3.4575   -2.5230   -0.1369 H   0  0  0  0  0  0  0  0  0  0  0  0
   -2.3680   -3.4376   -1.2028 H   0  0  0  0  0  0  0  0  0  0  0  0
   -1.3654   -2.2799    0.3040 C   0  0  0  0  0  0  0  0  0  0  0  0
   -0.7877   -2.5784    1.3390 O   0  0  0  0  0  0  0  0  0  0  0  0
   -1.0078   -1.1617   -0.4172 N   0  0  0  0  0  0  0  0  0  0  0  0
   -1.4734   -1.1256   -1.3330 H   0  0  0  0  0  0  0  0  0  0  0  0
    0.3376   -0.5545   -0.3773 C   0  0  1  0  0  0  0  0  0  0  0  0
    1.0561   -1.3193   -0.6939 H   0  0  0  0  0  0  0  0  0  0  0  0
    0.4466    0.6387   -1.3608 C   0  0  0  0  0  0  0  0  0  0  0  0
   -0.0416    1.5093   -0.9113 H   0  0  0  0  0  0  0  0  0  0  0  0
    1.5107    0.8810   -1.4509 H   0  0  0  0  0  0  0  0  0  0  0  0
   -0.1206    0.4815   -2.7986 C   0  0  0  0  0  0  0  0  0  0  0  0
   -1.0486    1.0580   -2.8623 H   0  0  0  0  0  0  0  0  0  0  0  0
    0.5825    0.9339   -3.5043 H   0  0  0  0  0  0  0  0  0  0  0  0
   -0.4272   -0.9415   -3.2670 C   0  0  0  0  0  0  0  0  0  0  0  0
    0.5249   -1.6583   -3.6514 O   0  5  0  0  0  0  0  0  0  0  0  0
   -1.6163   -1.3365   -3.1384 O   0  0  0  0  0  0  0  0  0  0  0  0
    0.7774   -0.0768    1.0237 C   0  0  0  0  0  0  0  0  0  0  0  0
    1.9575   -0.1069    1.3572 O   0  0  0  0  0  0  0  0  0  0  0  0
   -0.1190    0.6292    1.8044 N   0  0  0  0  0  0  0  0  0  0  0  0
   -1.0920    0.5055    1.5421 H   0  0  0  0  0  0  0  0  0  0  0  0
    0.1918    1.0812    3.1514 C   0  0  0  0  0  0  0  0  0  0  0  0
    1.0443    1.7678    3.1380 H   0  0  0  0  0  0  0  0  0  0  0  0
   -0.6673    1.6071    3.5779 H   0  0  0  0  0  0  0  0  0  0  0  0
    0.4332    0.2281    3.7936 H   0  0  0  0  0  0  0  0  0  0  0  0
  1  2  1  0  0  0  0
  2  3  1  0  0  0  0
  2  4  1  0  0  0  0
  2  5  1  0  0  0  0
  5  6  2  0  0  0  0
  5  7  1  0  0  0  0
  7  8  1  0  0  0  0
  7  9  1  0  0  0  0
  9 10  1  0  0  0  0
  9 11  1  0  0  0  0
  9 20  1  0  0  0  0
 11 12  1  0  0  0  0
 11 13  1  0  0  0  0
 11 14  1  0  0  0  0
 14 15  1  0  0  0  0
 14 16  1  0  0  0  0
 14 17  1  0  0  0  0
 17 18  1  0  0  0  0
 17 19  2  0  0  0  0
 20 21  2  0  0  0  0
 20 22  1  0  0  0  0
 22 23  1  0  0  0  0
 22 24  1  0  0  0  0
 24 25  1  0  0  0  0
 24 26  1  0  0  0  0
 24 27  1  0  0  0  0
M  CHG  1  18  -1
M  END
$$$$

  -OEChem-04042215583D

 27 26  0     1  0  0  0  0  0999 V2000
   -2.6228   -4.0432    0.4952 H   0  0  0  0  0  0  0  0  0  0  0  0
   -2.5606   -3.1152   -0.0788 C   0  0  0  0  0  0  0  0  0  0  0  0
   -3.4642   -2.5259    0.0938 H   0  0  0  0  0  0  0  0  0  0  0  0
   -2.4983   -3.3615   -1.1429 H   0  0  0  0  0  0  0  0  0  0  0  0
   -1.3364   -2.3182    0.3331 C   0  0  0  0  0  0  0  0  0  0  0  0
   -0.6947   -2.6519    1.3187 O   0  0  0  0  0  0  0  0  0  0  0  0
   -0.9978   -1.1975   -0.3918 N   0  0  0  0  0  0  0  0  0  0  0  0
   -1.5373   -1.0972   -1.2606 H   0  0  0  0  0  0  0  0  0  0  0  0
    0.3314   -0.5581   -0.3738 C   0  0  1  0  0  0  0  0  0  0  0  0
    1.0578   -1.3197   -0.6791 H   0  0  0  0  0  0  0  0  0  0  0  0
    0.4447    0.6179   -1.3810 C   0  0  0  0  0  0  0  0  0  0  0  0
   -0.0791    1.4743   -0.9441 H   0  0  0  0  0  0  0  0  0  0  0  0
    1.5026    0.8936   -1.4448 H   0  0  0  0  0  0  0  0  0  0  0  0
   -0.0918    0.4657   -2.8350 C   0  0  0  0  0  0  0  0  0  0  0  0
   -0.8306    1.2530   -3.0130 H   0  0  0  0  0  0  0  0  0  0  0  0
    0.7373    0.6545   -3.5233 H   0  0  0  0  0  0  0  0  0  0  0  0
   -0.7253   -0.8678   -3.2317 C   0  0  0  0  0  0  0  0  0  0  0  0
    0.0258   -1.7817   -3.6427 O   0  5  0  0  0  0  0  0  0  0  0  0
   -1.9572   -1.0025   -3.0076 O   0  0  0  0  0  0  0  0  0  0  0  0
    0.7688   -0.0634    1.0216 C   0  0  0  0  0  0  0  0  0  0  0  0
    1.9518   -0.0630    1.3461 O   0  0  0  0  0  0  0  0  0  0  0  0
   -0.1399    0.6230    1.8056 N   0  0  0  0  0  0  0  0  0  0  0  0
   -1.1115    0.4864    1.5436 H   0  0  0  0  0  0  0  0  0  0  0  0
    0.1669    1.0924    3.1478 C   0  0  0  0  0  0  0  0  0  0  0  0
    1.0171    1.7819    3.1283 H   0  0  0  0  0  0  0  0  0  0  0  0
   -0.6945    1.6203    3.5668 H   0  0  0  0  0  0  0  0  0  0  0  0
    0.4102    0.2478    3.8003 H   0  0  0  0  0  0  0  0  0  0  0  0
  1  2  1  0  0  0  0
  2  3  1  0  0  0  0
  2  4  1  0  0  0  0
  2  5  1  0  0  0  0
  5  6  2  0  0  0  0
  5  7  1  0  0  0  0
  7  8  1  0  0  0  0
  7  9  1  0  0  0  0
  9 10  1  0  0  0  0
  9 11  1  0  0  0  0
  9 20  1  0  0  0  0
 11 12  1  0  0  0  0
 11 13  1  0  0  0  0
 11 14  1  0  0  0  0
 14 15  1  0  0  0  0
 14 16  1  0  0  0  0
 14 17  1  0  0  0  0
 17 18  1  0  0  0  0
 17 19  2  0  0  0  0
 20 21  2  0  0  0  0
 20 22  1  0  0  0  0
 22 23  1  0  0  0  0
 22 24  1  0  0  0  0
 24 25  1  0  0  0  0
 24 26  1  0  0  0  0
 24 27  1  0  0  0  0
M  CHG  1  18  -1
M  END
$$$$

  -OEChem-04042215583D

 27 26  0     1  0  0  0  0  0999 V2000
   -2.6362   -4.0282    0.5901 H   0  0  0  0  0  0  0  0  0  0  0  0
   -2.5775   -3.1008    0.0146 C   0  0  0  0  0  0  0  0  0  0  0  0
   -3.4467   -2.4804    0.2452 H   0  0  0  0  0  0  0  0  0  0  0  0
   -2.5919   -3.3443   -1.0518 H   0  0  0  0  0  0  0  0  0  0  0  0
   -1.3020   -2.3495    0.3486 C   0  0  0  0  0  0  0  0  0  0  0  0
   -0.5953   -2.7254    1.2726 O   0  0  0  0  0  0  0  0  0  0  0  0
   -0.9819   -1.2257   -0.3788 N   0  0  0  0  0  0  0  0  0  0  0  0
   -1.5969   -1.0508   -1.1830 H   0  0  0  0  0  0  0  0  0  0  0  0
    0.3326   -0.5604   -0.3859 C   0  0  1  0  0  0  0  0  0  0  0  0
    1.0665   -1.3146   -0.6894 H   0  0  0  0  0  0  0  0  0  0  0  0
    0.4356    0.6102   -1.4035 C   0  0  0  0  0  0  0  0  0  0  0  0
   -0.1193    1.4474   -0.9679 H   0  0  0  0  0  0  0  0  0  0  0  0
    1.4843    0.9204   -1.4583 H   0  0  0  0  0  0  0  0  0  0  0  0
   -0.0961    0.4608   -2.8608 C   0  0  0  0  0  0  0  0  0  0  0  0
   -0.6017    1.3885   -3.1442 H   0  0  0  0  0  0  0  0  0  0  0  0
    0.7740    0.3675   -3.5180 H   0  0  0  0  0  0  0  0  0  0  0  0
   -1.0266   -0.7066   -3.1871 C   0  0  0  0  0  0  0  0  0  0  0  0
   -0.5314   -1.7385   -3.6959 O   0  5  0  0  0  0  0  0  0  0  0  0
   -2.2221   -0.6054   -2.8056 O   0  0  0  0  0  0  0  0  0  0  0  0
    0.7727   -0.0559    1.0044 C   0  0  0  0  0  0  0  0  0  0  0  0
    1.9575   -0.0410    1.3226 O   0  0  0  0  0  0  0  0  0  0  0  0
   -0.1431    0.6112    1.7968 N   0  0  0  0  0  0  0  0  0  0  0  0
   -1.1140    0.4774    1.5301 H   0  0  0  0  0  0  0  0  0  0  0  0
    0.1614    1.0809    3.1391 C   0  0  0  0  0  0  0  0  0  0  0  0
    1.0031    1.7807    3.1190 H   0  0  0  0  0  0  0  0  0  0  0  0
   -0.7054    1.5973    3.5618 H   0  0  0  0  0  0  0  0  0  0  0  0
    0.4163    0.2371    3.7884 H   0  0  0  0  0  0  0  0  0  0  0  0
  1  2  1  0  0  0  0
  2  3  1  0  0  0  0
  2  4  1  0  0  0  0
  2  5  1  0  0  0  0
  5  6  2  0  0  0  0
  5  7  1  0  0  0  0
  7  8  1  0  0  0  0
  7  9  1  0  0  0  0
  9 10  1  0  0  0  0
  9 11  1  0  0  0  0
  9 20  1  0  0  0  0
 11 12  1  0  0  0  0
 11 13  1  0  0  0  0
 11 14  1  0  0  0  0
 14 15  1  0  0  0  0
 14 16  1  0  0  0  0
 14 17  1  0  0  0  0
 17 18  1  0  0  0  0
 17 19  2  0  0  0  0
 20 21  2  0  0  0  0
 20 22  1  0  0  0  0
 22 23  1  0  0  0  0
 22 24  1  0  0  0  0
 24 25  1  0  0  0  0
 24 26  1  0  0  0  0
 24 27  1  0  0  0  0
M  CHG  1  18  -1
M  END
$$$$

  -OEChem-04042215583D

 27 26  0     1  0  0  0  0  0999 V2000
   -2.6050   -4.0031    0.7666 H   0  0  0  0  0  0  0  0  0  0  0  0
   -2.5626   -3.0888    0.1691 C   0  0  0  0  0  0  0  0  0  0  0  0
   -3.3850   -2.4318    0.4619 H   0  0  0  0  0  0  0  0  0  0  0  0
   -2.6791   -3.3494   -0.8868 H   0  0  0  0  0  0  0  0  0  0  0  0
   -1.2365   -2.3808    0.3760 C   0  0  0  0  0  0  0  0  0  0  0  0
   -0.4386   -2.8007    1.2015 O   0  0  0  0  0  0  0  0  0  0  0  0
   -0.9625   -1.2532   -0.3630 N   0  0  0  0  0  0  0  0  0  0  0  0
   -1.6743   -0.9997   -1.0591 H   0  0  0  0  0  0  0  0  0  0  0  0
    0.3324   -0.5580   -0.4338 C   0  0  1  0  0  0  0  0  0  0  0  0
    1.0690   -1.2969   -0.7651 H   0  0  0  0  0  0  0  0  0  0  0  0
    0.3683    0.6095   -1.4602 C   0  0  0  0  0  0  0  0  0  0  0  0
   -0.1916    1.4338   -1.0065 H   0  0  0  0  0  0  0  0  0  0  0  0
    1.4051    0.9465   -1.5623 H   0  0  0  0  0  0  0  0  0  0  0  0
   -0.2239    0.4348   -2.8900 C   0  0  0  0  0  0  0  0  0  0  0  0
   -0.5194    1.4173   -3.2688 H   0  0  0  0  0  0  0  0  0  0  0  0
    0.5879    0.0803   -3.5325 H   0  0  0  0  0  0  0  0  0  0  0  0
   -1.3982   -0.5246   -3.0866 C   0  0  0  0  0  0  0  0  0  0  0  0
   -1.2027   -1.5852   -3.7241 O   0  5  0  0  0  0  0  0  0  0  0  0
   -2.4680   -0.2469   -2.4840 O   0  0  0  0  0  0  0  0  0  0  0  0
    0.8191   -0.0401    0.9351 C   0  0  0  0  0  0  0  0  0  0  0  0
    2.0150   -0.0058    1.2065 O   0  0  0  0  0  0  0  0  0  0  0  0
   -0.0770    0.6065    1.7654 N   0  0  0  0  0  0  0  0  0  0  0  0
   -1.0560    0.4908    1.5197 H   0  0  0  0  0  0  0  0  0  0  0  0
    0.2715    1.1120    3.0836 C   0  0  0  0  0  0  0  0  0  0  0  0
    1.0766    1.8502    3.0106 H   0  0  0  0  0  0  0  0  0  0  0  0
   -0.5971    1.5936    3.5422 H   0  0  0  0  0  0  0  0  0  0  0  0
    0.5989    0.2925    3.7315 H   0  0  0  0  0  0  0  0  0  0  0  0
  1  2  1  0  0  0  0
  2  3  1  0  0  0  0
  2  4  1  0  0  0  0
  2  5  1  0  0  0  0
  5  6  2  0  0  0  0
  5  7  1  0  0  0  0
  7  8  1  0  0  0  0
  7  9  1  0  0  0  0
  9 10  1  0  0  0  0
  9 11  1  0  0  0  0
  9 20  1  0  0  0  0
 11 12  1  0  0  0  0
 11 13  1  0  0  0  0
 11 14  1  0  0  0  0
 14 15  1  0  0  0  0
 14 16  1  0  0  0  0
 14 17  1  0  0  0  0
 17 18  1  0  0  0  0
 17 19  2  0  0  0  0
 20 21  2  0  0  0  0
 20 22  1  0  0  0  0
 22 23  1  0  0  0  0
 22 24  1  0  0  0  0
 24 25  1  0  0  0  0
 24 26  1  0  0  0  0
 24 27  1  0  0  0  0
M  CHG  1  18  -1
M  END
$$$$

  -OEChem-04042215583D

 27 26  0     1  0  0  0  0  0999 V2000
   -2.6075   -3.9430    0.9170 H   0  0  0  0  0  0  0  0  0  0  0  0
   -2.5634   -3.0537    0.2830 C   0  0  0  0  0  0  0  0  0  0  0  0
   -3.3353   -2.3491    0.6020 H   0  0  0  0  0  0  0  0  0  0  0  0
   -2.7596   -3.3453   -0.7525 H   0  0  0  0  0  0  0  0  0  0  0  0
   -1.1965   -2.4014    0.3786 C   0  0  0  0  0  0  0  0  0  0  0  0
   -0.3442   -2.8669    1.1209 O   0  0  0  0  0  0  0  0  0  0  0  0
   -0.9393   -1.2777   -0.3720 N   0  0  0  0  0  0  0  0  0  0  0  0
   -1.7105   -0.9434   -0.9628 H   0  0  0  0  0  0  0  0  0  0  0  0
    0.3452   -0.5691   -0.4677 C   0  0  1  0  0  0  0  0  0  0  0  0
    1.0876   -1.2985   -0.8070 H   0  0  0  0  0  0  0  0  0  0  0  0
    0.3405    0.5963   -1.4963 C   0  0  0  0  0  0  0  0  0  0  0  0
   -0.2120    1.4237   -1.0388 H   0  0  0  0  0  0  0  0  0  0  0  0
    1.3720    0.9359   -1.6337 H   0  0  0  0  0  0  0  0  0  0  0  0
   -0.2886    0.3823   -2.9021 C   0  0  0  0  0  0  0  0  0  0  0  0
   -0.3812    1.3541   -3.3949 H   0  0  0  0  0  0  0  0  0  0  0  0
    0.4221   -0.2082   -3.4885 H   0  0  0  0  0  0  0  0  0  0  0  0
   -1.6469   -0.3197   -2.9842 C   0  0  0  0  0  0  0  0  0  0  0  0
   -1.7591   -1.3051   -3.7494 O   0  5  0  0  0  0  0  0  0  0  0  0
   -2.5476    0.0700   -2.1949 O   0  0  0  0  0  0  0  0  0  0  0  0
    0.8418   -0.0350    0.8910 C   0  0  0  0  0  0  0  0  0  0  0  0
    2.0398    0.0073    1.1518 O   0  0  0  0  0  0  0  0  0  0  0  0
   -0.0521    0.6076    1.7269 N   0  0  0  0  0  0  0  0  0  0  0  0
   -1.0319    0.5286    1.4693 H   0  0  0  0  0  0  0  0  0  0  0  0
    0.3085    1.1779    3.0148 C   0  0  0  0  0  0  0  0  0  0  0  0
    1.0885    1.9362    2.8927 H   0  0  0  0  0  0  0  0  0  0  0  0
   -0.5644    1.6520    3.4727 H   0  0  0  0  0  0  0  0  0  0  0  0
    0.6745    0.3964    3.6885 H   0  0  0  0  0  0  0  0  0  0  0  0
  1  2  1  0  0  0  0
  2  3  1  0  0  0  0
  2  4  1  0  0  0  0
  2  5  1  0  0  0  0
  5  6  2  0  0  0  0
  5  7  1  0  0  0  0
  7  8  1  0  0  0  0
  7  9  1  0  0  0  0
  9 10  1  0  0  0  0
  9 11  1  0  0  0  0
  9 20  1  0  0  0  0
 11 12  1  0  0  0  0
 11 13  1  0  0  0  0
 11 14  1  0  0  0  0
 14 15  1  0  0  0  0
 14 16  1  0  0  0  0
 14 17  1  0  0  0  0
 17 18  1  0  0  0  0
 17 19  2  0  0  0  0
 20 21  2  0  0  0  0
 20 22  1  0  0  0  0
 22 23  1  0  0  0  0
 22 24  1  0  0  0  0
 24 25  1  0  0  0  0
 24 26  1  0  0  0  0
 24 27  1  0  0  0  0
M  CHG  1  18  -1
M  END
$$$$

  -OEChem-04042215583D

 27 26  0     1  0  0  0  0  0999 V2000
   -2.5690   -4.0107    0.5958 H   0  0  0  0  0  0  0  0  0  0  0  0
   -2.5294   -3.0647    0.0493 C   0  0  0  0  0  0  0  0  0  0  0  0
   -3.2658   -2.3774    0.4734 H   0  0  0  0  0  0  0  0  0  0  0  0
   -2.7820   -3.2488   -0.9985 H   0  0  0  0  0  0  0  0  0  0  0  0
   -1.1418   -2.4570    0.1420 C   0  0  0  0  0  0  0  0  0  0  0  0
   -0.2660   -3.0211    0.7812 O   0  0  0  0  0  0  0  0  0  0  0  0
   -0.8899   -1.2638   -0.4943 N   0  0  0  0  0  0  0  0  0  0  0  0
   -1.6880   -0.8200   -0.9656 H   0  0  0  0  0  0  0  0  0  0  0  0
    0.3808   -0.5252   -0.4842 C   0  0  1  0  0  0  0  0  0  0  0  0
    1.1524   -1.1950   -0.8763 H   0  0  0  0  0  0  0  0  0  0  0  0
    0.3420    0.7346   -1.3895 C   0  0  0  0  0  0  0  0  0  0  0  0
   -0.2235    1.5141   -0.8674 H   0  0  0  0  0  0  0  0  0  0  0  0
    1.3670    1.1020   -1.5017 H   0  0  0  0  0  0  0  0  0  0  0  0
   -0.2778    0.5893   -2.8048 C   0  0  0  0  0  0  0  0  0  0  0  0
   -0.1985    1.5550   -3.3113 H   0  0  0  0  0  0  0  0  0  0  0  0
    0.3264   -0.1291   -3.3672 H   0  0  0  0  0  0  0  0  0  0  0  0
   -1.7449    0.1484   -2.8780 C   0  0  0  0  0  0  0  0  0  0  0  0
   -2.5118    0.4832   -1.9361 O   0  5  0  0  0  0  0  0  0  0  0  0
   -2.0830   -0.5889   -3.8325 O   0  0  0  0  0  0  0  0  0  0  0  0
    0.8245   -0.1112    0.9329 C   0  0  0  0  0  0  0  0  0  0  0  0
    2.0118   -0.0853    1.2399 O   0  0  0  0  0  0  0  0  0  0  0  0
   -0.1075    0.4337    1.7962 N   0  0  0  0  0  0  0  0  0  0  0  0
   -1.0724    0.4227    1.4760 H   0  0  0  0  0  0  0  0  0  0  0  0
    0.2045    0.9188    3.1309 C   0  0  0  0  0  0  0  0  0  0  0  0
    0.9268    1.7398    3.0796 H   0  0  0  0  0  0  0  0  0  0  0  0
   -0.7035    1.2857    3.6184 H   0  0  0  0  0  0  0  0  0  0  0  0
    0.6248    0.1127    3.7408 H   0  0  0  0  0  0  0  0  0  0  0  0
  1  2  1  0  0  0  0
  2  3  1  0  0  0  0
  2  4  1  0  0  0  0
  2  5  1  0  0  0  0
  5  6  2  0  0  0  0
  5  7  1  0  0  0  0
  7  8  1  0  0  0  0
  7  9  1  0  0  0  0
  9 10  1  0  0  0  0
  9 11  1  0  0  0  0
  9 20  1  0  0  0  0
 11 12  1  0  0  0  0
 11 13  1  0  0  0  0
 11 14  1  0  0  0  0
 14 15  1  0  0  0  0
 14 16  1  0  0  0  0
 14 17  1  0  0  0  0
 17 18  1  0  0  0  0
 17 19  2  0  0  0  0
 20 21  2  0  0  0  0
 20 22  1  0  0  0  0
 22 23  1  0  0  0  0
 22 24  1  0  0  0  0
 24 25  1  0  0  0  0
 24 26  1  0  0  0  0
 24 27  1  0  0  0  0
M  CHG  1  18  -1
M  END
$$$$

  -OEChem-04042215583D

 27 26  0     1  0  0  0  0  0999 V2000
   -2.6567   -3.9333    0.5756 H   0  0  0  0  0  0  0  0  0  0  0  0
   -2.5783   -2.9942    0.0215 C   0  0  0  0  0  0  0  0  0  0  0  0
   -3.2747   -2.2693    0.4505 H   0  0  0  0  0  0  0  0  0  0  0  0
   -2.8536   -3.1729   -1.0213 H   0  0  0  0  0  0  0  0  0  0  0  0
   -1.1617   -2.4538    0.0932 C   0  0  0  0  0  0  0  0  0  0  0  0
   -0.3009   -3.0680    0.7060 O   0  0  0  0  0  0  0  0  0  0  0  0
   -0.8642   -1.2667   -0.5350 N   0  0  0  0  0  0  0  0  0  0  0  0
   -1.6516   -0.7655   -0.9653 H   0  0  0  0  0  0  0  0  0  0  0  0
    0.4188   -0.5535   -0.4697 C   0  0  1  0  0  0  0  0  0  0  0  0
    1.1997   -1.2246   -0.8407 H   0  0  0  0  0  0  0  0  0  0  0  0
    0.3968    0.7139   -1.3605 C   0  0  0  0  0  0  0  0  0  0  0  0
   -0.1564    1.5099   -0.8507 H   0  0  0  0  0  0  0  0  0  0  0  0
    1.4289    1.0621   -1.4695 H   0  0  0  0  0  0  0  0  0  0  0  0
   -0.2061    0.5328   -2.7765 C   0  0  0  0  0  0  0  0  0  0  0  0
    0.0867    1.3968   -3.3794 H   0  0  0  0  0  0  0  0  0  0  0  0
    0.2358   -0.3568   -3.2351 H   0  0  0  0  0  0  0  0  0  0  0  0
   -1.7371    0.4216   -2.8568 C   0  0  0  0  0  0  0  0  0  0  0  0
   -2.4205    0.6288   -1.8177 O   0  5  0  0  0  0  0  0  0  0  0  0
   -2.2192    0.0627   -3.9557 O   0  0  0  0  0  0  0  0  0  0  0  0
    0.8051   -0.1473    0.9658 C   0  0  0  0  0  0  0  0  0  0  0  0
    1.9762   -0.1519    1.3305 O   0  0  0  0  0  0  0  0  0  0  0  0
   -0.1573    0.4165    1.7824 N   0  0  0  0  0  0  0  0  0  0  0  0
   -1.0907    0.4928    1.3850 H   0  0  0  0  0  0  0  0  0  0  0  0
    0.1134    0.9721    3.0981 C   0  0  0  0  0  0  0  0  0  0  0  0
    0.8074    1.8150    3.0207 H   0  0  0  0  0  0  0  0  0  0  0  0
   -0.8157    1.3269    3.5536 H   0  0  0  0  0  0  0  0  0  0  0  0
    0.5505    0.2101    3.7515 H   0  0  0  0  0  0  0  0  0  0  0  0
  1  2  1  0  0  0  0
  2  3  1  0  0  0  0
  2  4  1  0  0  0  0
  2  5  1  0  0  0  0
  5  6  2  0  0  0  0
  5  7  1  0  0  0  0
  7  8  1  0  0  0  0
  7  9  1  0  0  0  0
  9 10  1  0  0  0  0
  9 11  1  0  0  0  0
  9 20  1  0  0  0  0
 11 12  1  0  0  0  0
 11 13  1  0  0  0  0
 11 14  1  0  0  0  0
 14 15  1  0  0  0  0
 14 16  1  0  0  0  0
 14 17  1  0  0  0  0
 17 18  1  0  0  0  0
 17 19  2  0  0  0  0
 20 21  2  0  0  0  0
 20 22  1  0  0  0  0
 22 23  1  0  0  0  0
 22 24  1  0  0  0  0
 24 25  1  0  0  0  0
 24 26  1  0  0  0  0
 24 27  1  0  0  0  0
M  CHG  1  18  -1
M  END
$$$$

  -OEChem-04042215583D

 27 26  0     1  0  0  0  0  0999 V2000
   -2.6748   -3.8946    0.5976 H   0  0  0  0  0  0  0  0  0  0  0  0
   -2.5817   -2.9755    0.0129 C   0  0  0  0  0  0  0  0  0  0  0  0
   -3.2882   -2.2361    0.3987 H   0  0  0  0  0  0  0  0  0  0  0  0
   -2.8307   -3.1902   -1.0295 H   0  0  0  0  0  0  0  0  0  0  0  0
   -1.1671   -2.4324    0.1018 C   0  0  0  0  0  0  0  0  0  0  0  0
   -0.3148   -3.0424    0.7302 O   0  0  0  0  0  0  0  0  0  0  0  0
   -0.8593   -1.2534   -0.5361 N   0  0  0  0  0  0  0  0  0  0  0  0
   -1.6345   -0.7653   -1.0029 H   0  0  0  0  0  0  0  0  0  0  0  0
    0.4249   -0.5441   -0.4692 C   0  0  1  0  0  0  0  0  0  0  0  0
    1.2076   -1.2185   -0.8298 H   0  0  0  0  0  0  0  0  0  0  0  0
    0.3976    0.7098   -1.3759 C   0  0  0  0  0  0  0  0  0  0  0  0
   -0.1545    1.5162   -0.8810 H   0  0  0  0  0  0  0  0  0  0  0  0
    1.4302    1.0544   -1.4934 H   0  0  0  0  0  0  0  0  0  0  0  0
   -0.2064    0.4881   -2.7846 C   0  0  0  0  0  0  0  0  0  0  0  0
    0.2831    1.1850   -3.4716 H   0  0  0  0  0  0  0  0  0  0  0  0
    0.0244   -0.5249   -3.1265 H   0  0  0  0  0  0  0  0  0  0  0  0
   -1.7232    0.7208   -2.8940 C   0  0  0  0  0  0  0  0  0  0  0  0
   -2.4447    0.5424   -1.8757 O   0  5  0  0  0  0  0  0  0  0  0  0
   -2.1650    1.0342   -4.0239 O   0  0  0  0  0  0  0  0  0  0  0  0
    0.8071   -0.1213    0.9627 C   0  0  0  0  0  0  0  0  0  0  0  0
    1.9760   -0.1354    1.3336 O   0  0  0  0  0  0  0  0  0  0  0  0
   -0.1535    0.4566    1.7717 N   0  0  0  0  0  0  0  0  0  0  0  0
   -1.0907    0.5171    1.3808 H   0  0  0  0  0  0  0  0  0  0  0  0
    0.1109    0.9896    3.0984 C   0  0  0  0  0  0  0  0  0  0  0  0
    0.8557    1.7903    3.0476 H   0  0  0  0  0  0  0  0  0  0  0  0
   -0.8082    1.3981    3.5286 H   0  0  0  0  0  0  0  0  0  0  0  0
    0.4824    0.1996    3.7591 H   0  0  0  0  0  0  0  0  0  0  0  0
  1  2  1  0  0  0  0
  2  3  1  0  0  0  0
  2  4  1  0  0  0  0
  2  5  1  0  0  0  0
  5  6  2  0  0  0  0
  5  7  1  0  0  0  0
  7  8  1  0  0  0  0
  7  9  1  0  0  0  0
  9 10  1  0  0  0  0
  9 11  1  0  0  0  0
  9 20  1  0  0  0  0
 11 12  1  0  0  0  0
 11 13  1  0  0  0  0
 11 14  1  0  0  0  0
 14 15  1  0  0  0  0
 14 16  1  0  0  0  0
 14 17  1  0  0  0  0
 17 18  1  0  0  0  0
 17 19  2  0  0  0  0
 20 21  2  0  0  0  0
 20 22  1  0  0  0  0
 22 23  1  0  0  0  0
 22 24  1  0  0  0  0
 24 25  1  0  0  0  0
 24 26  1  0  0  0  0
 24 27  1  0  0  0  0
M  CHG  1  18  -1
M  END
$$$$

  -OEChem-04042215583D

 27 26  0     1  0  0  0  0  0999 V2000
   -2.7122   -3.8626    0.5166 H   0  0  0  0  0  0  0  0  0  0  0  0
   -2.5957   -2.9435   -0.0635 C   0  0  0  0  0  0  0  0  0  0  0  0
   -3.3300   -2.2104    0.2801 H   0  0  0  0  0  0  0  0  0  0  0  0
   -2.7838   -3.1622   -1.1178 H   0  0  0  0  0  0  0  0  0  0  0  0
   -1.1944   -2.3852    0.1046 C   0  0  0  0  0  0  0  0  0  0  0  0
   -0.3819   -2.9686    0.8062 O   0  0  0  0  0  0  0  0  0  0  0  0
   -0.8548   -1.2194   -0.5411 N   0  0  0  0  0  0  0  0  0  0  0  0
   -1.5876   -0.7792   -1.1159 H   0  0  0  0  0  0  0  0  0  0  0  0
    0.4424   -0.5268   -0.4624 C   0  0  1  0  0  0  0  0  0  0  0  0
    1.2234   -1.2086   -0.8135 H   0  0  0  0  0  0  0  0  0  0  0  0
    0.3929    0.7011   -1.3961 C   0  0  0  0  0  0  0  0  0  0  0  0
   -0.1722    1.5111   -0.9212 H   0  0  0  0  0  0  0  0  0  0  0  0
    1.4162    1.0644   -1.5352 H   0  0  0  0  0  0  0  0  0  0  0  0
   -0.2192    0.3919   -2.7827 C   0  0  0  0  0  0  0  0  0  0  0  0
    0.3947    0.8744   -3.5493 H   0  0  0  0  0  0  0  0  0  0  0  0
   -0.2084   -0.6804   -2.9980 H   0  0  0  0  0  0  0  0  0  0  0  0
   -1.6417    0.9417   -2.8948 C   0  0  0  0  0  0  0  0  0  0  0  0
   -2.5151    0.3605   -2.1960 O   0  5  0  0  0  0  0  0  0  0  0  0
   -1.8579    1.9267   -3.6389 O   0  0  0  0  0  0  0  0  0  0  0  0
    0.8257   -0.0843    0.9631 C   0  0  0  0  0  0  0  0  0  0  0  0
    1.9929   -0.1159    1.3378 O   0  0  0  0  0  0  0  0  0  0  0  0
   -0.1256    0.5245    1.7602 N   0  0  0  0  0  0  0  0  0  0  0  0
   -1.0709    0.5541    1.3872 H   0  0  0  0  0  0  0  0  0  0  0  0
    0.1384    1.0378    3.0949 C   0  0  0  0  0  0  0  0  0  0  0  0
    0.9342    1.7890    3.0662 H   0  0  0  0  0  0  0  0  0  0  0  0
   -0.7629    1.5051    3.5020 H   0  0  0  0  0  0  0  0  0  0  0  0
    0.4410    0.2248    3.7625 H   0  0  0  0  0  0  0  0  0  0  0  0
  1  2  1  0  0  0  0
  2  3  1  0  0  0  0
  2  4  1  0  0  0  0
  2  5  1  0  0  0  0
  5  6  2  0  0  0  0
  5  7  1  0  0  0  0
  7  8  1  0  0  0  0
  7  9  1  0  0  0  0
  9 10  1  0  0  0  0
  9 11  1  0  0  0  0
  9 20  1  0  0  0  0
 11 12  1  0  0  0  0
 11 13  1  0  0  0  0
 11 14  1  0  0  0  0
 14 15  1  0  0  0  0
 14 16  1  0  0  0  0
 14 17  1  0  0  0  0
 17 18  1  0  0  0  0
 17 19  2  0  0  0  0
 20 21  2  0  0  0  0
 20 22  1  0  0  0  0
 22 23  1  0  0  0  0
 22 24  1  0  0  0  0
 24 25  1  0  0  0  0
 24 26  1  0  0  0  0
 24 27  1  0  0  0  0
M  CHG  1  18  -1
M  END
$$$$

  -OEChem-04042215583D

 27 26  0     1  0  0  0  0  0999 V2000
   -2.7492   -3.8415    0.4686 H   0  0  0  0  0  0  0  0  0  0  0  0
   -2.6154   -2.9222   -0.1077 C   0  0  0  0  0  0  0  0  0  0  0  0
   -3.3418   -2.1806    0.2344 H   0  0  0  0  0  0  0  0  0  0  0  0
   -2.7992   -3.1355   -1.1637 H   0  0  0  0  0  0  0  0  0  0  0  0
   -1.2065   -2.3864    0.0715 C   0  0  0  0  0  0  0  0  0  0  0  0
   -0.4048   -2.9912    0.7665 O   0  0  0  0  0  0  0  0  0  0  0  0
   -0.8460   -1.2191   -0.5613 N   0  0  0  0  0  0  0  0  0  0  0  0
   -1.5661   -0.7480   -1.1239 H   0  0  0  0  0  0  0  0  0  0  0  0
    0.4599   -0.5417   -0.4550 C   0  0  1  0  0  0  0  0  0  0  0  0
    1.2425   -1.2182   -0.8120 H   0  0  0  0  0  0  0  0  0  0  0  0
    0.3882    0.6870   -1.3792 C   0  0  0  0  0  0  0  0  0  0  0  0
   -0.1936    1.4760   -0.8886 H   0  0  0  0  0  0  0  0  0  0  0  0
    1.4002    1.0807   -1.5192 H   0  0  0  0  0  0  0  0  0  0  0  0
   -0.2260    0.3685   -2.7664 C   0  0  0  0  0  0  0  0  0  0  0  0
    0.5019    0.6395   -3.5369 H   0  0  0  0  0  0  0  0  0  0  0  0
   -0.4435   -0.6923   -2.9144 H   0  0  0  0  0  0  0  0  0  0  0  0
   -1.4835    1.1984   -2.9797 C   0  0  0  0  0  0  0  0  0  0  0  0
   -2.4675    0.8328   -2.2815 O   0  5  0  0  0  0  0  0  0  0  0  0
   -1.4804    2.1614   -3.7820 O   0  0  0  0  0  0  0  0  0  0  0  0
    0.8353   -0.1099    0.9759 C   0  0  0  0  0  0  0  0  0  0  0  0
    1.9974   -0.1661    1.3628 O   0  0  0  0  0  0  0  0  0  0  0  0
   -0.1136    0.5090    1.7683 N   0  0  0  0  0  0  0  0  0  0  0  0
   -1.0411    0.6104    1.3649 H   0  0  0  0  0  0  0  0  0  0  0  0
    0.1637    1.0658    3.0825 C   0  0  0  0  0  0  0  0  0  0  0  0
    0.9159    1.8580    3.0107 H   0  0  0  0  0  0  0  0  0  0  0  0
   -0.7490    1.4912    3.5101 H   0  0  0  0  0  0  0  0  0  0  0  0
    0.5321    0.2861    3.7568 H   0  0  0  0  0  0  0  0  0  0  0  0
  1  2  1  0  0  0  0
  2  3  1  0  0  0  0
  2  4  1  0  0  0  0
  2  5  1  0  0  0  0
  5  6  2  0  0  0  0
  5  7  1  0  0  0  0
  7  8  1  0  0  0  0
  7  9  1  0  0  0  0
  9 10  1  0  0  0  0
  9 11  1  0  0  0  0
  9 20  1  0  0  0  0
 11 12  1  0  0  0  0
 11 13  1  0  0  0  0
 11 14  1  0  0  0  0
 14 15  1  0  0  0  0
 14 16  1  0  0  0  0
 14 17  1  0  0  0  0
 17 18  1  0  0  0  0
 17 19  2  0  0  0  0
 20 21  2  0  0  0  0
 20 22  1  0  0  0  0
 22 23  1  0  0  0  0
 22 24  1  0  0  0  0
 24 25  1  0  0  0  0
 24 26  1  0  0  0  0
 24 27  1  0  0  0  0
M  CHG  1  18  -1
M  END
$$$$

  -OEChem-04042215583D

 27 26  0     1  0  0  0  0  0999 V2000
   -2.7320   -3.8775    0.5192 H   0  0  0  0  0  0  0  0  0  0  0  0
   -2.6170   -2.9602   -0.0646 C   0  0  0  0  0  0  0  0  0  0  0  0
   -3.3544   -2.2294    0.2769 H   0  0  0  0  0  0  0  0  0  0  0  0
   -2.8022   -3.1860   -1.1178 H   0  0  0  0  0  0  0  0  0  0  0  0
   -1.2167   -2.3988    0.1043 C   0  0  0  0  0  0  0  0  0  0  0  0
   -0.4057   -2.9838    0.8039 O   0  0  0  0  0  0  0  0  0  0  0  0
   -0.8763   -1.2315   -0.5425 N   0  0  0  0  0  0  0  0  0  0  0  0
   -1.5893   -0.7943   -1.1301 H   0  0  0  0  0  0  0  0  0  0  0  0
    0.4281   -0.5506   -0.4618 C   0  0  1  0  0  0  0  0  0  0  0  0
    1.2042   -1.2353   -0.8188 H   0  0  0  0  0  0  0  0  0  0  0  0
    0.3797    0.6757   -1.3953 C   0  0  0  0  0  0  0  0  0  0  0  0
   -0.2107    1.4545   -0.8989 H   0  0  0  0  0  0  0  0  0  0  0  0
    1.3907    1.0770   -1.5207 H   0  0  0  0  0  0  0  0  0  0  0  0
   -0.2322    0.3992   -2.7939 C   0  0  0  0  0  0  0  0  0  0  0  0
    0.5765    0.3673   -3.5300 H   0  0  0  0  0  0  0  0  0  0  0  0
   -0.7453   -0.5616   -2.8620 H   0  0  0  0  0  0  0  0  0  0  0  0
   -1.2169    1.4978   -3.1764 C   0  0  0  0  0  0  0  0  0  0  0  0
   -2.3339    1.4422   -2.5995 O   0  5  0  0  0  0  0  0  0  0  0  0
   -0.8755    2.3713   -4.0088 O   0  0  0  0  0  0  0  0  0  0  0  0
    0.8257   -0.1125    0.9624 C   0  0  0  0  0  0  0  0  0  0  0  0
    1.9903   -0.1850    1.3376 O   0  0  0  0  0  0  0  0  0  0  0  0
   -0.1089    0.5067    1.7716 N   0  0  0  0  0  0  0  0  0  0  0  0
   -1.0380    0.6275    1.3791 H   0  0  0  0  0  0  0  0  0  0  0  0
    0.1921    1.0556    3.0843 C   0  0  0  0  0  0  0  0  0  0  0  0
    0.9649    1.8274    3.0091 H   0  0  0  0  0  0  0  0  0  0  0  0
   -0.7057    1.5056    3.5179 H   0  0  0  0  0  0  0  0  0  0  0  0
    0.5434    0.2655    3.7556 H   0  0  0  0  0  0  0  0  0  0  0  0
  1  2  1  0  0  0  0
  2  3  1  0  0  0  0
  2  4  1  0  0  0  0
  2  5  1  0  0  0  0
  5  6  2  0  0  0  0
  5  7  1  0  0  0  0
  7  8  1  0  0  0  0
  7  9  1  0  0  0  0
  9 10  1  0  0  0  0
  9 11  1  0  0  0  0
  9 20  1  0  0  0  0
 11 12  1  0  0  0  0
 11 13  1  0  0  0  0
 11 14  1  0  0  0  0
 14 15  1  0  0  0  0
 14 16  1  0  0  0  0
 14 17  1  0  0  0  0
 17 18  1  0  0  0  0
 17 19  2  0  0  0  0
 20 21  2  0  0  0  0
 20 22  1  0  0  0  0
 22 23  1  0  0  0  0
 22 24  1  0  0  0  0
 24 25  1  0  0  0  0
 24 26  1  0  0  0  0
 24 27  1  0  0  0  0
M  CHG  1  18  -1
M  END
$$$$

  -OEChem-04042215583D

 27 26  0     1  0  0  0  0  0999 V2000
   -2.7374   -3.9104    0.5231 H   0  0  0  0  0  0  0  0  0  0  0  0
   -2.6278   -2.9952   -0.0654 C   0  0  0  0  0  0  0  0  0  0  0  0
   -3.3798   -2.2730    0.2623 H   0  0  0  0  0  0  0  0  0  0  0  0
   -2.7968   -3.2312   -1.1191 H   0  0  0  0  0  0  0  0  0  0  0  0
   -1.2372   -2.4137    0.1176 C   0  0  0  0  0  0  0  0  0  0  0  0
   -0.4272   -2.9859    0.8280 O   0  0  0  0  0  0  0  0  0  0  0  0
   -0.9049   -1.2445   -0.5315 N   0  0  0  0  0  0  0  0  0  0  0  0
   -1.6073   -0.8345   -1.1459 H   0  0  0  0  0  0  0  0  0  0  0  0
    0.4010   -0.5660   -0.4627 C   0  0  1  0  0  0  0  0  0  0  0  0
    1.1699   -1.2568   -0.8234 H   0  0  0  0  0  0  0  0  0  0  0  0
    0.3737    0.6652   -1.3931 C   0  0  0  0  0  0  0  0  0  0  0  0
   -0.2187    1.4414   -0.8957 H   0  0  0  0  0  0  0  0  0  0  0  0
    1.3878    1.0621   -1.5099 H   0  0  0  0  0  0  0  0  0  0  0  0
   -0.2373    0.4172   -2.7950 C   0  0  0  0  0  0  0  0  0  0  0  0
    0.5515    0.0884   -3.4781 H   0  0  0  0  0  0  0  0  0  0  0  0
   -1.0007   -0.3623   -2.7948 H   0  0  0  0  0  0  0  0  0  0  0  0
   -0.8909    1.6889   -3.3278 C   0  0  0  0  0  0  0  0  0  0  0  0
   -2.0400    1.9459   -2.8865 O   0  5  0  0  0  0  0  0  0  0  0  0
   -0.2596    2.3953   -4.1495 O   0  0  0  0  0  0  0  0  0  0  0  0
    0.8150   -0.1319    0.9589 C   0  0  0  0  0  0  0  0  0  0  0  0
    1.9837   -0.2065    1.3203 O   0  0  0  0  0  0  0  0  0  0  0  0
   -0.1090    0.4872    1.7806 N   0  0  0  0  0  0  0  0  0  0  0  0
   -1.0333    0.6355    1.3878 H   0  0  0  0  0  0  0  0  0  0  0  0
    0.2221    1.0756    3.0688 C   0  0  0  0  0  0  0  0  0  0  0  0
    0.9208    1.9084    2.9395 H   0  0  0  0  0  0  0  0  0  0  0  0
   -0.6835    1.4527    3.5529 H   0  0  0  0  0  0  0  0  0  0  0  0
    0.6785    0.3276    3.7250 H   0  0  0  0  0  0  0  0  0  0  0  0
  1  2  1  0  0  0  0
  2  3  1  0  0  0  0
  2  4  1  0  0  0  0
  2  5  1  0  0  0  0
  5  6  2  0  0  0  0
  5  7  1  0  0  0  0
  7  8  1  0  0  0  0
  7  9  1  0  0  0  0
  9 10  1  0  0  0  0
  9 11  1  0  0  0  0
  9 20  1  0  0  0  0
 11 12  1  0  0  0  0
 11 13  1  0  0  0  0
 11 14  1  0  0  0  0
 14 15  1  0  0  0  0
 14 16  1  0  0  0  0
 14 17  1  0  0  0  0
 17 18  1  0  0  0  0
 17 19  2  0  0  0  0
 20 21  2  0  0  0  0
 20 22  1  0  0  0  0
 22 23  1  0  0  0  0
 22 24  1  0  0  0  0
 24 25  1  0  0  0  0
 24 26  1  0  0  0  0
 24 27  1  0  0  0  0
M  CHG  1  18  -1
M  END
$$$$

  -OEChem-04042215583D

 27 26  0     1  0  0  0  0  0999 V2000
   -2.7284   -3.9045    0.5281 H   0  0  0  0  0  0  0  0  0  0  0  0
   -2.6237   -2.9937   -0.0680 C   0  0  0  0  0  0  0  0  0  0  0  0
   -3.3893   -2.2788    0.2434 H   0  0  0  0  0  0  0  0  0  0  0  0
   -2.7758   -3.2423   -1.1214 H   0  0  0  0  0  0  0  0  0  0  0  0
   -1.2433   -2.3928    0.1281 C   0  0  0  0  0  0  0  0  0  0  0  0
   -0.4385   -2.9476    0.8573 O   0  0  0  0  0  0  0  0  0  0  0  0
   -0.9176   -1.2244   -0.5265 N   0  0  0  0  0  0  0  0  0  0  0  0
   -1.6077   -0.8432   -1.1702 H   0  0  0  0  0  0  0  0  0  0  0  0
    0.3909   -0.5491   -0.4705 C   0  0  1  0  0  0  0  0  0  0  0  0
    1.1542   -1.2443   -0.8349 H   0  0  0  0  0  0  0  0  0  0  0  0
    0.3680    0.6792   -1.4049 C   0  0  0  0  0  0  0  0  0  0  0  0
   -0.2139    1.4693   -0.9174 H   0  0  0  0  0  0  0  0  0  0  0  0
    1.3874    1.0589   -1.5332 H   0  0  0  0  0  0  0  0  0  0  0  0
   -0.2530    0.4184   -2.7964 C   0  0  0  0  0  0  0  0  0  0  0  0
    0.4414   -0.1712   -3.4023 H   0  0  0  0  0  0  0  0  0  0  0  0
   -1.1881   -0.1413   -2.7311 H   0  0  0  0  0  0  0  0  0  0  0  0
   -0.5691    1.7373   -3.4970 C   0  0  0  0  0  0  0  0  0  0  0  0
   -1.6378    2.3082   -3.1627 O   0  5  0  0  0  0  0  0  0  0  0  0
    0.2407    2.1683   -4.3525 O   0  0  0  0  0  0  0  0  0  0  0  0
    0.8193   -0.1153    0.9475 C   0  0  0  0  0  0  0  0  0  0  0  0
    1.9882   -0.2055    1.3041 O   0  0  0  0  0  0  0  0  0  0  0  0
   -0.0941    0.5066    1.7790 N   0  0  0  0  0  0  0  0  0  0  0  0
   -1.0295    0.6367    1.4081 H   0  0  0  0  0  0  0  0  0  0  0  0
    0.2381    1.0430    3.0896 C   0  0  0  0  0  0  0  0  0  0  0  0
    0.9699    1.8519    2.9972 H   0  0  0  0  0  0  0  0  0  0  0  0
   -0.6601    1.4401    3.5716 H   0  0  0  0  0  0  0  0  0  0  0  0
    0.6550    0.2581    3.7289 H   0  0  0  0  0  0  0  0  0  0  0  0
  1  2  1  0  0  0  0
  2  3  1  0  0  0  0
  2  4  1  0  0  0  0
  2  5  1  0  0  0  0
  5  6  2  0  0  0  0
  5  7  1  0  0  0  0
  7  8  1  0  0  0  0
  7  9  1  0  0  0  0
  9 10  1  0  0  0  0
  9 11  1  0  0  0  0
  9 20  1  0  0  0  0
 11 12  1  0  0  0  0
 11 13  1  0  0  0  0
 11 14  1  0  0  0  0
 14 15  1  0  0  0  0
 14 16  1  0  0  0  0
 14 17  1  0  0  0  0
 17 18  1  0  0  0  0
 17 19  2  0  0  0  0
 20 21  2  0  0  0  0
 20 22  1  0  0  0  0
 22 23  1  0  0  0  0
 22 24  1  0  0  0  0
 24 25  1  0  0  0  0
 24 26  1  0  0  0  0
 24 27  1  0  0  0  0
M  CHG  1  18  -1
M  END
$$$$

  -OEChem-04042215583D

 27 26  0     1  0  0  0  0  0999 V2000
   -2.7275   -3.9412    0.4992 H   0  0  0  0  0  0  0  0  0  0  0  0
   -2.6278   -3.0290   -0.0956 C   0  0  0  0  0  0  0  0  0  0  0  0
   -3.4212   -2.3339    0.1902 H   0  0  0  0  0  0  0  0  0  0  0  0
   -2.7408   -3.2837   -1.1525 H   0  0  0  0  0  0  0  0  0  0  0  0
   -1.2695   -2.3926    0.1403 C   0  0  0  0  0  0  0  0  0  0  0  0
   -0.4701   -2.9305    0.8877 O   0  0  0  0  0  0  0  0  0  0  0  0
   -0.9567   -1.2160   -0.5065 N   0  0  0  0  0  0  0  0  0  0  0  0
   -1.6276   -0.8740   -1.1897 H   0  0  0  0  0  0  0  0  0  0  0  0
    0.3530   -0.5402   -0.4619 C   0  0  1  0  0  0  0  0  0  0  0  0
    1.1036   -1.2437   -0.8368 H   0  0  0  0  0  0  0  0  0  0  0  0
    0.3483    0.6931   -1.3973 C   0  0  0  0  0  0  0  0  0  0  0  0
    0.0232    1.5723   -0.8304 H   0  0  0  0  0  0  0  0  0  0  0  0
    1.3733    0.8855   -1.7328 H   0  0  0  0  0  0  0  0  0  0  0  0
   -0.5766    0.5665   -2.6273 C   0  0  0  0  0  0  0  0  0  0  0  0
   -0.2805   -0.3011   -3.2249 H   0  0  0  0  0  0  0  0  0  0  0  0
   -1.6174    0.4302   -2.3215 H   0  0  0  0  0  0  0  0  0  0  0  0
   -0.5140    1.8268   -3.4869 C   0  0  0  0  0  0  0  0  0  0  0  0
   -1.2226    2.7984   -3.1244 O   0  5  0  0  0  0  0  0  0  0  0  0
    0.2203    1.8113   -4.5039 O   0  0  0  0  0  0  0  0  0  0  0  0
    0.8080   -0.1202    0.9521 C   0  0  0  0  0  0  0  0  0  0  0  0
    1.9841   -0.2121    1.2834 O   0  0  0  0  0  0  0  0  0  0  0  0
   -0.0885    0.4936    1.8075 N   0  0  0  0  0  0  0  0  0  0  0  0
   -1.0273    0.6391    1.4513 H   0  0  0  0  0  0  0  0  0  0  0  0
    0.2782    1.0402    3.1047 C   0  0  0  0  0  0  0  0  0  0  0  0
    0.9929    1.8609    2.9848 H   0  0  0  0  0  0  0  0  0  0  0  0
   -0.6098    1.4241    3.6153 H   0  0  0  0  0  0  0  0  0  0  0  0
    0.7293    0.2646    3.7321 H   0  0  0  0  0  0  0  0  0  0  0  0
  1  2  1  0  0  0  0
  2  3  1  0  0  0  0
  2  4  1  0  0  0  0
  2  5  1  0  0  0  0
  5  6  2  0  0  0  0
  5  7  1  0  0  0  0
  7  8  1  0  0  0  0
  7  9  1  0  0  0  0
  9 10  1  0  0  0  0
  9 11  1  0  0  0  0
  9 20  1  0  0  0  0
 11 12  1  0  0  0  0
 11 13  1  0  0  0  0
 11 14  1  0  0  0  0
 14 15  1  0  0  0  0
 14 16  1  0  0  0  0
 14 17  1  0  0  0  0
 17 18  1  0  0  0  0
 17 19  2  0  0  0  0
 20 21  2  0  0  0  0
 20 22  1  0  0  0  0
 22 23  1  0  0  0  0
 22 24  1  0  0  0  0
 24 25  1  0  0  0  0
 24 26  1  0  0  0  0
 24 27  1  0  0  0  0
M  CHG  1  18  -1
M  END
$$$$

  -OEChem-04042215583D

 27 26  0     1  0  0  0  0  0999 V2000
   -2.7507   -3.9129    0.4732 H   0  0  0  0  0  0  0  0  0  0  0  0
   -2.6359   -3.0077   -0.1297 C   0  0  0  0  0  0  0  0  0  0  0  0
   -3.4421   -2.3136    0.1203 H   0  0  0  0  0  0  0  0  0  0  0  0
   -2.7113   -3.2763   -1.1864 H   0  0  0  0  0  0  0  0  0  0  0  0
   -1.2900   -2.3606    0.1442 C   0  0  0  0  0  0  0  0  0  0  0  0
   -0.5161   -2.8825    0.9285 O   0  0  0  0  0  0  0  0  0  0  0  0
   -0.9625   -1.1887   -0.5042 N   0  0  0  0  0  0  0  0  0  0  0  0
   -1.6029   -0.8721   -1.2283 H   0  0  0  0  0  0  0  0  0  0  0  0
    0.3571   -0.5308   -0.4570 C   0  0  1  0  0  0  0  0  0  0  0  0
    1.1002   -1.2419   -0.8333 H   0  0  0  0  0  0  0  0  0  0  0  0
    0.3566    0.7013   -1.3926 C   0  0  0  0  0  0  0  0  0  0  0  0
    0.0537    1.5946   -0.8360 H   0  0  0  0  0  0  0  0  0  0  0  0
    1.3828    0.8682   -1.7386 H   0  0  0  0  0  0  0  0  0  0  0  0
   -0.5790    0.5652   -2.6127 C   0  0  0  0  0  0  0  0  0  0  0  0
   -0.4549   -0.4230   -3.0665 H   0  0  0  0  0  0  0  0  0  0  0  0
   -1.6233    0.6686   -2.3035 H   0  0  0  0  0  0  0  0  0  0  0  0
   -0.2685    1.6243   -3.6682 C   0  0  0  0  0  0  0  0  0  0  0  0
   -0.7301    2.7757   -3.4745 O   0  5  0  0  0  0  0  0  0  0  0  0
    0.4029    1.2766   -4.6697 O   0  0  0  0  0  0  0  0  0  0  0  0
    0.8165   -0.1153    0.9570 C   0  0  0  0  0  0  0  0  0  0  0  0
    1.9916   -0.2178    1.2887 O   0  0  0  0  0  0  0  0  0  0  0  0
   -0.0727    0.5119    1.8103 N   0  0  0  0  0  0  0  0  0  0  0  0
   -1.0234    0.6220    1.4743 H   0  0  0  0  0  0  0  0  0  0  0  0
    0.2879    1.0176    3.1256 C   0  0  0  0  0  0  0  0  0  0  0  0
    1.0319    1.8157    3.0368 H   0  0  0  0  0  0  0  0  0  0  0  0
   -0.5961    1.4207    3.6283 H   0  0  0  0  0  0  0  0  0  0  0  0
    0.7015    0.2140    3.7436 H   0  0  0  0  0  0  0  0  0  0  0  0
  1  2  1  0  0  0  0
  2  3  1  0  0  0  0
  2  4  1  0  0  0  0
  2  5  1  0  0  0  0
  5  6  2  0  0  0  0
  5  7  1  0  0  0  0
  7  8  1  0  0  0  0
  7  9  1  0  0  0  0
  9 10  1  0  0  0  0
  9 11  1  0  0  0  0
  9 20  1  0  0  0  0
 11 12  1  0  0  0  0
 11 13  1  0  0  0  0
 11 14  1  0  0  0  0
 14 15  1  0  0  0  0
 14 16  1  0  0  0  0
 14 17  1  0  0  0  0
 17 18  1  0  0  0  0
 17 19  2  0  0  0  0
 20 21  2  0  0  0  0
 20 22  1  0  0  0  0
 22 23  1  0  0  0  0
 22 24  1  0  0  0  0
 24 25  1  0  0  0  0
 24 26  1  0  0  0  0
 24 27  1  0  0  0  0
M  CHG  1  18  -1
M  END
$$$$

  -OEChem-04042215583D

 27 26  0     1  0  0  0  0  0999 V2000
   -2.7457   -3.9168    0.4546 H   0  0  0  0  0  0  0  0  0  0  0  0
   -2.6302   -3.0086   -0.1436 C   0  0  0  0  0  0  0  0  0  0  0  0
   -3.4490   -2.3247    0.0925 H   0  0  0  0  0  0  0  0  0  0  0  0
   -2.6829   -3.2750   -1.2023 H   0  0  0  0  0  0  0  0  0  0  0  0
   -1.2974   -2.3463    0.1568 C   0  0  0  0  0  0  0  0  0  0  0  0
   -0.5415   -2.8496    0.9703 O   0  0  0  0  0  0  0  0  0  0  0  0
   -0.9658   -1.1781   -0.4963 N   0  0  0  0  0  0  0  0  0  0  0  0
   -1.5874   -0.8852   -1.2466 H   0  0  0  0  0  0  0  0  0  0  0  0
    0.3571   -0.5259   -0.4516 C   0  0  1  0  0  0  0  0  0  0  0  0
    1.0972   -1.2406   -0.8271 H   0  0  0  0  0  0  0  0  0  0  0  0
    0.3596    0.7040   -1.3907 C   0  0  0  0  0  0  0  0  0  0  0  0
    0.0695    1.6040   -0.8382 H   0  0  0  0  0  0  0  0  0  0  0  0
    1.3889    0.8573   -1.7344 H   0  0  0  0  0  0  0  0  0  0  0  0
   -0.5768    0.5771   -2.6152 C   0  0  0  0  0  0  0  0  0  0  0  0
   -0.6478   -0.4694   -2.9273 H   0  0  0  0  0  0  0  0  0  0  0  0
   -1.5820    0.9227   -2.3566 H   0  0  0  0  0  0  0  0  0  0  0  0
   -0.0502    1.3677   -3.8121 C   0  0  0  0  0  0  0  0  0  0  0  0
   -0.1102    2.6197   -3.7440 O   0  5  0  0  0  0  0  0  0  0  0  0
    0.3739    0.7202   -4.8002 O   0  0  0  0  0  0  0  0  0  0  0  0
    0.8190   -0.1074    0.9609 C   0  0  0  0  0  0  0  0  0  0  0  0
    1.9939   -0.2096    1.2932 O   0  0  0  0  0  0  0  0  0  0  0  0
   -0.0690    0.5266    1.8103 N   0  0  0  0  0  0  0  0  0  0  0  0
   -1.0298    0.5916    1.4924 H   0  0  0  0  0  0  0  0  0  0  0  0
    0.2827    1.0055    3.1379 C   0  0  0  0  0  0  0  0  0  0  0  0
    1.0923    1.7398    3.0771 H   0  0  0  0  0  0  0  0  0  0  0  0
   -0.5826    1.4834    3.6063 H   0  0  0  0  0  0  0  0  0  0  0  0
    0.6049    0.1724    3.7708 H   0  0  0  0  0  0  0  0  0  0  0  0
  1  2  1  0  0  0  0
  2  3  1  0  0  0  0
  2  4  1  0  0  0  0
  2  5  1  0  0  0  0
  5  6  2  0  0  0  0
  5  7  1  0  0  0  0
  7  8  1  0  0  0  0
  7  9  1  0  0  0  0
  9 10  1  0  0  0  0
  9 11  1  0  0  0  0
  9 20  1  0  0  0  0
 11 12  1  0  0  0  0
 11 13  1  0  0  0  0
 11 14  1  0  0  0  0
 14 15  1  0  0  0  0
 14 16  1  0  0  0  0
 14 17  1  0  0  0  0
 17 18  1  0  0  0  0
 17 19  2  0  0  0  0
 20 21  2  0  0  0  0
 20 22  1  0  0  0  0
 22 23  1  0  0  0  0
 22 24  1  0  0  0  0
 24 25  1  0  0  0  0
 24 26  1  0  0  0  0
 24 27  1  0  0  0  0
M  CHG  1  18  -1
M  END
$$$$

  -OEChem-04042215583D

 27 26  0     1  0  0  0  0  0999 V2000
   -2.7403   -3.9291    0.4680 H   0  0  0  0  0  0  0  0  0  0  0  0
   -2.6349   -3.0192   -0.1294 C   0  0  0  0  0  0  0  0  0  0  0  0
   -3.4656   -2.3476    0.1005 H   0  0  0  0  0  0  0  0  0  0  0  0
   -2.6754   -3.2875   -1.1882 H   0  0  0  0  0  0  0  0  0  0  0  0
   -1.3149   -2.3362    0.1812 C   0  0  0  0  0  0  0  0  0  0  0  0
   -0.5707   -2.8138    1.0206 O   0  0  0  0  0  0  0  0  0  0  0  0
   -0.9871   -1.1730   -0.4831 N   0  0  0  0  0  0  0  0  0  0  0  0
   -1.5976   -0.9081   -1.2523 H   0  0  0  0  0  0  0  0  0  0  0  0
    0.3392   -0.5268   -0.4524 C   0  0  1  0  0  0  0  0  0  0  0  0
    1.0715   -1.2511   -0.8258 H   0  0  0  0  0  0  0  0  0  0  0  0
    0.3608    0.6987   -1.3997 C   0  0  0  0  0  0  0  0  0  0  0  0
    0.0797    1.5995   -0.8445 H   0  0  0  0  0  0  0  0  0  0  0  0
    1.3965    0.8427   -1.7280 H   0  0  0  0  0  0  0  0  0  0  0  0
   -0.5671    0.6088   -2.6390 C   0  0  0  0  0  0  0  0  0  0  0  0
   -0.8879   -0.4196   -2.8228 H   0  0  0  0  0  0  0  0  0  0  0  0
   -1.4641    1.2129   -2.4743 H   0  0  0  0  0  0  0  0  0  0  0  0
    0.1434    1.0708   -3.9108 C   0  0  0  0  0  0  0  0  0  0  0  0
    0.2764    2.3070   -4.0820 O   0  5  0  0  0  0  0  0  0  0  0  0
    0.5261    0.1873   -4.7164 O   0  0  0  0  0  0  0  0  0  0  0  0
    0.8117   -0.1032    0.9555 C   0  0  0  0  0  0  0  0  0  0  0  0
    1.9897   -0.1985    1.2784 O   0  0  0  0  0  0  0  0  0  0  0  0
   -0.0690    0.5386    1.8067 N   0  0  0  0  0  0  0  0  0  0  0  0
   -1.0406    0.5533    1.5170 H   0  0  0  0  0  0  0  0  0  0  0  0
    0.2858    0.9864    3.1444 C   0  0  0  0  0  0  0  0  0  0  0  0
    1.1146    1.7005    3.1016 H   0  0  0  0  0  0  0  0  0  0  0  0
   -0.5700    1.4790    3.6151 H   0  0  0  0  0  0  0  0  0  0  0  0
    0.5827    0.1351    3.7654 H   0  0  0  0  0  0  0  0  0  0  0  0
  1  2  1  0  0  0  0
  2  3  1  0  0  0  0
  2  4  1  0  0  0  0
  2  5  1  0  0  0  0
  5  6  2  0  0  0  0
  5  7  1  0  0  0  0
  7  8  1  0  0  0  0
  7  9  1  0  0  0  0
  9 10  1  0  0  0  0
  9 11  1  0  0  0  0
  9 20  1  0  0  0  0
 11 12  1  0  0  0  0
 11 13  1  0  0  0  0
 11 14  1  0  0  0  0
 14 15  1  0  0  0  0
 14 16  1  0  0  0  0
 14 17  1  0  0  0  0
 17 18  1  0  0  0  0
 17 19  2  0  0  0  0
 20 21  2  0  0  0  0
 20 22  1  0  0  0  0
 22 23  1  0  0  0  0
 22 24  1  0  0  0  0
 24 25  1  0  0  0  0
 24 26  1  0  0  0  0
 24 27  1  0  0  0  0
M  CHG  1  18  -1
M  END
$$$$

  -OEChem-04042215583D

 27 26  0     1  0  0  0  0  0999 V2000
   -2.7445   -3.9349    0.4799 H   0  0  0  0  0  0  0  0  0  0  0  0
   -2.6377   -3.0301   -0.1252 C   0  0  0  0  0  0  0  0  0  0  0  0
   -3.4837   -2.3687    0.0763 H   0  0  0  0  0  0  0  0  0  0  0  0
   -2.6482   -3.3109   -1.1816 H   0  0  0  0  0  0  0  0  0  0  0  0
   -1.3355   -2.3244    0.2085 C   0  0  0  0  0  0  0  0  0  0  0  0
   -0.6096   -2.7764    1.0776 O   0  0  0  0  0  0  0  0  0  0  0  0
   -1.0087   -1.1668   -0.4663 N   0  0  0  0  0  0  0  0  0  0  0  0
   -1.6047   -0.9341   -1.2562 H   0  0  0  0  0  0  0  0  0  0  0  0
    0.3223   -0.5301   -0.4508 C   0  0  1  0  0  0  0  0  0  0  0  0
    1.0442   -1.2661   -0.8223 H   0  0  0  0  0  0  0  0  0  0  0  0
    0.3706    0.6908   -1.4056 C   0  0  0  0  0  0  0  0  0  0  0  0
    0.0860    1.5853   -0.8419 H   0  0  0  0  0  0  0  0  0  0  0  0
    1.4115    0.8382   -1.7159 H   0  0  0  0  0  0  0  0  0  0  0  0
   -0.5468    0.6414   -2.6584 C   0  0  0  0  0  0  0  0  0  0  0  0
   -1.1459   -0.2681   -2.7161 H   0  0  0  0  0  0  0  0  0  0  0  0
   -1.2456    1.4826   -2.6222 H   0  0  0  0  0  0  0  0  0  0  0  0
    0.2632    0.7265   -3.9504 C   0  0  0  0  0  0  0  0  0  0  0  0
    0.5489    1.8668   -4.3898 O   0  5  0  0  0  0  0  0  0  0  0  0
    0.5786   -0.3577   -4.4993 O   0  0  0  0  0  0  0  0  0  0  0  0
    0.8049   -0.1048    0.9537 C   0  0  0  0  0  0  0  0  0  0  0  0
    1.9853   -0.1949    1.2694 O   0  0  0  0  0  0  0  0  0  0  0  0
   -0.0702    0.5453    1.8045 N   0  0  0  0  0  0  0  0  0  0  0  0
   -1.0459    0.5327    1.5288 H   0  0  0  0  0  0  0  0  0  0  0  0
    0.2847    0.9688    3.1501 C   0  0  0  0  0  0  0  0  0  0  0  0
    1.1180    1.6783    3.1205 H   0  0  0  0  0  0  0  0  0  0  0  0
   -0.5693    1.4591    3.6266 H   0  0  0  0  0  0  0  0  0  0  0  0
    0.5746    0.1053    3.7575 H   0  0  0  0  0  0  0  0  0  0  0  0
  1  2  1  0  0  0  0
  2  3  1  0  0  0  0
  2  4  1  0  0  0  0
  2  5  1  0  0  0  0
  5  6  2  0  0  0  0
  5  7  1  0  0  0  0
  7  8  1  0  0  0  0
  7  9  1  0  0  0  0
  9 10  1  0  0  0  0
  9 11  1  0  0  0  0
  9 20  1  0  0  0  0
 11 12  1  0  0  0  0
 11 13  1  0  0  0  0
 11 14  1  0  0  0  0
 14 15  1  0  0  0  0
 14 16  1  0  0  0  0
 14 17  1  0  0  0  0
 17 18  1  0  0  0  0
 17 19  2  0  0  0  0
 20 21  2  0  0  0  0
 20 22  1  0  0  0  0
 22 23  1  0  0  0  0
 22 24  1  0  0  0  0
 24 25  1  0  0  0  0
 24 26  1  0  0  0  0
 24 27  1  0  0  0  0
M  CHG  1  18  -1
M  END
$$$$

  -OEChem-04042215583D

 27 26  0     1  0  0  0  0  0999 V2000
   -2.7473   -3.9441    0.4611 H   0  0  0  0  0  0  0  0  0  0  0  0
   -2.6300   -3.0508   -0.1588 C   0  0  0  0  0  0  0  0  0  0  0  0
   -3.5032   -2.4082   -0.0214 H   0  0  0  0  0  0  0  0  0  0  0  0
   -2.5730   -3.3556   -1.2072 H   0  0  0  0  0  0  0  0  0  0  0  0
   -1.3673   -2.3023    0.2295 C   0  0  0  0  0  0  0  0  0  0  0  0
   -0.6880   -2.7075    1.1579 O   0  0  0  0  0  0  0  0  0  0  0  0
   -1.0342   -1.1525   -0.4558 N   0  0  0  0  0  0  0  0  0  0  0  0
   -1.5753   -0.9928   -1.3012 H   0  0  0  0  0  0  0  0  0  0  0  0
    0.3057   -0.5352   -0.4406 C   0  0  1  0  0  0  0  0  0  0  0  0
    1.0156   -1.2849   -0.8076 H   0  0  0  0  0  0  0  0  0  0  0  0
    0.3880    0.6847   -1.3963 C   0  0  0  0  0  0  0  0  0  0  0  0
    0.0986    1.5738   -0.8266 H   0  0  0  0  0  0  0  0  0  0  0  0
    1.4324    0.8325   -1.6937 H   0  0  0  0  0  0  0  0  0  0  0  0
   -0.5193    0.6619   -2.6551 C   0  0  0  0  0  0  0  0  0  0  0  0
   -1.3578   -0.0304   -2.5894 H   0  0  0  0  0  0  0  0  0  0  0  0
   -0.9567    1.6577   -2.7748 H   0  0  0  0  0  0  0  0  0  0  0  0
    0.2816    0.3536   -3.9164 C   0  0  0  0  0  0  0  0  0  0  0  0
    0.7224    1.3123   -4.5956 O   0  5  0  0  0  0  0  0  0  0  0  0
    0.4321   -0.8607   -4.1980 O   0  0  0  0  0  0  0  0  0  0  0  0
    0.7922   -0.1087    0.9631 C   0  0  0  0  0  0  0  0  0  0  0  0
    1.9749   -0.1935    1.2727 O   0  0  0  0  0  0  0  0  0  0  0  0
   -0.0752    0.5587    1.8089 N   0  0  0  0  0  0  0  0  0  0  0  0
   -1.0549    0.5167    1.5503 H   0  0  0  0  0  0  0  0  0  0  0  0
    0.2860    0.9771    3.1546 C   0  0  0  0  0  0  0  0  0  0  0  0
    1.1266    1.6779    3.1247 H   0  0  0  0  0  0  0  0  0  0  0  0
   -0.5617    1.4760    3.6333 H   0  0  0  0  0  0  0  0  0  0  0  0
    0.5680    0.1103    3.7608 H   0  0  0  0  0  0  0  0  0  0  0  0
  1  2  1  0  0  0  0
  2  3  1  0  0  0  0
  2  4  1  0  0  0  0
  2  5  1  0  0  0  0
  5  6  2  0  0  0  0
  5  7  1  0  0  0  0
  7  8  1  0  0  0  0
  7  9  1  0  0  0  0
  9 10  1  0  0  0  0
  9 11  1  0  0  0  0
  9 20  1  0  0  0  0
 11 12  1  0  0  0  0
 11 13  1  0  0  0  0
 11 14  1  0  0  0  0
 14 15  1  0  0  0  0
 14 16  1  0  0  0  0
 14 17  1  0  0  0  0
 17 18  1  0  0  0  0
 17 19  2  0  0  0  0
 20 21  2  0  0  0  0
 20 22  1  0  0  0  0
 22 23  1  0  0  0  0
 22 24  1  0  0  0  0
 24 25  1  0  0  0  0
 24 26  1  0  0  0  0
 24 27  1  0  0  0  0
M  CHG  1  18  -1
M  END
$$$$

  -OEChem-04042215583D

 27 26  0     1  0  0  0  0  0999 V2000
   -2.7323   -3.9436    0.4089 H   0  0  0  0  0  0  0  0  0  0  0  0
   -2.5966   -3.0622   -0.2239 C   0  0  0  0  0  0  0  0  0  0  0  0
   -3.4992   -2.4486   -0.1737 H   0  0  0  0  0  0  0  0  0  0  0  0
   -2.4459   -3.3898   -1.2562 H   0  0  0  0  0  0  0  0  0  0  0  0
   -1.3955   -2.2587    0.2415 C   0  0  0  0  0  0  0  0  0  0  0  0
   -0.7912   -2.6034    1.2440 O   0  0  0  0  0  0  0  0  0  0  0  0
   -1.0463   -1.1193   -0.4525 N   0  0  0  0  0  0  0  0  0  0  0  0
   -1.5091   -1.0423   -1.3564 H   0  0  0  0  0  0  0  0  0  0  0  0
    0.3038   -0.5270   -0.4248 C   0  0  1  0  0  0  0  0  0  0  0  0
    1.0036   -1.2898   -0.7847 H   0  0  0  0  0  0  0  0  0  0  0  0
    0.4064    0.6895   -1.3820 C   0  0  0  0  0  0  0  0  0  0  0  0
    0.1239    1.5848   -0.8189 H   0  0  0  0  0  0  0  0  0  0  0  0
    1.4504    0.8235   -1.6868 H   0  0  0  0  0  0  0  0  0  0  0  0
   -0.5054    0.6545   -2.6325 C   0  0  0  0  0  0  0  0  0  0  0  0
   -1.4859    0.2110   -2.4543 H   0  0  0  0  0  0  0  0  0  0  0  0
   -0.6988    1.6901   -2.9279 H   0  0  0  0  0  0  0  0  0  0  0  0
    0.1834   -0.0263   -3.8083 C   0  0  0  0  0  0  0  0  0  0  0  0
    0.7953    0.6749   -4.6493 O   0  5  0  0  0  0  0  0  0  0  0  0
    0.0712   -1.2770   -3.8513 O   0  0  0  0  0  0  0  0  0  0  0  0
    0.7877   -0.0983    0.9786 C   0  0  0  0  0  0  0  0  0  0  0  0
    1.9687   -0.1929    1.2930 O   0  0  0  0  0  0  0  0  0  0  0  0
   -0.0747    0.5920    1.8105 N   0  0  0  0  0  0  0  0  0  0  0  0
   -1.0552    0.5261    1.5584 H   0  0  0  0  0  0  0  0  0  0  0  0
    0.2780    0.9848    3.1659 C   0  0  0  0  0  0  0  0  0  0  0  0
    1.1420    1.6572    3.1577 H   0  0  0  0  0  0  0  0  0  0  0  0
   -0.5606    1.5073    3.6353 H   0  0  0  0  0  0  0  0  0  0  0  0
    0.5205    0.1026    3.7671 H   0  0  0  0  0  0  0  0  0  0  0  0
  1  2  1  0  0  0  0
  2  3  1  0  0  0  0
  2  4  1  0  0  0  0
  2  5  1  0  0  0  0
  5  6  2  0  0  0  0
  5  7  1  0  0  0  0
  7  8  1  0  0  0  0
  7  9  1  0  0  0  0
  9 10  1  0  0  0  0
  9 11  1  0  0  0  0
  9 20  1  0  0  0  0
 11 12  1  0  0  0  0
 11 13  1  0  0  0  0
 11 14  1  0  0  0  0
 14 15  1  0  0  0  0
 14 16  1  0  0  0  0
 14 17  1  0  0  0  0
 17 18  1  0  0  0  0
 17 19  2  0  0  0  0
 20 21  2  0  0  0  0
 20 22  1  0  0  0  0
 22 23  1  0  0  0  0
 22 24  1  0  0  0  0
 24 25  1  0  0  0  0
 24 26  1  0  0  0  0
 24 27  1  0  0  0  0
M  CHG  1  18  -1
M  END
$$$$

  -OEChem-04042215583D

 27 26  0     1  0  0  0  0  0999 V2000
   -2.6603   -3.9886    0.3002 H   0  0  0  0  0  0  0  0  0  0  0  0
   -2.5587   -3.0756   -0.2928 C   0  0  0  0  0  0  0  0  0  0  0  0
   -3.4980   -2.5190   -0.2532 H   0  0  0  0  0  0  0  0  0  0  0  0
   -2.3525   -3.3515   -1.3311 H   0  0  0  0  0  0  0  0  0  0  0  0
   -1.4255   -2.2206    0.2448 C   0  0  0  0  0  0  0  0  0  0  0  0
   -0.8968   -2.5143    1.3057 O   0  0  0  0  0  0  0  0  0  0  0  0
   -1.0560   -1.0912   -0.4534 N   0  0  0  0  0  0  0  0  0  0  0  0
   -1.4486   -1.0821   -1.3977 H   0  0  0  0  0  0  0  0  0  0  0  0
    0.3043   -0.5246   -0.4075 C   0  0  1  0  0  0  0  0  0  0  0  0
    0.9957   -1.2987   -0.7588 H   0  0  0  0  0  0  0  0  0  0  0  0
    0.4236    0.6900   -1.3652 C   0  0  0  0  0  0  0  0  0  0  0  0
    0.1600    1.5982   -0.8140 H   0  0  0  0  0  0  0  0  0  0  0  0
    1.4663    0.7967   -1.6844 H   0  0  0  0  0  0  0  0  0  0  0  0
   -0.4963    0.6328   -2.6046 C   0  0  0  0  0  0  0  0  0  0  0  0
   -1.5387    0.4321   -2.3451 H   0  0  0  0  0  0  0  0  0  0  0  0
   -0.4882    1.6215   -3.0727 H   0  0  0  0  0  0  0  0  0  0  0  0
    0.0051   -0.3647   -3.6386 C   0  0  0  0  0  0  0  0  0  0  0  0
    0.7953    0.0110   -4.5363 O   0  5  0  0  0  0  0  0  0  0  0  0
   -0.4338   -1.5354   -3.4974 O   0  0  0  0  0  0  0  0  0  0  0  0
    0.7825   -0.0956    0.9976 C   0  0  0  0  0  0  0  0  0  0  0  0
    1.9619   -0.1972    1.3173 O   0  0  0  0  0  0  0  0  0  0  0  0
   -0.0748    0.6174    1.8152 N   0  0  0  0  0  0  0  0  0  0  0  0
   -1.0557    0.5413    1.5662 H   0  0  0  0  0  0  0  0  0  0  0  0
    0.2758    1.0201    3.1684 C   0  0  0  0  0  0  0  0  0  0  0  0
    1.1545    1.6731    3.1583 H   0  0  0  0  0  0  0  0  0  0  0  0
   -0.5546    1.5674    3.6238 H   0  0  0  0  0  0  0  0  0  0  0  0
    0.4941    0.1413    3.7838 H   0  0  0  0  0  0  0  0  0  0  0  0
  1  2  1  0  0  0  0
  2  3  1  0  0  0  0
  2  4  1  0  0  0  0
  2  5  1  0  0  0  0
  5  6  2  0  0  0  0
  5  7  1  0  0  0  0
  7  8  1  0  0  0  0
  7  9  1  0  0  0  0
  9 10  1  0  0  0  0
  9 11  1  0  0  0  0
  9 20  1  0  0  0  0
 11 12  1  0  0  0  0
 11 13  1  0  0  0  0
 11 14  1  0  0  0  0
 14 15  1  0  0  0  0
 14 16  1  0  0  0  0
 14 17  1  0  0  0  0
 17 18  1  0  0  0  0
 17 19  2  0  0  0  0
 20 21  2  0  0  0  0
 20 22  1  0  0  0  0
 22 23  1  0  0  0  0
 22 24  1  0  0  0  0
 24 25  1  0  0  0  0
 24 26  1  0  0  0  0
 24 27  1  0  0  0  0
M  CHG  1  18  -1
M  END
$$$$

  -OEChem-04042215583D

 27 26  0     1  0  0  0  0  0999 V2000
   -2.6465   -3.9911    0.3174 H   0  0  0  0  0  0  0  0  0  0  0  0
   -2.5386   -3.0859   -0.2859 C   0  0  0  0  0  0  0  0  0  0  0  0
   -3.4789   -2.5300   -0.2676 H   0  0  0  0  0  0  0  0  0  0  0  0
   -2.3180   -3.3741   -1.3180 H   0  0  0  0  0  0  0  0  0  0  0  0
   -1.4143   -2.2211    0.2543 C   0  0  0  0  0  0  0  0  0  0  0  0
   -0.8906   -2.5047    1.3213 O   0  0  0  0  0  0  0  0  0  0  0  0
   -1.0434   -1.0969   -0.4508 N   0  0  0  0  0  0  0  0  0  0  0  0
   -1.4255   -1.1163   -1.4044 H   0  0  0  0  0  0  0  0  0  0  0  0
    0.3174   -0.5282   -0.4009 C   0  0  1  0  0  0  0  0  0  0  0  0
    1.0131   -1.3023   -0.7434 H   0  0  0  0  0  0  0  0  0  0  0  0
    0.4329    0.6846   -1.3611 C   0  0  0  0  0  0  0  0  0  0  0  0
    0.1827    1.6009   -0.8169 H   0  0  0  0  0  0  0  0  0  0  0  0
    1.4751    0.7739   -1.6864 H   0  0  0  0  0  0  0  0  0  0  0  0
   -0.4820    0.6265   -2.6035 C   0  0  0  0  0  0  0  0  0  0  0  0
   -1.5343    0.6485   -2.3048 H   0  0  0  0  0  0  0  0  0  0  0  0
   -0.3082    1.5247   -3.2030 H   0  0  0  0  0  0  0  0  0  0  0  0
   -0.2175   -0.5905   -3.4835 C   0  0  0  0  0  0  0  0  0  0  0  0
    0.7203   -0.5592   -4.3136 O   0  5  0  0  0  0  0  0  0  0  0  0
   -0.9716   -1.5777   -3.2766 O   0  0  0  0  0  0  0  0  0  0  0  0
    0.7840   -0.0891    1.0047 C   0  0  0  0  0  0  0  0  0  0  0  0
    1.9625   -0.1797    1.3316 O   0  0  0  0  0  0  0  0  0  0  0  0
   -0.0824    0.6282    1.8090 N   0  0  0  0  0  0  0  0  0  0  0  0
   -1.0607    0.5423    1.5514 H   0  0  0  0  0  0  0  0  0  0  0  0
    0.2508    1.0304    3.1667 C   0  0  0  0  0  0  0  0  0  0  0  0
    1.1326    1.6793    3.1690 H   0  0  0  0  0  0  0  0  0  0  0  0
   -0.5836    1.5817    3.6099 H   0  0  0  0  0  0  0  0  0  0  0  0
    0.4559    0.1507    3.7851 H   0  0  0  0  0  0  0  0  0  0  0  0
  1  2  1  0  0  0  0
  2  3  1  0  0  0  0
  2  4  1  0  0  0  0
  2  5  1  0  0  0  0
  5  6  2  0  0  0  0
  5  7  1  0  0  0  0
  7  8  1  0  0  0  0
  7  9  1  0  0  0  0
  9 10  1  0  0  0  0
  9 11  1  0  0  0  0
  9 20  1  0  0  0  0
 11 12  1  0  0  0  0
 11 13  1  0  0  0  0
 11 14  1  0  0  0  0
 14 15  1  0  0  0  0
 14 16  1  0  0  0  0
 14 17  1  0  0  0  0
 17 18  1  0  0  0  0
 17 19  2  0  0  0  0
 20 21  2  0  0  0  0
 20 22  1  0  0  0  0
 22 23  1  0  0  0  0
 22 24  1  0  0  0  0
 24 25  1  0  0  0  0
 24 26  1  0  0  0  0
 24 27  1  0  0  0  0
M  CHG  1  18  -1
M  END
$$$$

  -OEChem-04042215583D

 27 26  0     1  0  0  0  0  0999 V2000
   -2.6674   -3.9898    0.4062 H   0  0  0  0  0  0  0  0  0  0  0  0
   -2.5459   -3.1014   -0.2192 C   0  0  0  0  0  0  0  0  0  0  0  0
   -3.4654   -2.5122   -0.1852 H   0  0  0  0  0  0  0  0  0  0  0  0
   -2.3678   -3.4173   -1.2513 H   0  0  0  0  0  0  0  0  0  0  0  0
   -1.3761   -2.2662    0.2683 C   0  0  0  0  0  0  0  0  0  0  0  0
   -0.8008   -2.5732    1.3019 O   0  0  0  0  0  0  0  0  0  0  0  0
   -1.0236   -1.1366   -0.4375 N   0  0  0  0  0  0  0  0  0  0  0  0
   -1.4650   -1.1163   -1.3658 H   0  0  0  0  0  0  0  0  0  0  0  0
    0.3243   -0.5348   -0.3943 C   0  0  1  0  0  0  0  0  0  0  0  0
    1.0349   -1.2992   -0.7283 H   0  0  0  0  0  0  0  0  0  0  0  0
    0.4318    0.6709   -1.3651 C   0  0  0  0  0  0  0  0  0  0  0  0
    0.1813    1.5913   -0.8282 H   0  0  0  0  0  0  0  0  0  0  0  0
    1.4788    0.7532   -1.6756 H   0  0  0  0  0  0  0  0  0  0  0  0
   -0.4502    0.6289   -2.6346 C   0  0  0  0  0  0  0  0  0  0  0  0
   -1.4797    0.8759   -2.3575 H   0  0  0  0  0  0  0  0  0  0  0  0
   -0.1095    1.4029   -3.3282 H   0  0  0  0  0  0  0  0  0  0  0  0
   -0.4484   -0.7155   -3.3621 C   0  0  0  0  0  0  0  0  0  0  0  0
    0.5660   -1.0410   -4.0204 O   0  5  0  0  0  0  0  0  0  0  0  0
   -1.4618   -1.4435   -3.1911 O   0  0  0  0  0  0  0  0  0  0  0  0
    0.7788   -0.0814    1.0103 C   0  0  0  0  0  0  0  0  0  0  0  0
    1.9607   -0.1299    1.3342 O   0  0  0  0  0  0  0  0  0  0  0  0
   -0.1068    0.6157    1.8112 N   0  0  0  0  0  0  0  0  0  0  0  0
   -1.0828    0.4999    1.5566 H   0  0  0  0  0  0  0  0  0  0  0  0
    0.2190    1.0431    3.1628 C   0  0  0  0  0  0  0  0  0  0  0  0
    1.0801    1.7192    3.1535 H   0  0  0  0  0  0  0  0  0  0  0  0
   -0.6303    1.5731    3.6036 H   0  0  0  0  0  0  0  0  0  0  0  0
    0.4544    0.1769    3.7897 H   0  0  0  0  0  0  0  0  0  0  0  0
  1  2  1  0  0  0  0
  2  3  1  0  0  0  0
  2  4  1  0  0  0  0
  2  5  1  0  0  0  0
  5  6  2  0  0  0  0
  5  7  1  0  0  0  0
  7  8  1  0  0  0  0
  7  9  1  0  0  0  0
  9 10  1  0  0  0  0
  9 11  1  0  0  0  0
  9 20  1  0  0  0  0
 11 12  1  0  0  0  0
 11 13  1  0  0  0  0
 11 14  1  0  0  0  0
 14 15  1  0  0  0  0
 14 16  1  0  0  0  0
 14 17  1  0  0  0  0
 17 18  1  0  0  0  0
 17 19  2  0  0  0  0
 20 21  2  0  0  0  0
 20 22  1  0  0  0  0
 22 23  1  0  0  0  0
 22 24  1  0  0  0  0
 24 25  1  0  0  0  0
 24 26  1  0  0  0  0
 24 27  1  0  0  0  0
M  CHG  1  18  -1
M  END
$$$$

  -OEChem-04042215583D

 27 26  0     1  0  0  0  0  0999 V2000
   -2.6047   -4.0547    0.4458 H   0  0  0  0  0  0  0  0  0  0  0  0
   -2.5499   -3.1237   -0.1243 C   0  0  0  0  0  0  0  0  0  0  0  0
   -3.4652   -2.5498    0.0384 H   0  0  0  0  0  0  0  0  0  0  0  0
   -2.4704   -3.3656   -1.1882 H   0  0  0  0  0  0  0  0  0  0  0  0
   -1.3441   -2.3089    0.3066 C   0  0  0  0  0  0  0  0  0  0  0  0
   -0.7120   -2.6376    1.2998 O   0  0  0  0  0  0  0  0  0  0  0  0
   -1.0132   -1.1780   -0.4069 N   0  0  0  0  0  0  0  0  0  0  0  0
   -1.5266   -1.1059   -1.2940 H   0  0  0  0  0  0  0  0  0  0  0  0
    0.3193   -0.5426   -0.3826 C   0  0  1  0  0  0  0  0  0  0  0  0
    1.0391   -1.3049   -0.7012 H   0  0  0  0  0  0  0  0  0  0  0  0
    0.4340    0.6443   -1.3786 C   0  0  0  0  0  0  0  0  0  0  0  0
    0.1831    1.5723   -0.8549 H   0  0  0  0  0  0  0  0  0  0  0  0
    1.4892    0.7154   -1.6632 H   0  0  0  0  0  0  0  0  0  0  0  0
   -0.4036    0.6247   -2.6845 C   0  0  0  0  0  0  0  0  0  0  0  0
   -1.3572    1.1217   -2.4822 H   0  0  0  0  0  0  0  0  0  0  0  0
    0.1120    1.2197   -3.4437 H   0  0  0  0  0  0  0  0  0  0  0  0
   -0.7131   -0.7539   -3.2706 C   0  0  0  0  0  0  0  0  0  0  0  0
    0.2149   -1.3823   -3.8290 O   0  5  0  0  0  0  0  0  0  0  0  0
   -1.8695   -1.2104   -3.0695 O   0  0  0  0  0  0  0  0  0  0  0  0
    0.7678   -0.0677    1.0165 C   0  0  0  0  0  0  0  0  0  0  0  0
    1.9527   -0.0776    1.3339 O   0  0  0  0  0  0  0  0  0  0  0  0
   -0.1333    0.6118    1.8152 N   0  0  0  0  0  0  0  0  0  0  0  0
   -1.1070    0.4785    1.5595 H   0  0  0  0  0  0  0  0  0  0  0  0
    0.1841    1.0608    3.1620 C   0  0  0  0  0  0  0  0  0  0  0  0
    1.0390    1.7447    3.1469 H   0  0  0  0  0  0  0  0  0  0  0  0
   -0.6712    1.5890    3.5930 H   0  0  0  0  0  0  0  0  0  0  0  0
    0.4250    0.2056    3.8017 H   0  0  0  0  0  0  0  0  0  0  0  0
  1  2  1  0  0  0  0
  2  3  1  0  0  0  0
  2  4  1  0  0  0  0
  2  5  1  0  0  0  0
  5  6  2  0  0  0  0
  5  7  1  0  0  0  0
  7  8  1  0  0  0  0
  7  9  1  0  0  0  0
  9 10  1  0  0  0  0
  9 11  1  0  0  0  0
  9 20  1  0  0  0  0
 11 12  1  0  0  0  0
 11 13  1  0  0  0  0
 11 14  1  0  0  0  0
 14 15  1  0  0  0  0
 14 16  1  0  0  0  0
 14 17  1  0  0  0  0
 17 18  1  0  0  0  0
 17 19  2  0  0  0  0
 20 21  2  0  0  0  0
 20 22  1  0  0  0  0
 22 23  1  0  0  0  0
 22 24  1  0  0  0  0
 24 25  1  0  0  0  0
 24 26  1  0  0  0  0
 24 27  1  0  0  0  0
M  CHG  1  18  -1
M  END
$$$$

  -OEChem-04042215583D

 27 26  0     1  0  0  0  0  0999 V2000
   -2.5912   -4.0753    0.5481 H   0  0  0  0  0  0  0  0  0  0  0  0
   -2.5517   -3.1405   -0.0174 C   0  0  0  0  0  0  0  0  0  0  0  0
   -3.4422   -2.5483    0.2064 H   0  0  0  0  0  0  0  0  0  0  0  0
   -2.5435   -3.3735   -1.0863 H   0  0  0  0  0  0  0  0  0  0  0  0
   -1.3040   -2.3556    0.3436 C   0  0  0  0  0  0  0  0  0  0  0  0
   -0.6086   -2.7138    1.2830 O   0  0  0  0  0  0  0  0  0  0  0  0
   -0.9986   -1.2220   -0.3757 N   0  0  0  0  0  0  0  0  0  0  0  0
   -1.5894   -1.0867   -1.2047 H   0  0  0  0  0  0  0  0  0  0  0  0
    0.3146   -0.5508   -0.3756 C   0  0  1  0  0  0  0  0  0  0  0  0
    1.0443   -1.3081   -0.6830 H   0  0  0  0  0  0  0  0  0  0  0  0
    0.4301    0.6213   -1.3931 C   0  0  0  0  0  0  0  0  0  0  0  0
    0.1618    1.5480   -0.8753 H   0  0  0  0  0  0  0  0  0  0  0  0
    1.4911    0.7038   -1.6508 H   0  0  0  0  0  0  0  0  0  0  0  0
   -0.3713    0.6205   -2.7278 C   0  0  0  0  0  0  0  0  0  0  0  0
   -1.1825    1.3486   -2.6310 H   0  0  0  0  0  0  0  0  0  0  0  0
    0.2839    0.9852   -3.5241 H   0  0  0  0  0  0  0  0  0  0  0  0
   -0.9962   -0.6952   -3.1918 C   0  0  0  0  0  0  0  0  0  0  0  0
   -0.2553   -1.5343   -3.7529 O   0  5  0  0  0  0  0  0  0  0  0  0
   -2.1990   -0.8994   -2.8803 O   0  0  0  0  0  0  0  0  0  0  0  0
    0.7599   -0.0572    1.0175 C   0  0  0  0  0  0  0  0  0  0  0  0
    1.9465   -0.0345    1.3280 O   0  0  0  0  0  0  0  0  0  0  0  0
   -0.1557    0.5996    1.8187 N   0  0  0  0  0  0  0  0  0  0  0  0
   -1.1269    0.4559    1.5590 H   0  0  0  0  0  0  0  0  0  0  0  0
    0.1527    1.0692    3.1603 C   0  0  0  0  0  0  0  0  0  0  0  0
    0.9909    1.7732    3.1379 H   0  0  0  0  0  0  0  0  0  0  0  0
   -0.7150    1.5813    3.5863 H   0  0  0  0  0  0  0  0  0  0  0  0
    0.4141    0.2263    3.8083 H   0  0  0  0  0  0  0  0  0  0  0  0
  1  2  1  0  0  0  0
  2  3  1  0  0  0  0
  2  4  1  0  0  0  0
  2  5  1  0  0  0  0
  5  6  2  0  0  0  0
  5  7  1  0  0  0  0
  7  8  1  0  0  0  0
  7  9  1  0  0  0  0
  9 10  1  0  0  0  0
  9 11  1  0  0  0  0
  9 20  1  0  0  0  0
 11 12  1  0  0  0  0
 11 13  1  0  0  0  0
 11 14  1  0  0  0  0
 14 15  1  0  0  0  0
 14 16  1  0  0  0  0
 14 17  1  0  0  0  0
 17 18  1  0  0  0  0
 17 19  2  0  0  0  0
 20 21  2  0  0  0  0
 20 22  1  0  0  0  0
 22 23  1  0  0  0  0
 22 24  1  0  0  0  0
 24 25  1  0  0  0  0
 24 26  1  0  0  0  0
 24 27  1  0  0  0  0
M  CHG  1  18  -1
M  END
$$$$

  -OEChem-04042215583D

 27 26  0     1  0  0  0  0  0999 V2000
   -2.5954   -4.0726    0.6576 H   0  0  0  0  0  0  0  0  0  0  0  0
   -2.5556   -3.1449    0.0807 C   0  0  0  0  0  0  0  0  0  0  0  0
   -3.4118   -2.5206    0.3473 H   0  0  0  0  0  0  0  0  0  0  0  0
   -2.6150   -3.3868   -0.9845 H   0  0  0  0  0  0  0  0  0  0  0  0
   -1.2641   -2.3994    0.3628 C   0  0  0  0  0  0  0  0  0  0  0  0
   -0.5054   -2.7970    1.2351 O   0  0  0  0  0  0  0  0  0  0  0  0
   -0.9824   -1.2606   -0.3567 N   0  0  0  0  0  0  0  0  0  0  0  0
   -1.6490   -1.0527   -1.1094 H   0  0  0  0  0  0  0  0  0  0  0  0
    0.3115   -0.5579   -0.3784 C   0  0  1  0  0  0  0  0  0  0  0  0
    1.0521   -1.3048   -0.6837 H   0  0  0  0  0  0  0  0  0  0  0  0
    0.4159    0.6088   -1.4070 C   0  0  0  0  0  0  0  0  0  0  0  0
    0.1067    1.5202   -0.8847 H   0  0  0  0  0  0  0  0  0  0  0  0
    1.4779    0.7332   -1.6428 H   0  0  0  0  0  0  0  0  0  0  0  0
   -0.3695    0.6177   -2.7554 C   0  0  0  0  0  0  0  0  0  0  0  0
   -0.9798    1.5253   -2.7871 H   0  0  0  0  0  0  0  0  0  0  0  0
    0.3612    0.7076   -3.5650 H   0  0  0  0  0  0  0  0  0  0  0  0
   -1.2820   -0.5589   -3.0978 C   0  0  0  0  0  0  0  0  0  0  0  0
   -0.7914   -1.5269   -3.7227 O   0  5  0  0  0  0  0  0  0  0  0  0
   -2.4479   -0.5357   -2.6232 O   0  0  0  0  0  0  0  0  0  0  0  0
    0.7574   -0.0535    1.0103 C   0  0  0  0  0  0  0  0  0  0  0  0
    1.9461   -0.0054    1.3099 O   0  0  0  0  0  0  0  0  0  0  0  0
   -0.1648    0.5793    1.8227 N   0  0  0  0  0  0  0  0  0  0  0  0
   -1.1363    0.4400    1.5609 H   0  0  0  0  0  0  0  0  0  0  0  0
    0.1480    1.0718    3.1551 C   0  0  0  0  0  0  0  0  0  0  0  0
    0.9610    1.8037    3.1122 H   0  0  0  0  0  0  0  0  0  0  0  0
   -0.7297    1.5574    3.5914 H   0  0  0  0  0  0  0  0  0  0  0  0
    0.4492    0.2447    3.8057 H   0  0  0  0  0  0  0  0  0  0  0  0
  1  2  1  0  0  0  0
  2  3  1  0  0  0  0
  2  4  1  0  0  0  0
  2  5  1  0  0  0  0
  5  6  2  0  0  0  0
  5  7  1  0  0  0  0
  7  8  1  0  0  0  0
  7  9  1  0  0  0  0
  9 10  1  0  0  0  0
  9 11  1  0  0  0  0
  9 20  1  0  0  0  0
 11 12  1  0  0  0  0
 11 13  1  0  0  0  0
 11 14  1  0  0  0  0
 14 15  1  0  0  0  0
 14 16  1  0  0  0  0
 14 17  1  0  0  0  0
 17 18  1  0  0  0  0
 17 19  2  0  0  0  0
 20 21  2  0  0  0  0
 20 22  1  0  0  0  0
 22 23  1  0  0  0  0
 22 24  1  0  0  0  0
 24 25  1  0  0  0  0
 24 26  1  0  0  0  0
 24 27  1  0  0  0  0
M  CHG  1  18  -1
M  END
$$$$

  -OEChem-04042215583D

 27 26  0     1  0  0  0  0  0999 V2000
   -2.2338   -4.1573    1.0398 H   0  0  0  0  0  0  0  0  0  0  0  0
   -2.2955   -3.2770    0.3949 C   0  0  0  0  0  0  0  0  0  0  0  0
   -3.1652   -2.6819    0.6839 H   0  0  0  0  0  0  0  0  0  0  0  0
   -2.4216   -3.6040   -0.6412 H   0  0  0  0  0  0  0  0  0  0  0  0
   -1.0342   -2.4416    0.5154 C   0  0  0  0  0  0  0  0  0  0  0  0
   -0.1722   -2.7454    1.3274 O   0  0  0  0  0  0  0  0  0  0  0  0
   -0.8882   -1.3353   -0.2892 N   0  0  0  0  0  0  0  0  0  0  0  0
   -1.6554   -1.1655   -0.9501 H   0  0  0  0  0  0  0  0  0  0  0  0
    0.3175   -0.5003   -0.4051 C   0  0  1  0  0  0  0  0  0  0  0  0
    1.1284   -1.1842   -0.6761 H   0  0  0  0  0  0  0  0  0  0  0  0
    0.2781    0.5935   -1.5169 C   0  0  0  0  0  0  0  0  0  0  0  0
   -0.1420    1.4876   -1.0444 H   0  0  0  0  0  0  0  0  0  0  0  0
    1.3124    0.8382   -1.7794 H   0  0  0  0  0  0  0  0  0  0  0  0
   -0.5288    0.4319   -2.8431 C   0  0  0  0  0  0  0  0  0  0  0  0
   -1.0075    1.3877   -3.0754 H   0  0  0  0  0  0  0  0  0  0  0  0
    0.1980    0.2474   -3.6401 H   0  0  0  0  0  0  0  0  0  0  0  0
   -1.5900   -0.6617   -2.9536 C   0  0  0  0  0  0  0  0  0  0  0  0
   -1.3073   -1.7068   -3.5837 O   0  5  0  0  0  0  0  0  0  0  0  0
   -2.6468   -0.4982   -2.2896 O   0  0  0  0  0  0  0  0  0  0  0  0
    0.7326    0.1487    0.9316 C   0  0  0  0  0  0  0  0  0  0  0  0
    1.9145    0.3407    1.1985 O   0  0  0  0  0  0  0  0  0  0  0  0
   -0.2384    0.7329    1.7231 N   0  0  0  0  0  0  0  0  0  0  0  0
   -1.1979    0.5092    1.4747 H   0  0  0  0  0  0  0  0  0  0  0  0
    0.0390    1.3798    2.9955 C   0  0  0  0  0  0  0  0  0  0  0  0
    0.7277    2.2193    2.8560 H   0  0  0  0  0  0  0  0  0  0  0  0
   -0.8884    1.7629    3.4312 H   0  0  0  0  0  0  0  0  0  0  0  0
    0.4850    0.6669    3.6965 H   0  0  0  0  0  0  0  0  0  0  0  0
  1  2  1  0  0  0  0
  2  3  1  0  0  0  0
  2  4  1  0  0  0  0
  2  5  1  0  0  0  0
  5  6  2  0  0  0  0
  5  7  1  0  0  0  0
  7  8  1  0  0  0  0
  7  9  1  0  0  0  0
  9 10  1  0  0  0  0
  9 11  1  0  0  0  0
  9 20  1  0  0  0  0
 11 12  1  0  0  0  0
 11 13  1  0  0  0  0
 11 14  1  0  0  0  0
 14 15  1  0  0  0  0
 14 16  1  0  0  0  0
 14 17  1  0  0  0  0
 17 18  1  0  0  0  0
 17 19  2  0  0  0  0
 20 21  2  0  0  0  0
 20 22  1  0  0  0  0
 22 23  1  0  0  0  0
 22 24  1  0  0  0  0
 24 25  1  0  0  0  0
 24 26  1  0  0  0  0
 24 27  1  0  0  0  0
M  CHG  1  18  -1
M  END
$$$$

  -OEChem-04042215583D

 27 26  0     1  0  0  0  0  0999 V2000
   -2.4306   -4.0235    1.0932 H   0  0  0  0  0  0  0  0  0  0  0  0
   -2.4420   -3.1471    0.4401 C   0  0  0  0  0  0  0  0  0  0  0  0
   -3.2220   -2.4602    0.7776 H   0  0  0  0  0  0  0  0  0  0  0  0
   -2.6725   -3.4665   -0.5802 H   0  0  0  0  0  0  0  0  0  0  0  0
   -1.0942   -2.4499    0.4641 C   0  0  0  0  0  0  0  0  0  0  0  0
   -0.1960   -2.8714    1.1784 O   0  0  0  0  0  0  0  0  0  0  0  0
   -0.9065   -1.3365   -0.3211 N   0  0  0  0  0  0  0  0  0  0  0  0
   -1.7244   -1.0231   -0.8568 H   0  0  0  0  0  0  0  0  0  0  0  0
    0.3313   -0.5528   -0.4394 C   0  0  1  0  0  0  0  0  0  0  0  0
    1.1112   -1.2609   -0.7368 H   0  0  0  0  0  0  0  0  0  0  0  0
    0.3140    0.5696   -1.5232 C   0  0  0  0  0  0  0  0  0  0  0  0
   -0.0654    1.4669   -1.0232 H   0  0  0  0  0  0  0  0  0  0  0  0
    1.3497    0.7831   -1.8064 H   0  0  0  0  0  0  0  0  0  0  0  0
   -0.5332    0.4598   -2.8275 C   0  0  0  0  0  0  0  0  0  0  0  0
   -0.7557    1.4688   -3.1860 H   0  0  0  0  0  0  0  0  0  0  0  0
    0.1071   -0.0081   -3.5816 H   0  0  0  0  0  0  0  0  0  0  0  0
   -1.8412   -0.3324   -2.8045 C   0  0  0  0  0  0  0  0  0  0  0  0
   -1.9377   -1.3485   -3.5311 O   0  5  0  0  0  0  0  0  0  0  0  0
   -2.7051    0.0168   -1.9578 O   0  0  0  0  0  0  0  0  0  0  0  0
    0.7849    0.0497    0.9061 C   0  0  0  0  0  0  0  0  0  0  0  0
    1.9760    0.1700    1.1739 O   0  0  0  0  0  0  0  0  0  0  0  0
   -0.1531    0.6578    1.7192 N   0  0  0  0  0  0  0  0  0  0  0  0
   -1.1241    0.5402    1.4415 H   0  0  0  0  0  0  0  0  0  0  0  0
    0.1613    1.2913    2.9896 C   0  0  0  0  0  0  0  0  0  0  0  0
    0.8677    2.1146    2.8422 H   0  0  0  0  0  0  0  0  0  0  0  0
   -0.7490    1.6937    3.4436 H   0  0  0  0  0  0  0  0  0  0  0  0
    0.6018    0.5640    3.6792 H   0  0  0  0  0  0  0  0  0  0  0  0
  1  2  1  0  0  0  0
  2  3  1  0  0  0  0
  2  4  1  0  0  0  0
  2  5  1  0  0  0  0
  5  6  2  0  0  0  0
  5  7  1  0  0  0  0
  7  8  1  0  0  0  0
  7  9  1  0  0  0  0
  9 10  1  0  0  0  0
  9 11  1  0  0  0  0
  9 20  1  0  0  0  0
 11 12  1  0  0  0  0
 11 13  1  0  0  0  0
 11 14  1  0  0  0  0
 14 15  1  0  0  0  0
 14 16  1  0  0  0  0
 14 17  1  0  0  0  0
 17 18  1  0  0  0  0
 17 19  2  0  0  0  0
 20 21  2  0  0  0  0
 20 22  1  0  0  0  0
 22 23  1  0  0  0  0
 22 24  1  0  0  0  0
 24 25  1  0  0  0  0
 24 26  1  0  0  0  0
 24 27  1  0  0  0  0
M  CHG  1  18  -1
M  END
$$$$

  -OEChem-04042215583D

 27 26  0     1  0  0  0  0  0999 V2000
   -2.5753   -3.9970    0.6729 H   0  0  0  0  0  0  0  0  0  0  0  0
   -2.5411   -3.0437    0.1389 C   0  0  0  0  0  0  0  0  0  0  0  0
   -3.1853   -2.3250    0.6521 H   0  0  0  0  0  0  0  0  0  0  0  0
   -2.9180   -3.1918   -0.8765 H   0  0  0  0  0  0  0  0  0  0  0  0
   -1.1189   -2.5162    0.0874 C   0  0  0  0  0  0  0  0  0  0  0  0
   -0.2087   -3.1547    0.5958 O   0  0  0  0  0  0  0  0  0  0  0  0
   -0.8716   -1.3170   -0.5403 N   0  0  0  0  0  0  0  0  0  0  0  0
   -1.7024   -0.7820   -0.8182 H   0  0  0  0  0  0  0  0  0  0  0  0
    0.3979   -0.5773   -0.4883 C   0  0  1  0  0  0  0  0  0  0  0  0
    1.1817   -1.2420   -0.8643 H   0  0  0  0  0  0  0  0  0  0  0  0
    0.3995    0.7110   -1.3624 C   0  0  0  0  0  0  0  0  0  0  0  0
    0.0695    1.5513   -0.7419 H   0  0  0  0  0  0  0  0  0  0  0  0
    1.4349    0.9187   -1.6498 H   0  0  0  0  0  0  0  0  0  0  0  0
   -0.4773    0.7421   -2.6420 C   0  0  0  0  0  0  0  0  0  0  0  0
   -0.3265    1.7054   -3.1369 H   0  0  0  0  0  0  0  0  0  0  0  0
   -0.1193   -0.0389   -3.3194 H   0  0  0  0  0  0  0  0  0  0  0  0
   -1.9874    0.5525   -2.4424 C   0  0  0  0  0  0  0  0  0  0  0  0
   -2.4764    0.8133   -1.3096 O   0  5  0  0  0  0  0  0  0  0  0  0
   -2.6387    0.0631   -3.3935 O   0  0  0  0  0  0  0  0  0  0  0  0
    0.7796   -0.1854    0.9527 C   0  0  0  0  0  0  0  0  0  0  0  0
    1.9509   -0.1740    1.3174 O   0  0  0  0  0  0  0  0  0  0  0  0
   -0.1980    0.3436    1.7753 N   0  0  0  0  0  0  0  0  0  0  0  0
   -1.1119    0.4755    1.3433 H   0  0  0  0  0  0  0  0  0  0  0  0
    0.0720    0.9421    3.0723 C   0  0  0  0  0  0  0  0  0  0  0  0
    0.6967    1.8337    2.9588 H   0  0  0  0  0  0  0  0  0  0  0  0
   -0.8665    1.2326    3.5536 H   0  0  0  0  0  0  0  0  0  0  0  0
    0.5869    0.2278    3.7229 H   0  0  0  0  0  0  0  0  0  0  0  0
  1  2  1  0  0  0  0
  2  3  1  0  0  0  0
  2  4  1  0  0  0  0
  2  5  1  0  0  0  0
  5  6  2  0  0  0  0
  5  7  1  0  0  0  0
  7  8  1  0  0  0  0
  7  9  1  0  0  0  0
  9 10  1  0  0  0  0
  9 11  1  0  0  0  0
  9 20  1  0  0  0  0
 11 12  1  0  0  0  0
 11 13  1  0  0  0  0
 11 14  1  0  0  0  0
 14 15  1  0  0  0  0
 14 16  1  0  0  0  0
 14 17  1  0  0  0  0
 17 18  1  0  0  0  0
 17 19  2  0  0  0  0
 20 21  2  0  0  0  0
 20 22  1  0  0  0  0
 22 23  1  0  0  0  0
 22 24  1  0  0  0  0
 24 25  1  0  0  0  0
 24 26  1  0  0  0  0
 24 27  1  0  0  0  0
M  CHG  1  18  -1
M  END
$$$$

  -OEChem-04042215583D

 27 26  0     1  0  0  0  0  0999 V2000
   -2.6067   -3.9211    0.6906 H   0  0  0  0  0  0  0  0  0  0  0  0
   -2.5511   -2.9859    0.1274 C   0  0  0  0  0  0  0  0  0  0  0  0
   -3.1693   -2.2345    0.6255 H   0  0  0  0  0  0  0  0  0  0  0  0
   -2.9415   -3.1530   -0.8797 H   0  0  0  0  0  0  0  0  0  0  0  0
   -1.1153   -2.5010    0.0482 C   0  0  0  0  0  0  0  0  0  0  0  0
   -0.2135   -3.1719    0.5284 O   0  0  0  0  0  0  0  0  0  0  0  0
   -0.8460   -1.3069   -0.5795 N   0  0  0  0  0  0  0  0  0  0  0  0
   -1.6670   -0.7405   -0.8229 H   0  0  0  0  0  0  0  0  0  0  0  0
    0.4313   -0.5829   -0.4995 C   0  0  1  0  0  0  0  0  0  0  0  0
    1.2217   -1.2429   -0.8698 H   0  0  0  0  0  0  0  0  0  0  0  0
    0.4208    0.7129   -1.3573 C   0  0  0  0  0  0  0  0  0  0  0  0
    0.1097    1.5635   -0.7410 H   0  0  0  0  0  0  0  0  0  0  0  0
    1.4517    0.9106   -1.6672 H   0  0  0  0  0  0  0  0  0  0  0  0
   -0.4745    0.6993   -2.6205 C   0  0  0  0  0  0  0  0  0  0  0  0
   -0.1774    1.5385   -3.2558 H   0  0  0  0  0  0  0  0  0  0  0  0
   -0.2883   -0.2228   -3.1791 H   0  0  0  0  0  0  0  0  0  0  0  0
   -1.9857    0.8295   -2.3626 C   0  0  0  0  0  0  0  0  0  0  0  0
   -2.4012    0.8845   -1.1719 O   0  5  0  0  0  0  0  0  0  0  0  0
   -2.7326    0.7992   -3.3673 O   0  0  0  0  0  0  0  0  0  0  0  0
    0.7803   -0.1940    0.9499 C   0  0  0  0  0  0  0  0  0  0  0  0
    1.9404   -0.2035    1.3483 O   0  0  0  0  0  0  0  0  0  0  0  0
   -0.2149    0.3479    1.7426 N   0  0  0  0  0  0  0  0  0  0  0  0
   -1.1046    0.5166    1.2713 H   0  0  0  0  0  0  0  0  0  0  0  0
    0.0291    0.9590    3.0388 C   0  0  0  0  0  0  0  0  0  0  0  0
    0.6534    1.8514    2.9289 H   0  0  0  0  0  0  0  0  0  0  0  0
   -0.9192    1.2505    3.4996 H   0  0  0  0  0  0  0  0  0  0  0  0
    0.5332    0.2524    3.7060 H   0  0  0  0  0  0  0  0  0  0  0  0
  1  2  1  0  0  0  0
  2  3  1  0  0  0  0
  2  4  1  0  0  0  0
  2  5  1  0  0  0  0
  5  6  2  0  0  0  0
  5  7  1  0  0  0  0
  7  8  1  0  0  0  0
  7  9  1  0  0  0  0
  9 10  1  0  0  0  0
  9 11  1  0  0  0  0
  9 20  1  0  0  0  0
 11 12  1  0  0  0  0
 11 13  1  0  0  0  0
 11 14  1  0  0  0  0
 14 15  1  0  0  0  0
 14 16  1  0  0  0  0
 14 17  1  0  0  0  0
 17 18  1  0  0  0  0
 17 19  2  0  0  0  0
 20 21  2  0  0  0  0
 20 22  1  0  0  0  0
 22 23  1  0  0  0  0
 22 24  1  0  0  0  0
 24 25  1  0  0  0  0
 24 26  1  0  0  0  0
 24 27  1  0  0  0  0
M  CHG  1  18  -1
M  END
$$$$

  -OEChem-04042215583D

 27 26  0     1  0  0  0  0  0999 V2000
   -2.6305   -3.8858    0.7118 H   0  0  0  0  0  0  0  0  0  0  0  0
   -2.5576   -2.9779    0.1070 C   0  0  0  0  0  0  0  0  0  0  0  0
   -3.1966   -2.2070    0.5458 H   0  0  0  0  0  0  0  0  0  0  0  0
   -2.9101   -3.1949   -0.9044 H   0  0  0  0  0  0  0  0  0  0  0  0
   -1.1216   -2.4887    0.0580 C   0  0  0  0  0  0  0  0  0  0  0  0
   -0.2303   -3.1508    0.5689 O   0  0  0  0  0  0  0  0  0  0  0  0
   -0.8388   -1.3024   -0.5786 N   0  0  0  0  0  0  0  0  0  0  0  0
   -1.6511   -0.7481   -0.8768 H   0  0  0  0  0  0  0  0  0  0  0  0
    0.4396   -0.5808   -0.4979 C   0  0  1  0  0  0  0  0  0  0  0  0
    1.2320   -1.2431   -0.8598 H   0  0  0  0  0  0  0  0  0  0  0  0
    0.4175    0.7019   -1.3722 C   0  0  0  0  0  0  0  0  0  0  0  0
    0.1048    1.5626   -0.7706 H   0  0  0  0  0  0  0  0  0  0  0  0
    1.4460    0.8982   -1.6906 H   0  0  0  0  0  0  0  0  0  0  0  0
   -0.4832    0.6458   -2.6292 C   0  0  0  0  0  0  0  0  0  0  0  0
   -0.0459    1.3023   -3.3876 H   0  0  0  0  0  0  0  0  0  0  0  0
   -0.4947   -0.3660   -3.0441 H   0  0  0  0  0  0  0  0  0  0  0  0
   -1.9238    1.1183   -2.3727 C   0  0  0  0  0  0  0  0  0  0  0  0
   -2.4834    0.7729   -1.2961 O   0  5  0  0  0  0  0  0  0  0  0  0
   -2.4782    1.7904   -3.2732 O   0  0  0  0  0  0  0  0  0  0  0  0
    0.7848   -0.1744    0.9475 C   0  0  0  0  0  0  0  0  0  0  0  0
    1.9440   -0.1817    1.3482 O   0  0  0  0  0  0  0  0  0  0  0  0
   -0.2102    0.3805    1.7314 N   0  0  0  0  0  0  0  0  0  0  0  0
   -1.1074    0.5231    1.2675 H   0  0  0  0  0  0  0  0  0  0  0  0
    0.0305    1.0046    3.0219 C   0  0  0  0  0  0  0  0  0  0  0  0
    0.6821    1.8767    2.9089 H   0  0  0  0  0  0  0  0  0  0  0  0
   -0.9162    1.3316    3.4619 H   0  0  0  0  0  0  0  0  0  0  0  0
    0.5030    0.2941    3.7075 H   0  0  0  0  0  0  0  0  0  0  0  0
  1  2  1  0  0  0  0
  2  3  1  0  0  0  0
  2  4  1  0  0  0  0
  2  5  1  0  0  0  0
  5  6  2  0  0  0  0
  5  7  1  0  0  0  0
  7  8  1  0  0  0  0
  7  9  1  0  0  0  0
  9 10  1  0  0  0  0
  9 11  1  0  0  0  0
  9 20  1  0  0  0  0
 11 12  1  0  0  0  0
 11 13  1  0  0  0  0
 11 14  1  0  0  0  0
 14 15  1  0  0  0  0
 14 16  1  0  0  0  0
 14 17  1  0  0  0  0
 17 18  1  0  0  0  0
 17 19  2  0  0  0  0
 20 21  2  0  0  0  0
 20 22  1  0  0  0  0
 22 23  1  0  0  0  0
 22 24  1  0  0  0  0
 24 25  1  0  0  0  0
 24 26  1  0  0  0  0
 24 27  1  0  0  0  0
M  CHG  1  18  -1
M  END
$$$$

  -OEChem-04042215583D

 27 26  0     1  0  0  0  0  0999 V2000
   -2.6769   -3.8620    0.6243 H   0  0  0  0  0  0  0  0  0  0  0  0
   -2.5819   -2.9494    0.0298 C   0  0  0  0  0  0  0  0  0  0  0  0
   -3.2484   -2.1870    0.4416 H   0  0  0  0  0  0  0  0  0  0  0  0
   -2.8824   -3.1623   -0.9992 H   0  0  0  0  0  0  0  0  0  0  0  0
   -1.1493   -2.4484    0.0544 C   0  0  0  0  0  0  0  0  0  0  0  0
   -0.2824   -3.0971    0.6206 O   0  0  0  0  0  0  0  0  0  0  0  0
   -0.8398   -1.2679   -0.5803 N   0  0  0  0  0  0  0  0  0  0  0  0
   -1.6312   -0.7281   -0.9578 H   0  0  0  0  0  0  0  0  0  0  0  0
    0.4470   -0.5563   -0.4836 C   0  0  1  0  0  0  0  0  0  0  0  0
    1.2386   -1.2228   -0.8391 H   0  0  0  0  0  0  0  0  0  0  0  0
    0.3989    0.6979   -1.3894 C   0  0  0  0  0  0  0  0  0  0  0  0
    0.0684    1.5678   -0.8104 H   0  0  0  0  0  0  0  0  0  0  0  0
    1.4209    0.9117   -1.7179 H   0  0  0  0  0  0  0  0  0  0  0  0
   -0.5053    0.5511   -2.6385 C   0  0  0  0  0  0  0  0  0  0  0  0
    0.0157    0.9982   -3.4905 H   0  0  0  0  0  0  0  0  0  0  0  0
   -0.6969   -0.4900   -2.9109 H   0  0  0  0  0  0  0  0  0  0  0  0
   -1.8093    1.3161   -2.4351 C   0  0  0  0  0  0  0  0  0  0  0  0
   -2.5825    0.8226   -1.5688 O   0  5  0  0  0  0  0  0  0  0  0  0
   -2.0358    2.3562   -3.0964 O   0  0  0  0  0  0  0  0  0  0  0  0
    0.7999   -0.1347    0.9558 C   0  0  0  0  0  0  0  0  0  0  0  0
    1.9594   -0.1631    1.3542 O   0  0  0  0  0  0  0  0  0  0  0  0
   -0.1794    0.4432    1.7426 N   0  0  0  0  0  0  0  0  0  0  0  0
   -1.0837    0.5848    1.2957 H   0  0  0  0  0  0  0  0  0  0  0  0
    0.0771    1.0459    3.0406 C   0  0  0  0  0  0  0  0  0  0  0  0
    0.7568    1.8978    2.9385 H   0  0  0  0  0  0  0  0  0  0  0  0
   -0.8597    1.3988    3.4819 H   0  0  0  0  0  0  0  0  0  0  0  0
    0.5245    0.3132    3.7198 H   0  0  0  0  0  0  0  0  0  0  0  0
  1  2  1  0  0  0  0
  2  3  1  0  0  0  0
  2  4  1  0  0  0  0
  2  5  1  0  0  0  0
  5  6  2  0  0  0  0
  5  7  1  0  0  0  0
  7  8  1  0  0  0  0
  7  9  1  0  0  0  0
  9 10  1  0  0  0  0
  9 11  1  0  0  0  0
  9 20  1  0  0  0  0
 11 12  1  0  0  0  0
 11 13  1  0  0  0  0
 11 14  1  0  0  0  0
 14 15  1  0  0  0  0
 14 16  1  0  0  0  0
 14 17  1  0  0  0  0
 17 18  1  0  0  0  0
 17 19  2  0  0  0  0
 20 21  2  0  0  0  0
 20 22  1  0  0  0  0
 22 23  1  0  0  0  0
 22 24  1  0  0  0  0
 24 25  1  0  0  0  0
 24 26  1  0  0  0  0
 24 27  1  0  0  0  0
M  CHG  1  18  -1
M  END
$$$$

  -OEChem-04042215583D

 27 26  0     1  0  0  0  0  0999 V2000
   -2.6866   -3.8962    0.5975 H   0  0  0  0  0  0  0  0  0  0  0  0
   -2.5966   -2.9727    0.0193 C   0  0  0  0  0  0  0  0  0  0  0  0
   -3.2769   -2.2263    0.4375 H   0  0  0  0  0  0  0  0  0  0  0  0
   -2.8837   -3.1731   -1.0161 H   0  0  0  0  0  0  0  0  0  0  0  0
   -1.1702   -2.4561    0.0687 C   0  0  0  0  0  0  0  0  0  0  0  0
   -0.3098   -3.0917    0.6575 O   0  0  0  0  0  0  0  0  0  0  0  0
   -0.8602   -1.2753   -0.5673 N   0  0  0  0  0  0  0  0  0  0  0  0
   -1.6349   -0.7575   -0.9924 H   0  0  0  0  0  0  0  0  0  0  0  0
    0.4287   -0.5679   -0.4759 C   0  0  1  0  0  0  0  0  0  0  0  0
    1.2161   -1.2385   -0.8342 H   0  0  0  0  0  0  0  0  0  0  0  0
    0.3831    0.6803   -1.3885 C   0  0  0  0  0  0  0  0  0  0  0  0
    0.0471    1.5412   -0.7991 H   0  0  0  0  0  0  0  0  0  0  0  0
    1.4056    0.9065   -1.7078 H   0  0  0  0  0  0  0  0  0  0  0  0
   -0.5170    0.5556   -2.6484 C   0  0  0  0  0  0  0  0  0  0  0  0
    0.1059    0.7455   -3.5275 H   0  0  0  0  0  0  0  0  0  0  0  0
   -0.9487   -0.4351   -2.8016 H   0  0  0  0  0  0  0  0  0  0  0  0
   -1.6180    1.6065   -2.6129 C   0  0  0  0  0  0  0  0  0  0  0  0
   -2.5268    1.3791   -1.7704 O   0  5  0  0  0  0  0  0  0  0  0  0
   -1.5692    2.5988   -3.3774 O   0  0  0  0  0  0  0  0  0  0  0  0
    0.7989   -0.1438    0.9595 C   0  0  0  0  0  0  0  0  0  0  0  0
    1.9616   -0.1862    1.3464 O   0  0  0  0  0  0  0  0  0  0  0  0
   -0.1664    0.4408    1.7590 N   0  0  0  0  0  0  0  0  0  0  0  0
   -1.0658    0.6129    1.3148 H   0  0  0  0  0  0  0  0  0  0  0  0
    0.1205    1.0649    3.0407 C   0  0  0  0  0  0  0  0  0  0  0  0
    0.7895    1.9209    2.9074 H   0  0  0  0  0  0  0  0  0  0  0  0
   -0.8071    1.4163    3.5019 H   0  0  0  0  0  0  0  0  0  0  0  0
    0.5924    0.3467    3.7189 H   0  0  0  0  0  0  0  0  0  0  0  0
  1  2  1  0  0  0  0
  2  3  1  0  0  0  0
  2  4  1  0  0  0  0
  2  5  1  0  0  0  0
  5  6  2  0  0  0  0
  5  7  1  0  0  0  0
  7  8  1  0  0  0  0
  7  9  1  0  0  0  0
  9 10  1  0  0  0  0
  9 11  1  0  0  0  0
  9 20  1  0  0  0  0
 11 12  1  0  0  0  0
 11 13  1  0  0  0  0
 11 14  1  0  0  0  0
 14 15  1  0  0  0  0
 14 16  1  0  0  0  0
 14 17  1  0  0  0  0
 17 18  1  0  0  0  0
 17 19  2  0  0  0  0
 20 21  2  0  0  0  0
 20 22  1  0  0  0  0
 22 23  1  0  0  0  0
 22 24  1  0  0  0  0
 24 25  1  0  0  0  0
 24 26  1  0  0  0  0
 24 27  1  0  0  0  0
M  CHG  1  18  -1
M  END
$$$$

  -OEChem-04042215583D

 27 26  0     1  0  0  0  0  0999 V2000
   -2.6700   -3.9437    0.6091 H   0  0  0  0  0  0  0  0  0  0  0  0
   -2.5972   -3.0202    0.0283 C   0  0  0  0  0  0  0  0  0  0  0  0
   -3.3107   -2.2950    0.4278 H   0  0  0  0  0  0  0  0  0  0  0  0
   -2.8538   -3.2354   -1.0120 H   0  0  0  0  0  0  0  0  0  0  0  0
   -1.1891   -2.4585    0.1070 C   0  0  0  0  0  0  0  0  0  0  0  0
   -0.3262   -3.0611    0.7247 O   0  0  0  0  0  0  0  0  0  0  0  0
   -0.8990   -1.2764   -0.5382 N   0  0  0  0  0  0  0  0  0  0  0  0
   -1.6641   -0.8078   -1.0233 H   0  0  0  0  0  0  0  0  0  0  0  0
    0.3868   -0.5618   -0.4752 C   0  0  1  0  0  0  0  0  0  0  0  0
    1.1653   -1.2419   -0.8353 H   0  0  0  0  0  0  0  0  0  0  0  0
    0.3600    0.6758   -1.4065 C   0  0  0  0  0  0  0  0  0  0  0  0
    0.0046    1.5269   -0.8145 H   0  0  0  0  0  0  0  0  0  0  0  0
    1.3845    0.9164   -1.7086 H   0  0  0  0  0  0  0  0  0  0  0  0
   -0.5310    0.5776   -2.6767 C   0  0  0  0  0  0  0  0  0  0  0  0
    0.1177    0.4373   -3.5464 H   0  0  0  0  0  0  0  0  0  0  0  0
   -1.2211   -0.2663   -2.6738 H   0  0  0  0  0  0  0  0  0  0  0  0
   -1.3528    1.8490   -2.8605 C   0  0  0  0  0  0  0  0  0  0  0  0
   -2.3574    1.9589   -2.1114 O   0  5  0  0  0  0  0  0  0  0  0  0
   -0.9960    2.6907   -3.7187 O   0  0  0  0  0  0  0  0  0  0  0  0
    0.7909   -0.1289    0.9495 C   0  0  0  0  0  0  0  0  0  0  0  0
    1.9601   -0.1861    1.3129 O   0  0  0  0  0  0  0  0  0  0  0  0
   -0.1509    0.4554    1.7769 N   0  0  0  0  0  0  0  0  0  0  0  0
   -1.0608    0.6350    1.3610 H   0  0  0  0  0  0  0  0  0  0  0  0
    0.1708    1.0545    3.0626 C   0  0  0  0  0  0  0  0  0  0  0  0
    0.8768    1.8813    2.9336 H   0  0  0  0  0  0  0  0  0  0  0  0
   -0.7373    1.4429    3.5329 H   0  0  0  0  0  0  0  0  0  0  0  0
    0.6145    0.3091    3.7304 H   0  0  0  0  0  0  0  0  0  0  0  0
  1  2  1  0  0  0  0
  2  3  1  0  0  0  0
  2  4  1  0  0  0  0
  2  5  1  0  0  0  0
  5  6  2  0  0  0  0
  5  7  1  0  0  0  0
  7  8  1  0  0  0  0
  7  9  1  0  0  0  0
  9 10  1  0  0  0  0
  9 11  1  0  0  0  0
  9 20  1  0  0  0  0
 11 12  1  0  0  0  0
 11 13  1  0  0  0  0
 11 14  1  0  0  0  0
 14 15  1  0  0  0  0
 14 16  1  0  0  0  0
 14 17  1  0  0  0  0
 17 18  1  0  0  0  0
 17 19  2  0  0  0  0
 20 21  2  0  0  0  0
 20 22  1  0  0  0  0
 22 23  1  0  0  0  0
 22 24  1  0  0  0  0
 24 25  1  0  0  0  0
 24 26  1  0  0  0  0
 24 27  1  0  0  0  0
M  CHG  1  18  -1
M  END
$$$$

  -OEChem-04042215583D

 27 26  0     1  0  0  0  0  0999 V2000
   -2.6052   -4.0385    0.4491 H   0  0  0  0  0  0  0  0  0  0  0  0
   -2.5438   -3.0944   -0.0994 C   0  0  0  0  0  0  0  0  0  0  0  0
   -3.3101   -2.4147    0.2816 H   0  0  0  0  0  0  0  0  0  0  0  0
   -2.7347   -3.2885   -1.1579 H   0  0  0  0  0  0  0  0  0  0  0  0
   -1.1691   -2.4738    0.0731 C   0  0  0  0  0  0  0  0  0  0  0  0
   -0.3249   -3.0433    0.7448 O   0  0  0  0  0  0  0  0  0  0  0  0
   -0.8879   -1.2764   -0.5485 N   0  0  0  0  0  0  0  0  0  0  0  0
   -1.6289   -0.8525   -1.1027 H   0  0  0  0  0  0  0  0  0  0  0  0
    0.3793   -0.5342   -0.4388 C   0  0  1  0  0  0  0  0  0  0  0  0
    1.1807   -1.1983   -0.7788 H   0  0  0  0  0  0  0  0  0  0  0  0
    0.3735    0.7096   -1.3632 C   0  0  0  0  0  0  0  0  0  0  0  0
   -0.0322    1.5445   -0.7805 H   0  0  0  0  0  0  0  0  0  0  0  0
    1.4041    0.9770   -1.6192 H   0  0  0  0  0  0  0  0  0  0  0  0
   -0.4636    0.6080   -2.6664 C   0  0  0  0  0  0  0  0  0  0  0  0
    0.1611    0.1914   -3.4621 H   0  0  0  0  0  0  0  0  0  0  0  0
   -1.3331   -0.0427   -2.5718 H   0  0  0  0  0  0  0  0  0  0  0  0
   -0.9953    1.9778   -3.0800 C   0  0  0  0  0  0  0  0  0  0  0  0
   -0.4245    2.5860   -4.0168 O   0  5  0  0  0  0  0  0  0  0  0  0
   -1.9880    2.4070   -2.4387 O   0  0  0  0  0  0  0  0  0  0  0  0
    0.7371   -0.1093    1.0016 C   0  0  0  0  0  0  0  0  0  0  0  0
    1.8976   -0.1481    1.3937 O   0  0  0  0  0  0  0  0  0  0  0  0
   -0.2355    0.4451    1.8141 N   0  0  0  0  0  0  0  0  0  0  0  0
   -1.1382    0.6119    1.3797 H   0  0  0  0  0  0  0  0  0  0  0  0
    0.0483    1.0455    3.1087 C   0  0  0  0  0  0  0  0  0  0  0  0
    0.6997    1.9172    2.9906 H   0  0  0  0  0  0  0  0  0  0  0  0
   -0.8823    1.3679    3.5850 H   0  0  0  0  0  0  0  0  0  0  0  0
    0.5397    0.3219    3.7671 H   0  0  0  0  0  0  0  0  0  0  0  0
  1  2  1  0  0  0  0
  2  3  1  0  0  0  0
  2  4  1  0  0  0  0
  2  5  1  0  0  0  0
  5  6  2  0  0  0  0
  5  7  1  0  0  0  0
  7  8  1  0  0  0  0
  7  9  1  0  0  0  0
  9 10  1  0  0  0  0
  9 11  1  0  0  0  0
  9 20  1  0  0  0  0
 11 12  1  0  0  0  0
 11 13  1  0  0  0  0
 11 14  1  0  0  0  0
 14 15  1  0  0  0  0
 14 16  1  0  0  0  0
 14 17  1  0  0  0  0
 17 18  1  0  0  0  0
 17 19  2  0  0  0  0
 20 21  2  0  0  0  0
 20 22  1  0  0  0  0
 22 23  1  0  0  0  0
 22 24  1  0  0  0  0
 24 25  1  0  0  0  0
 24 26  1  0  0  0  0
 24 27  1  0  0  0  0
M  CHG  1  18  -1
M  END
$$$$

  -OEChem-04042215583D

 27 26  0     1  0  0  0  0  0999 V2000
   -2.5990   -4.0355    0.4476 H   0  0  0  0  0  0  0  0  0  0  0  0
   -2.5311   -3.1043   -0.1219 C   0  0  0  0  0  0  0  0  0  0  0  0
   -3.3310   -2.4338    0.2017 H   0  0  0  0  0  0  0  0  0  0  0  0
   -2.6626   -3.3299   -1.1833 H   0  0  0  0  0  0  0  0  0  0  0  0
   -1.1813   -2.4467    0.1033 C   0  0  0  0  0  0  0  0  0  0  0  0
   -0.3593   -2.9806    0.8288 O   0  0  0  0  0  0  0  0  0  0  0  0
   -0.8994   -1.2558   -0.5308 N   0  0  0  0  0  0  0  0  0  0  0  0
   -1.6047   -0.8882   -1.1642 H   0  0  0  0  0  0  0  0  0  0  0  0
    0.3721   -0.5175   -0.4345 C   0  0  1  0  0  0  0  0  0  0  0  0
    1.1688   -1.1880   -0.7725 H   0  0  0  0  0  0  0  0  0  0  0  0
    0.3650    0.7152   -1.3724 C   0  0  0  0  0  0  0  0  0  0  0  0
   -0.0334    1.5664   -0.8088 H   0  0  0  0  0  0  0  0  0  0  0  0
    1.3953    0.9666   -1.6456 H   0  0  0  0  0  0  0  0  0  0  0  0
   -0.4847    0.5800   -2.6590 C   0  0  0  0  0  0  0  0  0  0  0  0
    0.0191   -0.0895   -3.3627 H   0  0  0  0  0  0  0  0  0  0  0  0
   -1.4744    0.1663   -2.4576 H   0  0  0  0  0  0  0  0  0  0  0  0
   -0.7138    1.9454   -3.3028 C   0  0  0  0  0  0  0  0  0  0  0  0
   -0.0212    2.2546   -4.3020 O   0  5  0  0  0  0  0  0  0  0  0  0
   -1.5966    2.6736   -2.7837 O   0  0  0  0  0  0  0  0  0  0  0  0
    0.7429   -0.0800    0.9987 C   0  0  0  0  0  0  0  0  0  0  0  0
    1.9054   -0.1220    1.3841 O   0  0  0  0  0  0  0  0  0  0  0  0
   -0.2205    0.4863    1.8132 N   0  0  0  0  0  0  0  0  0  0  0  0
   -1.1392    0.6161    1.4022 H   0  0  0  0  0  0  0  0  0  0  0  0
    0.0638    1.0586    3.1199 C   0  0  0  0  0  0  0  0  0  0  0  0
    0.7770    1.8841    3.0290 H   0  0  0  0  0  0  0  0  0  0  0  0
   -0.8565    1.4429    3.5693 H   0  0  0  0  0  0  0  0  0  0  0  0
    0.4832    0.2981    3.7864 H   0  0  0  0  0  0  0  0  0  0  0  0
  1  2  1  0  0  0  0
  2  3  1  0  0  0  0
  2  4  1  0  0  0  0
  2  5  1  0  0  0  0
  5  6  2  0  0  0  0
  5  7  1  0  0  0  0
  7  8  1  0  0  0  0
  7  9  1  0  0  0  0
  9 10  1  0  0  0  0
  9 11  1  0  0  0  0
  9 20  1  0  0  0  0
 11 12  1  0  0  0  0
 11 13  1  0  0  0  0
 11 14  1  0  0  0  0
 14 15  1  0  0  0  0
 14 16  1  0  0  0  0
 14 17  1  0  0  0  0
 17 18  1  0  0  0  0
 17 19  2  0  0  0  0
 20 21  2  0  0  0  0
 20 22  1  0  0  0  0
 22 23  1  0  0  0  0
 22 24  1  0  0  0  0
 24 25  1  0  0  0  0
 24 26  1  0  0  0  0
 24 27  1  0  0  0  0
M  CHG  1  18  -1
M  END
$$$$

  -OEChem-04042215583D

 27 26  0     1  0  0  0  0  0999 V2000
   -2.7049   -3.9626    0.5088 H   0  0  0  0  0  0  0  0  0  0  0  0
   -2.6205   -3.0416   -0.0748 C   0  0  0  0  0  0  0  0  0  0  0  0
   -3.4089   -2.3526    0.2380 H   0  0  0  0  0  0  0  0  0  0  0  0
   -2.7555   -3.2808   -1.1327 H   0  0  0  0  0  0  0  0  0  0  0  0
   -1.2596   -2.4046    0.1416 C   0  0  0  0  0  0  0  0  0  0  0  0
   -0.4443   -2.9471    0.8680 O   0  0  0  0  0  0  0  0  0  0  0  0
   -0.9614   -1.2221   -0.5008 N   0  0  0  0  0  0  0  0  0  0  0  0
   -1.6481   -0.8705   -1.1636 H   0  0  0  0  0  0  0  0  0  0  0  0
    0.3435   -0.5357   -0.4658 C   0  0  1  0  0  0  0  0  0  0  0  0
    1.0954   -1.2361   -0.8444 H   0  0  0  0  0  0  0  0  0  0  0  0
    0.3360    0.7028   -1.4017 C   0  0  0  0  0  0  0  0  0  0  0  0
    0.2833    1.6153   -0.7973 H   0  0  0  0  0  0  0  0  0  0  0  0
    1.2855    0.7354   -1.9468 H   0  0  0  0  0  0  0  0  0  0  0  0
   -0.8299    0.7519   -2.4135 C   0  0  0  0  0  0  0  0  0  0  0  0
   -0.8061   -0.1350   -3.0541 H   0  0  0  0  0  0  0  0  0  0  0  0
   -1.7905    0.7701   -1.8899 H   0  0  0  0  0  0  0  0  0  0  0  0
   -0.7480    2.0031   -3.2844 C   0  0  0  0  0  0  0  0  0  0  0  0
   -1.3349    3.0313   -2.8663 O   0  5  0  0  0  0  0  0  0  0  0  0
   -0.1127    1.9247   -4.3635 O   0  0  0  0  0  0  0  0  0  0  0  0
    0.8033   -0.1230    0.9491 C   0  0  0  0  0  0  0  0  0  0  0  0
    1.9825   -0.2071    1.2721 O   0  0  0  0  0  0  0  0  0  0  0  0
   -0.0942    0.4761    1.8138 N   0  0  0  0  0  0  0  0  0  0  0  0
   -1.0320    0.6278    1.4571 H   0  0  0  0  0  0  0  0  0  0  0  0
    0.2777    1.0301    3.1063 C   0  0  0  0  0  0  0  0  0  0  0  0
    0.9756    1.8637    2.9777 H   0  0  0  0  0  0  0  0  0  0  0  0
   -0.6112    1.3976    3.6273 H   0  0  0  0  0  0  0  0  0  0  0  0
    0.7508    0.2638    3.7288 H   0  0  0  0  0  0  0  0  0  0  0  0
  1  2  1  0  0  0  0
  2  3  1  0  0  0  0
  2  4  1  0  0  0  0
  2  5  1  0  0  0  0
  5  6  2  0  0  0  0
  5  7  1  0  0  0  0
  7  8  1  0  0  0  0
  7  9  1  0  0  0  0
  9 10  1  0  0  0  0
  9 11  1  0  0  0  0
  9 20  1  0  0  0  0
 11 12  1  0  0  0  0
 11 13  1  0  0  0  0
 11 14  1  0  0  0  0
 14 15  1  0  0  0  0
 14 16  1  0  0  0  0
 14 17  1  0  0  0  0
 17 18  1  0  0  0  0
 17 19  2  0  0  0  0
 20 21  2  0  0  0  0
 20 22  1  0  0  0  0
 22 23  1  0  0  0  0
 22 24  1  0  0  0  0
 24 25  1  0  0  0  0
 24 26  1  0  0  0  0
 24 27  1  0  0  0  0
M  CHG  1  18  -1
M  END
$$$$

  -OEChem-04042215583D

 27 26  0     1  0  0  0  0  0999 V2000
   -2.7317   -3.9371    0.5064 H   0  0  0  0  0  0  0  0  0  0  0  0
   -2.6347   -3.0223   -0.0851 C   0  0  0  0  0  0  0  0  0  0  0  0
   -3.4257   -2.3276    0.2080 H   0  0  0  0  0  0  0  0  0  0  0  0
   -2.7537   -3.2721   -1.1425 H   0  0  0  0  0  0  0  0  0  0  0  0
   -1.2754   -2.3870    0.1466 C   0  0  0  0  0  0  0  0  0  0  0  0
   -0.4759   -2.9225    0.8954 O   0  0  0  0  0  0  0  0  0  0  0  0
   -0.9655   -1.2092   -0.4990 N   0  0  0  0  0  0  0  0  0  0  0  0
   -1.6341   -0.8719   -1.1875 H   0  0  0  0  0  0  0  0  0  0  0  0
    0.3462   -0.5350   -0.4628 C   0  0  1  0  0  0  0  0  0  0  0  0
    1.0935   -1.2416   -0.8392 H   0  0  0  0  0  0  0  0  0  0  0  0
    0.3467    0.7025   -1.3995 C   0  0  0  0  0  0  0  0  0  0  0  0
    0.3157    1.6236   -0.8071 H   0  0  0  0  0  0  0  0  0  0  0  0
    1.2947    0.7088   -1.9489 H   0  0  0  0  0  0  0  0  0  0  0  0
   -0.8204    0.7566   -2.4103 C   0  0  0  0  0  0  0  0  0  0  0  0
   -0.9489   -0.2195   -2.8885 H   0  0  0  0  0  0  0  0  0  0  0  0
   -1.7523    1.0105   -1.8963 H   0  0  0  0  0  0  0  0  0  0  0  0
   -0.5520    1.7802   -3.5112 C   0  0  0  0  0  0  0  0  0  0  0  0
   -0.8244    2.9792   -3.2588 O   0  5  0  0  0  0  0  0  0  0  0  0
   -0.0980    1.3592   -4.6029 O   0  0  0  0  0  0  0  0  0  0  0  0
    0.8053   -0.1230    0.9526 C   0  0  0  0  0  0  0  0  0  0  0  0
    1.9828   -0.2126    1.2793 O   0  0  0  0  0  0  0  0  0  0  0  0
   -0.0898    0.4865    1.8124 N   0  0  0  0  0  0  0  0  0  0  0  0
   -1.0355    0.6116    1.4675 H   0  0  0  0  0  0  0  0  0  0  0  0
    0.2733    1.0131    3.1188 C   0  0  0  0  0  0  0  0  0  0  0  0
    0.9870    1.8364    3.0133 H   0  0  0  0  0  0  0  0  0  0  0  0
   -0.6167    1.3876    3.6329 H   0  0  0  0  0  0  0  0  0  0  0  0
    0.7243    0.2289    3.7356 H   0  0  0  0  0  0  0  0  0  0  0  0
  1  2  1  0  0  0  0
  2  3  1  0  0  0  0
  2  4  1  0  0  0  0
  2  5  1  0  0  0  0
  5  6  2  0  0  0  0
  5  7  1  0  0  0  0
  7  8  1  0  0  0  0
  7  9  1  0  0  0  0
  9 10  1  0  0  0  0
  9 11  1  0  0  0  0
  9 20  1  0  0  0  0
 11 12  1  0  0  0  0
 11 13  1  0  0  0  0
 11 14  1  0  0  0  0
 14 15  1  0  0  0  0
 14 16  1  0  0  0  0
 14 17  1  0  0  0  0
 17 18  1  0  0  0  0
 17 19  2  0  0  0  0
 20 21  2  0  0  0  0
 20 22  1  0  0  0  0
 22 23  1  0  0  0  0
 22 24  1  0  0  0  0
 24 25  1  0  0  0  0
 24 26  1  0  0  0  0
 24 27  1  0  0  0  0
M  CHG  1  18  -1
M  END
$$$$

  -OEChem-04042215583D

 27 26  0     1  0  0  0  0  0999 V2000
   -2.7181   -3.9498    0.5162 H   0  0  0  0  0  0  0  0  0  0  0  0
   -2.6275   -3.0358   -0.0773 C   0  0  0  0  0  0  0  0  0  0  0  0
   -3.4354   -2.3541    0.1996 H   0  0  0  0  0  0  0  0  0  0  0  0
   -2.7249   -3.2922   -1.1354 H   0  0  0  0  0  0  0  0  0  0  0  0
   -1.2831   -2.3762    0.1736 C   0  0  0  0  0  0  0  0  0  0  0  0
   -0.4924   -2.8887    0.9474 O   0  0  0  0  0  0  0  0  0  0  0  0
   -0.9779   -1.2025   -0.4822 N   0  0  0  0  0  0  0  0  0  0  0  0
   -1.6374   -0.8910   -1.1912 H   0  0  0  0  0  0  0  0  0  0  0  0
    0.3345   -0.5290   -0.4596 C   0  0  1  0  0  0  0  0  0  0  0  0
    1.0774   -1.2421   -0.8328 H   0  0  0  0  0  0  0  0  0  0  0  0
    0.3437    0.7021   -1.4061 C   0  0  0  0  0  0  0  0  0  0  0  0
    0.3320    1.6291   -0.8225 H   0  0  0  0  0  0  0  0  0  0  0  0
    1.2953    0.6857   -1.9490 H   0  0  0  0  0  0  0  0  0  0  0  0
   -0.8158    0.7812   -2.4305 C   0  0  0  0  0  0  0  0  0  0  0  0
   -1.1301   -0.2192   -2.7403 H   0  0  0  0  0  0  0  0  0  0  0  0
   -1.6777    1.2842   -1.9828 H   0  0  0  0  0  0  0  0  0  0  0  0
   -0.3872    1.5073   -3.7051 C   0  0  0  0  0  0  0  0  0  0  0  0
   -0.2442    2.7524   -3.6394 O   0  5  0  0  0  0  0  0  0  0  0  0
   -0.2342    0.8191   -4.7439 O   0  0  0  0  0  0  0  0  0  0  0  0
    0.8021   -0.1092    0.9508 C   0  0  0  0  0  0  0  0  0  0  0  0
    1.9813   -0.1941    1.2729 O   0  0  0  0  0  0  0  0  0  0  0  0
   -0.0897    0.5054    1.8104 N   0  0  0  0  0  0  0  0  0  0  0  0
   -1.0493    0.5784    1.4904 H   0  0  0  0  0  0  0  0  0  0  0  0
    0.2661    0.9954    3.1327 C   0  0  0  0  0  0  0  0  0  0  0  0
    1.0457    1.7605    3.0598 H   0  0  0  0  0  0  0  0  0  0  0  0
   -0.6090    1.4383    3.6172 H   0  0  0  0  0  0  0  0  0  0  0  0
    0.6312    0.1744    3.7581 H   0  0  0  0  0  0  0  0  0  0  0  0
  1  2  1  0  0  0  0
  2  3  1  0  0  0  0
  2  4  1  0  0  0  0
  2  5  1  0  0  0  0
  5  6  2  0  0  0  0
  5  7  1  0  0  0  0
  7  8  1  0  0  0  0
  7  9  1  0  0  0  0
  9 10  1  0  0  0  0
  9 11  1  0  0  0  0
  9 20  1  0  0  0  0
 11 12  1  0  0  0  0
 11 13  1  0  0  0  0
 11 14  1  0  0  0  0
 14 15  1  0  0  0  0
 14 16  1  0  0  0  0
 14 17  1  0  0  0  0
 17 18  1  0  0  0  0
 17 19  2  0  0  0  0
 20 21  2  0  0  0  0
 20 22  1  0  0  0  0
 22 23  1  0  0  0  0
 22 24  1  0  0  0  0
 24 25  1  0  0  0  0
 24 26  1  0  0  0  0
 24 27  1  0  0  0  0
M  CHG  1  18  -1
M  END
$$$$

  -OEChem-04042215583D

 27 26  0     1  0  0  0  0  0999 V2000
   -2.7183   -3.9600    0.5528 H   0  0  0  0  0  0  0  0  0  0  0  0
   -2.6360   -3.0511   -0.0501 C   0  0  0  0  0  0  0  0  0  0  0  0
   -3.4572   -2.3791    0.2112 H   0  0  0  0  0  0  0  0  0  0  0  0
   -2.7184   -3.3211   -1.1061 H   0  0  0  0  0  0  0  0  0  0  0  0
   -1.3049   -2.3675    0.2070 C   0  0  0  0  0  0  0  0  0  0  0  0
   -0.5242   -2.8489    1.0104 O   0  0  0  0  0  0  0  0  0  0  0  0
   -1.0081   -1.1994   -0.4635 N   0  0  0  0  0  0  0  0  0  0  0  0
   -1.6545   -0.9273   -1.1994 H   0  0  0  0  0  0  0  0  0  0  0  0
    0.3079   -0.5321   -0.4622 C   0  0  1  0  0  0  0  0  0  0  0  0
    1.0397   -1.2574   -0.8340 H   0  0  0  0  0  0  0  0  0  0  0  0
    0.3421    0.6944   -1.4175 C   0  0  0  0  0  0  0  0  0  0  0  0
    0.3472    1.6191   -0.8306 H   0  0  0  0  0  0  0  0  0  0  0  0
    1.3026    0.6608   -1.9443 H   0  0  0  0  0  0  0  0  0  0  0  0
   -0.8010    0.8247   -2.4609 C   0  0  0  0  0  0  0  0  0  0  0  0
   -1.3465   -0.1095   -2.5999 H   0  0  0  0  0  0  0  0  0  0  0  0
   -1.5202    1.5782   -2.1265 H   0  0  0  0  0  0  0  0  0  0  0  0
   -0.2577    1.1974   -3.8395 C   0  0  0  0  0  0  0  0  0  0  0  0
   -0.0501    2.4125   -4.0741 O   0  5  0  0  0  0  0  0  0  0  0  0
   -0.0677    0.2632   -4.6568 O   0  0  0  0  0  0  0  0  0  0  0  0
    0.7916   -0.1062    0.9414 C   0  0  0  0  0  0  0  0  0  0  0  0
    1.9761   -0.1781    1.2469 O   0  0  0  0  0  0  0  0  0  0  0  0
   -0.0897    0.5168    1.8058 N   0  0  0  0  0  0  0  0  0  0  0  0
   -1.0626    0.5330    1.5199 H   0  0  0  0  0  0  0  0  0  0  0  0
    0.2740    0.9727    3.1384 C   0  0  0  0  0  0  0  0  0  0  0  0
    1.0732    1.7187    3.0822 H   0  0  0  0  0  0  0  0  0  0  0  0
   -0.5909    1.4291    3.6286 H   0  0  0  0  0  0  0  0  0  0  0  0
    0.6163    0.1311    3.7490 H   0  0  0  0  0  0  0  0  0  0  0  0
  1  2  1  0  0  0  0
  2  3  1  0  0  0  0
  2  4  1  0  0  0  0
  2  5  1  0  0  0  0
  5  6  2  0  0  0  0
  5  7  1  0  0  0  0
  7  8  1  0  0  0  0
  7  9  1  0  0  0  0
  9 10  1  0  0  0  0
  9 11  1  0  0  0  0
  9 20  1  0  0  0  0
 11 12  1  0  0  0  0
 11 13  1  0  0  0  0
 11 14  1  0  0  0  0
 14 15  1  0  0  0  0
 14 16  1  0  0  0  0
 14 17  1  0  0  0  0
 17 18  1  0  0  0  0
 17 19  2  0  0  0  0
 20 21  2  0  0  0  0
 20 22  1  0  0  0  0
 22 23  1  0  0  0  0
 22 24  1  0  0  0  0
 24 25  1  0  0  0  0
 24 26  1  0  0  0  0
 24 27  1  0  0  0  0
M  CHG  1  18  -1
M  END
$$$$

  -OEChem-04042215583D

 27 26  0     1  0  0  0  0  0999 V2000
   -2.7118   -3.9792    0.5295 H   0  0  0  0  0  0  0  0  0  0  0  0
   -2.6299   -3.0710   -0.0743 C   0  0  0  0  0  0  0  0  0  0  0  0
   -3.4866   -2.4267    0.1381 H   0  0  0  0  0  0  0  0  0  0  0  0
   -2.6473   -3.3493   -1.1313 H   0  0  0  0  0  0  0  0  0  0  0  0
   -1.3383   -2.3401    0.2463 C   0  0  0  0  0  0  0  0  0  0  0  0
   -0.5982   -2.7748    1.1126 O   0  0  0  0  0  0  0  0  0  0  0  0
   -1.0365   -1.1823   -0.4400 N   0  0  0  0  0  0  0  0  0  0  0  0
   -1.6297   -0.9904   -1.2427 H   0  0  0  0  0  0  0  0  0  0  0  0
    0.2887   -0.5341   -0.4500 C   0  0  1  0  0  0  0  0  0  0  0  0
    1.0069   -1.2760   -0.8162 H   0  0  0  0  0  0  0  0  0  0  0  0
    0.3519    0.6839   -1.4177 C   0  0  0  0  0  0  0  0  0  0  0  0
    0.3527    1.6031   -0.8223 H   0  0  0  0  0  0  0  0  0  0  0  0
    1.3216    0.6539   -1.9276 H   0  0  0  0  0  0  0  0  0  0  0  0
   -0.7788    0.8489   -2.4732 C   0  0  0  0  0  0  0  0  0  0  0  0
   -1.5601    0.0933   -2.4133 H   0  0  0  0  0  0  0  0  0  0  0  0
   -1.2703    1.8124   -2.3078 H   0  0  0  0  0  0  0  0  0  0  0  0
   -0.2246    0.8266   -3.8955 C   0  0  0  0  0  0  0  0  0  0  0  0
    0.1665    1.9077   -4.3980 O   0  5  0  0  0  0  0  0  0  0  0  0
   -0.2094   -0.2866   -4.4764 O   0  0  0  0  0  0  0  0  0  0  0  0
    0.7842   -0.1019    0.9486 C   0  0  0  0  0  0  0  0  0  0  0  0
    1.9700   -0.1811    1.2478 O   0  0  0  0  0  0  0  0  0  0  0  0
   -0.0858    0.5416    1.8097 N   0  0  0  0  0  0  0  0  0  0  0  0
   -1.0642    0.5255    1.5429 H   0  0  0  0  0  0  0  0  0  0  0  0
    0.2815    0.9704    3.1504 C   0  0  0  0  0  0  0  0  0  0  0  0
    1.1086    1.6865    3.1104 H   0  0  0  0  0  0  0  0  0  0  0  0
   -0.5705    1.4547    3.6365 H   0  0  0  0  0  0  0  0  0  0  0  0
    0.5854    0.1105    3.7558 H   0  0  0  0  0  0  0  0  0  0  0  0
  1  2  1  0  0  0  0
  2  3  1  0  0  0  0
  2  4  1  0  0  0  0
  2  5  1  0  0  0  0
  5  6  2  0  0  0  0
  5  7  1  0  0  0  0
  7  8  1  0  0  0  0
  7  9  1  0  0  0  0
  9 10  1  0  0  0  0
  9 11  1  0  0  0  0
  9 20  1  0  0  0  0
 11 12  1  0  0  0  0
 11 13  1  0  0  0  0
 11 14  1  0  0  0  0
 14 15  1  0  0  0  0
 14 16  1  0  0  0  0
 14 17  1  0  0  0  0
 17 18  1  0  0  0  0
 17 19  2  0  0  0  0
 20 21  2  0  0  0  0
 20 22  1  0  0  0  0
 22 23  1  0  0  0  0
 22 24  1  0  0  0  0
 24 25  1  0  0  0  0
 24 26  1  0  0  0  0
 24 27  1  0  0  0  0
M  CHG  1  18  -1
M  END
$$$$

  -OEChem-04042215583D

 27 26  0     1  0  0  0  0  0999 V2000
   -2.7021   -3.9899    0.4571 H   0  0  0  0  0  0  0  0  0  0  0  0
   -2.6178   -3.0753   -0.1363 C   0  0  0  0  0  0  0  0  0  0  0  0
   -3.5057   -2.4610    0.0316 H   0  0  0  0  0  0  0  0  0  0  0  0
   -2.5676   -3.3462   -1.1945 H   0  0  0  0  0  0  0  0  0  0  0  0
   -1.3714   -2.3040    0.2589 C   0  0  0  0  0  0  0  0  0  0  0  0
   -0.6919   -2.6929    1.1945 O   0  0  0  0  0  0  0  0  0  0  0  0
   -1.0484   -1.1565   -0.4343 N   0  0  0  0  0  0  0  0  0  0  0  0
   -1.5704   -1.0344   -1.3007 H   0  0  0  0  0  0  0  0  0  0  0  0
    0.2889   -0.5353   -0.4315 C   0  0  1  0  0  0  0  0  0  0  0  0
    0.9967   -1.2907   -0.7898 H   0  0  0  0  0  0  0  0  0  0  0  0
    0.3757    0.6768   -1.4036 C   0  0  0  0  0  0  0  0  0  0  0  0
    0.3632    1.5923   -0.8029 H   0  0  0  0  0  0  0  0  0  0  0  0
    1.3487    0.6555   -1.9072 H   0  0  0  0  0  0  0  0  0  0  0  0
   -0.7549    0.8392   -2.4556 C   0  0  0  0  0  0  0  0  0  0  0  0
   -1.6869    0.3321   -2.2078 H   0  0  0  0  0  0  0  0  0  0  0  0
   -1.0078    1.9027   -2.5036 H   0  0  0  0  0  0  0  0  0  0  0  0
   -0.2905    0.4295   -3.8479 C   0  0  0  0  0  0  0  0  0  0  0  0
    0.2291    1.2914   -4.5967 O   0  5  0  0  0  0  0  0  0  0  0  0
   -0.4746   -0.7761   -4.1496 O   0  0  0  0  0  0  0  0  0  0  0  0
    0.7813   -0.1025    0.9680 C   0  0  0  0  0  0  0  0  0  0  0  0
    1.9667   -0.1834    1.2694 O   0  0  0  0  0  0  0  0  0  0  0  0
   -0.0841    0.5647    1.8150 N   0  0  0  0  0  0  0  0  0  0  0  0
   -1.0648    0.5185    1.5595 H   0  0  0  0  0  0  0  0  0  0  0  0
    0.2800    0.9869    3.1584 C   0  0  0  0  0  0  0  0  0  0  0  0
    1.1249    1.6824    3.1250 H   0  0  0  0  0  0  0  0  0  0  0  0
   -0.5648    1.4933    3.6344 H   0  0  0  0  0  0  0  0  0  0  0  0
    0.5572    0.1211    3.7686 H   0  0  0  0  0  0  0  0  0  0  0  0
  1  2  1  0  0  0  0
  2  3  1  0  0  0  0
  2  4  1  0  0  0  0
  2  5  1  0  0  0  0
  5  6  2  0  0  0  0
  5  7  1  0  0  0  0
  7  8  1  0  0  0  0
  7  9  1  0  0  0  0
  9 10  1  0  0  0  0
  9 11  1  0  0  0  0
  9 20  1  0  0  0  0
 11 12  1  0  0  0  0
 11 13  1  0  0  0  0
 11 14  1  0  0  0  0
 14 15  1  0  0  0  0
 14 16  1  0  0  0  0
 14 17  1  0  0  0  0
 17 18  1  0  0  0  0
 17 19  2  0  0  0  0
 20 21  2  0  0  0  0
 20 22  1  0  0  0  0
 22 23  1  0  0  0  0
 22 24  1  0  0  0  0
 24 25  1  0  0  0  0
 24 26  1  0  0  0  0
 24 27  1  0  0  0  0
M  CHG  1  18  -1
M  END
$$$$

  -OEChem-04042215583D

 27 26  0     1  0  0  0  0  0999 V2000
   -2.6804   -3.9971    0.3665 H   0  0  0  0  0  0  0  0  0  0  0  0
   -2.5972   -3.0719   -0.2104 C   0  0  0  0  0  0  0  0  0  0  0  0
   -3.5132   -2.4898   -0.0837 H   0  0  0  0  0  0  0  0  0  0  0  0
   -2.4811   -3.3260   -1.2679 H   0  0  0  0  0  0  0  0  0  0  0  0
   -1.4009   -2.2635    0.2583 C   0  0  0  0  0  0  0  0  0  0  0  0
   -0.7892   -2.6110    1.2560 O   0  0  0  0  0  0  0  0  0  0  0  0
   -1.0515   -1.1263   -0.4378 N   0  0  0  0  0  0  0  0  0  0  0  0
   -1.5036   -1.0642   -1.3533 H   0  0  0  0  0  0  0  0  0  0  0  0
    0.2971   -0.5309   -0.4138 C   0  0  1  0  0  0  0  0  0  0  0  0
    0.9967   -1.2978   -0.7633 H   0  0  0  0  0  0  0  0  0  0  0  0
    0.4014    0.6774   -1.3878 C   0  0  0  0  0  0  0  0  0  0  0  0
    0.3925    1.5983   -0.7957 H   0  0  0  0  0  0  0  0  0  0  0  0
    1.3691    0.6447   -1.9005 H   0  0  0  0  0  0  0  0  0  0  0  0
   -0.7380    0.8148   -2.4273 C   0  0  0  0  0  0  0  0  0  0  0  0
   -1.7254    0.5508   -2.0429 H   0  0  0  0  0  0  0  0  0  0  0  0
   -0.8063    1.8732   -2.6963 H   0  0  0  0  0  0  0  0  0  0  0  0
   -0.4243    0.0557   -3.7073 C   0  0  0  0  0  0  0  0  0  0  0  0
    0.1539    0.6380   -4.6554 O   0  5  0  0  0  0  0  0  0  0  0  0
   -0.7884   -1.1482   -3.7052 O   0  0  0  0  0  0  0  0  0  0  0  0
    0.7804   -0.0968    0.9882 C   0  0  0  0  0  0  0  0  0  0  0  0
    1.9636   -0.1841    1.2979 O   0  0  0  0  0  0  0  0  0  0  0  0
   -0.0827    0.5940    1.8185 N   0  0  0  0  0  0  0  0  0  0  0  0
   -1.0629    0.5338    1.5630 H   0  0  0  0  0  0  0  0  0  0  0  0
    0.2716    1.0063    3.1676 C   0  0  0  0  0  0  0  0  0  0  0  0
    1.1327    1.6820    3.1479 H   0  0  0  0  0  0  0  0  0  0  0  0
   -0.5679    1.5316    3.6322 H   0  0  0  0  0  0  0  0  0  0  0  0
    0.5192    0.1336    3.7805 H   0  0  0  0  0  0  0  0  0  0  0  0
  1  2  1  0  0  0  0
  2  3  1  0  0  0  0
  2  4  1  0  0  0  0
  2  5  1  0  0  0  0
  5  6  2  0  0  0  0
  5  7  1  0  0  0  0
  7  8  1  0  0  0  0
  7  9  1  0  0  0  0
  9 10  1  0  0  0  0
  9 11  1  0  0  0  0
  9 20  1  0  0  0  0
 11 12  1  0  0  0  0
 11 13  1  0  0  0  0
 11 14  1  0  0  0  0
 14 15  1  0  0  0  0
 14 16  1  0  0  0  0
 14 17  1  0  0  0  0
 17 18  1  0  0  0  0
 17 19  2  0  0  0  0
 20 21  2  0  0  0  0
 20 22  1  0  0  0  0
 22 23  1  0  0  0  0
 22 24  1  0  0  0  0
 24 25  1  0  0  0  0
 24 26  1  0  0  0  0
 24 27  1  0  0  0  0
M  CHG  1  18  -1
M  END
$$$$

  -OEChem-04042215583D

 27 26  0     1  0  0  0  0  0999 V2000
   -2.6384   -4.0171    0.3205 H   0  0  0  0  0  0  0  0  0  0  0  0
   -2.5776   -3.0750   -0.2308 C   0  0  0  0  0  0  0  0  0  0  0  0
   -3.5081   -2.5196   -0.0922 H   0  0  0  0  0  0  0  0  0  0  0  0
   -2.4530   -3.2971   -1.2947 H   0  0  0  0  0  0  0  0  0  0  0  0
   -1.4033   -2.2490    0.2618 C   0  0  0  0  0  0  0  0  0  0  0  0
   -0.8198   -2.5749    1.2844 O   0  0  0  0  0  0  0  0  0  0  0  0
   -1.0458   -1.1180   -0.4386 N   0  0  0  0  0  0  0  0  0  0  0  0
   -1.4694   -1.0965   -1.3751 H   0  0  0  0  0  0  0  0  0  0  0  0
    0.3066   -0.5288   -0.4051 C   0  0  1  0  0  0  0  0  0  0  0  0
    1.0060   -1.2999   -0.7453 H   0  0  0  0  0  0  0  0  0  0  0  0
    0.4187    0.6773   -1.3809 C   0  0  0  0  0  0  0  0  0  0  0  0
    0.4199    1.6048   -0.7994 H   0  0  0  0  0  0  0  0  0  0  0  0
    1.3815    0.6266   -1.9008 H   0  0  0  0  0  0  0  0  0  0  0  0
   -0.7193    0.8017   -2.4184 C   0  0  0  0  0  0  0  0  0  0  0  0
   -1.7066    0.7552   -1.9504 H   0  0  0  0  0  0  0  0  0  0  0  0
   -0.6478    1.7913   -2.8792 H   0  0  0  0  0  0  0  0  0  0  0  0
   -0.5965   -0.2302   -3.5321 C   0  0  0  0  0  0  0  0  0  0  0  0
    0.1015    0.0232   -4.5416 O   0  5  0  0  0  0  0  0  0  0  0  0
   -1.2157   -1.3075   -3.3270 O   0  0  0  0  0  0  0  0  0  0  0  0
    0.7781   -0.0896    0.9983 C   0  0  0  0  0  0  0  0  0  0  0  0
    1.9602   -0.1695    1.3152 O   0  0  0  0  0  0  0  0  0  0  0  0
   -0.0917    0.6097    1.8141 N   0  0  0  0  0  0  0  0  0  0  0  0
   -1.0704    0.5307    1.5560 H   0  0  0  0  0  0  0  0  0  0  0  0
    0.2486    1.0209    3.1670 C   0  0  0  0  0  0  0  0  0  0  0  0
    1.1204    1.6829    3.1580 H   0  0  0  0  0  0  0  0  0  0  0  0
   -0.5894    1.5611    3.6170 H   0  0  0  0  0  0  0  0  0  0  0  0
    0.4729    0.1461    3.7858 H   0  0  0  0  0  0  0  0  0  0  0  0
  1  2  1  0  0  0  0
  2  3  1  0  0  0  0
  2  4  1  0  0  0  0
  2  5  1  0  0  0  0
  5  6  2  0  0  0  0
  5  7  1  0  0  0  0
  7  8  1  0  0  0  0
  7  9  1  0  0  0  0
  9 10  1  0  0  0  0
  9 11  1  0  0  0  0
  9 20  1  0  0  0  0
 11 12  1  0  0  0  0
 11 13  1  0  0  0  0
 11 14  1  0  0  0  0
 14 15  1  0  0  0  0
 14 16  1  0  0  0  0
 14 17  1  0  0  0  0
 17 18  1  0  0  0  0
 17 19  2  0  0  0  0
 20 21  2  0  0  0  0
 20 22  1  0  0  0  0
 22 23  1  0  0  0  0
 22 24  1  0  0  0  0
 24 25  1  0  0  0  0
 24 26  1  0  0  0  0
 24 27  1  0  0  0  0
M  CHG  1  18  -1
M  END
$$$$

  -OEChem-04042215583D

 27 26  0     1  0  0  0  0  0999 V2000
   -2.6204   -4.0376    0.3751 H   0  0  0  0  0  0  0  0  0  0  0  0
   -2.5697   -3.0932   -0.1730 C   0  0  0  0  0  0  0  0  0  0  0  0
   -3.4857   -2.5257    0.0068 H   0  0  0  0  0  0  0  0  0  0  0  0
   -2.4934   -3.3100   -1.2425 H   0  0  0  0  0  0  0  0  0  0  0  0
   -1.3646   -2.2858    0.2735 C   0  0  0  0  0  0  0  0  0  0  0  0
   -0.7349   -2.6316    1.2620 O   0  0  0  0  0  0  0  0  0  0  0  0
   -1.0250   -1.1500   -0.4281 N   0  0  0  0  0  0  0  0  0  0  0  0
   -1.5118   -1.0879   -1.3318 H   0  0  0  0  0  0  0  0  0  0  0  0
    0.3155   -0.5317   -0.4012 C   0  0  1  0  0  0  0  0  0  0  0  0
    1.0282   -1.2939   -0.7335 H   0  0  0  0  0  0  0  0  0  0  0  0
    0.4220    0.6707   -1.3825 C   0  0  0  0  0  0  0  0  0  0  0  0
    0.4253    1.6032   -0.8089 H   0  0  0  0  0  0  0  0  0  0  0  0
    1.3889    0.6081   -1.8933 H   0  0  0  0  0  0  0  0  0  0  0  0
   -0.6897    0.8044   -2.4478 C   0  0  0  0  0  0  0  0  0  0  0  0
   -1.6536    0.9680   -1.9563 H   0  0  0  0  0  0  0  0  0  0  0  0
   -0.4861    1.6912   -3.0547 H   0  0  0  0  0  0  0  0  0  0  0  0
   -0.7903   -0.4000   -3.3838 C   0  0  0  0  0  0  0  0  0  0  0  0
    0.0673   -0.5344   -4.2870 O   0  5  0  0  0  0  0  0  0  0  0  0
   -1.7219   -1.2133   -3.1465 O   0  0  0  0  0  0  0  0  0  0  0  0
    0.7745   -0.0808    1.0028 C   0  0  0  0  0  0  0  0  0  0  0  0
    1.9583   -0.1258    1.3205 O   0  0  0  0  0  0  0  0  0  0  0  0
   -0.1138    0.5995    1.8145 N   0  0  0  0  0  0  0  0  0  0  0  0
   -1.0895    0.4999    1.5521 H   0  0  0  0  0  0  0  0  0  0  0  0
    0.2124    1.0277    3.1656 C   0  0  0  0  0  0  0  0  0  0  0  0
    1.0763    1.7000    3.1566 H   0  0  0  0  0  0  0  0  0  0  0  0
   -0.6352    1.5621    3.6043 H   0  0  0  0  0  0  0  0  0  0  0  0
    0.4433    0.1618    3.7944 H   0  0  0  0  0  0  0  0  0  0  0  0
  1  2  1  0  0  0  0
  2  3  1  0  0  0  0
  2  4  1  0  0  0  0
  2  5  1  0  0  0  0
  5  6  2  0  0  0  0
  5  7  1  0  0  0  0
  7  8  1  0  0  0  0
  7  9  1  0  0  0  0
  9 10  1  0  0  0  0
  9 11  1  0  0  0  0
  9 20  1  0  0  0  0
 11 12  1  0  0  0  0
 11 13  1  0  0  0  0
 11 14  1  0  0  0  0
 14 15  1  0  0  0  0
 14 16  1  0  0  0  0
 14 17  1  0  0  0  0
 17 18  1  0  0  0  0
 17 19  2  0  0  0  0
 20 21  2  0  0  0  0
 20 22  1  0  0  0  0
 22 23  1  0  0  0  0
 22 24  1  0  0  0  0
 24 25  1  0  0  0  0
 24 26  1  0  0  0  0
 24 27  1  0  0  0  0
M  CHG  1  18  -1
M  END
$$$$

  -OEChem-04042215583D

 27 26  0     1  0  0  0  0  0999 V2000
   -2.6045   -4.0610    0.4677 H   0  0  0  0  0  0  0  0  0  0  0  0
   -2.5600   -3.1209   -0.0882 C   0  0  0  0  0  0  0  0  0  0  0  0
   -3.4561   -2.5344    0.1278 H   0  0  0  0  0  0  0  0  0  0  0  0
   -2.5351   -3.3440   -1.1588 H   0  0  0  0  0  0  0  0  0  0  0  0
   -1.3208   -2.3350    0.2990 C   0  0  0  0  0  0  0  0  0  0  0  0
   -0.6354   -2.7046    1.2410 O   0  0  0  0  0  0  0  0  0  0  0  0
   -1.0072   -1.1935   -0.4048 N   0  0  0  0  0  0  0  0  0  0  0  0
   -1.5721   -1.0726   -1.2541 H   0  0  0  0  0  0  0  0  0  0  0  0
    0.3151   -0.5371   -0.3939 C   0  0  1  0  0  0  0  0  0  0  0  0
    1.0415   -1.2908   -0.7166 H   0  0  0  0  0  0  0  0  0  0  0  0
    0.4203    0.6561   -1.3891 C   0  0  0  0  0  0  0  0  0  0  0  0
    0.4284    1.5941   -0.8245 H   0  0  0  0  0  0  0  0  0  0  0  0
    1.3952    0.5767   -1.8815 H   0  0  0  0  0  0  0  0  0  0  0  0
   -0.6527    0.8124   -2.4953 C   0  0  0  0  0  0  0  0  0  0  0  0
   -1.5623    1.2142   -2.0384 H   0  0  0  0  0  0  0  0  0  0  0  0
   -0.3038    1.5511   -3.2226 H   0  0  0  0  0  0  0  0  0  0  0  0
   -1.0164   -0.4712   -3.2443 C   0  0  0  0  0  0  0  0  0  0  0  0
   -0.1692   -0.9631   -4.0245 O   0  5  0  0  0  0  0  0  0  0  0  0
   -2.1251   -0.9981   -2.9637 O   0  0  0  0  0  0  0  0  0  0  0  0
    0.7666   -0.0703    1.0068 C   0  0  0  0  0  0  0  0  0  0  0  0
    1.9528   -0.0739    1.3190 O   0  0  0  0  0  0  0  0  0  0  0  0
   -0.1396    0.5849    1.8193 N   0  0  0  0  0  0  0  0  0  0  0  0
   -1.1129    0.4645    1.5559 H   0  0  0  0  0  0  0  0  0  0  0  0
    0.1773    1.0346    3.1655 C   0  0  0  0  0  0  0  0  0  0  0  0
    1.0194    1.7339    3.1481 H   0  0  0  0  0  0  0  0  0  0  0  0
   -0.6853    1.5456    3.6025 H   0  0  0  0  0  0  0  0  0  0  0  0
    0.4368    0.1818    3.8008 H   0  0  0  0  0  0  0  0  0  0  0  0
  1  2  1  0  0  0  0
  2  3  1  0  0  0  0
  2  4  1  0  0  0  0
  2  5  1  0  0  0  0
  5  6  2  0  0  0  0
  5  7  1  0  0  0  0
  7  8  1  0  0  0  0
  7  9  1  0  0  0  0
  9 10  1  0  0  0  0
  9 11  1  0  0  0  0
  9 20  1  0  0  0  0
 11 12  1  0  0  0  0
 11 13  1  0  0  0  0
 11 14  1  0  0  0  0
 14 15  1  0  0  0  0
 14 16  1  0  0  0  0
 14 17  1  0  0  0  0
 17 18  1  0  0  0  0
 17 19  2  0  0  0  0
 20 21  2  0  0  0  0
 20 22  1  0  0  0  0
 22 23  1  0  0  0  0
 22 24  1  0  0  0  0
 24 25  1  0  0  0  0
 24 26  1  0  0  0  0
 24 27  1  0  0  0  0
M  CHG  1  18  -1
M  END
$$$$

  -OEChem-04042215583D

 27 26  0     1  0  0  0  0  0999 V2000
   -2.5770   -4.0823    0.5900 H   0  0  0  0  0  0  0  0  0  0  0  0
   -2.5450   -3.1453    0.0282 C   0  0  0  0  0  0  0  0  0  0  0  0
   -3.4122   -2.5369    0.2959 H   0  0  0  0  0  0  0  0  0  0  0  0
   -2.5910   -3.3716   -1.0409 H   0  0  0  0  0  0  0  0  0  0  0  0
   -1.2671   -2.3869    0.3350 C   0  0  0  0  0  0  0  0  0  0  0  0
   -0.5208   -2.7802    1.2195 O   0  0  0  0  0  0  0  0  0  0  0  0
   -0.9840   -1.2429   -0.3762 N   0  0  0  0  0  0  0  0  0  0  0  0
   -1.6262   -1.0627   -1.1563 H   0  0  0  0  0  0  0  0  0  0  0  0
    0.3152   -0.5459   -0.3876 C   0  0  1  0  0  0  0  0  0  0  0  0
    1.0560   -1.2907   -0.6981 H   0  0  0  0  0  0  0  0  0  0  0  0
    0.4166    0.6355   -1.4017 C   0  0  0  0  0  0  0  0  0  0  0  0
    0.4243    1.5779   -0.8443 H   0  0  0  0  0  0  0  0  0  0  0  0
    1.4011    0.5464   -1.8725 H   0  0  0  0  0  0  0  0  0  0  0  0
   -0.6164    0.8156   -2.5495 C   0  0  0  0  0  0  0  0  0  0  0  0
   -1.4217    1.4542   -2.1737 H   0  0  0  0  0  0  0  0  0  0  0  0
   -0.1366    1.3594   -3.3686 H   0  0  0  0  0  0  0  0  0  0  0  0
   -1.2656   -0.4450   -3.1221 C   0  0  0  0  0  0  0  0  0  0  0  0
   -0.5778   -1.1706   -3.8760 O   0  5  0  0  0  0  0  0  0  0  0  0
   -2.4238   -0.7293   -2.7181 O   0  0  0  0  0  0  0  0  0  0  0  0
    0.7566   -0.0578    1.0089 C   0  0  0  0  0  0  0  0  0  0  0  0
    1.9433   -0.0222    1.3174 O   0  0  0  0  0  0  0  0  0  0  0  0
   -0.1681    0.5711    1.8218 N   0  0  0  0  0  0  0  0  0  0  0  0
   -1.1379    0.4340    1.5535 H   0  0  0  0  0  0  0  0  0  0  0  0
    0.1353    1.0369    3.1657 C   0  0  0  0  0  0  0  0  0  0  0  0
    0.9594    1.7572    3.1453 H   0  0  0  0  0  0  0  0  0  0  0  0
   -0.7408    1.5287    3.5985 H   0  0  0  0  0  0  0  0  0  0  0  0
    0.4152    0.1947    3.8065 H   0  0  0  0  0  0  0  0  0  0  0  0
  1  2  1  0  0  0  0
  2  3  1  0  0  0  0
  2  4  1  0  0  0  0
  2  5  1  0  0  0  0
  5  6  2  0  0  0  0
  5  7  1  0  0  0  0
  7  8  1  0  0  0  0
  7  9  1  0  0  0  0
  9 10  1  0  0  0  0
  9 11  1  0  0  0  0
  9 20  1  0  0  0  0
 11 12  1  0  0  0  0
 11 13  1  0  0  0  0
 11 14  1  0  0  0  0
 14 15  1  0  0  0  0
 14 16  1  0  0  0  0
 14 17  1  0  0  0  0
 17 18  1  0  0  0  0
 17 19  2  0  0  0  0
 20 21  2  0  0  0  0
 20 22  1  0  0  0  0
 22 23  1  0  0  0  0
 22 24  1  0  0  0  0
 24 25  1  0  0  0  0
 24 26  1  0  0  0  0
 24 27  1  0  0  0  0
M  CHG  1  18  -1
M  END
$$$$

  -OEChem-04042215583D

 27 26  0     1  0  0  0  0  0999 V2000
   -2.5571   -4.0883    0.7186 H   0  0  0  0  0  0  0  0  0  0  0  0
   -2.5291   -3.1628    0.1376 C   0  0  0  0  0  0  0  0  0  0  0  0
   -3.3610   -2.5235    0.4432 H   0  0  0  0  0  0  0  0  0  0  0  0
   -2.6437   -3.4055   -0.9226 H   0  0  0  0  0  0  0  0  0  0  0  0
   -1.2139   -2.4377    0.3557 C   0  0  0  0  0  0  0  0  0  0  0  0
   -0.4075   -2.8624    1.1704 O   0  0  0  0  0  0  0  0  0  0  0  0
   -0.9610   -1.2885   -0.3576 N   0  0  0  0  0  0  0  0  0  0  0  0
   -1.6779   -1.0403   -1.0485 H   0  0  0  0  0  0  0  0  0  0  0  0
    0.3157   -0.5558   -0.3892 C   0  0  1  0  0  0  0  0  0  0  0  0
    1.0698   -1.2877   -0.6971 H   0  0  0  0  0  0  0  0  0  0  0  0
    0.4037    0.6234   -1.4115 C   0  0  0  0  0  0  0  0  0  0  0  0
    0.3935    1.5622   -0.8479 H   0  0  0  0  0  0  0  0  0  0  0  0
    1.3975    0.5519   -1.8653 H   0  0  0  0  0  0  0  0  0  0  0  0
   -0.6080    0.8207   -2.5818 C   0  0  0  0  0  0  0  0  0  0  0  0
   -1.2561    1.6618   -2.3177 H   0  0  0  0  0  0  0  0  0  0  0  0
   -0.0476    1.1265   -3.4702 H   0  0  0  0  0  0  0  0  0  0  0  0
   -1.5246   -0.3354   -2.9783 C   0  0  0  0  0  0  0  0  0  0  0  0
   -1.0709   -1.2069   -3.7545 O   0  5  0  0  0  0  0  0  0  0  0  0
   -2.6442   -0.4045   -2.4066 O   0  0  0  0  0  0  0  0  0  0  0  0
    0.7527   -0.0555    1.0035 C   0  0  0  0  0  0  0  0  0  0  0  0
    1.9399    0.0088    1.3057 O   0  0  0  0  0  0  0  0  0  0  0  0
   -0.1838    0.5457    1.8235 N   0  0  0  0  0  0  0  0  0  0  0  0
   -1.1522    0.4113    1.5474 H   0  0  0  0  0  0  0  0  0  0  0  0
    0.1153    1.0359    3.1596 C   0  0  0  0  0  0  0  0  0  0  0  0
    0.9141    1.7836    3.1236 H   0  0  0  0  0  0  0  0  0  0  0  0
   -0.7733    1.5019    3.5955 H   0  0  0  0  0  0  0  0  0  0  0  0
    0.4301    0.2106    3.8062 H   0  0  0  0  0  0  0  0  0  0  0  0
  1  2  1  0  0  0  0
  2  3  1  0  0  0  0
  2  4  1  0  0  0  0
  2  5  1  0  0  0  0
  5  6  2  0  0  0  0
  5  7  1  0  0  0  0
  7  8  1  0  0  0  0
  7  9  1  0  0  0  0
  9 10  1  0  0  0  0
  9 11  1  0  0  0  0
  9 20  1  0  0  0  0
 11 12  1  0  0  0  0
 11 13  1  0  0  0  0
 11 14  1  0  0  0  0
 14 15  1  0  0  0  0
 14 16  1  0  0  0  0
 14 17  1  0  0  0  0
 17 18  1  0  0  0  0
 17 19  2  0  0  0  0
 20 21  2  0  0  0  0
 20 22  1  0  0  0  0
 22 23  1  0  0  0  0
 22 24  1  0  0  0  0
 24 25  1  0  0  0  0
 24 26  1  0  0  0  0
 24 27  1  0  0  0  0
M  CHG  1  18  -1
M  END
$$$$

  -OEChem-04042215583D

 27 26  0     1  0  0  0  0  0999 V2000
   -2.2310   -4.0806    1.2969 H   0  0  0  0  0  0  0  0  0  0  0  0
   -2.2957   -3.2291    0.6147 C   0  0  0  0  0  0  0  0  0  0  0  0
   -3.0728   -2.5467    0.9680 H   0  0  0  0  0  0  0  0  0  0  0  0
   -2.5712   -3.5901   -0.3800 H   0  0  0  0  0  0  0  0  0  0  0  0
   -0.9649   -2.5033    0.5444 C   0  0  0  0  0  0  0  0  0  0  0  0
   -0.0176   -2.8903    1.2137 O   0  0  0  0  0  0  0  0  0  0  0  0
   -0.8462   -1.4069   -0.2778 N   0  0  0  0  0  0  0  0  0  0  0  0
   -1.7083   -1.1089   -0.7476 H   0  0  0  0  0  0  0  0  0  0  0  0
    0.3431   -0.5546   -0.4179 C   0  0  1  0  0  0  0  0  0  0  0  0
    1.1660   -1.2272   -0.6801 H   0  0  0  0  0  0  0  0  0  0  0  0
    0.2920    0.5406   -1.5358 C   0  0  0  0  0  0  0  0  0  0  0  0
    0.1442    1.4966   -1.0225 H   0  0  0  0  0  0  0  0  0  0  0  0
    1.2876    0.5904   -1.9883 H   0  0  0  0  0  0  0  0  0  0  0  0
   -0.7556    0.5624   -2.6939 C   0  0  0  0  0  0  0  0  0  0  0  0
   -1.0755    1.5965   -2.8516 H   0  0  0  0  0  0  0  0  0  0  0  0
   -0.2296    0.2585   -3.6042 H   0  0  0  0  0  0  0  0  0  0  0  0
   -2.0113   -0.3029   -2.6023 C   0  0  0  0  0  0  0  0  0  0  0  0
   -2.1091   -1.3000   -3.3541 O   0  5  0  0  0  0  0  0  0  0  0  0
   -2.8203   -0.0322   -1.6762 O   0  0  0  0  0  0  0  0  0  0  0  0
    0.7373    0.1075    0.9190 C   0  0  0  0  0  0  0  0  0  0  0  0
    1.9137    0.3149    1.1985 O   0  0  0  0  0  0  0  0  0  0  0  0
   -0.2524    0.6740    1.7004 N   0  0  0  0  0  0  0  0  0  0  0  0
   -1.2072    0.5496    1.3713 H   0  0  0  0  0  0  0  0  0  0  0  0
    0.0008    1.4416    2.9089 C   0  0  0  0  0  0  0  0  0  0  0  0
    0.5609    2.3517    2.6721 H   0  0  0  0  0  0  0  0  0  0  0  0
   -0.9457    1.7272    3.3770 H   0  0  0  0  0  0  0  0  0  0  0  0
    0.5761    0.8468    3.6257 H   0  0  0  0  0  0  0  0  0  0  0  0
  1  2  1  0  0  0  0
  2  3  1  0  0  0  0
  2  4  1  0  0  0  0
  2  5  1  0  0  0  0
  5  6  2  0  0  0  0
  5  7  1  0  0  0  0
  7  8  1  0  0  0  0
  7  9  1  0  0  0  0
  9 10  1  0  0  0  0
  9 11  1  0  0  0  0
  9 20  1  0  0  0  0
 11 12  1  0  0  0  0
 11 13  1  0  0  0  0
 11 14  1  0  0  0  0
 14 15  1  0  0  0  0
 14 16  1  0  0  0  0
 14 17  1  0  0  0  0
 17 18  1  0  0  0  0
 17 19  2  0  0  0  0
 20 21  2  0  0  0  0
 20 22  1  0  0  0  0
 22 23  1  0  0  0  0
 22 24  1  0  0  0  0
 24 25  1  0  0  0  0
 24 26  1  0  0  0  0
 24 27  1  0  0  0  0
M  CHG  1  18  -1
M  END
$$$$

  -OEChem-04042215583D

 27 26  0     1  0  0  0  0  0999 V2000
   -2.0407   -4.2979    0.5786 H   0  0  0  0  0  0  0  0  0  0  0  0
   -2.1890   -3.3178    0.1178 C   0  0  0  0  0  0  0  0  0  0  0  0
   -2.8546   -2.7242    0.7498 H   0  0  0  0  0  0  0  0  0  0  0  0
   -2.6592   -3.4515   -0.8600 H   0  0  0  0  0  0  0  0  0  0  0  0
   -0.8609   -2.6021   -0.0467 C   0  0  0  0  0  0  0  0  0  0  0  0
    0.1803   -3.1567    0.2750 O   0  0  0  0  0  0  0  0  0  0  0  0
   -0.8501   -1.3276   -0.5646 N   0  0  0  0  0  0  0  0  0  0  0  0
   -1.7737   -0.8990   -0.6882 H   0  0  0  0  0  0  0  0  0  0  0  0
    0.3172   -0.4342   -0.6086 C   0  0  1  0  0  0  0  0  0  0  0  0
    1.1080   -0.9736   -1.1394 H   0  0  0  0  0  0  0  0  0  0  0  0
    0.1127    0.9326   -1.3465 C   0  0  0  0  0  0  0  0  0  0  0  0
    0.0384    1.7021   -0.5705 H   0  0  0  0  0  0  0  0  0  0  0  0
    1.0292    1.1491   -1.9043 H   0  0  0  0  0  0  0  0  0  0  0  0
   -1.0976    1.2182   -2.2859 C   0  0  0  0  0  0  0  0  0  0  0  0
   -1.2799    2.2964   -2.2975 H   0  0  0  0  0  0  0  0  0  0  0  0
   -0.7951    0.9330   -3.2981 H   0  0  0  0  0  0  0  0  0  0  0  0
   -2.4250    0.5167   -1.9978 C   0  0  0  0  0  0  0  0  0  0  0  0
   -2.8591    0.5834   -0.8169 O   0  5  0  0  0  0  0  0  0  0  0  0
   -2.9460   -0.1775   -2.9006 O   0  0  0  0  0  0  0  0  0  0  0  0
    0.8481   -0.1440    0.8105 C   0  0  0  0  0  0  0  0  0  0  0  0
    2.0483   -0.0041    1.0232 O   0  0  0  0  0  0  0  0  0  0  0  0
   -0.0624    0.1638    1.8046 N   0  0  0  0  0  0  0  0  0  0  0  0
   -1.0384    0.2016    1.5120 H   0  0  0  0  0  0  0  0  0  0  0  0
    0.3089    0.6487    3.1235 C   0  0  0  0  0  0  0  0  0  0  0  0
    0.8215    1.6127    3.0457 H   0  0  0  0  0  0  0  0  0  0  0  0
   -0.5851    0.7782    3.7405 H   0  0  0  0  0  0  0  0  0  0  0  0
    0.9711   -0.0674    3.6207 H   0  0  0  0  0  0  0  0  0  0  0  0
  1  2  1  0  0  0  0
  2  3  1  0  0  0  0
  2  4  1  0  0  0  0
  2  5  1  0  0  0  0
  5  6  2  0  0  0  0
  5  7  1  0  0  0  0
  7  8  1  0  0  0  0
  7  9  1  0  0  0  0
  9 10  1  0  0  0  0
  9 11  1  0  0  0  0
  9 20  1  0  0  0  0
 11 12  1  0  0  0  0
 11 13  1  0  0  0  0
 11 14  1  0  0  0  0
 14 15  1  0  0  0  0
 14 16  1  0  0  0  0
 14 17  1  0  0  0  0
 17 18  1  0  0  0  0
 17 19  2  0  0  0  0
 20 21  2  0  0  0  0
 20 22  1  0  0  0  0
 22 23  1  0  0  0  0
 22 24  1  0  0  0  0
 24 25  1  0  0  0  0
 24 26  1  0  0  0  0
 24 27  1  0  0  0  0
M  CHG  1  18  -1
M  END
$$$$

  -OEChem-04042215583D

 27 26  0     1  0  0  0  0  0999 V2000
   -2.4807   -4.0201    0.7960 H   0  0  0  0  0  0  0  0  0  0  0  0
   -2.4800   -3.0742    0.2483 C   0  0  0  0  0  0  0  0  0  0  0  0
   -3.0667   -2.3399    0.8067 H   0  0  0  0  0  0  0  0  0  0  0  0
   -2.9457   -3.2279   -0.7288 H   0  0  0  0  0  0  0  0  0  0  0  0
   -1.0610   -2.5677    0.0666 C   0  0  0  0  0  0  0  0  0  0  0  0
   -0.1158   -3.2309    0.4690 O   0  0  0  0  0  0  0  0  0  0  0  0
   -0.8590   -1.3634   -0.5681 N   0  0  0  0  0  0  0  0  0  0  0  0
   -1.7125   -0.8159   -0.7171 H   0  0  0  0  0  0  0  0  0  0  0  0
    0.4028   -0.6057   -0.5346 C   0  0  1  0  0  0  0  0  0  0  0  0
    1.1956   -1.2543   -0.9199 H   0  0  0  0  0  0  0  0  0  0  0  0
    0.4081    0.7239   -1.3616 C   0  0  0  0  0  0  0  0  0  0  0  0
    0.3621    1.5627   -0.6583 H   0  0  0  0  0  0  0  0  0  0  0  0
    1.3771    0.7977   -1.8643 H   0  0  0  0  0  0  0  0  0  0  0  0
   -0.6993    1.0163   -2.4106 C   0  0  0  0  0  0  0  0  0  0  0  0
   -0.6321    2.0667   -2.7071 H   0  0  0  0  0  0  0  0  0  0  0  0
   -0.4897    0.4091   -3.2965 H   0  0  0  0  0  0  0  0  0  0  0  0
   -2.1402    0.7312   -1.9745 C   0  0  0  0  0  0  0  0  0  0  0  0
   -2.4274    0.9247   -0.7611 O   0  5  0  0  0  0  0  0  0  0  0  0
   -2.9155    0.2047   -2.8046 O   0  0  0  0  0  0  0  0  0  0  0  0
    0.7602   -0.2359    0.9192 C   0  0  0  0  0  0  0  0  0  0  0  0
    1.9242   -0.2228    1.3075 O   0  0  0  0  0  0  0  0  0  0  0  0
   -0.2472    0.2605    1.7270 N   0  0  0  0  0  0  0  0  0  0  0  0
   -1.1296    0.4515    1.2439 H   0  0  0  0  0  0  0  0  0  0  0  0
   -0.0063    0.8759    3.0213 C   0  0  0  0  0  0  0  0  0  0  0  0
    0.5703    1.7988    2.9037 H   0  0  0  0  0  0  0  0  0  0  0  0
   -0.9582    1.1171    3.5033 H   0  0  0  0  0  0  0  0  0  0  0  0
    0.5467    0.1922    3.6734 H   0  0  0  0  0  0  0  0  0  0  0  0
  1  2  1  0  0  0  0
  2  3  1  0  0  0  0
  2  4  1  0  0  0  0
  2  5  1  0  0  0  0
  5  6  2  0  0  0  0
  5  7  1  0  0  0  0
  7  8  1  0  0  0  0
  7  9  1  0  0  0  0
  9 10  1  0  0  0  0
  9 11  1  0  0  0  0
  9 20  1  0  0  0  0
 11 12  1  0  0  0  0
 11 13  1  0  0  0  0
 11 14  1  0  0  0  0
 14 15  1  0  0  0  0
 14 16  1  0  0  0  0
 14 17  1  0  0  0  0
 17 18  1  0  0  0  0
 17 19  2  0  0  0  0
 20 21  2  0  0  0  0
 20 22  1  0  0  0  0
 22 23  1  0  0  0  0
 22 24  1  0  0  0  0
 24 25  1  0  0  0  0
 24 26  1  0  0  0  0
 24 27  1  0  0  0  0
M  CHG  1  18  -1
M  END
$$$$

  -OEChem-04042215583D

 27 26  0     1  0  0  0  0  0999 V2000
   -2.5117   -3.9083    0.8392 H   0  0  0  0  0  0  0  0  0  0  0  0
   -2.4934   -2.9874    0.2506 C   0  0  0  0  0  0  0  0  0  0  0  0
   -3.0427   -2.2113    0.7900 H   0  0  0  0  0  0  0  0  0  0  0  0
   -2.9864   -3.1670   -0.7081 H   0  0  0  0  0  0  0  0  0  0  0  0
   -1.0632   -2.5368    0.0175 C   0  0  0  0  0  0  0  0  0  0  0  0
   -0.1308   -3.2406    0.3781 O   0  0  0  0  0  0  0  0  0  0  0  0
   -0.8357   -1.3399   -0.6230 N   0  0  0  0  0  0  0  0  0  0  0  0
   -1.6713   -0.7543   -0.7126 H   0  0  0  0  0  0  0  0  0  0  0  0
    0.4389   -0.6048   -0.5510 C   0  0  1  0  0  0  0  0  0  0  0  0
    1.2398   -1.2519   -0.9212 H   0  0  0  0  0  0  0  0  0  0  0  0
    0.4402    0.7287   -1.3641 C   0  0  0  0  0  0  0  0  0  0  0  0
    0.4106    1.5801   -0.6747 H   0  0  0  0  0  0  0  0  0  0  0  0
    1.3977    0.7912   -1.8901 H   0  0  0  0  0  0  0  0  0  0  0  0
   -0.6904    0.9598   -2.3975 C   0  0  0  0  0  0  0  0  0  0  0  0
   -0.5214    1.9214   -2.8897 H   0  0  0  0  0  0  0  0  0  0  0  0
   -0.6289    0.1782   -3.1606 H   0  0  0  0  0  0  0  0  0  0  0  0
   -2.1138    0.9656   -1.8159 C   0  0  0  0  0  0  0  0  0  0  0  0
   -2.2504    1.0441   -0.5623 O   0  5  0  0  0  0  0  0  0  0  0  0
   -3.0583    0.7716   -2.6137 O   0  0  0  0  0  0  0  0  0  0  0  0
    0.7530   -0.2343    0.9126 C   0  0  0  0  0  0  0  0  0  0  0  0
    1.8991   -0.2684    1.3499 O   0  0  0  0  0  0  0  0  0  0  0  0
   -0.2739    0.2850    1.6810 N   0  0  0  0  0  0  0  0  0  0  0  0
   -1.1169    0.5374    1.1498 H   0  0  0  0  0  0  0  0  0  0  0  0
   -0.0682    0.8842    2.9886 C   0  0  0  0  0  0  0  0  0  0  0  0
    0.5518    1.7821    2.9038 H   0  0  0  0  0  0  0  0  0  0  0  0
   -1.0308    1.1641    3.4265 H   0  0  0  0  0  0  0  0  0  0  0  0
    0.4236    0.1745    3.6615 H   0  0  0  0  0  0  0  0  0  0  0  0
  1  2  1  0  0  0  0
  2  3  1  0  0  0  0
  2  4  1  0  0  0  0
  2  5  1  0  0  0  0
  5  6  2  0  0  0  0
  5  7  1  0  0  0  0
  7  8  1  0  0  0  0
  7  9  1  0  0  0  0
  9 10  1  0  0  0  0
  9 11  1  0  0  0  0
  9 20  1  0  0  0  0
 11 12  1  0  0  0  0
 11 13  1  0  0  0  0
 11 14  1  0  0  0  0
 14 15  1  0  0  0  0
 14 16  1  0  0  0  0
 14 17  1  0  0  0  0
 17 18  1  0  0  0  0
 17 19  2  0  0  0  0
 20 21  2  0  0  0  0
 20 22  1  0  0  0  0
 22 23  1  0  0  0  0
 22 24  1  0  0  0  0
 24 25  1  0  0  0  0
 24 26  1  0  0  0  0
 24 27  1  0  0  0  0
M  CHG  1  18  -1
M  END
$$$$

  -OEChem-04042215583D

 27 26  0     1  0  0  0  0  0999 V2000
   -2.5258   -3.8603    0.8375 H   0  0  0  0  0  0  0  0  0  0  0  0
   -2.4970   -2.9493    0.2338 C   0  0  0  0  0  0  0  0  0  0  0  0
   -3.0389   -2.1589    0.7601 H   0  0  0  0  0  0  0  0  0  0  0  0
   -2.9899   -3.1395   -0.7227 H   0  0  0  0  0  0  0  0  0  0  0  0
   -1.0613   -2.5181   -0.0030 C   0  0  0  0  0  0  0  0  0  0  0  0
   -0.1385   -3.2351    0.3560 O   0  0  0  0  0  0  0  0  0  0  0  0
   -0.8175   -1.3256   -0.6460 N   0  0  0  0  0  0  0  0  0  0  0  0
   -1.6421   -0.7226   -0.7324 H   0  0  0  0  0  0  0  0  0  0  0  0
    0.4603   -0.5996   -0.5504 C   0  0  1  0  0  0  0  0  0  0  0  0
    1.2676   -1.2443   -0.9106 H   0  0  0  0  0  0  0  0  0  0  0  0
    0.4479    0.7275   -1.3670 C   0  0  0  0  0  0  0  0  0  0  0  0
    0.4207    1.5925   -0.6944 H   0  0  0  0  0  0  0  0  0  0  0  0
    1.3984    0.7847   -1.9064 H   0  0  0  0  0  0  0  0  0  0  0  0
   -0.6953    0.8993   -2.3948 C   0  0  0  0  0  0  0  0  0  0  0  0
   -0.4311    1.7239   -3.0632 H   0  0  0  0  0  0  0  0  0  0  0  0
   -0.7824   -0.0048   -3.0041 H   0  0  0  0  0  0  0  0  0  0  0  0
   -2.0628    1.2248   -1.7664 C   0  0  0  0  0  0  0  0  0  0  0  0
   -2.2287    1.0269   -0.5292 O   0  5  0  0  0  0  0  0  0  0  0  0
   -2.9682    1.5968   -2.5466 O   0  0  0  0  0  0  0  0  0  0  0  0
    0.7527   -0.2226    0.9159 C   0  0  0  0  0  0  0  0  0  0  0  0
    1.8909   -0.2660    1.3721 O   0  0  0  0  0  0  0  0  0  0  0  0
   -0.2816    0.3093    1.6652 N   0  0  0  0  0  0  0  0  0  0  0  0
   -1.1171    0.5618    1.1203 H   0  0  0  0  0  0  0  0  0  0  0  0
   -0.0908    0.9184    2.9703 C   0  0  0  0  0  0  0  0  0  0  0  0
    0.5488    1.8028    2.8892 H   0  0  0  0  0  0  0  0  0  0  0  0
   -1.0567    1.2222    3.3848 H   0  0  0  0  0  0  0  0  0  0  0  0
    0.3726    0.2061    3.6605 H   0  0  0  0  0  0  0  0  0  0  0  0
  1  2  1  0  0  0  0
  2  3  1  0  0  0  0
  2  4  1  0  0  0  0
  2  5  1  0  0  0  0
  5  6  2  0  0  0  0
  5  7  1  0  0  0  0
  7  8  1  0  0  0  0
  7  9  1  0  0  0  0
  9 10  1  0  0  0  0
  9 11  1  0  0  0  0
  9 20  1  0  0  0  0
 11 12  1  0  0  0  0
 11 13  1  0  0  0  0
 11 14  1  0  0  0  0
 14 15  1  0  0  0  0
 14 16  1  0  0  0  0
 14 17  1  0  0  0  0
 17 18  1  0  0  0  0
 17 19  2  0  0  0  0
 20 21  2  0  0  0  0
 20 22  1  0  0  0  0
 22 23  1  0  0  0  0
 22 24  1  0  0  0  0
 24 25  1  0  0  0  0
 24 26  1  0  0  0  0
 24 27  1  0  0  0  0
M  CHG  1  18  -1
M  END
$$$$

  -OEChem-04042215583D

 27 26  0     1  0  0  0  0  0999 V2000
   -2.5405   -3.8371    0.8381 H   0  0  0  0  0  0  0  0  0  0  0  0
   -2.5009   -2.9359    0.2205 C   0  0  0  0  0  0  0  0  0  0  0  0
   -3.0511   -2.1370    0.7252 H   0  0  0  0  0  0  0  0  0  0  0  0
   -2.9774   -3.1413   -0.7411 H   0  0  0  0  0  0  0  0  0  0  0  0
   -1.0612   -2.5087    0.0017 C   0  0  0  0  0  0  0  0  0  0  0  0
   -0.1451   -3.2211    0.3857 O   0  0  0  0  0  0  0  0  0  0  0  0
   -0.8042   -1.3265   -0.6546 N   0  0  0  0  0  0  0  0  0  0  0  0
   -1.6255   -0.7236   -0.7836 H   0  0  0  0  0  0  0  0  0  0  0  0
    0.4744   -0.6012   -0.5571 C   0  0  1  0  0  0  0  0  0  0  0  0
    1.2879   -1.2443   -0.9066 H   0  0  0  0  0  0  0  0  0  0  0  0
    0.4435    0.7155   -1.3866 C   0  0  0  0  0  0  0  0  0  0  0  0
    0.4225    1.5943   -0.7315 H   0  0  0  0  0  0  0  0  0  0  0  0
    1.3871    0.7675   -1.9384 H   0  0  0  0  0  0  0  0  0  0  0  0
   -0.7126    0.8367   -2.4062 C   0  0  0  0  0  0  0  0  0  0  0  0
   -0.3811    1.4850   -3.2231 H   0  0  0  0  0  0  0  0  0  0  0  0
   -0.9707   -0.1274   -2.8523 H   0  0  0  0  0  0  0  0  0  0  0  0
   -1.9402    1.4862   -1.7536 C   0  0  0  0  0  0  0  0  0  0  0  0
   -2.3211    1.0035   -0.6493 O   0  5  0  0  0  0  0  0  0  0  0  0
   -2.5140    2.4213   -2.3576 O   0  0  0  0  0  0  0  0  0  0  0  0
    0.7515   -0.2039    0.9062 C   0  0  0  0  0  0  0  0  0  0  0  0
    1.8850   -0.2413    1.3740 O   0  0  0  0  0  0  0  0  0  0  0  0
   -0.2903    0.3404    1.6370 N   0  0  0  0  0  0  0  0  0  0  0  0
   -1.1276    0.5715    1.0882 H   0  0  0  0  0  0  0  0  0  0  0  0
   -0.1100    0.9734    2.9323 C   0  0  0  0  0  0  0  0  0  0  0  0
    0.5264    1.8590    2.8387 H   0  0  0  0  0  0  0  0  0  0  0  0
   -1.0794    1.2809    3.3355 H   0  0  0  0  0  0  0  0  0  0  0  0
    0.3521    0.2758    3.6382 H   0  0  0  0  0  0  0  0  0  0  0  0
  1  2  1  0  0  0  0
  2  3  1  0  0  0  0
  2  4  1  0  0  0  0
  2  5  1  0  0  0  0
  5  6  2  0  0  0  0
  5  7  1  0  0  0  0
  7  8  1  0  0  0  0
  7  9  1  0  0  0  0
  9 10  1  0  0  0  0
  9 11  1  0  0  0  0
  9 20  1  0  0  0  0
 11 12  1  0  0  0  0
 11 13  1  0  0  0  0
 11 14  1  0  0  0  0
 14 15  1  0  0  0  0
 14 16  1  0  0  0  0
 14 17  1  0  0  0  0
 17 18  1  0  0  0  0
 17 19  2  0  0  0  0
 20 21  2  0  0  0  0
 20 22  1  0  0  0  0
 22 23  1  0  0  0  0
 22 24  1  0  0  0  0
 24 25  1  0  0  0  0
 24 26  1  0  0  0  0
 24 27  1  0  0  0  0
M  CHG  1  18  -1
M  END
$$$$

  -OEChem-04042215583D

 27 26  0     1  0  0  0  0  0999 V2000
   -2.5756   -3.8422    0.7912 H   0  0  0  0  0  0  0  0  0  0  0  0
   -2.5217   -2.9390    0.1775 C   0  0  0  0  0  0  0  0  0  0  0  0
   -3.0962   -2.1465    0.6646 H   0  0  0  0  0  0  0  0  0  0  0  0
   -2.9622   -3.1465   -0.8008 H   0  0  0  0  0  0  0  0  0  0  0  0
   -1.0786   -2.4994    0.0115 C   0  0  0  0  0  0  0  0  0  0  0  0
   -0.1727   -3.1974    0.4413 O   0  0  0  0  0  0  0  0  0  0  0  0
   -0.8064   -1.3225   -0.6488 N   0  0  0  0  0  0  0  0  0  0  0  0
   -1.6200   -0.7308   -0.8451 H   0  0  0  0  0  0  0  0  0  0  0  0
    0.4734   -0.5998   -0.5474 C   0  0  1  0  0  0  0  0  0  0  0  0
    1.2877   -1.2426   -0.8956 H   0  0  0  0  0  0  0  0  0  0  0  0
    0.4211    0.7022   -1.3924 C   0  0  0  0  0  0  0  0  0  0  0  0
    0.4020    1.5891   -0.7475 H   0  0  0  0  0  0  0  0  0  0  0  0
    1.3623    0.7572   -1.9482 H   0  0  0  0  0  0  0  0  0  0  0  0
   -0.7403    0.7877   -2.4161 C   0  0  0  0  0  0  0  0  0  0  0  0
   -0.3459    1.2311   -3.3354 H   0  0  0  0  0  0  0  0  0  0  0  0
   -1.1679   -0.1731   -2.7095 H   0  0  0  0  0  0  0  0  0  0  0  0
   -1.8017    1.7317   -1.8654 C   0  0  0  0  0  0  0  0  0  0  0  0
   -2.3354    1.3341   -0.7914 O   0  5  0  0  0  0  0  0  0  0  0  0
   -2.0967    2.7857   -2.4750 O   0  0  0  0  0  0  0  0  0  0  0  0
    0.7591   -0.1832    0.9093 C   0  0  0  0  0  0  0  0  0  0  0  0
    1.8920   -0.2417    1.3758 O   0  0  0  0  0  0  0  0  0  0  0  0
   -0.2718    0.3774    1.6438 N   0  0  0  0  0  0  0  0  0  0  0  0
   -1.0986    0.6387    1.0970 H   0  0  0  0  0  0  0  0  0  0  0  0
   -0.0683    1.0149    2.9340 C   0  0  0  0  0  0  0  0  0  0  0  0
    0.5911    1.8825    2.8311 H   0  0  0  0  0  0  0  0  0  0  0  0
   -1.0269    1.3513    3.3397 H   0  0  0  0  0  0  0  0  0  0  0  0
    0.3788    0.3107    3.6428 H   0  0  0  0  0  0  0  0  0  0  0  0
  1  2  1  0  0  0  0
  2  3  1  0  0  0  0
  2  4  1  0  0  0  0
  2  5  1  0  0  0  0
  5  6  2  0  0  0  0
  5  7  1  0  0  0  0
  7  8  1  0  0  0  0
  7  9  1  0  0  0  0
  9 10  1  0  0  0  0
  9 11  1  0  0  0  0
  9 20  1  0  0  0  0
 11 12  1  0  0  0  0
 11 13  1  0  0  0  0
 11 14  1  0  0  0  0
 14 15  1  0  0  0  0
 14 16  1  0  0  0  0
 14 17  1  0  0  0  0
 17 18  1  0  0  0  0
 17 19  2  0  0  0  0
 20 21  2  0  0  0  0
 20 22  1  0  0  0  0
 22 23  1  0  0  0  0
 22 24  1  0  0  0  0
 24 25  1  0  0  0  0
 24 26  1  0  0  0  0
 24 27  1  0  0  0  0
M  CHG  1  18  -1
M  END
$$$$

  -OEChem-04042215583D

 27 26  0     1  0  0  0  0  0999 V2000
   -2.5917   -3.9277    0.7281 H   0  0  0  0  0  0  0  0  0  0  0  0
   -2.5447   -3.0134    0.1302 C   0  0  0  0  0  0  0  0  0  0  0  0
   -3.1885   -2.2587    0.5893 H   0  0  0  0  0  0  0  0  0  0  0  0
   -2.9115   -3.2285   -0.8765 H   0  0  0  0  0  0  0  0  0  0  0  0
   -1.1169   -2.5025    0.0610 C   0  0  0  0  0  0  0  0  0  0  0  0
   -0.2118   -3.1535    0.5586 O   0  0  0  0  0  0  0  0  0  0  0  0
   -0.8561   -1.3178   -0.5920 N   0  0  0  0  0  0  0  0  0  0  0  0
   -1.6666   -0.7810   -0.9020 H   0  0  0  0  0  0  0  0  0  0  0  0
    0.4169   -0.5825   -0.5136 C   0  0  1  0  0  0  0  0  0  0  0  0
    1.2198   -1.2369   -0.8679 H   0  0  0  0  0  0  0  0  0  0  0  0
    0.3748    0.6930   -1.3999 C   0  0  0  0  0  0  0  0  0  0  0  0
    0.3340    1.5815   -0.7587 H   0  0  0  0  0  0  0  0  0  0  0  0
    1.3303    0.7538   -1.9303 H   0  0  0  0  0  0  0  0  0  0  0  0
   -0.7644    0.7908   -2.4546 C   0  0  0  0  0  0  0  0  0  0  0  0
   -0.3027    0.9203   -3.4382 H   0  0  0  0  0  0  0  0  0  0  0  0
   -1.3971   -0.0924   -2.5404 H   0  0  0  0  0  0  0  0  0  0  0  0
   -1.6314    2.0115   -2.1720 C   0  0  0  0  0  0  0  0  0  0  0  0
   -2.3323    1.9289   -1.1285 O   0  5  0  0  0  0  0  0  0  0  0  0
   -1.6194    2.9850   -2.9616 O   0  0  0  0  0  0  0  0  0  0  0  0
    0.7630   -0.1544    0.9280 C   0  0  0  0  0  0  0  0  0  0  0  0
    1.9144   -0.2207    1.3444 O   0  0  0  0  0  0  0  0  0  0  0  0
   -0.2263    0.4055    1.7172 N   0  0  0  0  0  0  0  0  0  0  0  0
   -1.0747    0.6764    1.2195 H   0  0  0  0  0  0  0  0  0  0  0  0
    0.0487    1.0315    3.0007 C   0  0  0  0  0  0  0  0  0  0  0  0
    0.7290    1.8798    2.8745 H   0  0  0  0  0  0  0  0  0  0  0  0
   -0.8818    1.3947    3.4469 H   0  0  0  0  0  0  0  0  0  0  0  0
    0.5032    0.3109    3.6881 H   0  0  0  0  0  0  0  0  0  0  0  0
  1  2  1  0  0  0  0
  2  3  1  0  0  0  0
  2  4  1  0  0  0  0
  2  5  1  0  0  0  0
  5  6  2  0  0  0  0
  5  7  1  0  0  0  0
  7  8  1  0  0  0  0
  7  9  1  0  0  0  0
  9 10  1  0  0  0  0
  9 11  1  0  0  0  0
  9 20  1  0  0  0  0
 11 12  1  0  0  0  0
 11 13  1  0  0  0  0
 11 14  1  0  0  0  0
 14 15  1  0  0  0  0
 14 16  1  0  0  0  0
 14 17  1  0  0  0  0
 17 18  1  0  0  0  0
 17 19  2  0  0  0  0
 20 21  2  0  0  0  0
 20 22  1  0  0  0  0
 22 23  1  0  0  0  0
 22 24  1  0  0  0  0
 24 25  1  0  0  0  0
 24 26  1  0  0  0  0
 24 27  1  0  0  0  0
M  CHG  1  18  -1
M  END
$$$$

  -OEChem-04042215583D

 27 26  0     1  0  0  0  0  0999 V2000
   -2.5941   -3.9931    0.6695 H   0  0  0  0  0  0  0  0  0  0  0  0
   -2.5600   -3.0625    0.0962 C   0  0  0  0  0  0  0  0  0  0  0  0
   -3.2485   -2.3443    0.5487 H   0  0  0  0  0  0  0  0  0  0  0  0
   -2.8808   -3.2665   -0.9284 H   0  0  0  0  0  0  0  0  0  0  0  0
   -1.1510   -2.4973    0.0933 C   0  0  0  0  0  0  0  0  0  0  0  0
   -0.2479   -3.1119    0.6367 O   0  0  0  0  0  0  0  0  0  0  0  0
   -0.9053   -1.3034   -0.5497 N   0  0  0  0  0  0  0  0  0  0  0  0
   -1.7094   -0.8150   -0.9380 H   0  0  0  0  0  0  0  0  0  0  0  0
    0.3644   -0.5595   -0.4935 C   0  0  1  0  0  0  0  0  0  0  0  0
    1.1541   -1.2265   -0.8547 H   0  0  0  0  0  0  0  0  0  0  0  0
    0.3420    0.6949   -1.4121 C   0  0  0  0  0  0  0  0  0  0  0  0
    0.2612    1.5794   -0.7696 H   0  0  0  0  0  0  0  0  0  0  0  0
    1.3115    0.7757   -1.9143 H   0  0  0  0  0  0  0  0  0  0  0  0
   -0.7791    0.7948   -2.4864 C   0  0  0  0  0  0  0  0  0  0  0  0
   -0.3458    0.5764   -3.4670 H   0  0  0  0  0  0  0  0  0  0  0  0
   -1.5982    0.0907   -2.3475 H   0  0  0  0  0  0  0  0  0  0  0  0
   -1.3938    2.1911   -2.4987 C   0  0  0  0  0  0  0  0  0  0  0  0
   -2.2042    2.4403   -1.5696 O   0  5  0  0  0  0  0  0  0  0  0  0
   -1.0733    2.9894   -3.4112 O   0  0  0  0  0  0  0  0  0  0  0  0
    0.7612   -0.1341    0.9366 C   0  0  0  0  0  0  0  0  0  0  0  0
    1.9288   -0.1943    1.3050 O   0  0  0  0  0  0  0  0  0  0  0  0
   -0.1927    0.4185    1.7725 N   0  0  0  0  0  0  0  0  0  0  0  0
   -1.0752    0.6615    1.3290 H   0  0  0  0  0  0  0  0  0  0  0  0
    0.1345    1.0311    3.0508 C   0  0  0  0  0  0  0  0  0  0  0  0
    0.7971    1.8902    2.9046 H   0  0  0  0  0  0  0  0  0  0  0  0
   -0.7783    1.3754    3.5458 H   0  0  0  0  0  0  0  0  0  0  0  0
    0.6304    0.3078    3.7061 H   0  0  0  0  0  0  0  0  0  0  0  0
  1  2  1  0  0  0  0
  2  3  1  0  0  0  0
  2  4  1  0  0  0  0
  2  5  1  0  0  0  0
  5  6  2  0  0  0  0
  5  7  1  0  0  0  0
  7  8  1  0  0  0  0
  7  9  1  0  0  0  0
  9 10  1  0  0  0  0
  9 11  1  0  0  0  0
  9 20  1  0  0  0  0
 11 12  1  0  0  0  0
 11 13  1  0  0  0  0
 11 14  1  0  0  0  0
 14 15  1  0  0  0  0
 14 16  1  0  0  0  0
 14 17  1  0  0  0  0
 17 18  1  0  0  0  0
 17 19  2  0  0  0  0
 20 21  2  0  0  0  0
 20 22  1  0  0  0  0
 22 23  1  0  0  0  0
 22 24  1  0  0  0  0
 24 25  1  0  0  0  0
 24 26  1  0  0  0  0
 24 27  1  0  0  0  0
M  CHG  1  18  -1
M  END
$$$$

  -OEChem-04042215583D

 27 26  0     1  0  0  0  0  0999 V2000
   -2.5727   -4.0549    0.4978 H   0  0  0  0  0  0  0  0  0  0  0  0
   -2.5289   -3.1116   -0.0536 C   0  0  0  0  0  0  0  0  0  0  0  0
   -3.2808   -2.4305    0.3526 H   0  0  0  0  0  0  0  0  0  0  0  0
   -2.7555   -3.3067   -1.1048 H   0  0  0  0  0  0  0  0  0  0  0  0
   -1.1483   -2.4923    0.0716 C   0  0  0  0  0  0  0  0  0  0  0  0
   -0.2776   -3.0707    0.7003 O   0  0  0  0  0  0  0  0  0  0  0  0
   -0.8917   -1.2886   -0.5491 N   0  0  0  0  0  0  0  0  0  0  0  0
   -1.6596   -0.8544   -1.0539 H   0  0  0  0  0  0  0  0  0  0  0  0
    0.3669   -0.5294   -0.4445 C   0  0  1  0  0  0  0  0  0  0  0  0
    1.1740   -1.1887   -0.7811 H   0  0  0  0  0  0  0  0  0  0  0  0
    0.3709    0.7231   -1.3661 C   0  0  0  0  0  0  0  0  0  0  0  0
    0.2354    1.6034   -0.7273 H   0  0  0  0  0  0  0  0  0  0  0  0
    1.3588    0.8256   -1.8268 H   0  0  0  0  0  0  0  0  0  0  0  0
   -0.7097    0.7982   -2.4782 C   0  0  0  0  0  0  0  0  0  0  0  0
   -0.3403    0.2996   -3.3793 H   0  0  0  0  0  0  0  0  0  0  0  0
   -1.6442    0.3125   -2.1977 H   0  0  0  0  0  0  0  0  0  0  0  0
   -1.0781    2.2478   -2.7854 C   0  0  0  0  0  0  0  0  0  0  0  0
   -0.5929    2.7818   -3.8113 O   0  5  0  0  0  0  0  0  0  0  0  0
   -1.8596    2.8117   -1.9782 O   0  0  0  0  0  0  0  0  0  0  0  0
    0.7181   -0.1108    0.9999 C   0  0  0  0  0  0  0  0  0  0  0  0
    1.8764   -0.1535    1.3983 O   0  0  0  0  0  0  0  0  0  0  0  0
   -0.2638    0.4235    1.8148 N   0  0  0  0  0  0  0  0  0  0  0  0
   -1.1487    0.6313    1.3613 H   0  0  0  0  0  0  0  0  0  0  0  0
    0.0182    1.0270    3.1080 C   0  0  0  0  0  0  0  0  0  0  0  0
    0.6646    1.9022    2.9878 H   0  0  0  0  0  0  0  0  0  0  0  0
   -0.9135    1.3448    3.5851 H   0  0  0  0  0  0  0  0  0  0  0  0
    0.5143    0.3068    3.7666 H   0  0  0  0  0  0  0  0  0  0  0  0
  1  2  1  0  0  0  0
  2  3  1  0  0  0  0
  2  4  1  0  0  0  0
  2  5  1  0  0  0  0
  5  6  2  0  0  0  0
  5  7  1  0  0  0  0
  7  8  1  0  0  0  0
  7  9  1  0  0  0  0
  9 10  1  0  0  0  0
  9 11  1  0  0  0  0
  9 20  1  0  0  0  0
 11 12  1  0  0  0  0
 11 13  1  0  0  0  0
 11 14  1  0  0  0  0
 14 15  1  0  0  0  0
 14 16  1  0  0  0  0
 14 17  1  0  0  0  0
 17 18  1  0  0  0  0
 17 19  2  0  0  0  0
 20 21  2  0  0  0  0
 20 22  1  0  0  0  0
 22 23  1  0  0  0  0
 22 24  1  0  0  0  0
 24 25  1  0  0  0  0
 24 26  1  0  0  0  0
 24 27  1  0  0  0  0
M  CHG  1  18  -1
M  END
$$$$

  -OEChem-04042215583D

 27 26  0     1  0  0  0  0  0999 V2000
   -2.5917   -4.0490    0.4523 H   0  0  0  0  0  0  0  0  0  0  0  0
   -2.5251   -3.1197   -0.1205 C   0  0  0  0  0  0  0  0  0  0  0  0
   -3.3271   -2.4499    0.1999 H   0  0  0  0  0  0  0  0  0  0  0  0
   -2.6548   -3.3491   -1.1811 H   0  0  0  0  0  0  0  0  0  0  0  0
   -1.1773   -2.4581    0.1048 C   0  0  0  0  0  0  0  0  0  0  0  0
   -0.3504   -2.9944    0.8230 O   0  0  0  0  0  0  0  0  0  0  0  0
   -0.9024   -1.2627   -0.5242 N   0  0  0  0  0  0  0  0  0  0  0  0
   -1.6041   -0.9061   -1.1673 H   0  0  0  0  0  0  0  0  0  0  0  0
    0.3661   -0.5178   -0.4292 C   0  0  1  0  0  0  0  0  0  0  0  0
    1.1655   -1.1854   -0.7671 H   0  0  0  0  0  0  0  0  0  0  0  0
    0.3617    0.7244   -1.3627 C   0  0  0  0  0  0  0  0  0  0  0  0
    0.2348    1.6204   -0.7444 H   0  0  0  0  0  0  0  0  0  0  0  0
    1.3403    0.8112   -1.8466 H   0  0  0  0  0  0  0  0  0  0  0  0
   -0.7419    0.7605   -2.4475 C   0  0  0  0  0  0  0  0  0  0  0  0
   -0.5163    0.0314   -3.2315 H   0  0  0  0  0  0  0  0  0  0  0  0
   -1.7218    0.5174   -2.0306 H   0  0  0  0  0  0  0  0  0  0  0  0
   -0.8760    2.1588   -3.0460 C   0  0  0  0  0  0  0  0  0  0  0  0
   -0.3497    2.3745   -4.1642 O   0  5  0  0  0  0  0  0  0  0  0  0
   -1.5231    3.0034   -2.3782 O   0  0  0  0  0  0  0  0  0  0  0  0
    0.7343   -0.0881    1.0075 C   0  0  0  0  0  0  0  0  0  0  0  0
    1.8970   -0.1326    1.3926 O   0  0  0  0  0  0  0  0  0  0  0  0
   -0.2323    0.4673    1.8259 N   0  0  0  0  0  0  0  0  0  0  0  0
   -1.1366    0.6374    1.3969 H   0  0  0  0  0  0  0  0  0  0  0  0
    0.0588    1.0604    3.1217 C   0  0  0  0  0  0  0  0  0  0  0  0
    0.7018    1.9385    3.0037 H   0  0  0  0  0  0  0  0  0  0  0  0
   -0.8701    1.3709    3.6087 H   0  0  0  0  0  0  0  0  0  0  0  0
    0.5624    0.3358    3.7699 H   0  0  0  0  0  0  0  0  0  0  0  0
  1  2  1  0  0  0  0
  2  3  1  0  0  0  0
  2  4  1  0  0  0  0
  2  5  1  0  0  0  0
  5  6  2  0  0  0  0
  5  7  1  0  0  0  0
  7  8  1  0  0  0  0
  7  9  1  0  0  0  0
  9 10  1  0  0  0  0
  9 11  1  0  0  0  0
  9 20  1  0  0  0  0
 11 12  1  0  0  0  0
 11 13  1  0  0  0  0
 11 14  1  0  0  0  0
 14 15  1  0  0  0  0
 14 16  1  0  0  0  0
 14 17  1  0  0  0  0
 17 18  1  0  0  0  0
 17 19  2  0  0  0  0
 20 21  2  0  0  0  0
 20 22  1  0  0  0  0
 22 23  1  0  0  0  0
 22 24  1  0  0  0  0
 24 25  1  0  0  0  0
 24 26  1  0  0  0  0
 24 27  1  0  0  0  0
M  CHG  1  18  -1
M  END
$$$$

  -OEChem-04042215583D

 27 26  0     1  0  0  0  0  0999 V2000
   -2.6476   -3.9855    0.4693 H   0  0  0  0  0  0  0  0  0  0  0  0
   -2.5706   -3.0526   -0.0964 C   0  0  0  0  0  0  0  0  0  0  0  0
   -3.3552   -2.3704    0.2401 H   0  0  0  0  0  0  0  0  0  0  0  0
   -2.7189   -3.2703   -1.1572 H   0  0  0  0  0  0  0  0  0  0  0  0
   -1.2071   -2.4197    0.1160 C   0  0  0  0  0  0  0  0  0  0  0  0
   -0.3859   -2.9734    0.8272 O   0  0  0  0  0  0  0  0  0  0  0  0
   -0.9094   -1.2325   -0.5183 N   0  0  0  0  0  0  0  0  0  0  0  0
   -1.6097   -0.8570   -1.1541 H   0  0  0  0  0  0  0  0  0  0  0  0
    0.3836   -0.5239   -0.4496 C   0  0  1  0  0  0  0  0  0  0  0  0
    1.1650   -1.2050   -0.8028 H   0  0  0  0  0  0  0  0  0  0  0  0
    0.3767    0.7257   -1.3754 C   0  0  0  0  0  0  0  0  0  0  0  0
    0.5907    1.6239   -0.7852 H   0  0  0  0  0  0  0  0  0  0  0  0
    1.1923    0.6217   -2.0991 H   0  0  0  0  0  0  0  0  0  0  0  0
   -0.9431    0.9599   -2.1523 C   0  0  0  0  0  0  0  0  0  0  0  0
   -1.1511    0.0886   -2.7805 H   0  0  0  0  0  0  0  0  0  0  0  0
   -1.7634    1.0829   -1.4391 H   0  0  0  0  0  0  0  0  0  0  0  0
   -0.9349    2.1940   -3.0597 C   0  0  0  0  0  0  0  0  0  0  0  0
    0.0528    2.9687   -3.0446 O   0  5  0  0  0  0  0  0  0  0  0  0
   -1.9630    2.3593   -3.7608 O   0  0  0  0  0  0  0  0  0  0  0  0
    0.7839   -0.1100    0.9835 C   0  0  0  0  0  0  0  0  0  0  0  0
    1.9481   -0.1929    1.3571 O   0  0  0  0  0  0  0  0  0  0  0  0
   -0.1559    0.4690    1.8165 N   0  0  0  0  0  0  0  0  0  0  0  0
   -1.0741    0.6292    1.4160 H   0  0  0  0  0  0  0  0  0  0  0  0
    0.1606    1.0273    3.1219 C   0  0  0  0  0  0  0  0  0  0  0  0
    0.8729    1.8527    3.0220 H   0  0  0  0  0  0  0  0  0  0  0  0
   -0.7479    1.4078    3.5979 H   0  0  0  0  0  0  0  0  0  0  0  0
    0.5952    0.2597    3.7704 H   0  0  0  0  0  0  0  0  0  0  0  0
  1  2  1  0  0  0  0
  2  3  1  0  0  0  0
  2  4  1  0  0  0  0
  2  5  1  0  0  0  0
  5  6  2  0  0  0  0
  5  7  1  0  0  0  0
  7  8  1  0  0  0  0
  7  9  1  0  0  0  0
  9 10  1  0  0  0  0
  9 11  1  0  0  0  0
  9 20  1  0  0  0  0
 11 12  1  0  0  0  0
 11 13  1  0  0  0  0
 11 14  1  0  0  0  0
 14 15  1  0  0  0  0
 14 16  1  0  0  0  0
 14 17  1  0  0  0  0
 17 18  1  0  0  0  0
 17 19  2  0  0  0  0
 20 21  2  0  0  0  0
 20 22  1  0  0  0  0
 22 23  1  0  0  0  0
 22 24  1  0  0  0  0
 24 25  1  0  0  0  0
 24 26  1  0  0  0  0
 24 27  1  0  0  0  0
M  CHG  1  18  -1
M  END
$$$$

  -OEChem-04042215583D

 27 26  0     1  0  0  0  0  0999 V2000
   -2.7026   -3.9712    0.5137 H   0  0  0  0  0  0  0  0  0  0  0  0
   -2.6270   -3.0386   -0.0526 C   0  0  0  0  0  0  0  0  0  0  0  0
   -3.4080   -2.3546    0.2888 H   0  0  0  0  0  0  0  0  0  0  0  0
   -2.7827   -3.2566   -1.1122 H   0  0  0  0  0  0  0  0  0  0  0  0
   -1.2604   -2.4085    0.1498 C   0  0  0  0  0  0  0  0  0  0  0  0
   -0.4408   -2.9555    0.8679 O   0  0  0  0  0  0  0  0  0  0  0  0
   -0.9626   -1.2282   -0.4973 N   0  0  0  0  0  0  0  0  0  0  0  0
   -1.6595   -0.8677   -1.1443 H   0  0  0  0  0  0  0  0  0  0  0  0
    0.3434   -0.5426   -0.4726 C   0  0  1  0  0  0  0  0  0  0  0  0
    1.0997   -1.2398   -0.8482 H   0  0  0  0  0  0  0  0  0  0  0  0
    0.3368    0.7056   -1.4001 C   0  0  0  0  0  0  0  0  0  0  0  0
    0.6010    1.6045   -0.8322 H   0  0  0  0  0  0  0  0  0  0  0  0
    1.1262    0.5630   -2.1462 H   0  0  0  0  0  0  0  0  0  0  0  0
   -0.9886    0.9824   -2.1471 C   0  0  0  0  0  0  0  0  0  0  0  0
   -1.3729    0.0659   -2.6040 H   0  0  0  0  0  0  0  0  0  0  0  0
   -1.7418    1.3580   -1.4480 H   0  0  0  0  0  0  0  0  0  0  0  0
   -0.7836    1.9834   -3.2816 C   0  0  0  0  0  0  0  0  0  0  0  0
   -0.9496    3.1984   -3.0158 O   0  5  0  0  0  0  0  0  0  0  0  0
   -0.4791    1.5277   -4.4109 O   0  0  0  0  0  0  0  0  0  0  0  0
    0.7976   -0.1323    0.9454 C   0  0  0  0  0  0  0  0  0  0  0  0
    1.9755   -0.2144    1.2735 O   0  0  0  0  0  0  0  0  0  0  0  0
   -0.1043    0.4647    1.8070 N   0  0  0  0  0  0  0  0  0  0  0  0
   -1.0426    0.6087    1.4492 H   0  0  0  0  0  0  0  0  0  0  0  0
    0.2593    1.0114    3.1050 C   0  0  0  0  0  0  0  0  0  0  0  0
    0.9773    1.8293    2.9870 H   0  0  0  0  0  0  0  0  0  0  0  0
   -0.6292    1.3991    3.6119 H   0  0  0  0  0  0  0  0  0  0  0  0
    0.7056    0.2350    3.7348 H   0  0  0  0  0  0  0  0  0  0  0  0
  1  2  1  0  0  0  0
  2  3  1  0  0  0  0
  2  4  1  0  0  0  0
  2  5  1  0  0  0  0
  5  6  2  0  0  0  0
  5  7  1  0  0  0  0
  7  8  1  0  0  0  0
  7  9  1  0  0  0  0
  9 10  1  0  0  0  0
  9 11  1  0  0  0  0
  9 20  1  0  0  0  0
 11 12  1  0  0  0  0
 11 13  1  0  0  0  0
 11 14  1  0  0  0  0
 14 15  1  0  0  0  0
 14 16  1  0  0  0  0
 14 17  1  0  0  0  0
 17 18  1  0  0  0  0
 17 19  2  0  0  0  0
 20 21  2  0  0  0  0
 20 22  1  0  0  0  0
 22 23  1  0  0  0  0
 22 24  1  0  0  0  0
 24 25  1  0  0  0  0
 24 26  1  0  0  0  0
 24 27  1  0  0  0  0
M  CHG  1  18  -1
M  END
$$$$

  -OEChem-04042215583D

 27 26  0     1  0  0  0  0  0999 V2000
   -2.7135   -3.9702    0.5699 H   0  0  0  0  0  0  0  0  0  0  0  0
   -2.6357   -3.0552   -0.0241 C   0  0  0  0  0  0  0  0  0  0  0  0
   -3.4251   -2.3657    0.2852 H   0  0  0  0  0  0  0  0  0  0  0  0
   -2.7753   -3.3069   -1.0786 H   0  0  0  0  0  0  0  0  0  0  0  0
   -1.2760   -2.4107    0.1781 C   0  0  0  0  0  0  0  0  0  0  0  0
   -0.4599   -2.9378    0.9149 O   0  0  0  0  0  0  0  0  0  0  0  0
   -0.9858   -1.2344   -0.4802 N   0  0  0  0  0  0  0  0  0  0  0  0
   -1.6734   -0.9065   -1.1532 H   0  0  0  0  0  0  0  0  0  0  0  0
    0.3223   -0.5526   -0.4744 C   0  0  1  0  0  0  0  0  0  0  0  0
    1.0710   -1.2584   -0.8498 H   0  0  0  0  0  0  0  0  0  0  0  0
    0.3332    0.6959   -1.4040 C   0  0  0  0  0  0  0  0  0  0  0  0
    0.6302    1.5888   -0.8429 H   0  0  0  0  0  0  0  0  0  0  0  0
    1.1213    0.5224   -2.1453 H   0  0  0  0  0  0  0  0  0  0  0  0
   -0.9756    1.0258   -2.1675 C   0  0  0  0  0  0  0  0  0  0  0  0
   -1.5331    0.1248   -2.4297 H   0  0  0  0  0  0  0  0  0  0  0  0
   -1.6220    1.6507   -1.5442 H   0  0  0  0  0  0  0  0  0  0  0  0
   -0.6814    1.7202   -3.4961 C   0  0  0  0  0  0  0  0  0  0  0  0
   -0.6691    2.9749   -3.5056 O   0  5  0  0  0  0  0  0  0  0  0  0
   -0.4858    0.9901   -4.4987 O   0  0  0  0  0  0  0  0  0  0  0  0
    0.7881   -0.1390    0.9393 C   0  0  0  0  0  0  0  0  0  0  0  0
    1.9703   -0.2077    1.2551 O   0  0  0  0  0  0  0  0  0  0  0  0
   -0.1074    0.4626    1.8045 N   0  0  0  0  0  0  0  0  0  0  0  0
   -1.0588    0.5674    1.4690 H   0  0  0  0  0  0  0  0  0  0  0  0
    0.2590    0.9992    3.1060 C   0  0  0  0  0  0  0  0  0  0  0  0
    0.9623    1.8303    2.9917 H   0  0  0  0  0  0  0  0  0  0  0  0
   -0.6313    1.3660    3.6249 H   0  0  0  0  0  0  0  0  0  0  0  0
    0.7231    0.2229    3.7230 H   0  0  0  0  0  0  0  0  0  0  0  0
  1  2  1  0  0  0  0
  2  3  1  0  0  0  0
  2  4  1  0  0  0  0
  2  5  1  0  0  0  0
  5  6  2  0  0  0  0
  5  7  1  0  0  0  0
  7  8  1  0  0  0  0
  7  9  1  0  0  0  0
  9 10  1  0  0  0  0
  9 11  1  0  0  0  0
  9 20  1  0  0  0  0
 11 12  1  0  0  0  0
 11 13  1  0  0  0  0
 11 14  1  0  0  0  0
 14 15  1  0  0  0  0
 14 16  1  0  0  0  0
 14 17  1  0  0  0  0
 17 18  1  0  0  0  0
 17 19  2  0  0  0  0
 20 21  2  0  0  0  0
 20 22  1  0  0  0  0
 22 23  1  0  0  0  0
 22 24  1  0  0  0  0
 24 25  1  0  0  0  0
 24 26  1  0  0  0  0
 24 27  1  0  0  0  0
M  CHG  1  18  -1
M  END
$$$$

  -OEChem-04042215583D

 27 26  0     1  0  0  0  0  0999 V2000
   -2.6987   -3.9903    0.5752 H   0  0  0  0  0  0  0  0  0  0  0  0
   -2.6250   -3.0831   -0.0309 C   0  0  0  0  0  0  0  0  0  0  0  0
   -3.4571   -2.4215    0.2217 H   0  0  0  0  0  0  0  0  0  0  0  0
   -2.6959   -3.3582   -1.0864 H   0  0  0  0  0  0  0  0  0  0  0  0
   -1.3051   -2.3800    0.2321 C   0  0  0  0  0  0  0  0  0  0  0  0
   -0.5195   -2.8518    1.0366 O   0  0  0  0  0  0  0  0  0  0  0  0
   -1.0188   -1.2149   -0.4481 N   0  0  0  0  0  0  0  0  0  0  0  0
   -1.6549   -0.9783   -1.2049 H   0  0  0  0  0  0  0  0  0  0  0  0
    0.2954   -0.5447   -0.4631 C   0  0  1  0  0  0  0  0  0  0  0  0
    1.0324   -1.2664   -0.8315 H   0  0  0  0  0  0  0  0  0  0  0  0
    0.3275    0.6909   -1.4126 C   0  0  0  0  0  0  0  0  0  0  0  0
    0.6411    1.5820   -0.8577 H   0  0  0  0  0  0  0  0  0  0  0  0
    1.1222    0.4958   -2.1413 H   0  0  0  0  0  0  0  0  0  0  0  0
   -0.9640    1.0607   -2.1965 C   0  0  0  0  0  0  0  0  0  0  0  0
   -1.7064    0.2645   -2.2145 H   0  0  0  0  0  0  0  0  0  0  0  0
   -1.4366    1.9249   -1.7206 H   0  0  0  0  0  0  0  0  0  0  0  0
   -0.6553    1.3819   -3.6572 C   0  0  0  0  0  0  0  0  0  0  0  0
   -0.3989    2.5723   -3.9586 O   0  5  0  0  0  0  0  0  0  0  0  0
   -0.6880    0.4234   -4.4681 O   0  0  0  0  0  0  0  0  0  0  0  0
    0.7797   -0.1151    0.9400 C   0  0  0  0  0  0  0  0  0  0  0  0
    1.9648   -0.1890    1.2438 O   0  0  0  0  0  0  0  0  0  0  0  0
   -0.1000    0.5067    1.8066 N   0  0  0  0  0  0  0  0  0  0  0  0
   -1.0692    0.5486    1.5104 H   0  0  0  0  0  0  0  0  0  0  0  0
    0.2687    0.9797    3.1318 C   0  0  0  0  0  0  0  0  0  0  0  0
    1.0537    1.7396    3.0615 H   0  0  0  0  0  0  0  0  0  0  0  0
   -0.5996    1.4236    3.6274 H   0  0  0  0  0  0  0  0  0  0  0  0
    0.6325    0.1493    3.7457 H   0  0  0  0  0  0  0  0  0  0  0  0
  1  2  1  0  0  0  0
  2  3  1  0  0  0  0
  2  4  1  0  0  0  0
  2  5  1  0  0  0  0
  5  6  2  0  0  0  0
  5  7  1  0  0  0  0
  7  8  1  0  0  0  0
  7  9  1  0  0  0  0
  9 10  1  0  0  0  0
  9 11  1  0  0  0  0
  9 20  1  0  0  0  0
 11 12  1  0  0  0  0
 11 13  1  0  0  0  0
 11 14  1  0  0  0  0
 14 15  1  0  0  0  0
 14 16  1  0  0  0  0
 14 17  1  0  0  0  0
 17 18  1  0  0  0  0
 17 19  2  0  0  0  0
 20 21  2  0  0  0  0
 20 22  1  0  0  0  0
 22 23  1  0  0  0  0
 22 24  1  0  0  0  0
 24 25  1  0  0  0  0
 24 26  1  0  0  0  0
 24 27  1  0  0  0  0
M  CHG  1  18  -1
M  END
$$$$

  -OEChem-04042215583D

 27 26  0     1  0  0  0  0  0999 V2000
   -2.6964   -3.9938    0.5286 H   0  0  0  0  0  0  0  0  0  0  0  0
   -2.6198   -3.0794   -0.0662 C   0  0  0  0  0  0  0  0  0  0  0  0
   -3.4765   -2.4392    0.1579 H   0  0  0  0  0  0  0  0  0  0  0  0
   -2.6423   -3.3460   -1.1263 H   0  0  0  0  0  0  0  0  0  0  0  0
   -1.3284   -2.3485    0.2552 C   0  0  0  0  0  0  0  0  0  0  0  0
   -0.5879   -2.7821    1.1223 O   0  0  0  0  0  0  0  0  0  0  0  0
   -1.0237   -1.1949   -0.4362 N   0  0  0  0  0  0  0  0  0  0  0  0
   -1.6031   -1.0187   -1.2554 H   0  0  0  0  0  0  0  0  0  0  0  0
    0.2994   -0.5442   -0.4480 C   0  0  1  0  0  0  0  0  0  0  0  0
    1.0286   -1.2780   -0.8075 H   0  0  0  0  0  0  0  0  0  0  0  0
    0.3469    0.6809   -1.4104 C   0  0  0  0  0  0  0  0  0  0  0  0
    0.6453    1.5707   -0.8456 H   0  0  0  0  0  0  0  0  0  0  0  0
    1.1557    0.4989   -2.1271 H   0  0  0  0  0  0  0  0  0  0  0  0
   -0.9414    1.0554   -2.1994 C   0  0  0  0  0  0  0  0  0  0  0  0
   -1.8182    0.4582   -1.9543 H   0  0  0  0  0  0  0  0  0  0  0  0
   -1.2057    2.0853   -1.9417 H   0  0  0  0  0  0  0  0  0  0  0  0
   -0.7165    0.9907   -3.7065 C   0  0  0  0  0  0  0  0  0  0  0  0
   -0.3180    2.0198   -4.3030 O   0  5  0  0  0  0  0  0  0  0  0  0
   -0.9539   -0.1156   -4.2521 O   0  0  0  0  0  0  0  0  0  0  0  0
    0.7814   -0.1061    0.9533 C   0  0  0  0  0  0  0  0  0  0  0  0
    1.9665   -0.1777    1.2587 O   0  0  0  0  0  0  0  0  0  0  0  0
   -0.0961    0.5374    1.8061 N   0  0  0  0  0  0  0  0  0  0  0  0
   -1.0717    0.5268    1.5283 H   0  0  0  0  0  0  0  0  0  0  0  0
    0.2618    0.9774    3.1455 C   0  0  0  0  0  0  0  0  0  0  0  0
    1.0888    1.6934    3.1045 H   0  0  0  0  0  0  0  0  0  0  0  0
   -0.5937    1.4652    3.6218 H   0  0  0  0  0  0  0  0  0  0  0  0
    0.5624    0.1226    3.7600 H   0  0  0  0  0  0  0  0  0  0  0  0
  1  2  1  0  0  0  0
  2  3  1  0  0  0  0
  2  4  1  0  0  0  0
  2  5  1  0  0  0  0
  5  6  2  0  0  0  0
  5  7  1  0  0  0  0
  7  8  1  0  0  0  0
  7  9  1  0  0  0  0
  9 10  1  0  0  0  0
  9 11  1  0  0  0  0
  9 20  1  0  0  0  0
 11 12  1  0  0  0  0
 11 13  1  0  0  0  0
 11 14  1  0  0  0  0
 14 15  1  0  0  0  0
 14 16  1  0  0  0  0
 14 17  1  0  0  0  0
 17 18  1  0  0  0  0
 17 19  2  0  0  0  0
 20 21  2  0  0  0  0
 20 22  1  0  0  0  0
 22 23  1  0  0  0  0
 22 24  1  0  0  0  0
 24 25  1  0  0  0  0
 24 26  1  0  0  0  0
 24 27  1  0  0  0  0
M  CHG  1  18  -1
M  END
$$$$

  -OEChem-04042215583D

 27 26  0     1  0  0  0  0  0999 V2000
   -2.6783   -4.0057    0.4160 H   0  0  0  0  0  0  0  0  0  0  0  0
   -2.6144   -3.0630   -0.1343 C   0  0  0  0  0  0  0  0  0  0  0  0
   -3.4971   -2.4596    0.0907 H   0  0  0  0  0  0  0  0  0  0  0  0
   -2.5975   -3.2816   -1.2057 H   0  0  0  0  0  0  0  0  0  0  0  0
   -1.3573   -2.3078    0.2573 C   0  0  0  0  0  0  0  0  0  0  0  0
   -0.6702   -2.7132    1.1809 O   0  0  0  0  0  0  0  0  0  0  0  0
   -1.0235   -1.1641   -0.4354 N   0  0  0  0  0  0  0  0  0  0  0  0
   -1.5476   -1.0292   -1.3031 H   0  0  0  0  0  0  0  0  0  0  0  0
    0.3115   -0.5389   -0.4271 C   0  0  1  0  0  0  0  0  0  0  0  0
    1.0317   -1.2865   -0.7757 H   0  0  0  0  0  0  0  0  0  0  0  0
    0.3764    0.6748   -1.4006 C   0  0  0  0  0  0  0  0  0  0  0  0
    0.6534    1.5675   -0.8297 H   0  0  0  0  0  0  0  0  0  0  0  0
    1.1922    0.5055   -2.1121 H   0  0  0  0  0  0  0  0  0  0  0  0
   -0.9192    1.0229   -2.1826 C   0  0  0  0  0  0  0  0  0  0  0  0
   -1.8421    0.6670   -1.7229 H   0  0  0  0  0  0  0  0  0  0  0  0
   -1.0087    2.1136   -2.1891 H   0  0  0  0  0  0  0  0  0  0  0  0
   -0.8339    0.5821   -3.6369 C   0  0  0  0  0  0  0  0  0  0  0  0
   -0.4058    1.3783   -4.5062 O   0  5  0  0  0  0  0  0  0  0  0  0
   -1.2116   -0.5973   -3.8539 O   0  0  0  0  0  0  0  0  0  0  0  0
    0.7851   -0.1002    0.9766 C   0  0  0  0  0  0  0  0  0  0  0  0
    1.9681   -0.1763    1.2899 O   0  0  0  0  0  0  0  0  0  0  0  0
   -0.0917    0.5663    1.8123 N   0  0  0  0  0  0  0  0  0  0  0  0
   -1.0679    0.5325    1.5373 H   0  0  0  0  0  0  0  0  0  0  0  0
    0.2544    0.9925    3.1592 C   0  0  0  0  0  0  0  0  0  0  0  0
    1.0962    1.6919    3.1347 H   0  0  0  0  0  0  0  0  0  0  0  0
   -0.5981    1.4954    3.6249 H   0  0  0  0  0  0  0  0  0  0  0  0
    0.5281    0.1290    3.7739 H   0  0  0  0  0  0  0  0  0  0  0  0
  1  2  1  0  0  0  0
  2  3  1  0  0  0  0
  2  4  1  0  0  0  0
  2  5  1  0  0  0  0
  5  6  2  0  0  0  0
  5  7  1  0  0  0  0
  7  8  1  0  0  0  0
  7  9  1  0  0  0  0
  9 10  1  0  0  0  0
  9 11  1  0  0  0  0
  9 20  1  0  0  0  0
 11 12  1  0  0  0  0
 11 13  1  0  0  0  0
 11 14  1  0  0  0  0
 14 15  1  0  0  0  0
 14 16  1  0  0  0  0
 14 17  1  0  0  0  0
 17 18  1  0  0  0  0
 17 19  2  0  0  0  0
 20 21  2  0  0  0  0
 20 22  1  0  0  0  0
 22 23  1  0  0  0  0
 22 24  1  0  0  0  0
 24 25  1  0  0  0  0
 24 26  1  0  0  0  0
 24 27  1  0  0  0  0
M  CHG  1  18  -1
M  END
$$$$

  -OEChem-04042215583D

 27 26  0     1  0  0  0  0  0999 V2000
   -2.6651   -4.0029    0.3563 H   0  0  0  0  0  0  0  0  0  0  0  0
   -2.6020   -3.0527   -0.1809 C   0  0  0  0  0  0  0  0  0  0  0  0
   -3.5029   -2.4682    0.0209 H   0  0  0  0  0  0  0  0  0  0  0  0
   -2.5463   -3.2575   -1.2541 H   0  0  0  0  0  0  0  0  0  0  0  0
   -1.3732   -2.2774    0.2587 C   0  0  0  0  0  0  0  0  0  0  0  0
   -0.7325   -2.6537    1.2281 O   0  0  0  0  0  0  0  0  0  0  0  0
   -1.0184   -1.1438   -0.4384 N   0  0  0  0  0  0  0  0  0  0  0  0
   -1.4922   -1.0625   -1.3477 H   0  0  0  0  0  0  0  0  0  0  0  0
    0.3251   -0.5345   -0.4155 C   0  0  1  0  0  0  0  0  0  0  0  0
    1.0416   -1.2900   -0.7541 H   0  0  0  0  0  0  0  0  0  0  0  0
    0.4018    0.6750   -1.3932 C   0  0  0  0  0  0  0  0  0  0  0  0
    0.6762    1.5719   -0.8281 H   0  0  0  0  0  0  0  0  0  0  0  0
    1.2111    0.5013   -2.1108 H   0  0  0  0  0  0  0  0  0  0  0  0
   -0.9012    0.9993   -2.1636 C   0  0  0  0  0  0  0  0  0  0  0  0
   -1.8054    0.8621   -1.5652 H   0  0  0  0  0  0  0  0  0  0  0  0
   -0.8766    2.0638   -2.4158 H   0  0  0  0  0  0  0  0  0  0  0  0
   -0.9801    0.2360   -3.4771 C   0  0  0  0  0  0  0  0  0  0  0  0
   -0.5656    0.7591   -4.5382 O   0  5  0  0  0  0  0  0  0  0  0  0
   -1.4660   -0.9213   -3.3752 O   0  0  0  0  0  0  0  0  0  0  0  0
    0.7870   -0.0901    0.9896 C   0  0  0  0  0  0  0  0  0  0  0  0
    1.9676   -0.1659    1.3131 O   0  0  0  0  0  0  0  0  0  0  0  0
   -0.0935    0.5940    1.8067 N   0  0  0  0  0  0  0  0  0  0  0  0
   -1.0681    0.5411    1.5278 H   0  0  0  0  0  0  0  0  0  0  0  0
    0.2341    1.0060    3.1625 C   0  0  0  0  0  0  0  0  0  0  0  0
    1.0904    1.6879    3.1594 H   0  0  0  0  0  0  0  0  0  0  0  0
   -0.6173    1.5238    3.6135 H   0  0  0  0  0  0  0  0  0  0  0  0
    0.4773    0.1336    3.7774 H   0  0  0  0  0  0  0  0  0  0  0  0
  1  2  1  0  0  0  0
  2  3  1  0  0  0  0
  2  4  1  0  0  0  0
  2  5  1  0  0  0  0
  5  6  2  0  0  0  0
  5  7  1  0  0  0  0
  7  8  1  0  0  0  0
  7  9  1  0  0  0  0
  9 10  1  0  0  0  0
  9 11  1  0  0  0  0
  9 20  1  0  0  0  0
 11 12  1  0  0  0  0
 11 13  1  0  0  0  0
 11 14  1  0  0  0  0
 14 15  1  0  0  0  0
 14 16  1  0  0  0  0
 14 17  1  0  0  0  0
 17 18  1  0  0  0  0
 17 19  2  0  0  0  0
 20 21  2  0  0  0  0
 20 22  1  0  0  0  0
 22 23  1  0  0  0  0
 22 24  1  0  0  0  0
 24 25  1  0  0  0  0
 24 26  1  0  0  0  0
 24 27  1  0  0  0  0
M  CHG  1  18  -1
M  END
$$$$

  -OEChem-04042215583D

 27 26  0     1  0  0  0  0  0999 V2000
   -2.6497   -4.0123    0.4126 H   0  0  0  0  0  0  0  0  0  0  0  0
   -2.5914   -3.0638   -0.1277 C   0  0  0  0  0  0  0  0  0  0  0  0
   -3.4740   -2.4641    0.1069 H   0  0  0  0  0  0  0  0  0  0  0  0
   -2.5804   -3.2691   -1.2021 H   0  0  0  0  0  0  0  0  0  0  0  0
   -1.3344   -2.3079    0.2629 C   0  0  0  0  0  0  0  0  0  0  0  0
   -0.6527   -2.7026    1.1970 O   0  0  0  0  0  0  0  0  0  0  0  0
   -0.9990   -1.1683   -0.4334 N   0  0  0  0  0  0  0  0  0  0  0  0
   -1.5316   -1.0535   -1.3063 H   0  0  0  0  0  0  0  0  0  0  0  0
    0.3323   -0.5312   -0.4159 C   0  0  1  0  0  0  0  0  0  0  0  0
    1.0606   -1.2786   -0.7468 H   0  0  0  0  0  0  0  0  0  0  0  0
    0.4110    0.6778   -1.3949 C   0  0  0  0  0  0  0  0  0  0  0  0
    0.6797    1.5780   -0.8322 H   0  0  0  0  0  0  0  0  0  0  0  0
    1.2263    0.4982   -2.1042 H   0  0  0  0  0  0  0  0  0  0  0  0
   -0.8728    1.0027   -2.1925 C   0  0  0  0  0  0  0  0  0  0  0  0
   -1.7397    1.0567   -1.5274 H   0  0  0  0  0  0  0  0  0  0  0  0
   -0.7577    1.9952   -2.6378 H   0  0  0  0  0  0  0  0  0  0  0  0
   -1.1312    0.0140   -3.3287 C   0  0  0  0  0  0  0  0  0  0  0  0
   -0.5127    0.1573   -4.4091 O   0  5  0  0  0  0  0  0  0  0  0  0
   -1.9388   -0.9189   -3.0772 O   0  0  0  0  0  0  0  0  0  0  0  0
    0.7807   -0.0798    0.9911 C   0  0  0  0  0  0  0  0  0  0  0  0
    1.9626   -0.1230    1.3163 O   0  0  0  0  0  0  0  0  0  0  0  0
   -0.1189    0.5830    1.8047 N   0  0  0  0  0  0  0  0  0  0  0  0
   -1.0911    0.5024    1.5232 H   0  0  0  0  0  0  0  0  0  0  0  0
    0.1935    1.0035    3.1614 C   0  0  0  0  0  0  0  0  0  0  0  0
    1.0492    1.6865    3.1643 H   0  0  0  0  0  0  0  0  0  0  0  0
   -0.6635    1.5235    3.5996 H   0  0  0  0  0  0  0  0  0  0  0  0
    0.4309    0.1349    3.7841 H   0  0  0  0  0  0  0  0  0  0  0  0
  1  2  1  0  0  0  0
  2  3  1  0  0  0  0
  2  4  1  0  0  0  0
  2  5  1  0  0  0  0
  5  6  2  0  0  0  0
  5  7  1  0  0  0  0
  7  8  1  0  0  0  0
  7  9  1  0  0  0  0
  9 10  1  0  0  0  0
  9 11  1  0  0  0  0
  9 20  1  0  0  0  0
 11 12  1  0  0  0  0
 11 13  1  0  0  0  0
 11 14  1  0  0  0  0
 14 15  1  0  0  0  0
 14 16  1  0  0  0  0
 14 17  1  0  0  0  0
 17 18  1  0  0  0  0
 17 19  2  0  0  0  0
 20 21  2  0  0  0  0
 20 22  1  0  0  0  0
 22 23  1  0  0  0  0
 22 24  1  0  0  0  0
 24 25  1  0  0  0  0
 24 26  1  0  0  0  0
 24 27  1  0  0  0  0
M  CHG  1  18  -1
M  END
$$$$

  -OEChem-04042215583D

 27 26  0     1  0  0  0  0  0999 V2000
   -2.6228   -4.0324    0.5026 H   0  0  0  0  0  0  0  0  0  0  0  0
   -2.5713   -3.0889   -0.0468 C   0  0  0  0  0  0  0  0  0  0  0  0
   -3.4275   -2.4682    0.2275 H   0  0  0  0  0  0  0  0  0  0  0  0
   -2.6192   -3.2998   -1.1189 H   0  0  0  0  0  0  0  0  0  0  0  0
   -1.2807   -2.3581    0.2738 C   0  0  0  0  0  0  0  0  0  0  0  0
   -0.5426   -2.7798    1.1517 O   0  0  0  0  0  0  0  0  0  0  0  0
   -0.9748   -1.2097   -0.4210 N   0  0  0  0  0  0  0  0  0  0  0  0
   -1.5910   -1.0295   -1.2228 H   0  0  0  0  0  0  0  0  0  0  0  0
    0.3366   -0.5341   -0.4160 C   0  0  1  0  0  0  0  0  0  0  0  0
    1.0802   -1.2690   -0.7415 H   0  0  0  0  0  0  0  0  0  0  0  0
    0.4129    0.6741   -1.3982 C   0  0  0  0  0  0  0  0  0  0  0  0
    0.6857    1.5760   -0.8404 H   0  0  0  0  0  0  0  0  0  0  0  0
    1.2340    0.4792   -2.0961 H   0  0  0  0  0  0  0  0  0  0  0  0
   -0.8412    1.0186   -2.2368 C   0  0  0  0  0  0  0  0  0  0  0  0
   -1.6571    1.2950   -1.5618 H   0  0  0  0  0  0  0  0  0  0  0  0
   -0.6194    1.8957   -2.8514 H   0  0  0  0  0  0  0  0  0  0  0  0
   -1.3141   -0.1032   -3.1645 C   0  0  0  0  0  0  0  0  0  0  0  0
   -0.6227   -0.3695   -4.1745 O   0  5  0  0  0  0  0  0  0  0  0  0
   -2.3457   -0.7341   -2.8138 O   0  0  0  0  0  0  0  0  0  0  0  0
    0.7718   -0.0747    0.9923 C   0  0  0  0  0  0  0  0  0  0  0  0
    1.9546   -0.0780    1.3175 O   0  0  0  0  0  0  0  0  0  0  0  0
   -0.1491    0.5567    1.8072 N   0  0  0  0  0  0  0  0  0  0  0  0
   -1.1184    0.4539    1.5222 H   0  0  0  0  0  0  0  0  0  0  0  0
    0.1501    0.9989    3.1599 C   0  0  0  0  0  0  0  0  0  0  0  0
    0.9885    1.7028    3.1569 H   0  0  0  0  0  0  0  0  0  0  0  0
   -0.7203    1.5020    3.5909 H   0  0  0  0  0  0  0  0  0  0  0  0
    0.4076    0.1431    3.7921 H   0  0  0  0  0  0  0  0  0  0  0  0
  1  2  1  0  0  0  0
  2  3  1  0  0  0  0
  2  4  1  0  0  0  0
  2  5  1  0  0  0  0
  5  6  2  0  0  0  0
  5  7  1  0  0  0  0
  7  8  1  0  0  0  0
  7  9  1  0  0  0  0
  9 10  1  0  0  0  0
  9 11  1  0  0  0  0
  9 20  1  0  0  0  0
 11 12  1  0  0  0  0
 11 13  1  0  0  0  0
 11 14  1  0  0  0  0
 14 15  1  0  0  0  0
 14 16  1  0  0  0  0
 14 17  1  0  0  0  0
 17 18  1  0  0  0  0
 17 19  2  0  0  0  0
 20 21  2  0  0  0  0
 20 22  1  0  0  0  0
 22 23  1  0  0  0  0
 22 24  1  0  0  0  0
 24 25  1  0  0  0  0
 24 26  1  0  0  0  0
 24 27  1  0  0  0  0
M  CHG  1  18  -1
M  END
$$$$

  -OEChem-04042215583D

 27 26  0     1  0  0  0  0  0999 V2000
   -2.5826   -4.0612    0.6235 H   0  0  0  0  0  0  0  0  0  0  0  0
   -2.5429   -3.1272    0.0571 C   0  0  0  0  0  0  0  0  0  0  0  0
   -3.3738   -2.4874    0.3640 H   0  0  0  0  0  0  0  0  0  0  0  0
   -2.6488   -3.3528   -1.0078 H   0  0  0  0  0  0  0  0  0  0  0  0
   -1.2254   -2.4144    0.3015 C   0  0  0  0  0  0  0  0  0  0  0  0
   -0.4354   -2.8547    1.1238 O   0  0  0  0  0  0  0  0  0  0  0  0
   -0.9504   -1.2629   -0.4006 N   0  0  0  0  0  0  0  0  0  0  0  0
   -1.6426   -1.0226   -1.1189 H   0  0  0  0  0  0  0  0  0  0  0  0
    0.3388   -0.5484   -0.4142 C   0  0  1  0  0  0  0  0  0  0  0  0
    1.0987   -1.2711   -0.7297 H   0  0  0  0  0  0  0  0  0  0  0  0
    0.4115    0.6587   -1.4030 C   0  0  0  0  0  0  0  0  0  0  0  0
    0.7001    1.5599   -0.8521 H   0  0  0  0  0  0  0  0  0  0  0  0
    1.2357    0.4407   -2.0903 H   0  0  0  0  0  0  0  0  0  0  0  0
   -0.8060    1.0388   -2.2863 C   0  0  0  0  0  0  0  0  0  0  0  0
   -1.5351    1.5543   -1.6537 H   0  0  0  0  0  0  0  0  0  0  0  0
   -0.4754    1.7549   -3.0441 H   0  0  0  0  0  0  0  0  0  0  0  0
   -1.5244   -0.1106   -2.9948 C   0  0  0  0  0  0  0  0  0  0  0  0
   -0.9428   -0.6652   -3.9551 O   0  5  0  0  0  0  0  0  0  0  0  0
   -2.6214   -0.4901   -2.5073 O   0  0  0  0  0  0  0  0  0  0  0  0
    0.7608   -0.0709    0.9920 C   0  0  0  0  0  0  0  0  0  0  0  0
    1.9432   -0.0352    1.3172 O   0  0  0  0  0  0  0  0  0  0  0  0
   -0.1793    0.5337    1.8054 N   0  0  0  0  0  0  0  0  0  0  0  0
   -1.1447    0.4229    1.5099 H   0  0  0  0  0  0  0  0  0  0  0  0
    0.1046    0.9991    3.1536 C   0  0  0  0  0  0  0  0  0  0  0  0
    0.9143    1.7359    3.1429 H   0  0  0  0  0  0  0  0  0  0  0  0
   -0.7845    1.4706    3.5823 H   0  0  0  0  0  0  0  0  0  0  0  0
    0.3970    0.1593    3.7922 H   0  0  0  0  0  0  0  0  0  0  0  0
  1  2  1  0  0  0  0
  2  3  1  0  0  0  0
  2  4  1  0  0  0  0
  2  5  1  0  0  0  0
  5  6  2  0  0  0  0
  5  7  1  0  0  0  0
  7  8  1  0  0  0  0
  7  9  1  0  0  0  0
  9 10  1  0  0  0  0
  9 11  1  0  0  0  0
  9 20  1  0  0  0  0
 11 12  1  0  0  0  0
 11 13  1  0  0  0  0
 11 14  1  0  0  0  0
 14 15  1  0  0  0  0
 14 16  1  0  0  0  0
 14 17  1  0  0  0  0
 17 18  1  0  0  0  0
 17 19  2  0  0  0  0
 20 21  2  0  0  0  0
 20 22  1  0  0  0  0
 22 23  1  0  0  0  0
 22 24  1  0  0  0  0
 24 25  1  0  0  0  0
 24 26  1  0  0  0  0
 24 27  1  0  0  0  0
M  CHG  1  18  -1
M  END
$$$$

  -OEChem-04042215583D

 27 26  0     1  0  0  0  0  0999 V2000
   -2.5369   -4.0797    0.7556 H   0  0  0  0  0  0  0  0  0  0  0  0
   -2.5089   -3.1599    0.1656 C   0  0  0  0  0  0  0  0  0  0  0  0
   -3.3074   -2.4946    0.5029 H   0  0  0  0  0  0  0  0  0  0  0  0
   -2.6788   -3.4068   -0.8861 H   0  0  0  0  0  0  0  0  0  0  0  0
   -1.1650   -2.4716    0.3191 C   0  0  0  0  0  0  0  0  0  0  0  0
   -0.3207   -2.9367    1.0707 O   0  0  0  0  0  0  0  0  0  0  0  0
   -0.9235   -1.3154   -0.3868 N   0  0  0  0  0  0  0  0  0  0  0  0
   -1.6848   -1.0124   -1.0036 H   0  0  0  0  0  0  0  0  0  0  0  0
    0.3426   -0.5642   -0.4133 C   0  0  1  0  0  0  0  0  0  0  0  0
    1.1189   -1.2720   -0.7229 H   0  0  0  0  0  0  0  0  0  0  0  0
    0.4051    0.6449   -1.4053 C   0  0  0  0  0  0  0  0  0  0  0  0
    0.7011    1.5447   -0.8556 H   0  0  0  0  0  0  0  0  0  0  0  0
    1.2346    0.4176   -2.0829 H   0  0  0  0  0  0  0  0  0  0  0  0
   -0.7841    1.0525   -2.3234 C   0  0  0  0  0  0  0  0  0  0  0  0
   -1.3852    1.7834   -1.7740 H   0  0  0  0  0  0  0  0  0  0  0  0
   -0.3818    1.5702   -3.1992 H   0  0  0  0  0  0  0  0  0  0  0  0
   -1.7402   -0.0356   -2.8096 C   0  0  0  0  0  0  0  0  0  0  0  0
   -1.3724   -0.7567   -3.7647 O   0  5  0  0  0  0  0  0  0  0  0  0
   -2.7953   -0.2144   -2.1464 O   0  0  0  0  0  0  0  0  0  0  0  0
    0.7496   -0.0750    0.9931 C   0  0  0  0  0  0  0  0  0  0  0  0
    1.9302   -0.0064    1.3196 O   0  0  0  0  0  0  0  0  0  0  0  0
   -0.2081    0.5001    1.8072 N   0  0  0  0  0  0  0  0  0  0  0  0
   -1.1701    0.3952    1.4968 H   0  0  0  0  0  0  0  0  0  0  0  0
    0.0639    1.0045    3.1436 C   0  0  0  0  0  0  0  0  0  0  0  0
    0.8175    1.7977    3.1075 H   0  0  0  0  0  0  0  0  0  0  0  0
   -0.8497    1.4158    3.5827 H   0  0  0  0  0  0  0  0  0  0  0  0
    0.4279    0.1981    3.7883 H   0  0  0  0  0  0  0  0  0  0  0  0
  1  2  1  0  0  0  0
  2  3  1  0  0  0  0
  2  4  1  0  0  0  0
  2  5  1  0  0  0  0
  5  6  2  0  0  0  0
  5  7  1  0  0  0  0
  7  8  1  0  0  0  0
  7  9  1  0  0  0  0
  9 10  1  0  0  0  0
  9 11  1  0  0  0  0
  9 20  1  0  0  0  0
 11 12  1  0  0  0  0
 11 13  1  0  0  0  0
 11 14  1  0  0  0  0
 14 15  1  0  0  0  0
 14 16  1  0  0  0  0
 14 17  1  0  0  0  0
 17 18  1  0  0  0  0
 17 19  2  0  0  0  0
 20 21  2  0  0  0  0
 20 22  1  0  0  0  0
 22 23  1  0  0  0  0
 22 24  1  0  0  0  0
 24 25  1  0  0  0  0
 24 26  1  0  0  0  0
 24 27  1  0  0  0  0
M  CHG  1  18  -1
M  END
$$$$

  -OEChem-04042215583D

 27 26  0     1  0  0  0  0  0999 V2000
   -2.0762   -4.1662    1.2313 H   0  0  0  0  0  0  0  0  0  0  0  0
   -2.1781   -3.3003    0.5720 C   0  0  0  0  0  0  0  0  0  0  0  0
   -2.9866   -2.6639    0.9405 H   0  0  0  0  0  0  0  0  0  0  0  0
   -2.4347   -3.6469   -0.4328 H   0  0  0  0  0  0  0  0  0  0  0  0
   -0.8819   -2.5123    0.5264 C   0  0  0  0  0  0  0  0  0  0  0  0
    0.0686   -2.8549    1.2149 O   0  0  0  0  0  0  0  0  0  0  0  0
   -0.7991   -1.4108   -0.2941 N   0  0  0  0  0  0  0  0  0  0  0  0
   -1.6589   -1.1730   -0.7996 H   0  0  0  0  0  0  0  0  0  0  0  0
    0.3628   -0.5185   -0.4310 C   0  0  1  0  0  0  0  0  0  0  0  0
    1.2163   -1.1522   -0.6935 H   0  0  0  0  0  0  0  0  0  0  0  0
    0.2677    0.6007   -1.5245 C   0  0  0  0  0  0  0  0  0  0  0  0
    0.4761    1.5692   -1.0573 H   0  0  0  0  0  0  0  0  0  0  0  0
    1.1096    0.4082   -2.1974 H   0  0  0  0  0  0  0  0  0  0  0  0
   -0.9652    0.8181   -2.4566 C   0  0  0  0  0  0  0  0  0  0  0  0
   -1.4848    1.7136   -2.1028 H   0  0  0  0  0  0  0  0  0  0  0  0
   -0.5958    1.0507   -3.4600 H   0  0  0  0  0  0  0  0  0  0  0  0
   -2.0246   -0.2732   -2.5875 C   0  0  0  0  0  0  0  0  0  0  0  0
   -1.8689   -1.1464   -3.4710 O   0  5  0  0  0  0  0  0  0  0  0  0
   -2.9291   -0.3012   -1.7121 O   0  0  0  0  0  0  0  0  0  0  0  0
    0.7188    0.1449    0.9167 C   0  0  0  0  0  0  0  0  0  0  0  0
    1.8850    0.3804    1.2161 O   0  0  0  0  0  0  0  0  0  0  0  0
   -0.2969    0.6696    1.6942 N   0  0  0  0  0  0  0  0  0  0  0  0
   -1.2445    0.4809    1.3764 H   0  0  0  0  0  0  0  0  0  0  0  0
   -0.0828    1.3761    2.9467 C   0  0  0  0  0  0  0  0  0  0  0  0
    0.5345    2.2653    2.7838 H   0  0  0  0  0  0  0  0  0  0  0  0
    0.4167    0.7248    3.6710 H   0  0  0  0  0  0  0  0  0  0  0  0
   -1.0415    1.6928    3.3676 H   0  0  0  0  0  0  0  0  0  0  0  0
  1  2  1  0  0  0  0
  2  3  1  0  0  0  0
  2  4  1  0  0  0  0
  2  5  1  0  0  0  0
  5  6  2  0  0  0  0
  5  7  1  0  0  0  0
  7  8  1  0  0  0  0
  7  9  1  0  0  0  0
  9 10  1  0  0  0  0
  9 11  1  0  0  0  0
  9 20  1  0  0  0  0
 11 12  1  0  0  0  0
 11 13  1  0  0  0  0
 11 14  1  0  0  0  0
 14 15  1  0  0  0  0
 14 16  1  0  0  0  0
 14 17  1  0  0  0  0
 17 18  1  0  0  0  0
 17 19  2  0  0  0  0
 20 21  2  0  0  0  0
 20 22  1  0  0  0  0
 22 23  1  0  0  0  0
 22 24  1  0  0  0  0
 24 25  1  0  0  0  0
 24 26  1  0  0  0  0
 24 27  1  0  0  0  0
M  CHG  1  18  -1
M  END
$$$$

  -OEChem-04042215583D

 27 26  0     1  0  0  0  0  0999 V2000
   -2.2847   -4.0133    1.3952 H   0  0  0  0  0  0  0  0  0  0  0  0
   -2.3200   -3.2016    0.6640 C   0  0  0  0  0  0  0  0  0  0  0  0
   -3.0608   -2.4648    0.9852 H   0  0  0  0  0  0  0  0  0  0  0  0
   -2.6250   -3.6073   -0.3043 H   0  0  0  0  0  0  0  0  0  0  0  0
   -0.9592   -2.5421    0.5372 C   0  0  0  0  0  0  0  0  0  0  0  0
   -0.0037   -2.9800    1.1620 O   0  0  0  0  0  0  0  0  0  0  0  0
   -0.8192   -1.4561   -0.2959 N   0  0  0  0  0  0  0  0  0  0  0  0
   -1.6931   -1.1020   -0.6984 H   0  0  0  0  0  0  0  0  0  0  0  0
    0.3841   -0.6185   -0.4173 C   0  0  1  0  0  0  0  0  0  0  0  0
    1.2171   -1.2858   -0.6602 H   0  0  0  0  0  0  0  0  0  0  0  0
    0.3568    0.5140   -1.5037 C   0  0  0  0  0  0  0  0  0  0  0  0
    0.5870    1.4651   -1.0112 H   0  0  0  0  0  0  0  0  0  0  0  0
    1.2087    0.3097   -2.1597 H   0  0  0  0  0  0  0  0  0  0  0  0
   -0.8514    0.8091   -2.4500 C   0  0  0  0  0  0  0  0  0  0  0  0
   -1.1476    1.8514   -2.2991 H   0  0  0  0  0  0  0  0  0  0  0  0
   -0.4891    0.7376   -3.4802 H   0  0  0  0  0  0  0  0  0  0  0  0
   -2.1231   -0.0291   -2.3554 C   0  0  0  0  0  0  0  0  0  0  0  0
   -2.3151   -0.9265   -3.2071 O   0  5  0  0  0  0  0  0  0  0  0  0
   -2.8389    0.1437   -1.3336 O   0  0  0  0  0  0  0  0  0  0  0  0
    0.7251    0.0344    0.9391 C   0  0  0  0  0  0  0  0  0  0  0  0
    1.8897    0.2262    1.2745 O   0  0  0  0  0  0  0  0  0  0  0  0
   -0.2972    0.6025    1.6767 N   0  0  0  0  0  0  0  0  0  0  0  0
   -1.2281    0.5387    1.2667 H   0  0  0  0  0  0  0  0  0  0  0  0
   -0.0898    1.4137    2.8651 C   0  0  0  0  0  0  0  0  0  0  0  0
    0.4605    2.3257    2.6131 H   0  0  0  0  0  0  0  0  0  0  0  0
   -1.0535    1.6963    3.2987 H   0  0  0  0  0  0  0  0  0  0  0  0
    0.4760    0.8532    3.6162 H   0  0  0  0  0  0  0  0  0  0  0  0
  1  2  1  0  0  0  0
  2  3  1  0  0  0  0
  2  4  1  0  0  0  0
  2  5  1  0  0  0  0
  5  6  2  0  0  0  0
  5  7  1  0  0  0  0
  7  8  1  0  0  0  0
  7  9  1  0  0  0  0
  9 10  1  0  0  0  0
  9 11  1  0  0  0  0
  9 20  1  0  0  0  0
 11 12  1  0  0  0  0
 11 13  1  0  0  0  0
 11 14  1  0  0  0  0
 14 15  1  0  0  0  0
 14 16  1  0  0  0  0
 14 17  1  0  0  0  0
 17 18  1  0  0  0  0
 17 19  2  0  0  0  0
 20 21  2  0  0  0  0
 20 22  1  0  0  0  0
 22 23  1  0  0  0  0
 22 24  1  0  0  0  0
 24 25  1  0  0  0  0
 24 26  1  0  0  0  0
 24 27  1  0  0  0  0
M  CHG  1  18  -1
M  END
$$$$

  -OEChem-04042215583D

 27 26  0     1  0  0  0  0  0999 V2000
   -2.0209   -4.2948    0.5574 H   0  0  0  0  0  0  0  0  0  0  0  0
   -2.1728   -3.3014    0.1274 C   0  0  0  0  0  0  0  0  0  0  0  0
   -2.7736   -2.7032    0.8174 H   0  0  0  0  0  0  0  0  0  0  0  0
   -2.7155   -3.4006   -0.8162 H   0  0  0  0  0  0  0  0  0  0  0  0
   -0.8386   -2.6201   -0.1161 C   0  0  0  0  0  0  0  0  0  0  0  0
    0.2050   -3.2070    0.1335 O   0  0  0  0  0  0  0  0  0  0  0  0
   -0.8241   -1.3451   -0.6344 N   0  0  0  0  0  0  0  0  0  0  0  0
   -1.7450   -0.8979   -0.6759 H   0  0  0  0  0  0  0  0  0  0  0  0
    0.3528   -0.4591   -0.6507 C   0  0  1  0  0  0  0  0  0  0  0  0
    1.1644   -0.9811   -1.1671 H   0  0  0  0  0  0  0  0  0  0  0  0
    0.1756    0.9553   -1.3135 C   0  0  0  0  0  0  0  0  0  0  0  0
    0.4554    1.7134   -0.5735 H   0  0  0  0  0  0  0  0  0  0  0  0
    0.9312    1.0221   -2.1025 H   0  0  0  0  0  0  0  0  0  0  0  0
   -1.1613    1.4657   -1.9358 C   0  0  0  0  0  0  0  0  0  0  0  0
   -1.2954    2.5136   -1.6525 H   0  0  0  0  0  0  0  0  0  0  0  0
   -1.0464    1.4441   -3.0240 H   0  0  0  0  0  0  0  0  0  0  0  0
   -2.4530    0.7248   -1.6028 C   0  0  0  0  0  0  0  0  0  0  0  0
   -2.7488    0.6402   -0.3802 O   0  5  0  0  0  0  0  0  0  0  0  0
   -3.0604    0.1231   -2.5172 O   0  0  0  0  0  0  0  0  0  0  0  0
    0.8119   -0.2107    0.8020 C   0  0  0  0  0  0  0  0  0  0  0  0
    2.0010   -0.0974    1.0842 O   0  0  0  0  0  0  0  0  0  0  0  0
   -0.1544    0.0820    1.7481 N   0  0  0  0  0  0  0  0  0  0  0  0
   -1.1029    0.1937    1.3794 H   0  0  0  0  0  0  0  0  0  0  0  0
    0.1479    0.5754    3.0813 C   0  0  0  0  0  0  0  0  0  0  0  0
    0.6052    1.5683    3.0259 H   0  0  0  0  0  0  0  0  0  0  0  0
   -0.7710    0.6456    3.6709 H   0  0  0  0  0  0  0  0  0  0  0  0
    0.8357   -0.1045    3.5946 H   0  0  0  0  0  0  0  0  0  0  0  0
  1  2  1  0  0  0  0
  2  3  1  0  0  0  0
  2  4  1  0  0  0  0
  2  5  1  0  0  0  0
  5  6  2  0  0  0  0
  5  7  1  0  0  0  0
  7  8  1  0  0  0  0
  7  9  1  0  0  0  0
  9 10  1  0  0  0  0
  9 11  1  0  0  0  0
  9 20  1  0  0  0  0
 11 12  1  0  0  0  0
 11 13  1  0  0  0  0
 11 14  1  0  0  0  0
 14 15  1  0  0  0  0
 14 16  1  0  0  0  0
 14 17  1  0  0  0  0
 17 18  1  0  0  0  0
 17 19  2  0  0  0  0
 20 21  2  0  0  0  0
 20 22  1  0  0  0  0
 22 23  1  0  0  0  0
 22 24  1  0  0  0  0
 24 25  1  0  0  0  0
 24 26  1  0  0  0  0
 24 27  1  0  0  0  0
M  CHG  1  18  -1
M  END
$$$$

  -OEChem-04042215583D

 27 26  0     1  0  0  0  0  0999 V2000
   -2.4493   -4.0673    0.7843 H   0  0  0  0  0  0  0  0  0  0  0  0
   -2.4437   -3.1551    0.1820 C   0  0  0  0  0  0  0  0  0  0  0  0
   -3.1171   -2.4243    0.6382 H   0  0  0  0  0  0  0  0  0  0  0  0
   -2.8052   -3.3871   -0.8229 H   0  0  0  0  0  0  0  0  0  0  0  0
   -1.0418   -2.5792    0.1042 C   0  0  0  0  0  0  0  0  0  0  0  0
   -0.0986   -3.1930    0.5834 O   0  0  0  0  0  0  0  0  0  0  0  0
   -0.8488   -1.3840   -0.5496 N   0  0  0  0  0  0  0  0  0  0  0  0
   -1.6977   -0.9562   -0.9308 H   0  0  0  0  0  0  0  0  0  0  0  0
    0.4042   -0.6028   -0.5561 C   0  0  1  0  0  0  0  0  0  0  0  0
    1.2109   -1.2328   -0.9425 H   0  0  0  0  0  0  0  0  0  0  0  0
    0.3873    0.7559   -1.3488 C   0  0  0  0  0  0  0  0  0  0  0  0
    0.6785    1.5632   -0.6672 H   0  0  0  0  0  0  0  0  0  0  0  0
    1.1841    0.6971   -2.0965 H   0  0  0  0  0  0  0  0  0  0  0  0
   -0.8824    1.2721   -2.0823 C   0  0  0  0  0  0  0  0  0  0  0  0
   -0.8415    2.3631   -2.1452 H   0  0  0  0  0  0  0  0  0  0  0  0
   -0.8625    0.8874   -3.1066 H   0  0  0  0  0  0  0  0  0  0  0  0
   -2.2133    0.8642   -1.4561 C   0  0  0  0  0  0  0  0  0  0  0  0
   -2.3865    1.1861   -0.2530 O   0  5  0  0  0  0  0  0  0  0  0  0
   -2.9150    0.0210   -2.0638 O   0  0  0  0  0  0  0  0  0  0  0  0
    0.7518   -0.2177    0.8997 C   0  0  0  0  0  0  0  0  0  0  0  0
    1.9170   -0.1981    1.2876 O   0  0  0  0  0  0  0  0  0  0  0  0
   -0.2607    0.2661    1.7099 N   0  0  0  0  0  0  0  0  0  0  0  0
   -1.1364    0.4856    1.2158 H   0  0  0  0  0  0  0  0  0  0  0  0
   -0.0224    0.8822    3.0035 C   0  0  0  0  0  0  0  0  0  0  0  0
    0.5624    1.7999    2.8871 H   0  0  0  0  0  0  0  0  0  0  0  0
   -0.9755    1.1327    3.4783 H   0  0  0  0  0  0  0  0  0  0  0  0
    0.5199    0.1949    3.6604 H   0  0  0  0  0  0  0  0  0  0  0  0
  1  2  1  0  0  0  0
  2  3  1  0  0  0  0
  2  4  1  0  0  0  0
  2  5  1  0  0  0  0
  5  6  2  0  0  0  0
  5  7  1  0  0  0  0
  7  8  1  0  0  0  0
  7  9  1  0  0  0  0
  9 10  1  0  0  0  0
  9 11  1  0  0  0  0
  9 20  1  0  0  0  0
 11 12  1  0  0  0  0
 11 13  1  0  0  0  0
 11 14  1  0  0  0  0
 14 15  1  0  0  0  0
 14 16  1  0  0  0  0
 14 17  1  0  0  0  0
 17 18  1  0  0  0  0
 17 19  2  0  0  0  0
 20 21  2  0  0  0  0
 20 22  1  0  0  0  0
 22 23  1  0  0  0  0
 22 24  1  0  0  0  0
 24 25  1  0  0  0  0
 24 26  1  0  0  0  0
 24 27  1  0  0  0  0
M  CHG  1  18  -1
M  END
$$$$

  -OEChem-04042215583D

 27 26  0     1  0  0  0  0  0999 V2000
   -2.5690   -3.9904    0.6964 H   0  0  0  0  0  0  0  0  0  0  0  0
   -2.5319   -3.0659    0.1146 C   0  0  0  0  0  0  0  0  0  0  0  0
   -3.1849   -2.3249    0.5834 H   0  0  0  0  0  0  0  0  0  0  0  0
   -2.8949   -3.2649   -0.8969 H   0  0  0  0  0  0  0  0  0  0  0  0
   -1.1121   -2.5331    0.0561 C   0  0  0  0  0  0  0  0  0  0  0  0
   -0.1919   -3.1850    0.5291 O   0  0  0  0  0  0  0  0  0  0  0  0
   -0.8751   -1.3364   -0.5800 N   0  0  0  0  0  0  0  0  0  0  0  0
   -1.7116   -0.8606   -0.9322 H   0  0  0  0  0  0  0  0  0  0  0  0
    0.3991   -0.5909   -0.5357 C   0  0  1  0  0  0  0  0  0  0  0  0
    1.1967   -1.2391   -0.9106 H   0  0  0  0  0  0  0  0  0  0  0  0
    0.4080    0.7496   -1.3471 C   0  0  0  0  0  0  0  0  0  0  0  0
    0.6746    1.5747   -0.6766 H   0  0  0  0  0  0  0  0  0  0  0  0
    1.2166    0.6814   -2.0812 H   0  0  0  0  0  0  0  0  0  0  0  0
   -0.8673    1.1986   -2.1046 C   0  0  0  0  0  0  0  0  0  0  0  0
   -0.7535    2.2409   -2.4145 H   0  0  0  0  0  0  0  0  0  0  0  0
   -0.9652    0.5942   -3.0116 H   0  0  0  0  0  0  0  0  0  0  0  0
   -2.1526    1.0646   -1.2841 C   0  0  0  0  0  0  0  0  0  0  0  0
   -2.1538    1.5584   -0.1290 O   0  5  0  0  0  0  0  0  0  0  0  0
   -3.0131    0.2523   -1.7019 O   0  0  0  0  0  0  0  0  0  0  0  0
    0.7481   -0.2120    0.9213 C   0  0  0  0  0  0  0  0  0  0  0  0
    1.9090   -0.2626    1.3194 O   0  0  0  0  0  0  0  0  0  0  0  0
   -0.2433    0.3071    1.7349 N   0  0  0  0  0  0  0  0  0  0  0  0
   -1.0849    0.6213    1.2315 H   0  0  0  0  0  0  0  0  0  0  0  0
    0.0293    0.8957    3.0347 C   0  0  0  0  0  0  0  0  0  0  0  0
    0.6627    1.7818    2.9273 H   0  0  0  0  0  0  0  0  0  0  0  0
   -0.9088    1.1926    3.5129 H   0  0  0  0  0  0  0  0  0  0  0  0
    0.5343    0.1734    3.6841 H   0  0  0  0  0  0  0  0  0  0  0  0
  1  2  1  0  0  0  0
  2  3  1  0  0  0  0
  2  4  1  0  0  0  0
  2  5  1  0  0  0  0
  5  6  2  0  0  0  0
  5  7  1  0  0  0  0
  7  8  1  0  0  0  0
  7  9  1  0  0  0  0
  9 10  1  0  0  0  0
  9 11  1  0  0  0  0
  9 20  1  0  0  0  0
 11 12  1  0  0  0  0
 11 13  1  0  0  0  0
 11 14  1  0  0  0  0
 14 15  1  0  0  0  0
 14 16  1  0  0  0  0
 14 17  1  0  0  0  0
 17 18  1  0  0  0  0
 17 19  2  0  0  0  0
 20 21  2  0  0  0  0
 20 22  1  0  0  0  0
 22 23  1  0  0  0  0
 22 24  1  0  0  0  0
 24 25  1  0  0  0  0
 24 26  1  0  0  0  0
 24 27  1  0  0  0  0
M  CHG  1  18  -1
M  END
$$$$

  -OEChem-04042215583D

 27 26  0     1  0  0  0  0  0999 V2000
   -2.4877   -3.8942    0.8118 H   0  0  0  0  0  0  0  0  0  0  0  0
   -2.4876   -2.9634    0.2385 C   0  0  0  0  0  0  0  0  0  0  0  0
   -3.0164   -2.1958    0.8102 H   0  0  0  0  0  0  0  0  0  0  0  0
   -3.0132   -3.1259   -0.7056 H   0  0  0  0  0  0  0  0  0  0  0  0
   -1.0647   -2.5116   -0.0342 C   0  0  0  0  0  0  0  0  0  0  0  0
   -0.1247   -3.2362    0.2592 O   0  0  0  0  0  0  0  0  0  0  0  0
   -0.8535   -1.2913   -0.6352 N   0  0  0  0  0  0  0  0  0  0  0  0
   -1.6855   -0.6943   -0.6471 H   0  0  0  0  0  0  0  0  0  0  0  0
    0.4138   -0.5525   -0.5144 C   0  0  1  0  0  0  0  0  0  0  0  0
    1.2207   -1.1966   -0.8776 H   0  0  0  0  0  0  0  0  0  0  0  0
    0.4179    0.7581   -1.3582 C   0  0  0  0  0  0  0  0  0  0  0  0
    0.6220    1.6095   -0.6996 H   0  0  0  0  0  0  0  0  0  0  0  0
    1.2583    0.6959   -2.0562 H   0  0  0  0  0  0  0  0  0  0  0  0
   -0.8498    1.1114   -2.1821 C   0  0  0  0  0  0  0  0  0  0  0  0
   -0.6485    2.0381   -2.7269 H   0  0  0  0  0  0  0  0  0  0  0  0
   -1.0077    0.3217   -2.9227 H   0  0  0  0  0  0  0  0  0  0  0  0
   -2.1648    1.3040   -1.4087 C   0  0  0  0  0  0  0  0  0  0  0  0
   -2.1845    1.0954   -0.1658 O   0  5  0  0  0  0  0  0  0  0  0  0
   -3.1800    1.5693   -2.0907 O   0  0  0  0  0  0  0  0  0  0  0  0
    0.7457   -0.2088    0.9541 C   0  0  0  0  0  0  0  0  0  0  0  0
    1.9001   -0.2707    1.3667 O   0  0  0  0  0  0  0  0  0  0  0  0
   -0.2508    0.2934    1.7691 N   0  0  0  0  0  0  0  0  0  0  0  0
   -1.1050    0.5783    1.2685 H   0  0  0  0  0  0  0  0  0  0  0  0
    0.0017    0.8591    3.0834 C   0  0  0  0  0  0  0  0  0  0  0  0
    0.6332    1.7492    3.0010 H   0  0  0  0  0  0  0  0  0  0  0  0
   -0.9437    1.1438    3.5545 H   0  0  0  0  0  0  0  0  0  0  0  0
    0.5007    0.1269    3.7260 H   0  0  0  0  0  0  0  0  0  0  0  0
  1  2  1  0  0  0  0
  2  3  1  0  0  0  0
  2  4  1  0  0  0  0
  2  5  1  0  0  0  0
  5  6  2  0  0  0  0
  5  7  1  0  0  0  0
  7  8  1  0  0  0  0
  7  9  1  0  0  0  0
  9 10  1  0  0  0  0
  9 11  1  0  0  0  0
  9 20  1  0  0  0  0
 11 12  1  0  0  0  0
 11 13  1  0  0  0  0
 11 14  1  0  0  0  0
 14 15  1  0  0  0  0
 14 16  1  0  0  0  0
 14 17  1  0  0  0  0
 17 18  1  0  0  0  0
 17 19  2  0  0  0  0
 20 21  2  0  0  0  0
 20 22  1  0  0  0  0
 22 23  1  0  0  0  0
 22 24  1  0  0  0  0
 24 25  1  0  0  0  0
 24 26  1  0  0  0  0
 24 27  1  0  0  0  0
M  CHG  1  18  -1
M  END
$$$$

  -OEChem-04042215583D

 27 26  0     1  0  0  0  0  0999 V2000
   -2.4774   -3.8575    0.8708 H   0  0  0  0  0  0  0  0  0  0  0  0
   -2.4717   -2.9503    0.2609 C   0  0  0  0  0  0  0  0  0  0  0  0
   -3.0013   -2.1594    0.7990 H   0  0  0  0  0  0  0  0  0  0  0  0
   -2.9923   -3.1488   -0.6790 H   0  0  0  0  0  0  0  0  0  0  0  0
   -1.0460   -2.5122   -0.0203 C   0  0  0  0  0  0  0  0  0  0  0  0
   -0.1097   -3.2335    0.2926 O   0  0  0  0  0  0  0  0  0  0  0  0
   -0.8271   -1.3087   -0.6516 N   0  0  0  0  0  0  0  0  0  0  0  0
   -1.6588   -0.7095   -0.6941 H   0  0  0  0  0  0  0  0  0  0  0  0
    0.4397   -0.5679   -0.5442 C   0  0  1  0  0  0  0  0  0  0  0  0
    1.2562   -1.2073   -0.8941 H   0  0  0  0  0  0  0  0  0  0  0  0
    0.4265    0.7445   -1.3841 C   0  0  0  0  0  0  0  0  0  0  0  0
    0.6589    1.6037   -0.7451 H   0  0  0  0  0  0  0  0  0  0  0  0
    1.2430    0.6669   -2.1084 H   0  0  0  0  0  0  0  0  0  0  0  0
   -0.8626    1.0759   -2.1773 C   0  0  0  0  0  0  0  0  0  0  0  0
   -0.6176    1.8547   -2.9059 H   0  0  0  0  0  0  0  0  0  0  0  0
   -1.1928    0.2006   -2.7435 H   0  0  0  0  0  0  0  0  0  0  0  0
   -2.0217    1.5871   -1.3053 C   0  0  0  0  0  0  0  0  0  0  0  0
   -2.3200    0.9414   -0.2635 O   0  5  0  0  0  0  0  0  0  0  0  0
   -2.6319    2.6065   -1.7007 O   0  0  0  0  0  0  0  0  0  0  0  0
    0.7392   -0.1982    0.9240 C   0  0  0  0  0  0  0  0  0  0  0  0
    1.8851   -0.2377    1.3616 O   0  0  0  0  0  0  0  0  0  0  0  0
   -0.2819    0.3162    1.7015 N   0  0  0  0  0  0  0  0  0  0  0  0
   -1.1448    0.5460    1.1885 H   0  0  0  0  0  0  0  0  0  0  0  0
   -0.0714    0.9138    3.0088 C   0  0  0  0  0  0  0  0  0  0  0  0
    0.5633    1.8016    2.9252 H   0  0  0  0  0  0  0  0  0  0  0  0
   -1.0314    1.2104    3.4417 H   0  0  0  0  0  0  0  0  0  0  0  0
    0.4059    0.1971    3.6846 H   0  0  0  0  0  0  0  0  0  0  0  0
  1  2  1  0  0  0  0
  2  3  1  0  0  0  0
  2  4  1  0  0  0  0
  2  5  1  0  0  0  0
  5  6  2  0  0  0  0
  5  7  1  0  0  0  0
  7  8  1  0  0  0  0
  7  9  1  0  0  0  0
  9 10  1  0  0  0  0
  9 11  1  0  0  0  0
  9 20  1  0  0  0  0
 11 12  1  0  0  0  0
 11 13  1  0  0  0  0
 11 14  1  0  0  0  0
 14 15  1  0  0  0  0
 14 16  1  0  0  0  0
 14 17  1  0  0  0  0
 17 18  1  0  0  0  0
 17 19  2  0  0  0  0
 20 21  2  0  0  0  0
 20 22  1  0  0  0  0
 22 23  1  0  0  0  0
 22 24  1  0  0  0  0
 24 25  1  0  0  0  0
 24 26  1  0  0  0  0
 24 27  1  0  0  0  0
M  CHG  1  18  -1
M  END
$$$$

  -OEChem-04042215583D

 27 26  0     1  0  0  0  0  0999 V2000
   -2.4950   -3.8352    0.8450 H   0  0  0  0  0  0  0  0  0  0  0  0
   -2.4788   -2.9292    0.2334 C   0  0  0  0  0  0  0  0  0  0  0  0
   -3.0130   -2.1360    0.7635 H   0  0  0  0  0  0  0  0  0  0  0  0
   -2.9874   -3.1284   -0.7128 H   0  0  0  0  0  0  0  0  0  0  0  0
   -1.0480   -2.4970   -0.0304 C   0  0  0  0  0  0  0  0  0  0  0  0
   -0.1187   -3.2179    0.3022 O   0  0  0  0  0  0  0  0  0  0  0  0
   -0.8160   -1.3023   -0.6742 N   0  0  0  0  0  0  0  0  0  0  0  0
   -1.6423   -0.6992   -0.7469 H   0  0  0  0  0  0  0  0  0  0  0  0
    0.4519   -0.5626   -0.5566 C   0  0  1  0  0  0  0  0  0  0  0  0
    1.2761   -1.1971   -0.8972 H   0  0  0  0  0  0  0  0  0  0  0  0
    0.4223    0.7466   -1.3978 C   0  0  0  0  0  0  0  0  0  0  0  0
    0.6572    1.6190   -0.7764 H   0  0  0  0  0  0  0  0  0  0  0  0
    1.2284    0.6683   -2.1336 H   0  0  0  0  0  0  0  0  0  0  0  0
   -0.8893    1.0141   -2.1762 C   0  0  0  0  0  0  0  0  0  0  0  0
   -0.6445    1.6346   -3.0434 H   0  0  0  0  0  0  0  0  0  0  0  0
   -1.3553    0.1098   -2.5746 H   0  0  0  0  0  0  0  0  0  0  0  0
   -1.8579    1.8041   -1.3010 C   0  0  0  0  0  0  0  0  0  0  0  0
   -2.2951    1.1796   -0.2943 O   0  5  0  0  0  0  0  0  0  0  0  0
   -2.1650    2.9785   -1.6087 O   0  0  0  0  0  0  0  0  0  0  0  0
    0.7316   -0.1731    0.9103 C   0  0  0  0  0  0  0  0  0  0  0  0
    1.8667   -0.2393    1.3716 O   0  0  0  0  0  0  0  0  0  0  0  0
   -0.2973    0.3562    1.6687 N   0  0  0  0  0  0  0  0  0  0  0  0
   -1.1343    0.6299    1.1344 H   0  0  0  0  0  0  0  0  0  0  0  0
   -0.0906    0.9599    2.9739 C   0  0  0  0  0  0  0  0  0  0  0  0
    0.5598    1.8362    2.8903 H   0  0  0  0  0  0  0  0  0  0  0  0
   -1.0497    1.2762    3.3945 H   0  0  0  0  0  0  0  0  0  0  0  0
    0.3674    0.2409    3.6604 H   0  0  0  0  0  0  0  0  0  0  0  0
  1  2  1  0  0  0  0
  2  3  1  0  0  0  0
  2  4  1  0  0  0  0
  2  5  1  0  0  0  0
  5  6  2  0  0  0  0
  5  7  1  0  0  0  0
  7  8  1  0  0  0  0
  7  9  1  0  0  0  0
  9 10  1  0  0  0  0
  9 11  1  0  0  0  0
  9 20  1  0  0  0  0
 11 12  1  0  0  0  0
 11 13  1  0  0  0  0
 11 14  1  0  0  0  0
 14 15  1  0  0  0  0
 14 16  1  0  0  0  0
 14 17  1  0  0  0  0
 17 18  1  0  0  0  0
 17 19  2  0  0  0  0
 20 21  2  0  0  0  0
 20 22  1  0  0  0  0
 22 23  1  0  0  0  0
 22 24  1  0  0  0  0
 24 25  1  0  0  0  0
 24 26  1  0  0  0  0
 24 27  1  0  0  0  0
M  CHG  1  18  -1
M  END
$$$$

  -OEChem-04042215583D

 27 26  0     1  0  0  0  0  0999 V2000
   -2.4994   -3.8699    0.8314 H   0  0  0  0  0  0  0  0  0  0  0  0
   -2.4802   -2.9609    0.2240 C   0  0  0  0  0  0  0  0  0  0  0  0
   -3.0382   -2.1778    0.7444 H   0  0  0  0  0  0  0  0  0  0  0  0
   -2.9625   -3.1642   -0.7353 H   0  0  0  0  0  0  0  0  0  0  0  0
   -1.0487   -2.5089   -0.0018 C   0  0  0  0  0  0  0  0  0  0  0  0
   -0.1210   -3.2096    0.3726 O   0  0  0  0  0  0  0  0  0  0  0  0
   -0.8147   -1.3264   -0.6688 N   0  0  0  0  0  0  0  0  0  0  0  0
   -1.6420   -0.7476   -0.8155 H   0  0  0  0  0  0  0  0  0  0  0  0
    0.4496   -0.5786   -0.5648 C   0  0  1  0  0  0  0  0  0  0  0  0
    1.2808   -1.2066   -0.9007 H   0  0  0  0  0  0  0  0  0  0  0  0
    0.4038    0.7318   -1.4010 C   0  0  0  0  0  0  0  0  0  0  0  0
    0.6682    1.6026   -0.7886 H   0  0  0  0  0  0  0  0  0  0  0  0
    1.1977    0.6449   -2.1494 H   0  0  0  0  0  0  0  0  0  0  0  0
   -0.9121    1.0160   -2.1738 C   0  0  0  0  0  0  0  0  0  0  0  0
   -0.6406    1.4167   -3.1552 H   0  0  0  0  0  0  0  0  0  0  0  0
   -1.5384    0.1466   -2.3753 H   0  0  0  0  0  0  0  0  0  0  0  0
   -1.6924    2.0959   -1.4366 C   0  0  0  0  0  0  0  0  0  0  0  0
   -2.0991    1.7481   -0.2934 O   0  5  0  0  0  0  0  0  0  0  0  0
   -1.9064    3.2061   -1.9759 O   0  0  0  0  0  0  0  0  0  0  0  0
    0.7264   -0.1547    0.8942 C   0  0  0  0  0  0  0  0  0  0  0  0
    1.8501   -0.2638    1.3748 O   0  0  0  0  0  0  0  0  0  0  0  0
   -0.3036    0.3899    1.6423 N   0  0  0  0  0  0  0  0  0  0  0  0
   -1.0826    0.7665    1.0833 H   0  0  0  0  0  0  0  0  0  0  0  0
   -0.0872    0.9698    2.9575 C   0  0  0  0  0  0  0  0  0  0  0  0
    0.5889    1.8282    2.8903 H   0  0  0  0  0  0  0  0  0  0  0  0
   -1.0394    1.3081    3.3769 H   0  0  0  0  0  0  0  0  0  0  0  0
    0.3455    0.2286    3.6370 H   0  0  0  0  0  0  0  0  0  0  0  0
  1  2  1  0  0  0  0
  2  3  1  0  0  0  0
  2  4  1  0  0  0  0
  2  5  1  0  0  0  0
  5  6  2  0  0  0  0
  5  7  1  0  0  0  0
  7  8  1  0  0  0  0
  7  9  1  0  0  0  0
  9 10  1  0  0  0  0
  9 11  1  0  0  0  0
  9 20  1  0  0  0  0
 11 12  1  0  0  0  0
 11 13  1  0  0  0  0
 11 14  1  0  0  0  0
 14 15  1  0  0  0  0
 14 16  1  0  0  0  0
 14 17  1  0  0  0  0
 17 18  1  0  0  0  0
 17 19  2  0  0  0  0
 20 21  2  0  0  0  0
 20 22  1  0  0  0  0
 22 23  1  0  0  0  0
 22 24  1  0  0  0  0
 24 25  1  0  0  0  0
 24 26  1  0  0  0  0
 24 27  1  0  0  0  0
M  CHG  1  18  -1
M  END
$$$$

  -OEChem-04042215583D

 27 26  0     1  0  0  0  0  0999 V2000
   -2.5038   -3.9251    0.8118 H   0  0  0  0  0  0  0  0  0  0  0  0
   -2.4874   -3.0070    0.2178 C   0  0  0  0  0  0  0  0  0  0  0  0
   -3.0741   -2.2431    0.7345 H   0  0  0  0  0  0  0  0  0  0  0  0
   -2.9411   -3.2069   -0.7561 H   0  0  0  0  0  0  0  0  0  0  0  0
   -1.0599   -2.5235    0.0346 C   0  0  0  0  0  0  0  0  0  0  0  0
   -0.1314   -3.1939    0.4570 O   0  0  0  0  0  0  0  0  0  0  0  0
   -0.8300   -1.3486   -0.6486 N   0  0  0  0  0  0  0  0  0  0  0  0
   -1.6597   -0.8019   -0.8655 H   0  0  0  0  0  0  0  0  0  0  0  0
    0.4327   -0.5946   -0.5671 C   0  0  1  0  0  0  0  0  0  0  0  0
    1.2624   -1.2229   -0.9063 H   0  0  0  0  0  0  0  0  0  0  0  0
    0.3788    0.7144   -1.4071 C   0  0  0  0  0  0  0  0  0  0  0  0
    0.6567    1.5785   -0.7908 H   0  0  0  0  0  0  0  0  0  0  0  0
    1.1708    0.6323   -2.1581 H   0  0  0  0  0  0  0  0  0  0  0  0
   -0.9365    1.0276   -2.1777 C   0  0  0  0  0  0  0  0  0  0  0  0
   -0.6936    1.1367   -3.2390 H   0  0  0  0  0  0  0  0  0  0  0  0
   -1.7132    0.2671   -2.1235 H   0  0  0  0  0  0  0  0  0  0  0  0
   -1.5066    2.3471   -1.6742 C   0  0  0  0  0  0  0  0  0  0  0  0
   -1.9154    2.3167   -0.4818 O   0  5  0  0  0  0  0  0  0  0  0  0
   -1.5686    3.3386   -2.4383 O   0  0  0  0  0  0  0  0  0  0  0  0
    0.7287   -0.1456    0.8812 C   0  0  0  0  0  0  0  0  0  0  0  0
    1.8511   -0.2751    1.3589 O   0  0  0  0  0  0  0  0  0  0  0  0
   -0.2927    0.4099    1.6339 N   0  0  0  0  0  0  0  0  0  0  0  0
   -1.0432    0.8284    1.0744 H   0  0  0  0  0  0  0  0  0  0  0  0
   -0.0535    0.9857    2.9475 C   0  0  0  0  0  0  0  0  0  0  0  0
    0.6326    1.8355    2.8728 H   0  0  0  0  0  0  0  0  0  0  0  0
   -0.9960    1.3354    3.3788 H   0  0  0  0  0  0  0  0  0  0  0  0
    0.3782    0.2386    3.6213 H   0  0  0  0  0  0  0  0  0  0  0  0
  1  2  1  0  0  0  0
  2  3  1  0  0  0  0
  2  4  1  0  0  0  0
  2  5  1  0  0  0  0
  5  6  2  0  0  0  0
  5  7  1  0  0  0  0
  7  8  1  0  0  0  0
  7  9  1  0  0  0  0
  9 10  1  0  0  0  0
  9 11  1  0  0  0  0
  9 20  1  0  0  0  0
 11 12  1  0  0  0  0
 11 13  1  0  0  0  0
 11 14  1  0  0  0  0
 14 15  1  0  0  0  0
 14 16  1  0  0  0  0
 14 17  1  0  0  0  0
 17 18  1  0  0  0  0
 17 19  2  0  0  0  0
 20 21  2  0  0  0  0
 20 22  1  0  0  0  0
 22 23  1  0  0  0  0
 22 24  1  0  0  0  0
 24 25  1  0  0  0  0
 24 26  1  0  0  0  0
 24 27  1  0  0  0  0
M  CHG  1  18  -1
M  END
$$$$

  -OEChem-04042215583D

 27 26  0     1  0  0  0  0  0999 V2000
   -2.5403   -4.0026    0.6989 H   0  0  0  0  0  0  0  0  0  0  0  0
   -2.5254   -3.0693    0.1291 C   0  0  0  0  0  0  0  0  0  0  0  0
   -3.1925   -2.3511    0.6124 H   0  0  0  0  0  0  0  0  0  0  0  0
   -2.8874   -3.2674   -0.8828 H   0  0  0  0  0  0  0  0  0  0  0  0
   -1.1152   -2.5099    0.0735 C   0  0  0  0  0  0  0  0  0  0  0  0
   -0.1947   -3.1342    0.5750 O   0  0  0  0  0  0  0  0  0  0  0  0
   -0.8880   -1.3173   -0.5798 N   0  0  0  0  0  0  0  0  0  0  0  0
   -1.7074   -0.8248   -0.9226 H   0  0  0  0  0  0  0  0  0  0  0  0
    0.3766   -0.5624   -0.5225 C   0  0  1  0  0  0  0  0  0  0  0  0
    1.1831   -1.2113   -0.8793 H   0  0  0  0  0  0  0  0  0  0  0  0
    0.3423    0.7171   -1.4106 C   0  0  0  0  0  0  0  0  0  0  0  0
    0.5729    1.5860   -0.7828 H   0  0  0  0  0  0  0  0  0  0  0  0
    1.1629    0.6481   -2.1319 H   0  0  0  0  0  0  0  0  0  0  0  0
   -0.9580    1.0239   -2.2079 C   0  0  0  0  0  0  0  0  0  0  0  0
   -0.8034    0.7700   -3.2610 H   0  0  0  0  0  0  0  0  0  0  0  0
   -1.8281    0.4641   -1.8692 H   0  0  0  0  0  0  0  0  0  0  0  0
   -1.3332    2.4966   -2.0752 C   0  0  0  0  0  0  0  0  0  0  0  0
   -1.8505    2.8330   -0.9793 O   0  5  0  0  0  0  0  0  0  0  0  0
   -1.1301    3.2650   -3.0451 O   0  0  0  0  0  0  0  0  0  0  0  0
    0.7454   -0.1356    0.9160 C   0  0  0  0  0  0  0  0  0  0  0  0
    1.8996   -0.2316    1.3182 O   0  0  0  0  0  0  0  0  0  0  0  0
   -0.2285    0.4076    1.7355 N   0  0  0  0  0  0  0  0  0  0  0  0
   -1.0599    0.7378    1.2486 H   0  0  0  0  0  0  0  0  0  0  0  0
    0.0820    1.0043    3.0254 C   0  0  0  0  0  0  0  0  0  0  0  0
    0.7328    1.8753    2.8972 H   0  0  0  0  0  0  0  0  0  0  0  0
   -0.8390    1.3271    3.5197 H   0  0  0  0  0  0  0  0  0  0  0  0
    0.5838    0.2785    3.6733 H   0  0  0  0  0  0  0  0  0  0  0  0
  1  2  1  0  0  0  0
  2  3  1  0  0  0  0
  2  4  1  0  0  0  0
  2  5  1  0  0  0  0
  5  6  2  0  0  0  0
  5  7  1  0  0  0  0
  7  8  1  0  0  0  0
  7  9  1  0  0  0  0
  9 10  1  0  0  0  0
  9 11  1  0  0  0  0
  9 20  1  0  0  0  0
 11 12  1  0  0  0  0
 11 13  1  0  0  0  0
 11 14  1  0  0  0  0
 14 15  1  0  0  0  0
 14 16  1  0  0  0  0
 14 17  1  0  0  0  0
 17 18  1  0  0  0  0
 17 19  2  0  0  0  0
 20 21  2  0  0  0  0
 20 22  1  0  0  0  0
 22 23  1  0  0  0  0
 22 24  1  0  0  0  0
 24 25  1  0  0  0  0
 24 26  1  0  0  0  0
 24 27  1  0  0  0  0
M  CHG  1  18  -1
M  END
$$$$

  -OEChem-04042215583D

 27 26  0     1  0  0  0  0  0999 V2000
   -2.5783   -4.0502    0.4754 H   0  0  0  0  0  0  0  0  0  0  0  0
   -2.5258   -3.1078   -0.0771 C   0  0  0  0  0  0  0  0  0  0  0  0
   -3.2872   -2.4280    0.3135 H   0  0  0  0  0  0  0  0  0  0  0  0
   -2.7321   -3.3058   -1.1319 H   0  0  0  0  0  0  0  0  0  0  0  0
   -1.1489   -2.4855    0.0741 C   0  0  0  0  0  0  0  0  0  0  0  0
   -0.2914   -3.0620    0.7220 O   0  0  0  0  0  0  0  0  0  0  0  0
   -0.8772   -1.2882   -0.5531 N   0  0  0  0  0  0  0  0  0  0  0  0
   -1.6227   -0.8737   -1.1051 H   0  0  0  0  0  0  0  0  0  0  0  0
    0.3866   -0.5363   -0.4428 C   0  0  1  0  0  0  0  0  0  0  0  0
    1.2016   -1.1894   -0.7711 H   0  0  0  0  0  0  0  0  0  0  0  0
    0.3852    0.7294   -1.3496 C   0  0  0  0  0  0  0  0  0  0  0  0
    0.5570    1.6088   -0.7175 H   0  0  0  0  0  0  0  0  0  0  0  0
    1.2391    0.6736   -2.0325 H   0  0  0  0  0  0  0  0  0  0  0  0
   -0.8906    0.9936   -2.1918 C   0  0  0  0  0  0  0  0  0  0  0  0
   -0.8232    0.4613   -3.1452 H   0  0  0  0  0  0  0  0  0  0  0  0
   -1.7958    0.6566   -1.6837 H   0  0  0  0  0  0  0  0  0  0  0  0
   -1.0969    2.4887   -2.4234 C   0  0  0  0  0  0  0  0  0  0  0  0
   -0.7668    2.9678   -3.5346 O   0  5  0  0  0  0  0  0  0  0  0  0
   -1.6011    3.1420   -1.4759 O   0  0  0  0  0  0  0  0  0  0  0  0
    0.7172   -0.1144    1.0061 C   0  0  0  0  0  0  0  0  0  0  0  0
    1.8662   -0.1846    1.4278 O   0  0  0  0  0  0  0  0  0  0  0  0
   -0.2741    0.4293    1.8031 N   0  0  0  0  0  0  0  0  0  0  0  0
   -1.1282    0.6891    1.3172 H   0  0  0  0  0  0  0  0  0  0  0  0
   -0.0013    1.0391    3.0956 C   0  0  0  0  0  0  0  0  0  0  0  0
    0.6385    1.9193    2.9754 H   0  0  0  0  0  0  0  0  0  0  0  0
   -0.9377    1.3503    3.5679 H   0  0  0  0  0  0  0  0  0  0  0  0
    0.4982    0.3252    3.7587 H   0  0  0  0  0  0  0  0  0  0  0  0
  1  2  1  0  0  0  0
  2  3  1  0  0  0  0
  2  4  1  0  0  0  0
  2  5  1  0  0  0  0
  5  6  2  0  0  0  0
  5  7  1  0  0  0  0
  7  8  1  0  0  0  0
  7  9  1  0  0  0  0
  9 10  1  0  0  0  0
  9 11  1  0  0  0  0
  9 20  1  0  0  0  0
 11 12  1  0  0  0  0
 11 13  1  0  0  0  0
 11 14  1  0  0  0  0
 14 15  1  0  0  0  0
 14 16  1  0  0  0  0
 14 17  1  0  0  0  0
 17 18  1  0  0  0  0
 17 19  2  0  0  0  0
 20 21  2  0  0  0  0
 20 22  1  0  0  0  0
 22 23  1  0  0  0  0
 22 24  1  0  0  0  0
 24 25  1  0  0  0  0
 24 26  1  0  0  0  0
 24 27  1  0  0  0  0
M  CHG  1  18  -1
M  END
$$$$

  -OEChem-04042215583D

 27 26  0     1  0  0  0  0  0999 V2000
   -2.5837   -4.0375    0.4510 H   0  0  0  0  0  0  0  0  0  0  0  0
   -2.5212   -3.1014   -0.1109 C   0  0  0  0  0  0  0  0  0  0  0  0
   -3.3034   -2.4252    0.2432 H   0  0  0  0  0  0  0  0  0  0  0  0
   -2.6862   -3.3144   -1.1701 H   0  0  0  0  0  0  0  0  0  0  0  0
   -1.1578   -2.4621    0.0827 C   0  0  0  0  0  0  0  0  0  0  0  0
   -0.3196   -3.0189    0.7716 O   0  0  0  0  0  0  0  0  0  0  0  0
   -0.8794   -1.2657   -0.5430 N   0  0  0  0  0  0  0  0  0  0  0  0
   -1.5968   -0.8790   -1.1511 H   0  0  0  0  0  0  0  0  0  0  0  0
    0.3895   -0.5213   -0.4382 C   0  0  1  0  0  0  0  0  0  0  0  0
    1.1994   -1.1780   -0.7724 H   0  0  0  0  0  0  0  0  0  0  0  0
    0.3753    0.7361   -1.3535 C   0  0  0  0  0  0  0  0  0  0  0  0
    0.5430    1.6288   -0.7395 H   0  0  0  0  0  0  0  0  0  0  0  0
    1.2170    0.6744   -2.0511 H   0  0  0  0  0  0  0  0  0  0  0  0
   -0.9199    0.9588   -2.1686 C   0  0  0  0  0  0  0  0  0  0  0  0
   -0.9818    0.2283   -2.9808 H   0  0  0  0  0  0  0  0  0  0  0  0
   -1.8023    0.8394   -1.5337 H   0  0  0  0  0  0  0  0  0  0  0  0
   -0.9770    2.3760   -2.7334 C   0  0  0  0  0  0  0  0  0  0  0  0
   -0.5320    2.5646   -3.8911 O   0  5  0  0  0  0  0  0  0  0  0  0
   -1.4792    3.2629   -2.0000 O   0  0  0  0  0  0  0  0  0  0  0  0
    0.7354   -0.1007    1.0069 C   0  0  0  0  0  0  0  0  0  0  0  0
    1.8904   -0.1578    1.4129 O   0  0  0  0  0  0  0  0  0  0  0  0
   -0.2447    0.4490    1.8130 N   0  0  0  0  0  0  0  0  0  0  0  0
   -1.1279    0.6550    1.3565 H   0  0  0  0  0  0  0  0  0  0  0  0
    0.0343    1.0529    3.1066 C   0  0  0  0  0  0  0  0  0  0  0  0
    0.6731    1.9337    2.9868 H   0  0  0  0  0  0  0  0  0  0  0  0
   -0.8997    1.3614    3.5854 H   0  0  0  0  0  0  0  0  0  0  0  0
    0.5379    0.3364    3.7637 H   0  0  0  0  0  0  0  0  0  0  0  0
  1  2  1  0  0  0  0
  2  3  1  0  0  0  0
  2  4  1  0  0  0  0
  2  5  1  0  0  0  0
  5  6  2  0  0  0  0
  5  7  1  0  0  0  0
  7  8  1  0  0  0  0
  7  9  1  0  0  0  0
  9 10  1  0  0  0  0
  9 11  1  0  0  0  0
  9 20  1  0  0  0  0
 11 12  1  0  0  0  0
 11 13  1  0  0  0  0
 11 14  1  0  0  0  0
 14 15  1  0  0  0  0
 14 16  1  0  0  0  0
 14 17  1  0  0  0  0
 17 18  1  0  0  0  0
 17 19  2  0  0  0  0
 20 21  2  0  0  0  0
 20 22  1  0  0  0  0
 22 23  1  0  0  0  0
 22 24  1  0  0  0  0
 24 25  1  0  0  0  0
 24 26  1  0  0  0  0
 24 27  1  0  0  0  0
M  CHG  1  18  -1
M  END
$$$$

  -OEChem-04042215583D

 27 26  0     1  0  0  0  0  0999 V2000
   -2.5672   -4.0261    0.4478 H   0  0  0  0  0  0  0  0  0  0  0  0
   -2.5093   -3.0819   -0.1011 C   0  0  0  0  0  0  0  0  0  0  0  0
   -3.2783   -2.4053    0.2796 H   0  0  0  0  0  0  0  0  0  0  0  0
   -2.6984   -3.2776   -1.1596 H   0  0  0  0  0  0  0  0  0  0  0  0
   -1.1370   -2.4562    0.0735 C   0  0  0  0  0  0  0  0  0  0  0  0
   -0.2965   -3.0189    0.7546 O   0  0  0  0  0  0  0  0  0  0  0  0
   -0.8550   -1.2626   -0.5560 N   0  0  0  0  0  0  0  0  0  0  0  0
   -1.5797   -0.8634   -1.1469 H   0  0  0  0  0  0  0  0  0  0  0  0
    0.4148   -0.5194   -0.4512 C   0  0  1  0  0  0  0  0  0  0  0  0
    1.2348   -1.1634   -0.7857 H   0  0  0  0  0  0  0  0  0  0  0  0
    0.3788    0.7467   -1.3503 C   0  0  0  0  0  0  0  0  0  0  0  0
    0.8325    1.5951   -0.8250 H   0  0  0  0  0  0  0  0  0  0  0  0
    1.0002    0.5531   -2.2312 H   0  0  0  0  0  0  0  0  0  0  0  0
   -1.0256    1.1583   -1.8458 C   0  0  0  0  0  0  0  0  0  0  0  0
   -1.4681    0.3589   -2.4473 H   0  0  0  0  0  0  0  0  0  0  0  0
   -1.6820    1.3480   -0.9909 H   0  0  0  0  0  0  0  0  0  0  0  0
   -0.9580    2.4097   -2.7173 C   0  0  0  0  0  0  0  0  0  0  0  0
   -0.6570    2.2596   -3.9264 O   0  5  0  0  0  0  0  0  0  0  0  0
   -1.2318    3.5070   -2.1733 O   0  0  0  0  0  0  0  0  0  0  0  0
    0.7489   -0.0979    0.9968 C   0  0  0  0  0  0  0  0  0  0  0  0
    1.9006   -0.1539    1.4125 O   0  0  0  0  0  0  0  0  0  0  0  0
   -0.2368    0.4529    1.7955 N   0  0  0  0  0  0  0  0  0  0  0  0
   -1.1197    0.6512    1.3356 H   0  0  0  0  0  0  0  0  0  0  0  0
    0.0327    1.0565    3.0914 C   0  0  0  0  0  0  0  0  0  0  0  0
    0.6954    1.9208    2.9793 H   0  0  0  0  0  0  0  0  0  0  0  0
   -0.9017    1.3912    3.5515 H   0  0  0  0  0  0  0  0  0  0  0  0
    0.5060    0.3307    3.7607 H   0  0  0  0  0  0  0  0  0  0  0  0
  1  2  1  0  0  0  0
  2  3  1  0  0  0  0
  2  4  1  0  0  0  0
  2  5  1  0  0  0  0
  5  6  2  0  0  0  0
  5  7  1  0  0  0  0
  7  8  1  0  0  0  0
  7  9  1  0  0  0  0
  9 10  1  0  0  0  0
  9 11  1  0  0  0  0
  9 20  1  0  0  0  0
 11 12  1  0  0  0  0
 11 13  1  0  0  0  0
 11 14  1  0  0  0  0
 14 15  1  0  0  0  0
 14 16  1  0  0  0  0
 14 17  1  0  0  0  0
 17 18  1  0  0  0  0
 17 19  2  0  0  0  0
 20 21  2  0  0  0  0
 20 22  1  0  0  0  0
 22 23  1  0  0  0  0
 22 24  1  0  0  0  0
 24 25  1  0  0  0  0
 24 26  1  0  0  0  0
 24 27  1  0  0  0  0
M  CHG  1  18  -1
M  END
$$$$

  -OEChem-04042215583D

 27 26  0     1  0  0  0  0  0999 V2000
   -2.6932   -3.9617    0.5577 H   0  0  0  0  0  0  0  0  0  0  0  0
   -2.6216   -3.0337   -0.0166 C   0  0  0  0  0  0  0  0  0  0  0  0
   -3.3748   -2.3323    0.3511 H   0  0  0  0  0  0  0  0  0  0  0  0
   -2.8223   -3.2536   -1.0684 H   0  0  0  0  0  0  0  0  0  0  0  0
   -1.2364   -2.4297    0.1312 C   0  0  0  0  0  0  0  0  0  0  0  0
   -0.3966   -2.9982    0.8085 O   0  0  0  0  0  0  0  0  0  0  0  0
   -0.9449   -1.2489   -0.5182 N   0  0  0  0  0  0  0  0  0  0  0  0
   -1.6649   -0.8632   -1.1233 H   0  0  0  0  0  0  0  0  0  0  0  0
    0.3572   -0.5571   -0.4933 C   0  0  1  0  0  0  0  0  0  0  0  0
    1.1272   -1.2391   -0.8690 H   0  0  0  0  0  0  0  0  0  0  0  0
    0.3391    0.7093   -1.3942 C   0  0  0  0  0  0  0  0  0  0  0  0
    0.8779    1.5321   -0.9109 H   0  0  0  0  0  0  0  0  0  0  0  0
    0.9002    0.4604   -2.3015 H   0  0  0  0  0  0  0  0  0  0  0  0
   -1.0559    1.2156   -1.8354 C   0  0  0  0  0  0  0  0  0  0  0  0
   -1.6785    0.3993   -2.2084 H   0  0  0  0  0  0  0  0  0  0  0  0
   -1.5697    1.6729   -0.9846 H   0  0  0  0  0  0  0  0  0  0  0  0
   -0.9445    2.2145   -2.9854 C   0  0  0  0  0  0  0  0  0  0  0  0
   -1.0838    3.4315   -2.7131 O   0  5  0  0  0  0  0  0  0  0  0  0
   -0.7408    1.7520   -4.1347 O   0  0  0  0  0  0  0  0  0  0  0  0
    0.7921   -0.1493    0.9318 C   0  0  0  0  0  0  0  0  0  0  0  0
    1.9650   -0.2370    1.2763 O   0  0  0  0  0  0  0  0  0  0  0  0
   -0.1227    0.4396    1.7856 N   0  0  0  0  0  0  0  0  0  0  0  0
   -1.0415    0.6252    1.3974 H   0  0  0  0  0  0  0  0  0  0  0  0
    0.2324    1.0084    3.0767 C   0  0  0  0  0  0  0  0  0  0  0  0
    0.9411    1.8330    2.9492 H   0  0  0  0  0  0  0  0  0  0  0  0
   -0.6616    1.3924    3.5765 H   0  0  0  0  0  0  0  0  0  0  0  0
    0.6863    0.2461    3.7181 H   0  0  0  0  0  0  0  0  0  0  0  0
  1  2  1  0  0  0  0
  2  3  1  0  0  0  0
  2  4  1  0  0  0  0
  2  5  1  0  0  0  0
  5  6  2  0  0  0  0
  5  7  1  0  0  0  0
  7  8  1  0  0  0  0
  7  9  1  0  0  0  0
  9 10  1  0  0  0  0
  9 11  1  0  0  0  0
  9 20  1  0  0  0  0
 11 12  1  0  0  0  0
 11 13  1  0  0  0  0
 11 14  1  0  0  0  0
 14 15  1  0  0  0  0
 14 16  1  0  0  0  0
 14 17  1  0  0  0  0
 17 18  1  0  0  0  0
 17 19  2  0  0  0  0
 20 21  2  0  0  0  0
 20 22  1  0  0  0  0
 22 23  1  0  0  0  0
 22 24  1  0  0  0  0
 24 25  1  0  0  0  0
 24 26  1  0  0  0  0
 24 27  1  0  0  0  0
M  CHG  1  18  -1
M  END
$$$$

  -OEChem-04042215583D

 27 26  0     1  0  0  0  0  0999 V2000
   -2.6938   -3.9970    0.5511 H   0  0  0  0  0  0  0  0  0  0  0  0
   -2.6213   -3.0754   -0.0330 C   0  0  0  0  0  0  0  0  0  0  0  0
   -3.4186   -2.3965    0.2792 H   0  0  0  0  0  0  0  0  0  0  0  0
   -2.7536   -3.3174   -1.0906 H   0  0  0  0  0  0  0  0  0  0  0  0
   -1.2687   -2.4205    0.1825 C   0  0  0  0  0  0  0  0  0  0  0  0
   -0.4541   -2.9442    0.9237 O   0  0  0  0  0  0  0  0  0  0  0  0
   -0.9776   -1.2484   -0.4829 N   0  0  0  0  0  0  0  0  0  0  0  0
   -1.6520   -0.9438   -1.1801 H   0  0  0  0  0  0  0  0  0  0  0  0
    0.3299   -0.5668   -0.4793 C   0  0  1  0  0  0  0  0  0  0  0  0
    1.0900   -1.2605   -0.8538 H   0  0  0  0  0  0  0  0  0  0  0  0
    0.3273    0.6968   -1.3865 C   0  0  0  0  0  0  0  0  0  0  0  0
    0.9000    1.5074   -0.9223 H   0  0  0  0  0  0  0  0  0  0  0  0
    0.8757    0.4151   -2.2924 H   0  0  0  0  0  0  0  0  0  0  0  0
   -1.0474    1.2558   -1.8412 C   0  0  0  0  0  0  0  0  0  0  0  0
   -1.8030    0.4794   -1.9602 H   0  0  0  0  0  0  0  0  0  0  0  0
   -1.4189    1.9609   -1.0919 H   0  0  0  0  0  0  0  0  0  0  0  0
   -0.9389    1.9408   -3.2020 C   0  0  0  0  0  0  0  0  0  0  0  0
   -0.7076    3.1735   -3.2234 O   0  5  0  0  0  0  0  0  0  0  0  0
   -1.0965    1.2189   -4.2176 O   0  0  0  0  0  0  0  0  0  0  0  0
    0.7825   -0.1490    0.9375 C   0  0  0  0  0  0  0  0  0  0  0  0
    1.9615   -0.2232    1.2647 O   0  0  0  0  0  0  0  0  0  0  0  0
   -0.1205    0.4544    1.7933 N   0  0  0  0  0  0  0  0  0  0  0  0
   -1.0585    0.5924    1.4321 H   0  0  0  0  0  0  0  0  0  0  0  0
    0.2426    1.0216    3.0825 C   0  0  0  0  0  0  0  0  0  0  0  0
    0.9620    1.8364    2.9525 H   0  0  0  0  0  0  0  0  0  0  0  0
   -0.6460    1.4190    3.5817 H   0  0  0  0  0  0  0  0  0  0  0  0
    0.6870    0.2548    3.7252 H   0  0  0  0  0  0  0  0  0  0  0  0
  1  2  1  0  0  0  0
  2  3  1  0  0  0  0
  2  4  1  0  0  0  0
  2  5  1  0  0  0  0
  5  6  2  0  0  0  0
  5  7  1  0  0  0  0
  7  8  1  0  0  0  0
  7  9  1  0  0  0  0
  9 10  1  0  0  0  0
  9 11  1  0  0  0  0
  9 20  1  0  0  0  0
 11 12  1  0  0  0  0
 11 13  1  0  0  0  0
 11 14  1  0  0  0  0
 14 15  1  0  0  0  0
 14 16  1  0  0  0  0
 14 17  1  0  0  0  0
 17 18  1  0  0  0  0
 17 19  2  0  0  0  0
 20 21  2  0  0  0  0
 20 22  1  0  0  0  0
 22 23  1  0  0  0  0
 22 24  1  0  0  0  0
 24 25  1  0  0  0  0
 24 26  1  0  0  0  0
 24 27  1  0  0  0  0
M  CHG  1  18  -1
M  END
$$$$

  -OEChem-04042215583D

 27 26  0     1  0  0  0  0  0999 V2000
   -2.6877   -3.9885    0.5559 H   0  0  0  0  0  0  0  0  0  0  0  0
   -2.6133   -3.0704   -0.0337 C   0  0  0  0  0  0  0  0  0  0  0  0
   -3.4341   -2.4049    0.2447 H   0  0  0  0  0  0  0  0  0  0  0  0
   -2.7046   -3.3237   -1.0931 H   0  0  0  0  0  0  0  0  0  0  0  0
   -1.2818   -2.3868    0.2207 C   0  0  0  0  0  0  0  0  0  0  0  0
   -0.4964   -2.8708    1.0186 O   0  0  0  0  0  0  0  0  0  0  0  0
   -0.9814   -1.2283   -0.4641 N   0  0  0  0  0  0  0  0  0  0  0  0
   -1.6164   -0.9792   -1.2207 H   0  0  0  0  0  0  0  0  0  0  0  0
    0.3323   -0.5593   -0.4720 C   0  0  1  0  0  0  0  0  0  0  0  0
    1.0853   -1.2658   -0.8367 H   0  0  0  0  0  0  0  0  0  0  0  0
    0.3384    0.6910   -1.3986 C   0  0  0  0  0  0  0  0  0  0  0  0
    0.9196    1.5005   -0.9432 H   0  0  0  0  0  0  0  0  0  0  0  0
    0.8916    0.3928   -2.2964 H   0  0  0  0  0  0  0  0  0  0  0  0
   -1.0294    1.2680   -1.8653 C   0  0  0  0  0  0  0  0  0  0  0  0
   -1.8768    0.6066   -1.6898 H   0  0  0  0  0  0  0  0  0  0  0  0
   -1.2320    2.1815   -1.2987 H   0  0  0  0  0  0  0  0  0  0  0  0
   -1.0193    1.5924   -3.3565 C   0  0  0  0  0  0  0  0  0  0  0  0
   -0.6626    2.7394   -3.7175 O   0  5  0  0  0  0  0  0  0  0  0  0
   -1.3754    0.6692   -4.1306 O   0  0  0  0  0  0  0  0  0  0  0  0
    0.7883   -0.1241    0.9384 C   0  0  0  0  0  0  0  0  0  0  0  0
    1.9668   -0.2003    1.2671 O   0  0  0  0  0  0  0  0  0  0  0  0
   -0.1106    0.5001    1.7831 N   0  0  0  0  0  0  0  0  0  0  0  0
   -1.0682    0.5624    1.4538 H   0  0  0  0  0  0  0  0  0  0  0  0
    0.2279    0.9894    3.1100 C   0  0  0  0  0  0  0  0  0  0  0  0
    1.0237    1.7387    3.0502 H   0  0  0  0  0  0  0  0  0  0  0  0
   -0.6482    1.4515    3.5745 H   0  0  0  0  0  0  0  0  0  0  0  0
    0.5639    0.1640    3.7458 H   0  0  0  0  0  0  0  0  0  0  0  0
  1  2  1  0  0  0  0
  2  3  1  0  0  0  0
  2  4  1  0  0  0  0
  2  5  1  0  0  0  0
  5  6  2  0  0  0  0
  5  7  1  0  0  0  0
  7  8  1  0  0  0  0
  7  9  1  0  0  0  0
  9 10  1  0  0  0  0
  9 11  1  0  0  0  0
  9 20  1  0  0  0  0
 11 12  1  0  0  0  0
 11 13  1  0  0  0  0
 11 14  1  0  0  0  0
 14 15  1  0  0  0  0
 14 16  1  0  0  0  0
 14 17  1  0  0  0  0
 17 18  1  0  0  0  0
 17 19  2  0  0  0  0
 20 21  2  0  0  0  0
 20 22  1  0  0  0  0
 22 23  1  0  0  0  0
 22 24  1  0  0  0  0
 24 25  1  0  0  0  0
 24 26  1  0  0  0  0
 24 27  1  0  0  0  0
M  CHG  1  18  -1
M  END
$$$$

  -OEChem-04042215583D

 27 26  0     1  0  0  0  0  0999 V2000
   -2.7035   -3.9708    0.5003 H   0  0  0  0  0  0  0  0  0  0  0  0
   -2.6198   -3.0427   -0.0717 C   0  0  0  0  0  0  0  0  0  0  0  0
   -3.4492   -2.3842    0.1979 H   0  0  0  0  0  0  0  0  0  0  0  0
   -2.6855   -3.2781   -1.1373 H   0  0  0  0  0  0  0  0  0  0  0  0
   -1.2982   -2.3575    0.2250 C   0  0  0  0  0  0  0  0  0  0  0  0
   -0.5471   -2.8267    1.0644 O   0  0  0  0  0  0  0  0  0  0  0  0
   -0.9724   -1.2075   -0.4610 N   0  0  0  0  0  0  0  0  0  0  0  0
   -1.5694   -0.9837   -1.2595 H   0  0  0  0  0  0  0  0  0  0  0  0
    0.3492   -0.5548   -0.4536 C   0  0  1  0  0  0  0  0  0  0  0  0
    1.0980   -1.2710   -0.8076 H   0  0  0  0  0  0  0  0  0  0  0  0
    0.3636    0.6817   -1.3969 C   0  0  0  0  0  0  0  0  0  0  0  0
    0.9199    1.4984   -0.9238 H   0  0  0  0  0  0  0  0  0  0  0  0
    0.9417    0.4009   -2.2844 H   0  0  0  0  0  0  0  0  0  0  0  0
   -1.0104    1.2398   -1.8685 C   0  0  0  0  0  0  0  0  0  0  0  0
   -1.8794    0.7650   -1.4130 H   0  0  0  0  0  0  0  0  0  0  0  0
   -1.0630    2.2890   -1.5628 H   0  0  0  0  0  0  0  0  0  0  0  0
   -1.1465    1.1913   -3.3852 C   0  0  0  0  0  0  0  0  0  0  0  0
   -0.8328    2.1979   -4.0643 O   0  5  0  0  0  0  0  0  0  0  0  0
   -1.5722    0.1046   -3.8519 O   0  0  0  0  0  0  0  0  0  0  0  0
    0.7959   -0.1149    0.9579 C   0  0  0  0  0  0  0  0  0  0  0  0
    1.9728   -0.1879    1.2938 O   0  0  0  0  0  0  0  0  0  0  0  0
   -0.1050    0.5267    1.7871 N   0  0  0  0  0  0  0  0  0  0  0  0
   -1.0682    0.5452    1.4683 H   0  0  0  0  0  0  0  0  0  0  0  0
    0.2170    0.9888    3.1278 C   0  0  0  0  0  0  0  0  0  0  0  0
    1.0431    1.7065    3.0971 H   0  0  0  0  0  0  0  0  0  0  0  0
   -0.6519    1.4813    3.5739 H   0  0  0  0  0  0  0  0  0  0  0  0
    0.5033    0.1445    3.7631 H   0  0  0  0  0  0  0  0  0  0  0  0
  1  2  1  0  0  0  0
  2  3  1  0  0  0  0
  2  4  1  0  0  0  0
  2  5  1  0  0  0  0
  5  6  2  0  0  0  0
  5  7  1  0  0  0  0
  7  8  1  0  0  0  0
  7  9  1  0  0  0  0
  9 10  1  0  0  0  0
  9 11  1  0  0  0  0
  9 20  1  0  0  0  0
 11 12  1  0  0  0  0
 11 13  1  0  0  0  0
 11 14  1  0  0  0  0
 14 15  1  0  0  0  0
 14 16  1  0  0  0  0
 14 17  1  0  0  0  0
 17 18  1  0  0  0  0
 17 19  2  0  0  0  0
 20 21  2  0  0  0  0
 20 22  1  0  0  0  0
 22 23  1  0  0  0  0
 22 24  1  0  0  0  0
 24 25  1  0  0  0  0
 24 26  1  0  0  0  0
 24 27  1  0  0  0  0
M  CHG  1  18  -1
M  END
$$$$

  -OEChem-04042215583D

 27 26  0     1  0  0  0  0  0999 V2000
   -2.7110   -3.9622    0.4067 H   0  0  0  0  0  0  0  0  0  0  0  0
   -2.6230   -3.0195   -0.1399 C   0  0  0  0  0  0  0  0  0  0  0  0
   -3.4777   -2.3845    0.1059 H   0  0  0  0  0  0  0  0  0  0  0  0
   -2.6367   -3.2309   -1.2126 H   0  0  0  0  0  0  0  0  0  0  0  0
   -1.3312   -2.3131    0.2289 C   0  0  0  0  0  0  0  0  0  0  0  0
   -0.6335   -2.7538    1.1289 O   0  0  0  0  0  0  0  0  0  0  0  0
   -0.9729   -1.1750   -0.4590 N   0  0  0  0  0  0  0  0  0  0  0  0
   -1.5154   -0.9963   -1.3131 H   0  0  0  0  0  0  0  0  0  0  0  0
    0.3624   -0.5481   -0.4325 C   0  0  1  0  0  0  0  0  0  0  0  0
    1.1024   -1.2783   -0.7748 H   0  0  0  0  0  0  0  0  0  0  0  0
    0.3916    0.6742   -1.3917 C   0  0  0  0  0  0  0  0  0  0  0  0
    0.9274    1.4980   -0.9081 H   0  0  0  0  0  0  0  0  0  0  0  0
    0.9807    0.4053   -2.2757 H   0  0  0  0  0  0  0  0  0  0  0  0
   -0.9930    1.2022   -1.8529 C   0  0  0  0  0  0  0  0  0  0  0  0
   -1.8189    0.9467   -1.1854 H   0  0  0  0  0  0  0  0  0  0  0  0
   -0.9434    2.2952   -1.8402 H   0  0  0  0  0  0  0  0  0  0  0  0
   -1.2946    0.7915   -3.2854 C   0  0  0  0  0  0  0  0  0  0  0  0
   -1.0866    1.5865   -4.2323 O   0  5  0  0  0  0  0  0  0  0  0  0
   -1.7420   -0.3796   -3.3996 O   0  0  0  0  0  0  0  0  0  0  0  0
    0.8016   -0.1045    0.9796 C   0  0  0  0  0  0  0  0  0  0  0  0
    1.9766   -0.1815    1.3225 O   0  0  0  0  0  0  0  0  0  0  0  0
   -0.0965    0.5628    1.7910 N   0  0  0  0  0  0  0  0  0  0  0  0
   -1.0620    0.5531    1.4774 H   0  0  0  0  0  0  0  0  0  0  0  0
    0.2134    1.0065    3.1406 C   0  0  0  0  0  0  0  0  0  0  0  0
    1.0450    1.7184    3.1276 H   0  0  0  0  0  0  0  0  0  0  0  0
   -0.6570    1.5000    3.5827 H   0  0  0  0  0  0  0  0  0  0  0  0
    0.4863    0.1528    3.7693 H   0  0  0  0  0  0  0  0  0  0  0  0
  1  2  1  0  0  0  0
  2  3  1  0  0  0  0
  2  4  1  0  0  0  0
  2  5  1  0  0  0  0
  5  6  2  0  0  0  0
  5  7  1  0  0  0  0
  7  8  1  0  0  0  0
  7  9  1  0  0  0  0
  9 10  1  0  0  0  0
  9 11  1  0  0  0  0
  9 20  1  0  0  0  0
 11 12  1  0  0  0  0
 11 13  1  0  0  0  0
 11 14  1  0  0  0  0
 14 15  1  0  0  0  0
 14 16  1  0  0  0  0
 14 17  1  0  0  0  0
 17 18  1  0  0  0  0
 17 19  2  0  0  0  0
 20 21  2  0  0  0  0
 20 22  1  0  0  0  0
 22 23  1  0  0  0  0
 22 24  1  0  0  0  0
 24 25  1  0  0  0  0
 24 26  1  0  0  0  0
 24 27  1  0  0  0  0
M  CHG  1  18  -1
M  END
$$$$

  -OEChem-04042215583D

 27 26  0     1  0  0  0  0  0999 V2000
   -2.7184   -3.9560    0.4497 H   0  0  0  0  0  0  0  0  0  0  0  0
   -2.6137   -3.0309   -0.1233 C   0  0  0  0  0  0  0  0  0  0  0  0
   -3.4618   -2.3776    0.0957 H   0  0  0  0  0  0  0  0  0  0  0  0
   -2.6221   -3.2721   -1.1898 H   0  0  0  0  0  0  0  0  0  0  0  0
   -1.3160   -2.3297    0.2345 C   0  0  0  0  0  0  0  0  0  0  0  0
   -0.6071   -2.7754    1.1241 O   0  0  0  0  0  0  0  0  0  0  0  0
   -0.9636   -1.1908   -0.4533 N   0  0  0  0  0  0  0  0  0  0  0  0
   -1.5309   -1.0080   -1.2933 H   0  0  0  0  0  0  0  0  0  0  0  0
    0.3663   -0.5518   -0.4279 C   0  0  1  0  0  0  0  0  0  0  0  0
    1.1109   -1.2812   -0.7617 H   0  0  0  0  0  0  0  0  0  0  0  0
    0.4104    0.6726   -1.3867 C   0  0  0  0  0  0  0  0  0  0  0  0
    0.9391    1.4960   -0.8946 H   0  0  0  0  0  0  0  0  0  0  0  0
    1.0055    0.4059   -2.2670 H   0  0  0  0  0  0  0  0  0  0  0  0
   -0.9645    1.1997   -1.8636 C   0  0  0  0  0  0  0  0  0  0  0  0
   -1.7245    1.1253   -1.0807 H   0  0  0  0  0  0  0  0  0  0  0  0
   -0.8577    2.2661   -2.0835 H   0  0  0  0  0  0  0  0  0  0  0  0
   -1.4324    0.5188   -3.1471 C   0  0  0  0  0  0  0  0  0  0  0  0
   -1.1392    1.0272   -4.2544 O   0  5  0  0  0  0  0  0  0  0  0  0
   -2.0743   -0.5532   -2.9896 O   0  0  0  0  0  0  0  0  0  0  0  0
    0.7931   -0.1044    0.9869 C   0  0  0  0  0  0  0  0  0  0  0  0
    1.9693   -0.1530    1.3316 O   0  0  0  0  0  0  0  0  0  0  0  0
   -0.1190    0.5532    1.7905 N   0  0  0  0  0  0  0  0  0  0  0  0
   -1.0835    0.5198    1.4749 H   0  0  0  0  0  0  0  0  0  0  0  0
    0.1794    1.0235    3.1337 C   0  0  0  0  0  0  0  0  0  0  0  0
    0.9925    1.7559    3.1106 H   0  0  0  0  0  0  0  0  0  0  0  0
   -0.7035    1.5013    3.5682 H   0  0  0  0  0  0  0  0  0  0  0  0
    0.4735    0.1862    3.7747 H   0  0  0  0  0  0  0  0  0  0  0  0
  1  2  1  0  0  0  0
  2  3  1  0  0  0  0
  2  4  1  0  0  0  0
  2  5  1  0  0  0  0
  5  6  2  0  0  0  0
  5  7  1  0  0  0  0
  7  8  1  0  0  0  0
  7  9  1  0  0  0  0
  9 10  1  0  0  0  0
  9 11  1  0  0  0  0
  9 20  1  0  0  0  0
 11 12  1  0  0  0  0
 11 13  1  0  0  0  0
 11 14  1  0  0  0  0
 14 15  1  0  0  0  0
 14 16  1  0  0  0  0
 14 17  1  0  0  0  0
 17 18  1  0  0  0  0
 17 19  2  0  0  0  0
 20 21  2  0  0  0  0
 20 22  1  0  0  0  0
 22 23  1  0  0  0  0
 22 24  1  0  0  0  0
 24 25  1  0  0  0  0
 24 26  1  0  0  0  0
 24 27  1  0  0  0  0
M  CHG  1  18  -1
M  END
$$$$

  -OEChem-04042215583D

 27 26  0     1  0  0  0  0  0999 V2000
   -2.4557   -4.0890    0.4750 H   0  0  0  0  0  0  0  0  0  0  0  0
   -2.4418   -3.1401   -0.0673 C   0  0  0  0  0  0  0  0  0  0  0  0
   -3.2838   -2.5275    0.2641 H   0  0  0  0  0  0  0  0  0  0  0  0
   -2.5530   -3.3398   -1.1367 H   0  0  0  0  0  0  0  0  0  0  0  0
   -1.1385   -2.4042    0.1839 C   0  0  0  0  0  0  0  0  0  0  0  0
   -0.3194   -2.8615    0.9670 O   0  0  0  0  0  0  0  0  0  0  0  0
   -0.9049   -1.2180   -0.4737 N   0  0  0  0  0  0  0  0  0  0  0  0
   -1.5978   -0.9802   -1.1947 H   0  0  0  0  0  0  0  0  0  0  0  0
    0.3662   -0.4701   -0.4786 C   0  0  1  0  0  0  0  0  0  0  0  0
    1.1519   -1.1334   -0.8540 H   0  0  0  0  0  0  0  0  0  0  0  0
    0.3147    0.7856   -1.3976 C   0  0  0  0  0  0  0  0  0  0  0  0
    0.8093    1.6223   -0.8927 H   0  0  0  0  0  0  0  0  0  0  0  0
    0.9044    0.5731   -2.2957 H   0  0  0  0  0  0  0  0  0  0  0  0
   -1.0843    1.2624   -1.8533 C   0  0  0  0  0  0  0  0  0  0  0  0
   -1.7547    1.3227   -0.9906 H   0  0  0  0  0  0  0  0  0  0  0  0
   -0.9926    2.2747   -2.2573 H   0  0  0  0  0  0  0  0  0  0  0  0
   -1.7078    0.3842   -2.9403 C   0  0  0  0  0  0  0  0  0  0  0  0
   -2.5938   -0.4294   -2.5691 O   0  5  0  0  0  0  0  0  0  0  0  0
   -1.2571    0.4677   -4.1062 O   0  0  0  0  0  0  0  0  0  0  0  0
    0.8015   -0.0404    0.9390 C   0  0  0  0  0  0  0  0  0  0  0  0
    1.9879   -0.0082    1.2489 O   0  0  0  0  0  0  0  0  0  0  0  0
   -0.1343    0.5063    1.7969 N   0  0  0  0  0  0  0  0  0  0  0  0
   -1.1028    0.4067    1.5073 H   0  0  0  0  0  0  0  0  0  0  0  0
    0.1662    0.9150    3.1599 C   0  0  0  0  0  0  0  0  0  0  0  0
    0.9514    1.6778    3.1669 H   0  0  0  0  0  0  0  0  0  0  0  0
   -0.7269    1.3352    3.6314 H   0  0  0  0  0  0  0  0  0  0  0  0
    0.5007    0.0558    3.7500 H   0  0  0  0  0  0  0  0  0  0  0  0
  1  2  1  0  0  0  0
  2  3  1  0  0  0  0
  2  4  1  0  0  0  0
  2  5  1  0  0  0  0
  5  6  2  0  0  0  0
  5  7  1  0  0  0  0
  7  8  1  0  0  0  0
  7  9  1  0  0  0  0
  9 10  1  0  0  0  0
  9 11  1  0  0  0  0
  9 20  1  0  0  0  0
 11 12  1  0  0  0  0
 11 13  1  0  0  0  0
 11 14  1  0  0  0  0
 14 15  1  0  0  0  0
 14 16  1  0  0  0  0
 14 17  1  0  0  0  0
 17 18  1  0  0  0  0
 17 19  2  0  0  0  0
 20 21  2  0  0  0  0
 20 22  1  0  0  0  0
 22 23  1  0  0  0  0
 22 24  1  0  0  0  0
 24 25  1  0  0  0  0
 24 26  1  0  0  0  0
 24 27  1  0  0  0  0
M  CHG  1  18  -1
M  END
$$$$

  -OEChem-04042215583D

 27 26  0     1  0  0  0  0  0999 V2000
   -2.6111   -4.0003    0.6550 H   0  0  0  0  0  0  0  0  0  0  0  0
   -2.5467   -3.0844    0.0618 C   0  0  0  0  0  0  0  0  0  0  0  0
   -3.3398   -2.4005    0.3738 H   0  0  0  0  0  0  0  0  0  0  0  0
   -2.6928   -3.3327   -0.9929 H   0  0  0  0  0  0  0  0  0  0  0  0
   -1.1931   -2.4244    0.2493 C   0  0  0  0  0  0  0  0  0  0  0  0
   -0.3723   -2.9163    1.0096 O   0  0  0  0  0  0  0  0  0  0  0  0
   -0.9128   -1.2688   -0.4437 N   0  0  0  0  0  0  0  0  0  0  0  0
   -1.6454   -0.9598   -1.0925 H   0  0  0  0  0  0  0  0  0  0  0  0
    0.3738   -0.5502   -0.4468 C   0  0  1  0  0  0  0  0  0  0  0  0
    1.1506   -1.2508   -0.7697 H   0  0  0  0  0  0  0  0  0  0  0  0
    0.4163    0.6831   -1.4007 C   0  0  0  0  0  0  0  0  0  0  0  0
    0.9543    1.5019   -0.9115 H   0  0  0  0  0  0  0  0  0  0  0  0
    1.0186    0.3925   -2.2679 H   0  0  0  0  0  0  0  0  0  0  0  0
   -0.9118    1.2538   -1.9575 C   0  0  0  0  0  0  0  0  0  0  0  0
   -1.5183    1.6087   -1.1188 H   0  0  0  0  0  0  0  0  0  0  0  0
   -0.6810    2.1233   -2.5798 H   0  0  0  0  0  0  0  0  0  0  0  0
   -1.7464    0.2840   -2.7962 C   0  0  0  0  0  0  0  0  0  0  0  0
   -1.3271   -0.0254   -3.9350 O   0  5  0  0  0  0  0  0  0  0  0  0
   -2.7679   -0.2097   -2.2507 O   0  0  0  0  0  0  0  0  0  0  0  0
    0.7698   -0.0861    0.9714 C   0  0  0  0  0  0  0  0  0  0  0  0
    1.9448   -0.0665    1.3235 O   0  0  0  0  0  0  0  0  0  0  0  0
   -0.1861    0.5052    1.7760 N   0  0  0  0  0  0  0  0  0  0  0  0
   -1.1438    0.4348    1.4441 H   0  0  0  0  0  0  0  0  0  0  0  0
    0.0713    0.9691    3.1296 C   0  0  0  0  0  0  0  0  0  0  0  0
    0.8699    1.7179    3.1331 H   0  0  0  0  0  0  0  0  0  0  0  0
   -0.8309    1.4252    3.5476 H   0  0  0  0  0  0  0  0  0  0  0  0
    0.3672    0.1313    3.7692 H   0  0  0  0  0  0  0  0  0  0  0  0
  1  2  1  0  0  0  0
  2  3  1  0  0  0  0
  2  4  1  0  0  0  0
  2  5  1  0  0  0  0
  5  6  2  0  0  0  0
  5  7  1  0  0  0  0
  7  8  1  0  0  0  0
  7  9  1  0  0  0  0
  9 10  1  0  0  0  0
  9 11  1  0  0  0  0
  9 20  1  0  0  0  0
 11 12  1  0  0  0  0
 11 13  1  0  0  0  0
 11 14  1  0  0  0  0
 14 15  1  0  0  0  0
 14 16  1  0  0  0  0
 14 17  1  0  0  0  0
 17 18  1  0  0  0  0
 17 19  2  0  0  0  0
 20 21  2  0  0  0  0
 20 22  1  0  0  0  0
 22 23  1  0  0  0  0
 22 24  1  0  0  0  0
 24 25  1  0  0  0  0
 24 26  1  0  0  0  0
 24 27  1  0  0  0  0
M  CHG  1  18  -1
M  END
$$$$

  -OEChem-04042215583D

 27 26  0     1  0  0  0  0  0999 V2000
   -2.5431   -4.0187    0.7970 H   0  0  0  0  0  0  0  0  0  0  0  0
   -2.4983   -3.1231    0.1717 C   0  0  0  0  0  0  0  0  0  0  0  0
   -3.2569   -2.4130    0.5108 H   0  0  0  0  0  0  0  0  0  0  0  0
   -2.7154   -3.4002   -0.8633 H   0  0  0  0  0  0  0  0  0  0  0  0
   -1.1232   -2.4864    0.2543 C   0  0  0  0  0  0  0  0  0  0  0  0
   -0.2498   -3.0018    0.9368 O   0  0  0  0  0  0  0  0  0  0  0  0
   -0.8813   -1.3255   -0.4439 N   0  0  0  0  0  0  0  0  0  0  0  0
   -1.6778   -0.9590   -0.9759 H   0  0  0  0  0  0  0  0  0  0  0  0
    0.3828   -0.5700   -0.4564 C   0  0  1  0  0  0  0  0  0  0  0  0
    1.1781   -1.2518   -0.7746 H   0  0  0  0  0  0  0  0  0  0  0  0
    0.4167    0.6764   -1.3987 C   0  0  0  0  0  0  0  0  0  0  0  0
    0.9749    1.4851   -0.9149 H   0  0  0  0  0  0  0  0  0  0  0  0
    1.0118    0.3707   -2.2656 H   0  0  0  0  0  0  0  0  0  0  0  0
   -0.8842    1.2864   -1.9882 C   0  0  0  0  0  0  0  0  0  0  0  0
   -1.3728    1.8596   -1.1945 H   0  0  0  0  0  0  0  0  0  0  0  0
   -0.6067    1.9980   -2.7711 H   0  0  0  0  0  0  0  0  0  0  0  0
   -1.9175    0.3227   -2.5693 C   0  0  0  0  0  0  0  0  0  0  0  0
   -1.6817   -0.1916   -3.6861 O   0  5  0  0  0  0  0  0  0  0  0  0
   -2.8950    0.0198   -1.8360 O   0  0  0  0  0  0  0  0  0  0  0  0
    0.7551   -0.0988    0.9657 C   0  0  0  0  0  0  0  0  0  0  0  0
    1.9260   -0.0473    1.3285 O   0  0  0  0  0  0  0  0  0  0  0  0
   -0.2252    0.4596    1.7647 N   0  0  0  0  0  0  0  0  0  0  0  0
   -1.1754    0.4016    1.4072 H   0  0  0  0  0  0  0  0  0  0  0  0
    0.0087    0.9592    3.1098 C   0  0  0  0  0  0  0  0  0  0  0  0
    0.7669    1.7486    3.0988 H   0  0  0  0  0  0  0  0  0  0  0  0
   -0.9160    1.3741    3.5215 H   0  0  0  0  0  0  0  0  0  0  0  0
    0.3484    0.1489    3.7626 H   0  0  0  0  0  0  0  0  0  0  0  0
  1  2  1  0  0  0  0
  2  3  1  0  0  0  0
  2  4  1  0  0  0  0
  2  5  1  0  0  0  0
  5  6  2  0  0  0  0
  5  7  1  0  0  0  0
  7  8  1  0  0  0  0
  7  9  1  0  0  0  0
  9 10  1  0  0  0  0
  9 11  1  0  0  0  0
  9 20  1  0  0  0  0
 11 12  1  0  0  0  0
 11 13  1  0  0  0  0
 11 14  1  0  0  0  0
 14 15  1  0  0  0  0
 14 16  1  0  0  0  0
 14 17  1  0  0  0  0
 17 18  1  0  0  0  0
 17 19  2  0  0  0  0
 20 21  2  0  0  0  0
 20 22  1  0  0  0  0
 22 23  1  0  0  0  0
 22 24  1  0  0  0  0
 24 25  1  0  0  0  0
 24 26  1  0  0  0  0
 24 27  1  0  0  0  0
M  CHG  1  18  -1
M  END
$$$$

  -OEChem-04042215583D

 27 26  0     1  0  0  0  0  0999 V2000
   -2.4340   -4.0231    1.0624 H   0  0  0  0  0  0  0  0  0  0  0  0
   -2.4296   -3.1498    0.4050 C   0  0  0  0  0  0  0  0  0  0  0  0
   -3.1401   -2.4125    0.7875 H   0  0  0  0  0  0  0  0  0  0  0  0
   -2.7453   -3.4552   -0.5960 H   0  0  0  0  0  0  0  0  0  0  0  0
   -1.0412   -2.5409    0.3405 C   0  0  0  0  0  0  0  0  0  0  0  0
   -0.1144   -3.0589    0.9468 O   0  0  0  0  0  0  0  0  0  0  0  0
   -0.8462   -1.4044   -0.4102 N   0  0  0  0  0  0  0  0  0  0  0  0
   -1.6961   -1.0044   -0.8207 H   0  0  0  0  0  0  0  0  0  0  0  0
    0.3949   -0.6150   -0.4659 C   0  0  1  0  0  0  0  0  0  0  0  0
    1.2091   -1.2843   -0.7614 H   0  0  0  0  0  0  0  0  0  0  0  0
    0.3994    0.6110   -1.4386 C   0  0  0  0  0  0  0  0  0  0  0  0
    0.9716    1.4309   -0.9913 H   0  0  0  0  0  0  0  0  0  0  0  0
    0.9828    0.2731   -2.3013 H   0  0  0  0  0  0  0  0  0  0  0  0
   -0.8950    1.2204   -2.0537 C   0  0  0  0  0  0  0  0  0  0  0  0
   -1.2358    2.0080   -1.3748 H   0  0  0  0  0  0  0  0  0  0  0  0
   -0.6286    1.7111   -2.9944 H   0  0  0  0  0  0  0  0  0  0  0  0
   -2.0953    0.3148   -2.3144 C   0  0  0  0  0  0  0  0  0  0  0  0
   -2.1256   -0.3374   -3.3824 O   0  5  0  0  0  0  0  0  0  0  0  0
   -2.9228    0.1815   -1.3745 O   0  0  0  0  0  0  0  0  0  0  0  0
    0.7474   -0.0836    0.9401 C   0  0  0  0  0  0  0  0  0  0  0  0
    1.9146    0.0180    1.3045 O   0  0  0  0  0  0  0  0  0  0  0  0
   -0.2552    0.4714    1.7141 N   0  0  0  0  0  0  0  0  0  0  0  0
   -1.1927    0.4453    1.3172 H   0  0  0  0  0  0  0  0  0  0  0  0
   -0.0340    1.1128    2.9997 C   0  0  0  0  0  0  0  0  0  0  0  0
    0.6061    1.9929    2.8824 H   0  0  0  0  0  0  0  0  0  0  0  0
   -0.9886    1.4312    3.4287 H   0  0  0  0  0  0  0  0  0  0  0  0
    0.4431    0.4161    3.6963 H   0  0  0  0  0  0  0  0  0  0  0  0
  1  2  1  0  0  0  0
  2  3  1  0  0  0  0
  2  4  1  0  0  0  0
  2  5  1  0  0  0  0
  5  6  2  0  0  0  0
  5  7  1  0  0  0  0
  7  8  1  0  0  0  0
  7  9  1  0  0  0  0
  9 10  1  0  0  0  0
  9 11  1  0  0  0  0
  9 20  1  0  0  0  0
 11 12  1  0  0  0  0
 11 13  1  0  0  0  0
 11 14  1  0  0  0  0
 14 15  1  0  0  0  0
 14 16  1  0  0  0  0
 14 17  1  0  0  0  0
 17 18  1  0  0  0  0
 17 19  2  0  0  0  0
 20 21  2  0  0  0  0
 20 22  1  0  0  0  0
 22 23  1  0  0  0  0
 22 24  1  0  0  0  0
 24 25  1  0  0  0  0
 24 26  1  0  0  0  0
 24 27  1  0  0  0  0
M  CHG  1  18  -1
M  END
$$$$

  -OEChem-04042215583D

 27 26  0     1  0  0  0  0  0999 V2000
   -2.1095   -4.0293    1.3830 H   0  0  0  0  0  0  0  0  0  0  0  0
   -2.1801   -3.2390    0.6312 C   0  0  0  0  0  0  0  0  0  0  0  0
   -2.9000   -2.4894    0.9704 H   0  0  0  0  0  0  0  0  0  0  0  0
   -2.5369   -3.6698   -0.3076 H   0  0  0  0  0  0  0  0  0  0  0  0
   -0.8253   -2.5900    0.4164 C   0  0  0  0  0  0  0  0  0  0  0  0
    0.1705   -3.0578    0.9506 O   0  0  0  0  0  0  0  0  0  0  0  0
   -0.7357   -1.4830   -0.3969 N   0  0  0  0  0  0  0  0  0  0  0  0
   -1.6395   -1.1060   -0.6982 H   0  0  0  0  0  0  0  0  0  0  0  0
    0.4409   -0.6021   -0.4955 C   0  0  1  0  0  0  0  0  0  0  0  0
    1.3118   -1.2051   -0.7705 H   0  0  0  0  0  0  0  0  0  0  0  0
    0.3413    0.6198   -1.4726 C   0  0  0  0  0  0  0  0  0  0  0  0
    0.8811    1.4737   -1.0484 H   0  0  0  0  0  0  0  0  0  0  0  0
    0.9215    0.3088   -2.3470 H   0  0  0  0  0  0  0  0  0  0  0  0
   -0.9975    1.1581   -2.0649 C   0  0  0  0  0  0  0  0  0  0  0  0
   -1.2273    2.0951   -1.5489 H   0  0  0  0  0  0  0  0  0  0  0  0
   -0.8285    1.4158   -3.1149 H   0  0  0  0  0  0  0  0  0  0  0  0
   -2.2551    0.3023   -1.9840 C   0  0  0  0  0  0  0  0  0  0  0  0
   -2.5468   -0.4325   -2.9541 O   0  5  0  0  0  0  0  0  0  0  0  0
   -2.8342    0.2670   -0.8655 O   0  0  0  0  0  0  0  0  0  0  0  0
    0.7166    0.0045    0.8971 C   0  0  0  0  0  0  0  0  0  0  0  0
    1.8621    0.2079    1.2880 O   0  0  0  0  0  0  0  0  0  0  0  0
   -0.3546    0.4972    1.6209 N   0  0  0  0  0  0  0  0  0  0  0  0
   -1.2617    0.4550    1.1506 H   0  0  0  0  0  0  0  0  0  0  0  0
   -0.2201    1.2709    2.8435 C   0  0  0  0  0  0  0  0  0  0  0  0
    0.2985    2.2138    2.6432 H   0  0  0  0  0  0  0  0  0  0  0  0
   -1.2086    1.4966    3.2542 H   0  0  0  0  0  0  0  0  0  0  0  0
    0.3444    0.7062    3.5923 H   0  0  0  0  0  0  0  0  0  0  0  0
  1  2  1  0  0  0  0
  2  3  1  0  0  0  0
  2  4  1  0  0  0  0
  2  5  1  0  0  0  0
  5  6  2  0  0  0  0
  5  7  1  0  0  0  0
  7  8  1  0  0  0  0
  7  9  1  0  0  0  0
  9 10  1  0  0  0  0
  9 11  1  0  0  0  0
  9 20  1  0  0  0  0
 11 12  1  0  0  0  0
 11 13  1  0  0  0  0
 11 14  1  0  0  0  0
 14 15  1  0  0  0  0
 14 16  1  0  0  0  0
 14 17  1  0  0  0  0
 17 18  1  0  0  0  0
 17 19  2  0  0  0  0
 20 21  2  0  0  0  0
 20 22  1  0  0  0  0
 22 23  1  0  0  0  0
 22 24  1  0  0  0  0
 24 25  1  0  0  0  0
 24 26  1  0  0  0  0
 24 27  1  0  0  0  0
M  CHG  1  18  -1
M  END
$$$$

  -OEChem-04042215583D

 27 26  0     1  0  0  0  0  0999 V2000
   -2.0896   -4.2570    0.5033 H   0  0  0  0  0  0  0  0  0  0  0  0
   -2.2120   -3.2931    0.0027 C   0  0  0  0  0  0  0  0  0  0  0  0
   -2.8886   -2.6695    0.5934 H   0  0  0  0  0  0  0  0  0  0  0  0
   -2.6539   -3.4555   -0.9836 H   0  0  0  0  0  0  0  0  0  0  0  0
   -0.8716   -2.5966   -0.1418 C   0  0  0  0  0  0  0  0  0  0  0  0
    0.1586   -3.1777    0.1698 O   0  0  0  0  0  0  0  0  0  0  0  0
   -0.8350   -1.3252   -0.6670 N   0  0  0  0  0  0  0  0  0  0  0  0
   -1.7444   -0.9370   -0.9356 H   0  0  0  0  0  0  0  0  0  0  0  0
    0.3505   -0.4487   -0.7234 C   0  0  1  0  0  0  0  0  0  0  0  0
    1.1543   -0.9515   -1.2694 H   0  0  0  0  0  0  0  0  0  0  0  0
    0.1478    1.0000   -1.2953 C   0  0  0  0  0  0  0  0  0  0  0  0
    0.7821    1.7021   -0.7423 H   0  0  0  0  0  0  0  0  0  0  0  0
    0.5687    0.9615   -2.3047 H   0  0  0  0  0  0  0  0  0  0  0  0
   -1.2499    1.6733   -1.4647 C   0  0  0  0  0  0  0  0  0  0  0  0
   -1.2476    2.6044   -0.8902 H   0  0  0  0  0  0  0  0  0  0  0  0
   -1.3734    1.9540   -2.5151 H   0  0  0  0  0  0  0  0  0  0  0  0
   -2.4810    0.8834   -1.0445 C   0  0  0  0  0  0  0  0  0  0  0  0
   -2.6844    0.7995    0.1934 O   0  5  0  0  0  0  0  0  0  0  0  0
   -3.0363    0.1525   -1.8982 O   0  0  0  0  0  0  0  0  0  0  0  0
    0.8257   -0.2117    0.7282 C   0  0  0  0  0  0  0  0  0  0  0  0
    2.0216   -0.1282    0.9961 O   0  0  0  0  0  0  0  0  0  0  0  0
   -0.1228    0.0876    1.6913 N   0  0  0  0  0  0  0  0  0  0  0  0
   -1.0797    0.2251    1.3384 H   0  0  0  0  0  0  0  0  0  0  0  0
    0.2046    0.5517    3.0279 C   0  0  0  0  0  0  0  0  0  0  0  0
    0.7144    1.5190    2.9814 H   0  0  0  0  0  0  0  0  0  0  0  0
   -0.7100    0.6667    3.6169 H   0  0  0  0  0  0  0  0  0  0  0  0
    0.8536   -0.1695    3.5345 H   0  0  0  0  0  0  0  0  0  0  0  0
  1  2  1  0  0  0  0
  2  3  1  0  0  0  0
  2  4  1  0  0  0  0
  2  5  1  0  0  0  0
  5  6  2  0  0  0  0
  5  7  1  0  0  0  0
  7  8  1  0  0  0  0
  7  9  1  0  0  0  0
  9 10  1  0  0  0  0
  9 11  1  0  0  0  0
  9 20  1  0  0  0  0
 11 12  1  0  0  0  0
 11 13  1  0  0  0  0
 11 14  1  0  0  0  0
 14 15  1  0  0  0  0
 14 16  1  0  0  0  0
 14 17  1  0  0  0  0
 17 18  1  0  0  0  0
 17 19  2  0  0  0  0
 20 21  2  0  0  0  0
 20 22  1  0  0  0  0
 22 23  1  0  0  0  0
 22 24  1  0  0  0  0
 24 25  1  0  0  0  0
 24 26  1  0  0  0  0
 24 27  1  0  0  0  0
M  CHG  1  18  -1
M  END
$$$$

  -OEChem-04042215583D

 27 26  0     1  0  0  0  0  0999 V2000
   -2.2881   -4.1320    0.7117 H   0  0  0  0  0  0  0  0  0  0  0  0
   -2.3208   -3.2174    0.1140 C   0  0  0  0  0  0  0  0  0  0  0  0
   -3.0290   -2.5201    0.5700 H   0  0  0  0  0  0  0  0  0  0  0  0
   -2.6662   -3.4603   -0.8938 H   0  0  0  0  0  0  0  0  0  0  0  0
   -0.9459   -2.5782    0.0479 C   0  0  0  0  0  0  0  0  0  0  0  0
    0.0263   -3.1639    0.5036 O   0  0  0  0  0  0  0  0  0  0  0  0
   -0.8084   -1.3569   -0.5707 N   0  0  0  0  0  0  0  0  0  0  0  0
   -1.6769   -0.9541   -0.9366 H   0  0  0  0  0  0  0  0  0  0  0  0
    0.4062   -0.5203   -0.5481 C   0  0  1  0  0  0  0  0  0  0  0  0
    1.2445   -1.1013   -0.9439 H   0  0  0  0  0  0  0  0  0  0  0  0
    0.3178    0.8395   -1.3247 C   0  0  0  0  0  0  0  0  0  0  0  0
    0.8423    1.6063   -0.7435 H   0  0  0  0  0  0  0  0  0  0  0  0
    0.9073    0.7060   -2.2370 H   0  0  0  0  0  0  0  0  0  0  0  0
   -1.0357    1.4692   -1.7762 C   0  0  0  0  0  0  0  0  0  0  0  0
   -0.9976    2.5465   -1.5907 H   0  0  0  0  0  0  0  0  0  0  0  0
   -1.1253    1.3380   -2.8590 H   0  0  0  0  0  0  0  0  0  0  0  0
   -2.3107    0.9229   -1.1409 C   0  0  0  0  0  0  0  0  0  0  0  0
   -2.4736    1.1511    0.0834 O   0  5  0  0  0  0  0  0  0  0  0  0
   -2.9752    0.0823   -1.7940 O   0  0  0  0  0  0  0  0  0  0  0  0
    0.7507   -0.1501    0.9132 C   0  0  0  0  0  0  0  0  0  0  0  0
    1.9210   -0.1036    1.2840 O   0  0  0  0  0  0  0  0  0  0  0  0
   -0.2572    0.2732    1.7609 N   0  0  0  0  0  0  0  0  0  0  0  0
   -1.1587    0.4717    1.3033 H   0  0  0  0  0  0  0  0  0  0  0  0
   -0.0117    0.8388    3.0761 C   0  0  0  0  0  0  0  0  0  0  0  0
    0.5601    1.7682    2.9918 H   0  0  0  0  0  0  0  0  0  0  0  0
   -0.9626    1.0570    3.5710 H   0  0  0  0  0  0  0  0  0  0  0  0
    0.5468    0.1315    3.6975 H   0  0  0  0  0  0  0  0  0  0  0  0
  1  2  1  0  0  0  0
  2  3  1  0  0  0  0
  2  4  1  0  0  0  0
  2  5  1  0  0  0  0
  5  6  2  0  0  0  0
  5  7  1  0  0  0  0
  7  8  1  0  0  0  0
  7  9  1  0  0  0  0
  9 10  1  0  0  0  0
  9 11  1  0  0  0  0
  9 20  1  0  0  0  0
 11 12  1  0  0  0  0
 11 13  1  0  0  0  0
 11 14  1  0  0  0  0
 14 15  1  0  0  0  0
 14 16  1  0  0  0  0
 14 17  1  0  0  0  0
 17 18  1  0  0  0  0
 17 19  2  0  0  0  0
 20 21  2  0  0  0  0
 20 22  1  0  0  0  0
 22 23  1  0  0  0  0
 22 24  1  0  0  0  0
 24 25  1  0  0  0  0
 24 26  1  0  0  0  0
 24 27  1  0  0  0  0
M  CHG  1  18  -1
M  END
$$$$

  -OEChem-04042215583D

 27 26  0     1  0  0  0  0  0999 V2000
   -2.5285   -4.0046    0.6814 H   0  0  0  0  0  0  0  0  0  0  0  0
   -2.5102   -3.0752    0.1062 C   0  0  0  0  0  0  0  0  0  0  0  0
   -3.1622   -2.3440    0.5918 H   0  0  0  0  0  0  0  0  0  0  0  0
   -2.8884   -3.2697   -0.9004 H   0  0  0  0  0  0  0  0  0  0  0  0
   -1.0968   -2.5281    0.0284 C   0  0  0  0  0  0  0  0  0  0  0  0
   -0.1602   -3.1860    0.4594 O   0  0  0  0  0  0  0  0  0  0  0  0
   -0.8836   -1.3106   -0.5764 N   0  0  0  0  0  0  0  0  0  0  0  0
   -1.7331   -0.8238   -0.8807 H   0  0  0  0  0  0  0  0  0  0  0  0
    0.3793   -0.5512   -0.5148 C   0  0  1  0  0  0  0  0  0  0  0  0
    1.1824   -1.1896   -0.8958 H   0  0  0  0  0  0  0  0  0  0  0  0
    0.3742    0.7772   -1.3409 C   0  0  0  0  0  0  0  0  0  0  0  0
    0.8806    1.5492   -0.7512 H   0  0  0  0  0  0  0  0  0  0  0  0
    1.0002    0.6108   -2.2228 H   0  0  0  0  0  0  0  0  0  0  0  0
   -0.9563    1.4043   -1.8482 C   0  0  0  0  0  0  0  0  0  0  0  0
   -0.8187    2.4835   -1.9598 H   0  0  0  0  0  0  0  0  0  0  0  0
   -1.1602    1.0022   -2.8455 H   0  0  0  0  0  0  0  0  0  0  0  0
   -2.1939    1.1574   -0.9851 C   0  0  0  0  0  0  0  0  0  0  0  0
   -2.1783    1.6023    0.1878 O   0  5  0  0  0  0  0  0  0  0  0  0
   -3.0452    0.3425   -1.4185 O   0  0  0  0  0  0  0  0  0  0  0  0
    0.7539   -0.1953    0.9433 C   0  0  0  0  0  0  0  0  0  0  0  0
    1.9248   -0.2577    1.3094 O   0  0  0  0  0  0  0  0  0  0  0  0
   -0.2076    0.2978    1.8059 N   0  0  0  0  0  0  0  0  0  0  0  0
   -1.0697    0.6266    1.3480 H   0  0  0  0  0  0  0  0  0  0  0  0
    0.1069    0.8370    3.1180 C   0  0  0  0  0  0  0  0  0  0  0  0
    0.7572    1.7125    3.0261 H   0  0  0  0  0  0  0  0  0  0  0  0
   -0.8137    1.1381    3.6265 H   0  0  0  0  0  0  0  0  0  0  0  0
    0.6092    0.0825    3.7315 H   0  0  0  0  0  0  0  0  0  0  0  0
  1  2  1  0  0  0  0
  2  3  1  0  0  0  0
  2  4  1  0  0  0  0
  2  5  1  0  0  0  0
  5  6  2  0  0  0  0
  5  7  1  0  0  0  0
  7  8  1  0  0  0  0
  7  9  1  0  0  0  0
  9 10  1  0  0  0  0
  9 11  1  0  0  0  0
  9 20  1  0  0  0  0
 11 12  1  0  0  0  0
 11 13  1  0  0  0  0
 11 14  1  0  0  0  0
 14 15  1  0  0  0  0
 14 16  1  0  0  0  0
 14 17  1  0  0  0  0
 17 18  1  0  0  0  0
 17 19  2  0  0  0  0
 20 21  2  0  0  0  0
 20 22  1  0  0  0  0
 22 23  1  0  0  0  0
 22 24  1  0  0  0  0
 24 25  1  0  0  0  0
 24 26  1  0  0  0  0
 24 27  1  0  0  0  0
M  CHG  1  18  -1
M  END
$$$$

  -OEChem-04042215583D

 27 26  0     1  0  0  0  0  0999 V2000
   -2.4483   -3.9519    0.7467 H   0  0  0  0  0  0  0  0  0  0  0  0
   -2.4703   -2.9904    0.2268 C   0  0  0  0  0  0  0  0  0  0  0  0
   -2.9913   -2.2614    0.8533 H   0  0  0  0  0  0  0  0  0  0  0  0
   -3.0175   -3.1051   -0.7120 H   0  0  0  0  0  0  0  0  0  0  0  0
   -1.0586   -2.5091   -0.0544 C   0  0  0  0  0  0  0  0  0  0  0  0
   -0.1040   -3.2314    0.1944 O   0  0  0  0  0  0  0  0  0  0  0  0
   -0.8755   -1.2638   -0.6115 N   0  0  0  0  0  0  0  0  0  0  0  0
   -1.7149   -0.6782   -0.5743 H   0  0  0  0  0  0  0  0  0  0  0  0
    0.3796   -0.5114   -0.4695 C   0  0  1  0  0  0  0  0  0  0  0  0
    1.1872   -1.1529   -0.8368 H   0  0  0  0  0  0  0  0  0  0  0  0
    0.3885    0.7753   -1.3445 C   0  0  0  0  0  0  0  0  0  0  0  0
    0.8233    1.5850   -0.7487 H   0  0  0  0  0  0  0  0  0  0  0  0
    1.0757    0.6000   -2.1779 H   0  0  0  0  0  0  0  0  0  0  0  0
   -0.9365    1.3234   -1.9547 C   0  0  0  0  0  0  0  0  0  0  0  0
   -0.7283    2.3213   -2.3510 H   0  0  0  0  0  0  0  0  0  0  0  0
   -1.1823    0.6803   -2.8051 H   0  0  0  0  0  0  0  0  0  0  0  0
   -2.2137    1.4229   -1.1052 C   0  0  0  0  0  0  0  0  0  0  0  0
   -2.1967    1.0613    0.0991 O   0  5  0  0  0  0  0  0  0  0  0  0
   -3.2460    1.7946   -1.7077 O   0  0  0  0  0  0  0  0  0  0  0  0
    0.7550   -0.1965    0.9971 C   0  0  0  0  0  0  0  0  0  0  0  0
    1.9274   -0.2540    1.3575 O   0  0  0  0  0  0  0  0  0  0  0  0
   -0.2000    0.2729    1.8761 N   0  0  0  0  0  0  0  0  0  0  0  0
   -1.0865    0.5507    1.4321 H   0  0  0  0  0  0  0  0  0  0  0  0
    0.1118    0.8069    3.1910 C   0  0  0  0  0  0  0  0  0  0  0  0
    0.7209    1.7117    3.1008 H   0  0  0  0  0  0  0  0  0  0  0  0
   -0.8124    1.0590    3.7192 H   0  0  0  0  0  0  0  0  0  0  0  0
    0.6583    0.0679    3.7855 H   0  0  0  0  0  0  0  0  0  0  0  0
  1  2  1  0  0  0  0
  2  3  1  0  0  0  0
  2  4  1  0  0  0  0
  2  5  1  0  0  0  0
  5  6  2  0  0  0  0
  5  7  1  0  0  0  0
  7  8  1  0  0  0  0
  7  9  1  0  0  0  0
  9 10  1  0  0  0  0
  9 11  1  0  0  0  0
  9 20  1  0  0  0  0
 11 12  1  0  0  0  0
 11 13  1  0  0  0  0
 11 14  1  0  0  0  0
 14 15  1  0  0  0  0
 14 16  1  0  0  0  0
 14 17  1  0  0  0  0
 17 18  1  0  0  0  0
 17 19  2  0  0  0  0
 20 21  2  0  0  0  0
 20 22  1  0  0  0  0
 22 23  1  0  0  0  0
 22 24  1  0  0  0  0
 24 25  1  0  0  0  0
 24 26  1  0  0  0  0
 24 27  1  0  0  0  0
M  CHG  1  18  -1
M  END
$$$$

  -OEChem-04042215583D

 27 26  0     1  0  0  0  0  0999 V2000
   -2.6070   -3.8413    0.6517 H   0  0  0  0  0  0  0  0  0  0  0  0
   -2.5640   -2.9059    0.0877 C   0  0  0  0  0  0  0  0  0  0  0  0
   -3.1273   -2.1403    0.6283 H   0  0  0  0  0  0  0  0  0  0  0  0
   -3.0247   -3.0573   -0.8913 H   0  0  0  0  0  0  0  0  0  0  0  0
   -1.1243   -2.4573   -0.0833 C   0  0  0  0  0  0  0  0  0  0  0  0
   -0.2088   -3.1889    0.2659 O   0  0  0  0  0  0  0  0  0  0  0  0
   -0.8675   -1.2414   -0.6745 N   0  0  0  0  0  0  0  0  0  0  0  0
   -1.7044   -0.6591   -0.8004 H   0  0  0  0  0  0  0  0  0  0  0  0
    0.4093   -0.5202   -0.5131 C   0  0  1  0  0  0  0  0  0  0  0  0
    1.2213   -1.1711   -0.8528 H   0  0  0  0  0  0  0  0  0  0  0  0
    0.4412    0.7859   -1.3585 C   0  0  0  0  0  0  0  0  0  0  0  0
    0.9028    1.5933   -0.7787 H   0  0  0  0  0  0  0  0  0  0  0  0
    1.0896    0.6087   -2.2217 H   0  0  0  0  0  0  0  0  0  0  0  0
   -0.9235    1.2783   -1.8959 C   0  0  0  0  0  0  0  0  0  0  0  0
   -0.7684    2.1990   -2.4651 H   0  0  0  0  0  0  0  0  0  0  0  0
   -1.3446    0.5397   -2.5852 H   0  0  0  0  0  0  0  0  0  0  0  0
   -1.9140    1.5702   -0.7689 C   0  0  0  0  0  0  0  0  0  0  0  0
   -1.6022    2.4165    0.0995 O   0  5  0  0  0  0  0  0  0  0  0  0
   -2.8716    0.7647   -0.6572 O   0  0  0  0  0  0  0  0  0  0  0  0
    0.7205   -0.1695    0.9611 C   0  0  0  0  0  0  0  0  0  0  0  0
    1.8563   -0.3338    1.3982 O   0  0  0  0  0  0  0  0  0  0  0  0
   -0.2592    0.3596    1.7826 N   0  0  0  0  0  0  0  0  0  0  0  0
   -1.0385    0.8080    1.2863 H   0  0  0  0  0  0  0  0  0  0  0  0
    0.0280    0.8431    3.1227 C   0  0  0  0  0  0  0  0  0  0  0  0
    0.7220    1.6887    3.0830 H   0  0  0  0  0  0  0  0  0  0  0  0
   -0.8967    1.1733    3.6053 H   0  0  0  0  0  0  0  0  0  0  0  0
    0.4697    0.0479    3.7316 H   0  0  0  0  0  0  0  0  0  0  0  0
  1  2  1  0  0  0  0
  2  3  1  0  0  0  0
  2  4  1  0  0  0  0
  2  5  1  0  0  0  0
  5  6  2  0  0  0  0
  5  7  1  0  0  0  0
  7  8  1  0  0  0  0
  7  9  1  0  0  0  0
  9 10  1  0  0  0  0
  9 11  1  0  0  0  0
  9 20  1  0  0  0  0
 11 12  1  0  0  0  0
 11 13  1  0  0  0  0
 11 14  1  0  0  0  0
 14 15  1  0  0  0  0
 14 16  1  0  0  0  0
 14 17  1  0  0  0  0
 17 18  1  0  0  0  0
 17 19  2  0  0  0  0
 20 21  2  0  0  0  0
 20 22  1  0  0  0  0
 22 23  1  0  0  0  0
 22 24  1  0  0  0  0
 24 25  1  0  0  0  0
 24 26  1  0  0  0  0
 24 27  1  0  0  0  0
M  CHG  1  18  -1
M  END
$$$$

  -OEChem-04042215583D

 27 26  0     1  0  0  0  0  0999 V2000
   -2.4686   -3.8933    0.7489 H   0  0  0  0  0  0  0  0  0  0  0  0
   -2.4702   -2.9296    0.2329 C   0  0  0  0  0  0  0  0  0  0  0  0
   -2.9705   -2.1906    0.8647 H   0  0  0  0  0  0  0  0  0  0  0  0
   -3.0239   -3.0280   -0.7039 H   0  0  0  0  0  0  0  0  0  0  0  0
   -1.0486   -2.4810   -0.0523 C   0  0  0  0  0  0  0  0  0  0  0  0
   -0.1076   -3.2068    0.2342 O   0  0  0  0  0  0  0  0  0  0  0  0
   -0.8396   -1.2657   -0.6641 N   0  0  0  0  0  0  0  0  0  0  0  0
   -1.6743   -0.6682   -0.6808 H   0  0  0  0  0  0  0  0  0  0  0  0
    0.4209   -0.5176   -0.5294 C   0  0  1  0  0  0  0  0  0  0  0  0
    1.2440   -1.1555   -0.8670 H   0  0  0  0  0  0  0  0  0  0  0  0
    0.4140    0.7707   -1.4004 C   0  0  0  0  0  0  0  0  0  0  0  0
    0.8743    1.6009   -0.8526 H   0  0  0  0  0  0  0  0  0  0  0  0
    1.0493    0.5768   -2.2699 H   0  0  0  0  0  0  0  0  0  0  0  0
   -0.9672    1.2202   -1.9349 C   0  0  0  0  0  0  0  0  0  0  0  0
   -0.8034    1.9749   -2.7098 H   0  0  0  0  0  0  0  0  0  0  0  0
   -1.5039    0.3974   -2.4149 H   0  0  0  0  0  0  0  0  0  0  0  0
   -1.8224    1.8501   -0.8390 C   0  0  0  0  0  0  0  0  0  0  0  0
   -2.3887    1.0401   -0.0556 O   0  5  0  0  0  0  0  0  0  0  0  0
   -1.8823    3.0967   -0.7451 O   0  0  0  0  0  0  0  0  0  0  0  0
    0.7307   -0.1545    0.9401 C   0  0  0  0  0  0  0  0  0  0  0  0
    1.8821   -0.2167    1.3608 O   0  0  0  0  0  0  0  0  0  0  0  0
   -0.2686    0.3518    1.7502 N   0  0  0  0  0  0  0  0  0  0  0  0
   -1.1452    0.5962    1.2693 H   0  0  0  0  0  0  0  0  0  0  0  0
   -0.0156    0.9435    3.0529 C   0  0  0  0  0  0  0  0  0  0  0  0
    0.6000    1.8426    2.9500 H   0  0  0  0  0  0  0  0  0  0  0  0
   -0.9622    1.2211    3.5259 H   0  0  0  0  0  0  0  0  0  0  0  0
    0.5001    0.2310    3.7044 H   0  0  0  0  0  0  0  0  0  0  0  0
  1  2  1  0  0  0  0
  2  3  1  0  0  0  0
  2  4  1  0  0  0  0
  2  5  1  0  0  0  0
  5  6  2  0  0  0  0
  5  7  1  0  0  0  0
  7  8  1  0  0  0  0
  7  9  1  0  0  0  0
  9 10  1  0  0  0  0
  9 11  1  0  0  0  0
  9 20  1  0  0  0  0
 11 12  1  0  0  0  0
 11 13  1  0  0  0  0
 11 14  1  0  0  0  0
 14 15  1  0  0  0  0
 14 16  1  0  0  0  0
 14 17  1  0  0  0  0
 17 18  1  0  0  0  0
 17 19  2  0  0  0  0
 20 21  2  0  0  0  0
 20 22  1  0  0  0  0
 22 23  1  0  0  0  0
 22 24  1  0  0  0  0
 24 25  1  0  0  0  0
 24 26  1  0  0  0  0
 24 27  1  0  0  0  0
M  CHG  1  18  -1
M  END
$$$$

  -OEChem-04042215583D

 27 26  0     1  0  0  0  0  0999 V2000
   -2.4732   -3.8910    0.7592 H   0  0  0  0  0  0  0  0  0  0  0  0
   -2.4752   -2.9478    0.2061 C   0  0  0  0  0  0  0  0  0  0  0  0
   -3.0114   -2.1967    0.7924 H   0  0  0  0  0  0  0  0  0  0  0  0
   -2.9944   -3.0942   -0.7441 H   0  0  0  0  0  0  0  0  0  0  0  0
   -1.0526   -2.4824   -0.0473 C   0  0  0  0  0  0  0  0  0  0  0  0
   -0.1120   -3.1966    0.2650 O   0  0  0  0  0  0  0  0  0  0  0  0
   -0.8420   -1.2693   -0.6649 N   0  0  0  0  0  0  0  0  0  0  0  0
   -1.6763   -0.6844   -0.7368 H   0  0  0  0  0  0  0  0  0  0  0  0
    0.4143   -0.5149   -0.5292 C   0  0  1  0  0  0  0  0  0  0  0  0
    1.2419   -1.1484   -0.8646 H   0  0  0  0  0  0  0  0  0  0  0  0
    0.4002    0.7733   -1.3989 C   0  0  0  0  0  0  0  0  0  0  0  0
    0.8716    1.6062   -0.8641 H   0  0  0  0  0  0  0  0  0  0  0  0
    1.0287    0.5696   -2.2712 H   0  0  0  0  0  0  0  0  0  0  0  0
   -0.9846    1.2151   -1.9365 C   0  0  0  0  0  0  0  0  0  0  0  0
   -0.8143    1.7875   -2.8533 H   0  0  0  0  0  0  0  0  0  0  0  0
   -1.6362    0.3876   -2.2241 H   0  0  0  0  0  0  0  0  0  0  0  0
   -1.6774    2.1425   -0.9494 C   0  0  0  0  0  0  0  0  0  0  0  0
   -2.2120    1.5550    0.0292 O   0  5  0  0  0  0  0  0  0  0  0  0
   -1.6718    3.3811   -1.1340 O   0  0  0  0  0  0  0  0  0  0  0  0
    0.7254   -0.1354    0.9365 C   0  0  0  0  0  0  0  0  0  0  0  0
    1.8696   -0.2411    1.3681 O   0  0  0  0  0  0  0  0  0  0  0  0
   -0.2698    0.3777    1.7478 N   0  0  0  0  0  0  0  0  0  0  0  0
   -1.1008    0.7242    1.2473 H   0  0  0  0  0  0  0  0  0  0  0  0
   -0.0018    0.9369    3.0624 C   0  0  0  0  0  0  0  0  0  0  0  0
    0.6514    1.8113    2.9797 H   0  0  0  0  0  0  0  0  0  0  0  0
   -0.9397    1.2460    3.5327 H   0  0  0  0  0  0  0  0  0  0  0  0
    0.4785    0.1930    3.7060 H   0  0  0  0  0  0  0  0  0  0  0  0
  1  2  1  0  0  0  0
  2  3  1  0  0  0  0
  2  4  1  0  0  0  0
  2  5  1  0  0  0  0
  5  6  2  0  0  0  0
  5  7  1  0  0  0  0
  7  8  1  0  0  0  0
  7  9  1  0  0  0  0
  9 10  1  0  0  0  0
  9 11  1  0  0  0  0
  9 20  1  0  0  0  0
 11 12  1  0  0  0  0
 11 13  1  0  0  0  0
 11 14  1  0  0  0  0
 14 15  1  0  0  0  0
 14 16  1  0  0  0  0
 14 17  1  0  0  0  0
 17 18  1  0  0  0  0
 17 19  2  0  0  0  0
 20 21  2  0  0  0  0
 20 22  1  0  0  0  0
 22 23  1  0  0  0  0
 22 24  1  0  0  0  0
 24 25  1  0  0  0  0
 24 26  1  0  0  0  0
 24 27  1  0  0  0  0
M  CHG  1  18  -1
M  END
$$$$

  -OEChem-04042215583D

 27 26  0     1  0  0  0  0  0999 V2000
   -2.4600   -3.9076    0.7863 H   0  0  0  0  0  0  0  0  0  0  0  0
   -2.4636   -2.9775    0.2113 C   0  0  0  0  0  0  0  0  0  0  0  0
   -3.0273   -2.2230    0.7663 H   0  0  0  0  0  0  0  0  0  0  0  0
   -2.9549   -3.1554   -0.7483 H   0  0  0  0  0  0  0  0  0  0  0  0
   -1.0427   -2.4941   -0.0167 C   0  0  0  0  0  0  0  0  0  0  0  0
   -0.1000   -3.1874    0.3322 O   0  0  0  0  0  0  0  0  0  0  0  0
   -0.8371   -1.2956   -0.6652 N   0  0  0  0  0  0  0  0  0  0  0  0
   -1.6759   -0.7347   -0.7957 H   0  0  0  0  0  0  0  0  0  0  0  0
    0.4152   -0.5306   -0.5492 C   0  0  1  0  0  0  0  0  0  0  0  0
    1.2509   -1.1554   -0.8817 H   0  0  0  0  0  0  0  0  0  0  0  0
    0.3812    0.7660   -1.4058 C   0  0  0  0  0  0  0  0  0  0  0  0
    0.8796    1.5900   -0.8809 H   0  0  0  0  0  0  0  0  0  0  0  0
    0.9913    0.5616   -2.2912 H   0  0  0  0  0  0  0  0  0  0  0  0
   -1.0063    1.2328   -1.9266 C   0  0  0  0  0  0  0  0  0  0  0  0
   -0.8750    1.5723   -2.9587 H   0  0  0  0  0  0  0  0  0  0  0  0
   -1.7745    0.4615   -1.9674 H   0  0  0  0  0  0  0  0  0  0  0  0
   -1.4993    2.4216   -1.1142 C   0  0  0  0  0  0  0  0  0  0  0  0
   -1.9025    2.1310    0.0434 O   0  5  0  0  0  0  0  0  0  0  0  0
   -1.4929    3.5711   -1.6124 O   0  0  0  0  0  0  0  0  0  0  0  0
    0.7170   -0.1147    0.9089 C   0  0  0  0  0  0  0  0  0  0  0  0
    1.8418   -0.2780    1.3716 O   0  0  0  0  0  0  0  0  0  0  0  0
   -0.2864    0.4133    1.7021 N   0  0  0  0  0  0  0  0  0  0  0  0
   -1.0370    0.8819    1.1746 H   0  0  0  0  0  0  0  0  0  0  0  0
   -0.0236    0.9193    3.0395 C   0  0  0  0  0  0  0  0  0  0  0  0
    0.6718    1.7638    2.9991 H   0  0  0  0  0  0  0  0  0  0  0  0
   -0.9568    1.2582    3.4990 H   0  0  0  0  0  0  0  0  0  0  0  0
    0.4064    0.1343    3.6697 H   0  0  0  0  0  0  0  0  0  0  0  0
  1  2  1  0  0  0  0
  2  3  1  0  0  0  0
  2  4  1  0  0  0  0
  2  5  1  0  0  0  0
  5  6  2  0  0  0  0
  5  7  1  0  0  0  0
  7  8  1  0  0  0  0
  7  9  1  0  0  0  0
  9 10  1  0  0  0  0
  9 11  1  0  0  0  0
  9 20  1  0  0  0  0
 11 12  1  0  0  0  0
 11 13  1  0  0  0  0
 11 14  1  0  0  0  0
 14 15  1  0  0  0  0
 14 16  1  0  0  0  0
 14 17  1  0  0  0  0
 17 18  1  0  0  0  0
 17 19  2  0  0  0  0
 20 21  2  0  0  0  0
 20 22  1  0  0  0  0
 22 23  1  0  0  0  0
 22 24  1  0  0  0  0
 24 25  1  0  0  0  0
 24 26  1  0  0  0  0
 24 27  1  0  0  0  0
M  CHG  1  18  -1
M  END
$$$$

  -OEChem-04042215583D

 27 26  0     1  0  0  0  0  0999 V2000
   -2.4715   -3.9164    0.7974 H   0  0  0  0  0  0  0  0  0  0  0  0
   -2.4668   -2.9978    0.2043 C   0  0  0  0  0  0  0  0  0  0  0  0
   -3.0541   -2.2388    0.7276 H   0  0  0  0  0  0  0  0  0  0  0  0
   -2.9278   -3.1998   -0.7655 H   0  0  0  0  0  0  0  0  0  0  0  0
   -1.0441   -2.5054    0.0090 C   0  0  0  0  0  0  0  0  0  0  0  0
   -0.1077   -3.1777    0.4096 O   0  0  0  0  0  0  0  0  0  0  0  0
   -0.8295   -1.3252   -0.6701 N   0  0  0  0  0  0  0  0  0  0  0  0
   -1.6669   -0.7892   -0.8736 H   0  0  0  0  0  0  0  0  0  0  0  0
    0.4255   -0.5589   -0.5736 C   0  0  1  0  0  0  0  0  0  0  0  0
    1.2657   -1.1765   -0.9071 H   0  0  0  0  0  0  0  0  0  0  0  0
    0.3700    0.7508   -1.4088 C   0  0  0  0  0  0  0  0  0  0  0  0
    0.8894    1.5621   -0.8835 H   0  0  0  0  0  0  0  0  0  0  0  0
    0.9591    0.5657   -2.3125 H   0  0  0  0  0  0  0  0  0  0  0  0
   -1.0284    1.2354   -1.8901 C   0  0  0  0  0  0  0  0  0  0  0  0
   -1.0177    1.3047   -2.9819 H   0  0  0  0  0  0  0  0  0  0  0  0
   -1.8643    0.5897   -1.6297 H   0  0  0  0  0  0  0  0  0  0  0  0
   -1.3140    2.6135   -1.3124 C   0  0  0  0  0  0  0  0  0  0  0  0
   -1.5763    2.6153   -0.0804 O   0  5  0  0  0  0  0  0  0  0  0  0
   -1.2989    3.6229   -2.0550 O   0  0  0  0  0  0  0  0  0  0  0  0
    0.7206   -0.1058    0.8754 C   0  0  0  0  0  0  0  0  0  0  0  0
    1.8288   -0.3000    1.3649 O   0  0  0  0  0  0  0  0  0  0  0  0
   -0.2921    0.4455    1.6428 N   0  0  0  0  0  0  0  0  0  0  0  0
   -0.9786    0.9766    1.0927 H   0  0  0  0  0  0  0  0  0  0  0  0
   -0.0422    0.9351    2.9892 C   0  0  0  0  0  0  0  0  0  0  0  0
    0.6779    1.7593    2.9684 H   0  0  0  0  0  0  0  0  0  0  0  0
   -0.9741    1.2979    3.4324 H   0  0  0  0  0  0  0  0  0  0  0  0
    0.3523    0.1344    3.6228 H   0  0  0  0  0  0  0  0  0  0  0  0
  1  2  1  0  0  0  0
  2  3  1  0  0  0  0
  2  4  1  0  0  0  0
  2  5  1  0  0  0  0
  5  6  2  0  0  0  0
  5  7  1  0  0  0  0
  7  8  1  0  0  0  0
  7  9  1  0  0  0  0
  9 10  1  0  0  0  0
  9 11  1  0  0  0  0
  9 20  1  0  0  0  0
 11 12  1  0  0  0  0
 11 13  1  0  0  0  0
 11 14  1  0  0  0  0
 14 15  1  0  0  0  0
 14 16  1  0  0  0  0
 14 17  1  0  0  0  0
 17 18  1  0  0  0  0
 17 19  2  0  0  0  0
 20 21  2  0  0  0  0
 20 22  1  0  0  0  0
 22 23  1  0  0  0  0
 22 24  1  0  0  0  0
 24 25  1  0  0  0  0
 24 26  1  0  0  0  0
 24 27  1  0  0  0  0
M  CHG  1  18  -1
M  END
$$$$

  -OEChem-04042215583D

 27 26  0     1  0  0  0  0  0999 V2000
   -2.5511   -3.9843    0.6321 H   0  0  0  0  0  0  0  0  0  0  0  0
   -2.5208   -3.0423    0.0773 C   0  0  0  0  0  0  0  0  0  0  0  0
   -3.1876   -2.3258    0.5638 H   0  0  0  0  0  0  0  0  0  0  0  0
   -2.8717   -3.2210   -0.9421 H   0  0  0  0  0  0  0  0  0  0  0  0
   -1.1055   -2.4938    0.0498 C   0  0  0  0  0  0  0  0  0  0  0  0
   -0.2006   -3.1232    0.5722 O   0  0  0  0  0  0  0  0  0  0  0  0
   -0.8562   -1.3084   -0.6077 N   0  0  0  0  0  0  0  0  0  0  0  0
   -1.6588   -0.8277   -1.0022 H   0  0  0  0  0  0  0  0  0  0  0  0
    0.4107   -0.5582   -0.5301 C   0  0  1  0  0  0  0  0  0  0  0  0
    1.2327   -1.1910   -0.8802 H   0  0  0  0  0  0  0  0  0  0  0  0
    0.3512    0.7346   -1.3927 C   0  0  0  0  0  0  0  0  0  0  0  0
    0.8482    1.5518   -0.8554 H   0  0  0  0  0  0  0  0  0  0  0  0
    0.9493    0.5641   -2.2933 H   0  0  0  0  0  0  0  0  0  0  0  0
   -1.0541    1.2068   -1.8605 C   0  0  0  0  0  0  0  0  0  0  0  0
   -1.1989    0.9476   -2.9136 H   0  0  0  0  0  0  0  0  0  0  0  0
   -1.8697    0.7554   -1.2950 H   0  0  0  0  0  0  0  0  0  0  0  0
   -1.2119    2.7091   -1.6577 C   0  0  0  0  0  0  0  0  0  0  0  0
   -1.4686    3.0775   -0.4834 O   0  5  0  0  0  0  0  0  0  0  0  0
   -1.1049    3.4694   -2.6490 O   0  0  0  0  0  0  0  0  0  0  0  0
    0.7543   -0.1182    0.9116 C   0  0  0  0  0  0  0  0  0  0  0  0
    1.8914   -0.2659    1.3468 O   0  0  0  0  0  0  0  0  0  0  0  0
   -0.2265    0.4402    1.7128 N   0  0  0  0  0  0  0  0  0  0  0  0
   -1.0022    0.8541    1.1960 H   0  0  0  0  0  0  0  0  0  0  0  0
    0.0796    1.0121    3.0149 C   0  0  0  0  0  0  0  0  0  0  0  0
    0.7778    1.8487    2.9100 H   0  0  0  0  0  0  0  0  0  0  0  0
   -0.8364    1.3800    3.4864 H   0  0  0  0  0  0  0  0  0  0  0  0
    0.5255    0.2572    3.6704 H   0  0  0  0  0  0  0  0  0  0  0  0
  1  2  1  0  0  0  0
  2  3  1  0  0  0  0
  2  4  1  0  0  0  0
  2  5  1  0  0  0  0
  5  6  2  0  0  0  0
  5  7  1  0  0  0  0
  7  8  1  0  0  0  0
  7  9  1  0  0  0  0
  9 10  1  0  0  0  0
  9 11  1  0  0  0  0
  9 20  1  0  0  0  0
 11 12  1  0  0  0  0
 11 13  1  0  0  0  0
 11 14  1  0  0  0  0
 14 15  1  0  0  0  0
 14 16  1  0  0  0  0
 14 17  1  0  0  0  0
 17 18  1  0  0  0  0
 17 19  2  0  0  0  0
 20 21  2  0  0  0  0
 20 22  1  0  0  0  0
 22 23  1  0  0  0  0
 22 24  1  0  0  0  0
 24 25  1  0  0  0  0
 24 26  1  0  0  0  0
 24 27  1  0  0  0  0
M  CHG  1  18  -1
M  END
$$$$

  -OEChem-04042215583D

 27 26  0     1  0  0  0  0  0999 V2000
   -2.6032   -3.9976    0.4433 H   0  0  0  0  0  0  0  0  0  0  0  0
   -2.5315   -3.0491   -0.0962 C   0  0  0  0  0  0  0  0  0  0  0  0
   -3.2656   -2.3526    0.3167 H   0  0  0  0  0  0  0  0  0  0  0  0
   -2.7597   -3.2248   -1.1504 H   0  0  0  0  0  0  0  0  0  0  0  0
   -1.1347   -2.4703    0.0414 C   0  0  0  0  0  0  0  0  0  0  0  0
   -0.2861   -3.0760    0.6742 O   0  0  0  0  0  0  0  0  0  0  0  0
   -0.8355   -1.2799   -0.5859 N   0  0  0  0  0  0  0  0  0  0  0  0
   -1.5823   -0.8285   -1.1074 H   0  0  0  0  0  0  0  0  0  0  0  0
    0.4339   -0.5415   -0.4487 C   0  0  1  0  0  0  0  0  0  0  0  0
    1.2620   -1.1840   -0.7654 H   0  0  0  0  0  0  0  0  0  0  0  0
    0.4162    0.7340   -1.3368 C   0  0  0  0  0  0  0  0  0  0  0  0
    0.8607    1.5659   -0.7776 H   0  0  0  0  0  0  0  0  0  0  0  0
    1.0627    0.5665   -2.2044 H   0  0  0  0  0  0  0  0  0  0  0  0
   -0.9753    1.1688   -1.8629 C   0  0  0  0  0  0  0  0  0  0  0  0
   -1.2001    0.6532   -2.8013 H   0  0  0  0  0  0  0  0  0  0  0  0
   -1.7636    0.9245   -1.1460 H   0  0  0  0  0  0  0  0  0  0  0  0
   -1.0466    2.6807   -2.0547 C   0  0  0  0  0  0  0  0  0  0  0  0
   -0.8065    3.1433   -3.1954 O   0  5  0  0  0  0  0  0  0  0  0  0
   -1.3574    3.3640   -1.0478 O   0  0  0  0  0  0  0  0  0  0  0  0
    0.7286   -0.1174    1.0076 C   0  0  0  0  0  0  0  0  0  0  0  0
    1.8597   -0.2253    1.4681 O   0  0  0  0  0  0  0  0  0  0  0  0
   -0.2769    0.4409    1.7766 N   0  0  0  0  0  0  0  0  0  0  0  0
   -1.0900    0.7574    1.2546 H   0  0  0  0  0  0  0  0  0  0  0  0
   -0.0247    1.0444    3.0762 C   0  0  0  0  0  0  0  0  0  0  0  0
    0.6366    1.9108    2.9729 H   0  0  0  0  0  0  0  0  0  0  0  0
   -0.9663    1.3759    3.5238 H   0  0  0  0  0  0  0  0  0  0  0  0
    0.4414    0.3201    3.7522 H   0  0  0  0  0  0  0  0  0  0  0  0
  1  2  1  0  0  0  0
  2  3  1  0  0  0  0
  2  4  1  0  0  0  0
  2  5  1  0  0  0  0
  5  6  2  0  0  0  0
  5  7  1  0  0  0  0
  7  8  1  0  0  0  0
  7  9  1  0  0  0  0
  9 10  1  0  0  0  0
  9 11  1  0  0  0  0
  9 20  1  0  0  0  0
 11 12  1  0  0  0  0
 11 13  1  0  0  0  0
 11 14  1  0  0  0  0
 14 15  1  0  0  0  0
 14 16  1  0  0  0  0
 14 17  1  0  0  0  0
 17 18  1  0  0  0  0
 17 19  2  0  0  0  0
 20 21  2  0  0  0  0
 20 22  1  0  0  0  0
 22 23  1  0  0  0  0
 22 24  1  0  0  0  0
 24 25  1  0  0  0  0
 24 26  1  0  0  0  0
 24 27  1  0  0  0  0
M  CHG  1  18  -1
M  END
$$$$

  -OEChem-04042215583D

 27 26  0     1  0  0  0  0  0999 V2000
   -2.6002   -4.0011    0.4275 H   0  0  0  0  0  0  0  0  0  0  0  0
   -2.5277   -3.0544   -0.1153 C   0  0  0  0  0  0  0  0  0  0  0  0
   -3.2810   -2.3657    0.2753 H   0  0  0  0  0  0  0  0  0  0  0  0
   -2.7281   -3.2389   -1.1738 H   0  0  0  0  0  0  0  0  0  0  0  0
   -1.1426   -2.4558    0.0536 C   0  0  0  0  0  0  0  0  0  0  0  0
   -0.3039   -3.0428    0.7162 O   0  0  0  0  0  0  0  0  0  0  0  0
   -0.8451   -1.2628   -0.5695 N   0  0  0  0  0  0  0  0  0  0  0  0
   -1.5775   -0.8334   -1.1294 H   0  0  0  0  0  0  0  0  0  0  0  0
    0.4267   -0.5255   -0.4450 C   0  0  1  0  0  0  0  0  0  0  0  0
    1.2490   -1.1711   -0.7708 H   0  0  0  0  0  0  0  0  0  0  0  0
    0.4008    0.7405   -1.3444 C   0  0  0  0  0  0  0  0  0  0  0  0
    0.8405    1.5853   -0.8009 H   0  0  0  0  0  0  0  0  0  0  0  0
    1.0374    0.5639   -2.2176 H   0  0  0  0  0  0  0  0  0  0  0  0
   -1.0007    1.1487   -1.8522 C   0  0  0  0  0  0  0  0  0  0  0  0
   -1.3363    0.4563   -2.6302 H   0  0  0  0  0  0  0  0  0  0  0  0
   -1.7229    1.1152   -1.0306 H   0  0  0  0  0  0  0  0  0  0  0  0
   -0.9973    2.5710   -2.4058 C   0  0  0  0  0  0  0  0  0  0  0  0
   -0.6001    2.7374   -3.5841 O   0  5  0  0  0  0  0  0  0  0  0  0
   -1.4122    3.4821   -1.6484 O   0  0  0  0  0  0  0  0  0  0  0  0
    0.7442   -0.1062    1.0075 C   0  0  0  0  0  0  0  0  0  0  0  0
    1.8878   -0.1858    1.4415 O   0  0  0  0  0  0  0  0  0  0  0  0
   -0.2478    0.4499    1.7950 N   0  0  0  0  0  0  0  0  0  0  0  0
   -1.1053    0.6971    1.3102 H   0  0  0  0  0  0  0  0  0  0  0  0
    0.0158    1.0522    3.0929 C   0  0  0  0  0  0  0  0  0  0  0  0
    0.6659    1.9261    2.9833 H   0  0  0  0  0  0  0  0  0  0  0  0
   -0.9227    1.3713    3.5557 H   0  0  0  0  0  0  0  0  0  0  0  0
    0.5000    0.3307    3.7590 H   0  0  0  0  0  0  0  0  0  0  0  0
  1  2  1  0  0  0  0
  2  3  1  0  0  0  0
  2  4  1  0  0  0  0
  2  5  1  0  0  0  0
  5  6  2  0  0  0  0
  5  7  1  0  0  0  0
  7  8  1  0  0  0  0
  7  9  1  0  0  0  0
  9 10  1  0  0  0  0
  9 11  1  0  0  0  0
  9 20  1  0  0  0  0
 11 12  1  0  0  0  0
 11 13  1  0  0  0  0
 11 14  1  0  0  0  0
 14 15  1  0  0  0  0
 14 16  1  0  0  0  0
 14 17  1  0  0  0  0
 17 18  1  0  0  0  0
 17 19  2  0  0  0  0
 20 21  2  0  0  0  0
 20 22  1  0  0  0  0
 22 23  1  0  0  0  0
 22 24  1  0  0  0  0
 24 25  1  0  0  0  0
 24 26  1  0  0  0  0
 24 27  1  0  0  0  0
M  CHG  1  18  -1
M  END
$$$$

  -OEChem-04042215583D

 27 26  0     1  0  0  0  0  0999 V2000
   -2.5858   -4.0080    0.4054 H   0  0  0  0  0  0  0  0  0  0  0  0
   -2.5184   -3.0566   -0.1297 C   0  0  0  0  0  0  0  0  0  0  0  0
   -3.2798   -2.3774    0.2620 H   0  0  0  0  0  0  0  0  0  0  0  0
   -2.7110   -3.2345   -1.1906 H   0  0  0  0  0  0  0  0  0  0  0  0
   -1.1395   -2.4477    0.0513 C   0  0  0  0  0  0  0  0  0  0  0  0
   -0.3038   -3.0280    0.7237 O   0  0  0  0  0  0  0  0  0  0  0  0
   -0.8441   -1.2527   -0.5692 N   0  0  0  0  0  0  0  0  0  0  0  0
   -1.5699   -0.8344   -1.1451 H   0  0  0  0  0  0  0  0  0  0  0  0
    0.4286   -0.5189   -0.4461 C   0  0  1  0  0  0  0  0  0  0  0  0
    1.2506   -1.1610   -0.7791 H   0  0  0  0  0  0  0  0  0  0  0  0
    0.3929    0.7477   -1.3374 C   0  0  0  0  0  0  0  0  0  0  0  0
    1.0700    1.5081   -0.9317 H   0  0  0  0  0  0  0  0  0  0  0  0
    0.7761    0.4753   -2.3266 H   0  0  0  0  0  0  0  0  0  0  0  0
   -1.0123    1.3635   -1.5312 C   0  0  0  0  0  0  0  0  0  0  0  0
   -1.6865    0.6516   -2.0142 H   0  0  0  0  0  0  0  0  0  0  0  0
   -1.4386    1.6301   -0.5597 H   0  0  0  0  0  0  0  0  0  0  0  0
   -0.9537    2.6043   -2.4189 C   0  0  0  0  0  0  0  0  0  0  0  0
   -0.7980    2.4250   -3.6515 O   0  5  0  0  0  0  0  0  0  0  0  0
   -1.1024    3.7208   -1.8662 O   0  0  0  0  0  0  0  0  0  0  0  0
    0.7553   -0.1043    1.0058 C   0  0  0  0  0  0  0  0  0  0  0  0
    1.9029   -0.1782    1.4298 O   0  0  0  0  0  0  0  0  0  0  0  0
   -0.2300    0.4515    1.8016 N   0  0  0  0  0  0  0  0  0  0  0  0
   -1.0991    0.6783    1.3284 H   0  0  0  0  0  0  0  0  0  0  0  0
    0.0427    1.0640    3.0929 C   0  0  0  0  0  0  0  0  0  0  0  0
    0.7015    1.9302    2.9734 H   0  0  0  0  0  0  0  0  0  0  0  0
   -0.8914    1.3982    3.5538 H   0  0  0  0  0  0  0  0  0  0  0  0
    0.5205    0.3444    3.7656 H   0  0  0  0  0  0  0  0  0  0  0  0
  1  2  1  0  0  0  0
  2  3  1  0  0  0  0
  2  4  1  0  0  0  0
  2  5  1  0  0  0  0
  5  6  2  0  0  0  0
  5  7  1  0  0  0  0
  7  8  1  0  0  0  0
  7  9  1  0  0  0  0
  9 10  1  0  0  0  0
  9 11  1  0  0  0  0
  9 20  1  0  0  0  0
 11 12  1  0  0  0  0
 11 13  1  0  0  0  0
 11 14  1  0  0  0  0
 14 15  1  0  0  0  0
 14 16  1  0  0  0  0
 14 17  1  0  0  0  0
 17 18  1  0  0  0  0
 17 19  2  0  0  0  0
 20 21  2  0  0  0  0
 20 22  1  0  0  0  0
 22 23  1  0  0  0  0
 22 24  1  0  0  0  0
 24 25  1  0  0  0  0
 24 26  1  0  0  0  0
 24 27  1  0  0  0  0
M  CHG  1  18  -1
M  END
$$$$

  -OEChem-04042215583D

 27 26  0     1  0  0  0  0  0999 V2000
   -2.7126   -3.9494    0.5119 H   0  0  0  0  0  0  0  0  0  0  0  0
   -2.6282   -3.0178   -0.0546 C   0  0  0  0  0  0  0  0  0  0  0  0
   -3.3825   -2.3151    0.3080 H   0  0  0  0  0  0  0  0  0  0  0  0
   -2.8165   -3.2289   -1.1104 H   0  0  0  0  0  0  0  0  0  0  0  0
   -1.2421   -2.4220    0.1155 C   0  0  0  0  0  0  0  0  0  0  0  0
   -0.4137   -2.9980    0.8004 O   0  0  0  0  0  0  0  0  0  0  0  0
   -0.9354   -1.2420   -0.5277 N   0  0  0  0  0  0  0  0  0  0  0  0
   -1.6422   -0.8564   -1.1486 H   0  0  0  0  0  0  0  0  0  0  0  0
    0.3693   -0.5577   -0.4867 C   0  0  1  0  0  0  0  0  0  0  0  0
    1.1435   -1.2345   -0.8625 H   0  0  0  0  0  0  0  0  0  0  0  0
    0.3428    0.7109   -1.3773 C   0  0  0  0  0  0  0  0  0  0  0  0
    1.0885    1.4349   -1.0298 H   0  0  0  0  0  0  0  0  0  0  0  0
    0.6510    0.3991   -2.3811 H   0  0  0  0  0  0  0  0  0  0  0  0
   -1.0306    1.4161   -1.5116 C   0  0  0  0  0  0  0  0  0  0  0  0
   -1.8373    0.7101   -1.7162 H   0  0  0  0  0  0  0  0  0  0  0  0
   -1.2693    1.9320   -0.5770 H   0  0  0  0  0  0  0  0  0  0  0  0
   -1.0313    2.4089   -2.6723 C   0  0  0  0  0  0  0  0  0  0  0  0
   -0.9862    3.6321   -2.3971 O   0  5  0  0  0  0  0  0  0  0  0  0
   -1.1018    1.9331   -3.8324 O   0  0  0  0  0  0  0  0  0  0  0  0
    0.7966   -0.1519    0.9411 C   0  0  0  0  0  0  0  0  0  0  0  0
    1.9664   -0.2529    1.2933 O   0  0  0  0  0  0  0  0  0  0  0  0
   -0.1187    0.4431    1.7900 N   0  0  0  0  0  0  0  0  0  0  0  0
   -1.0234    0.6599    1.3843 H   0  0  0  0  0  0  0  0  0  0  0  0
    0.2399    1.0269    3.0734 C   0  0  0  0  0  0  0  0  0  0  0  0
    0.9206    1.8724    2.9315 H   0  0  0  0  0  0  0  0  0  0  0  0
   -0.6573    1.3842    3.5871 H   0  0  0  0  0  0  0  0  0  0  0  0
    0.7275    0.2815    3.7100 H   0  0  0  0  0  0  0  0  0  0  0  0
  1  2  1  0  0  0  0
  2  3  1  0  0  0  0
  2  4  1  0  0  0  0
  2  5  1  0  0  0  0
  5  6  2  0  0  0  0
  5  7  1  0  0  0  0
  7  8  1  0  0  0  0
  7  9  1  0  0  0  0
  9 10  1  0  0  0  0
  9 11  1  0  0  0  0
  9 20  1  0  0  0  0
 11 12  1  0  0  0  0
 11 13  1  0  0  0  0
 11 14  1  0  0  0  0
 14 15  1  0  0  0  0
 14 16  1  0  0  0  0
 14 17  1  0  0  0  0
 17 18  1  0  0  0  0
 17 19  2  0  0  0  0
 20 21  2  0  0  0  0
 20 22  1  0  0  0  0
 22 23  1  0  0  0  0
 22 24  1  0  0  0  0
 24 25  1  0  0  0  0
 24 26  1  0  0  0  0
 24 27  1  0  0  0  0
M  CHG  1  18  -1
M  END
$$$$

  -OEChem-04042215583D

 27 26  0     1  0  0  0  0  0999 V2000
   -2.7151   -3.9638    0.5152 H   0  0  0  0  0  0  0  0  0  0  0  0
   -2.6274   -3.0406   -0.0644 C   0  0  0  0  0  0  0  0  0  0  0  0
   -3.4083   -2.3470    0.2570 H   0  0  0  0  0  0  0  0  0  0  0  0
   -2.7718   -3.2735   -1.1225 H   0  0  0  0  0  0  0  0  0  0  0  0
   -1.2597   -2.4156    0.1459 C   0  0  0  0  0  0  0  0  0  0  0  0
   -0.4500   -2.9627    0.8757 O   0  0  0  0  0  0  0  0  0  0  0  0
   -0.9479   -1.2428   -0.5086 N   0  0  0  0  0  0  0  0  0  0  0  0
   -1.6242   -0.9026   -1.1896 H   0  0  0  0  0  0  0  0  0  0  0  0
    0.3608   -0.5658   -0.4765 C   0  0  1  0  0  0  0  0  0  0  0  0
    1.1308   -1.2488   -0.8496 H   0  0  0  0  0  0  0  0  0  0  0  0
    0.3417    0.7021   -1.3692 C   0  0  0  0  0  0  0  0  0  0  0  0
    1.1048    1.4158   -1.0392 H   0  0  0  0  0  0  0  0  0  0  0  0
    0.6394    0.3707   -2.3702 H   0  0  0  0  0  0  0  0  0  0  0  0
   -1.0178    1.4385   -1.5128 C   0  0  0  0  0  0  0  0  0  0  0  0
   -1.8784    0.7734   -1.4374 H   0  0  0  0  0  0  0  0  0  0  0  0
   -1.1127    2.1745   -0.7090 H   0  0  0  0  0  0  0  0  0  0  0  0
   -1.1247    2.1327   -2.8680 C   0  0  0  0  0  0  0  0  0  0  0  0
   -0.7845    3.3373   -2.9475 O   0  5  0  0  0  0  0  0  0  0  0  0
   -1.5550    1.4392   -3.8230 O   0  0  0  0  0  0  0  0  0  0  0  0
    0.7910   -0.1515    0.9477 C   0  0  0  0  0  0  0  0  0  0  0  0
    1.9631   -0.2399    1.2957 O   0  0  0  0  0  0  0  0  0  0  0  0
   -0.1223    0.4544    1.7906 N   0  0  0  0  0  0  0  0  0  0  0  0
   -1.0415    0.6317    1.3987 H   0  0  0  0  0  0  0  0  0  0  0  0
    0.2293    1.0336    3.0777 C   0  0  0  0  0  0  0  0  0  0  0  0
    0.9352    1.8596    2.9446 H   0  0  0  0  0  0  0  0  0  0  0  0
   -0.6666    1.4180    3.5740 H   0  0  0  0  0  0  0  0  0  0  0  0
    0.6852    0.2775    3.7251 H   0  0  0  0  0  0  0  0  0  0  0  0
  1  2  1  0  0  0  0
  2  3  1  0  0  0  0
  2  4  1  0  0  0  0
  2  5  1  0  0  0  0
  5  6  2  0  0  0  0
  5  7  1  0  0  0  0
  7  8  1  0  0  0  0
  7  9  1  0  0  0  0
  9 10  1  0  0  0  0
  9 11  1  0  0  0  0
  9 20  1  0  0  0  0
 11 12  1  0  0  0  0
 11 13  1  0  0  0  0
 11 14  1  0  0  0  0
 14 15  1  0  0  0  0
 14 16  1  0  0  0  0
 14 17  1  0  0  0  0
 17 18  1  0  0  0  0
 17 19  2  0  0  0  0
 20 21  2  0  0  0  0
 20 22  1  0  0  0  0
 22 23  1  0  0  0  0
 22 24  1  0  0  0  0
 24 25  1  0  0  0  0
 24 26  1  0  0  0  0
 24 27  1  0  0  0  0
M  CHG  1  18  -1
M  END
$$$$

  -OEChem-04042215583D

 27 26  0     1  0  0  0  0  0999 V2000
   -2.7282   -3.9456    0.5047 H   0  0  0  0  0  0  0  0  0  0  0  0
   -2.6301   -3.0242   -0.0759 C   0  0  0  0  0  0  0  0  0  0  0  0
   -3.4227   -2.3330    0.2216 H   0  0  0  0  0  0  0  0  0  0  0  0
   -2.7451   -3.2616   -1.1366 H   0  0  0  0  0  0  0  0  0  0  0  0
   -1.2721   -2.3908    0.1672 C   0  0  0  0  0  0  0  0  0  0  0  0
   -0.4842   -2.9209    0.9332 O   0  0  0  0  0  0  0  0  0  0  0  0
   -0.9441   -1.2286   -0.4972 N   0  0  0  0  0  0  0  0  0  0  0  0
   -1.5952   -0.9120   -1.2166 H   0  0  0  0  0  0  0  0  0  0  0  0
    0.3710   -0.5644   -0.4649 C   0  0  1  0  0  0  0  0  0  0  0  0
    1.1358   -1.2578   -0.8292 H   0  0  0  0  0  0  0  0  0  0  0  0
    0.3564    0.6908   -1.3737 C   0  0  0  0  0  0  0  0  0  0  0  0
    1.1193    1.4051   -1.0451 H   0  0  0  0  0  0  0  0  0  0  0  0
    0.6645    0.3500   -2.3685 H   0  0  0  0  0  0  0  0  0  0  0  0
   -1.0021    1.4326   -1.5270 C   0  0  0  0  0  0  0  0  0  0  0  0
   -1.8600    0.8740   -1.1525 H   0  0  0  0  0  0  0  0  0  0  0  0
   -0.9608    2.3527   -0.9364 H   0  0  0  0  0  0  0  0  0  0  0  0
   -1.2802    1.7881   -2.9837 C   0  0  0  0  0  0  0  0  0  0  0  0
   -0.9743    2.9312   -3.3989 O   0  5  0  0  0  0  0  0  0  0  0  0
   -1.8067    0.8823   -3.6777 O   0  0  0  0  0  0  0  0  0  0  0  0
    0.7990   -0.1383    0.9562 C   0  0  0  0  0  0  0  0  0  0  0  0
    1.9697   -0.2268    1.3092 O   0  0  0  0  0  0  0  0  0  0  0  0
   -0.1127    0.4859    1.7870 N   0  0  0  0  0  0  0  0  0  0  0  0
   -1.0457    0.6191    1.4104 H   0  0  0  0  0  0  0  0  0  0  0  0
    0.2172    1.0206    3.0985 C   0  0  0  0  0  0  0  0  0  0  0  0
    0.9860    1.7951    3.0134 H   0  0  0  0  0  0  0  0  0  0  0  0
   -0.6716    1.4629    3.5580 H   0  0  0  0  0  0  0  0  0  0  0  0
    0.5860    0.2241    3.7528 H   0  0  0  0  0  0  0  0  0  0  0  0
  1  2  1  0  0  0  0
  2  3  1  0  0  0  0
  2  4  1  0  0  0  0
  2  5  1  0  0  0  0
  5  6  2  0  0  0  0
  5  7  1  0  0  0  0
  7  8  1  0  0  0  0
  7  9  1  0  0  0  0
  9 10  1  0  0  0  0
  9 11  1  0  0  0  0
  9 20  1  0  0  0  0
 11 12  1  0  0  0  0
 11 13  1  0  0  0  0
 11 14  1  0  0  0  0
 14 15  1  0  0  0  0
 14 16  1  0  0  0  0
 14 17  1  0  0  0  0
 17 18  1  0  0  0  0
 17 19  2  0  0  0  0
 20 21  2  0  0  0  0
 20 22  1  0  0  0  0
 22 23  1  0  0  0  0
 22 24  1  0  0  0  0
 24 25  1  0  0  0  0
 24 26  1  0  0  0  0
 24 27  1  0  0  0  0
M  CHG  1  18  -1
M  END
$$$$

  -OEChem-04042215583D

 27 26  0     1  0  0  0  0  0999 V2000
   -2.7553   -3.9108    0.4455 H   0  0  0  0  0  0  0  0  0  0  0  0
   -2.6383   -2.9821   -0.1196 C   0  0  0  0  0  0  0  0  0  0  0  0
   -3.4377   -2.2923    0.1626 H   0  0  0  0  0  0  0  0  0  0  0  0
   -2.7232   -3.2046   -1.1866 H   0  0  0  0  0  0  0  0  0  0  0  0
   -1.2872   -2.3536    0.1708 C   0  0  0  0  0  0  0  0  0  0  0  0
   -0.5398   -2.8679    0.9874 O   0  0  0  0  0  0  0  0  0  0  0  0
   -0.9249   -1.2049   -0.4970 N   0  0  0  0  0  0  0  0  0  0  0  0
   -1.5372   -0.9136   -1.2656 H   0  0  0  0  0  0  0  0  0  0  0  0
    0.4009   -0.5605   -0.4491 C   0  0  1  0  0  0  0  0  0  0  0  0
    1.1636   -1.2622   -0.8012 H   0  0  0  0  0  0  0  0  0  0  0  0
    0.3837    0.6795   -1.3761 C   0  0  0  0  0  0  0  0  0  0  0  0
    1.1289    1.4056   -1.0335 H   0  0  0  0  0  0  0  0  0  0  0  0
    0.7101    0.3507   -2.3690 H   0  0  0  0  0  0  0  0  0  0  0  0
   -0.9906    1.3923   -1.5184 C   0  0  0  0  0  0  0  0  0  0  0  0
   -1.7734    0.9986   -0.8679 H   0  0  0  0  0  0  0  0  0  0  0  0
   -0.8573    2.4343   -1.2123 H   0  0  0  0  0  0  0  0  0  0  0  0
   -1.4686    1.3898   -2.9629 C   0  0  0  0  0  0  0  0  0  0  0  0
   -1.3085    2.4066   -3.6789 O   0  5  0  0  0  0  0  0  0  0  0  0
   -2.0019    0.3127   -3.3349 O   0  0  0  0  0  0  0  0  0  0  0  0
    0.8156   -0.1255    0.9725 C   0  0  0  0  0  0  0  0  0  0  0  0
    1.9835   -0.2091    1.3370 O   0  0  0  0  0  0  0  0  0  0  0  0
   -0.1002    0.5217    1.7803 N   0  0  0  0  0  0  0  0  0  0  0  0
   -1.0446    0.5965    1.4154 H   0  0  0  0  0  0  0  0  0  0  0  0
    0.2019    1.0263    3.1101 C   0  0  0  0  0  0  0  0  0  0  0  0
    1.0045    1.7692    3.0639 H   0  0  0  0  0  0  0  0  0  0  0  0
   -0.6843    1.5007    3.5414 H   0  0  0  0  0  0  0  0  0  0  0  0
    0.5127    0.2074    3.7668 H   0  0  0  0  0  0  0  0  0  0  0  0
  1  2  1  0  0  0  0
  2  3  1  0  0  0  0
  2  4  1  0  0  0  0
  2  5  1  0  0  0  0
  5  6  2  0  0  0  0
  5  7  1  0  0  0  0
  7  8  1  0  0  0  0
  7  9  1  0  0  0  0
  9 10  1  0  0  0  0
  9 11  1  0  0  0  0
  9 20  1  0  0  0  0
 11 12  1  0  0  0  0
 11 13  1  0  0  0  0
 11 14  1  0  0  0  0
 14 15  1  0  0  0  0
 14 16  1  0  0  0  0
 14 17  1  0  0  0  0
 17 18  1  0  0  0  0
 17 19  2  0  0  0  0
 20 21  2  0  0  0  0
 20 22  1  0  0  0  0
 22 23  1  0  0  0  0
 22 24  1  0  0  0  0
 24 25  1  0  0  0  0
 24 26  1  0  0  0  0
 24 27  1  0  0  0  0
M  CHG  1  18  -1
M  END
$$$$

  -OEChem-04042215583D

 27 26  0     1  0  0  0  0  0999 V2000
   -2.5764   -4.0013    0.3519 H   0  0  0  0  0  0  0  0  0  0  0  0
   -2.4949   -3.0617   -0.2011 C   0  0  0  0  0  0  0  0  0  0  0  0
   -3.3362   -2.4175    0.0667 H   0  0  0  0  0  0  0  0  0  0  0  0
   -2.5422   -3.2753   -1.2723 H   0  0  0  0  0  0  0  0  0  0  0  0
   -1.1868   -2.3651    0.1269 C   0  0  0  0  0  0  0  0  0  0  0  0
   -0.4247   -2.8511    0.9487 O   0  0  0  0  0  0  0  0  0  0  0  0
   -0.8796   -1.1869   -0.5138 N   0  0  0  0  0  0  0  0  0  0  0  0
   -1.5034   -0.9247   -1.2910 H   0  0  0  0  0  0  0  0  0  0  0  0
    0.4162   -0.4826   -0.4573 C   0  0  1  0  0  0  0  0  0  0  0  0
    1.2063   -1.1438   -0.8265 H   0  0  0  0  0  0  0  0  0  0  0  0
    0.3382    0.7687   -1.3665 C   0  0  0  0  0  0  0  0  0  0  0  0
    1.0340    1.5278   -0.9936 H   0  0  0  0  0  0  0  0  0  0  0  0
    0.6861    0.4945   -2.3684 H   0  0  0  0  0  0  0  0  0  0  0  0
   -1.0763    1.3939   -1.4779 C   0  0  0  0  0  0  0  0  0  0  0  0
   -1.7330    1.1193   -0.6484 H   0  0  0  0  0  0  0  0  0  0  0  0
   -0.9669    2.4815   -1.4263 H   0  0  0  0  0  0  0  0  0  0  0  0
   -1.7239    1.0625   -2.8159 C   0  0  0  0  0  0  0  0  0  0  0  0
   -2.2173   -0.0947   -2.8847 O   0  5  0  0  0  0  0  0  0  0  0  0
   -1.7294    1.9093   -3.7400 O   0  0  0  0  0  0  0  0  0  0  0  0
    0.8210   -0.0610    0.9709 C   0  0  0  0  0  0  0  0  0  0  0  0
    1.9969   -0.0830    1.3193 O   0  0  0  0  0  0  0  0  0  0  0  0
   -0.1174    0.5245    1.7993 N   0  0  0  0  0  0  0  0  0  0  0  0
   -1.0746    0.5182    1.4600 H   0  0  0  0  0  0  0  0  0  0  0  0
    0.1661    0.9853    3.1489 C   0  0  0  0  0  0  0  0  0  0  0  0
    0.9012    1.7960    3.1289 H   0  0  0  0  0  0  0  0  0  0  0  0
   -0.7488    1.3583    3.6184 H   0  0  0  0  0  0  0  0  0  0  0  0
    0.5587    0.1645    3.7576 H   0  0  0  0  0  0  0  0  0  0  0  0
  1  2  1  0  0  0  0
  2  3  1  0  0  0  0
  2  4  1  0  0  0  0
  2  5  1  0  0  0  0
  5  6  2  0  0  0  0
  5  7  1  0  0  0  0
  7  8  1  0  0  0  0
  7  9  1  0  0  0  0
  9 10  1  0  0  0  0
  9 11  1  0  0  0  0
  9 20  1  0  0  0  0
 11 12  1  0  0  0  0
 11 13  1  0  0  0  0
 11 14  1  0  0  0  0
 14 15  1  0  0  0  0
 14 16  1  0  0  0  0
 14 17  1  0  0  0  0
 17 18  1  0  0  0  0
 17 19  2  0  0  0  0
 20 21  2  0  0  0  0
 20 22  1  0  0  0  0
 22 23  1  0  0  0  0
 22 24  1  0  0  0  0
 24 25  1  0  0  0  0
 24 26  1  0  0  0  0
 24 27  1  0  0  0  0
M  CHG  1  18  -1
M  END
$$$$

  -OEChem-04042215583D

 27 26  0     1  0  0  0  0  0999 V2000
   -2.5326   -4.0142    0.4476 H   0  0  0  0  0  0  0  0  0  0  0  0
   -2.4684   -3.0855   -0.1253 C   0  0  0  0  0  0  0  0  0  0  0  0
   -3.2838   -2.4230    0.1763 H   0  0  0  0  0  0  0  0  0  0  0  0
   -2.5780   -3.3153   -1.1885 H   0  0  0  0  0  0  0  0  0  0  0  0
   -1.1346   -2.4032    0.1167 C   0  0  0  0  0  0  0  0  0  0  0  0
   -0.3122   -2.9126    0.8632 O   0  0  0  0  0  0  0  0  0  0  0  0
   -0.8708   -1.2107   -0.5165 N   0  0  0  0  0  0  0  0  0  0  0  0
   -1.5801   -0.9013   -1.1946 H   0  0  0  0  0  0  0  0  0  0  0  0
    0.4040   -0.4721   -0.4819 C   0  0  1  0  0  0  0  0  0  0  0  0
    1.2005   -1.1203   -0.8601 H   0  0  0  0  0  0  0  0  0  0  0  0
    0.3301    0.7937   -1.3759 C   0  0  0  0  0  0  0  0  0  0  0  0
    1.0272    1.5441   -0.9882 H   0  0  0  0  0  0  0  0  0  0  0  0
    0.6800    0.5320   -2.3804 H   0  0  0  0  0  0  0  0  0  0  0  0
   -1.0718    1.4368   -1.5026 C   0  0  0  0  0  0  0  0  0  0  0  0
   -1.6324    1.3367   -0.5689 H   0  0  0  0  0  0  0  0  0  0  0  0
   -0.9436    2.5089   -1.6790 H   0  0  0  0  0  0  0  0  0  0  0  0
   -1.8806    0.8719   -2.6710 C   0  0  0  0  0  0  0  0  0  0  0  0
   -2.6265   -0.1090   -2.4124 O   0  5  0  0  0  0  0  0  0  0  0  0
   -1.7242    1.3732   -3.8087 O   0  0  0  0  0  0  0  0  0  0  0  0
    0.8131   -0.0618    0.9489 C   0  0  0  0  0  0  0  0  0  0  0  0
    1.9930   -0.0500    1.2841 O   0  0  0  0  0  0  0  0  0  0  0  0
   -0.1342    0.4822    1.7956 N   0  0  0  0  0  0  0  0  0  0  0  0
   -1.0951    0.4438    1.4683 H   0  0  0  0  0  0  0  0  0  0  0  0
    0.1475    0.9320    3.1493 C   0  0  0  0  0  0  0  0  0  0  0  0
    0.9117    1.7157    3.1409 H   0  0  0  0  0  0  0  0  0  0  0  0
   -0.7596    1.3391    3.6056 H   0  0  0  0  0  0  0  0  0  0  0  0
    0.5014    0.0970    3.7624 H   0  0  0  0  0  0  0  0  0  0  0  0
  1  2  1  0  0  0  0
  2  3  1  0  0  0  0
  2  4  1  0  0  0  0
  2  5  1  0  0  0  0
  5  6  2  0  0  0  0
  5  7  1  0  0  0  0
  7  8  1  0  0  0  0
  7  9  1  0  0  0  0
  9 10  1  0  0  0  0
  9 11  1  0  0  0  0
  9 20  1  0  0  0  0
 11 12  1  0  0  0  0
 11 13  1  0  0  0  0
 11 14  1  0  0  0  0
 14 15  1  0  0  0  0
 14 16  1  0  0  0  0
 14 17  1  0  0  0  0
 17 18  1  0  0  0  0
 17 19  2  0  0  0  0
 20 21  2  0  0  0  0
 20 22  1  0  0  0  0
 22 23  1  0  0  0  0
 22 24  1  0  0  0  0
 24 25  1  0  0  0  0
 24 26  1  0  0  0  0
 24 27  1  0  0  0  0
M  CHG  1  18  -1
M  END
$$$$

  -OEChem-04042215583D

 27 26  0     1  0  0  0  0  0999 V2000
   -2.5629   -4.0618    0.4262 H   0  0  0  0  0  0  0  0  0  0  0  0
   -2.4960   -3.1275   -0.1377 C   0  0  0  0  0  0  0  0  0  0  0  0
   -3.3687   -2.5106    0.0903 H   0  0  0  0  0  0  0  0  0  0  0  0
   -2.4975   -3.3574   -1.2068 H   0  0  0  0  0  0  0  0  0  0  0  0
   -1.2262   -2.3791    0.2249 C   0  0  0  0  0  0  0  0  0  0  0  0
   -0.4923   -2.8121    1.1006 O   0  0  0  0  0  0  0  0  0  0  0  0
   -0.9192   -1.2235   -0.4566 N   0  0  0  0  0  0  0  0  0  0  0  0
   -1.4793   -1.0684   -1.3045 H   0  0  0  0  0  0  0  0  0  0  0  0
    0.3814   -0.5365   -0.4334 C   0  0  1  0  0  0  0  0  0  0  0  0
    1.1536   -1.2314   -0.7774 H   0  0  0  0  0  0  0  0  0  0  0  0
    0.3767    0.7023   -1.3728 C   0  0  0  0  0  0  0  0  0  0  0  0
    1.1113    1.4270   -1.0060 H   0  0  0  0  0  0  0  0  0  0  0  0
    0.7245    0.3782   -2.3593 H   0  0  0  0  0  0  0  0  0  0  0  0
   -0.9786    1.4348   -1.5712 C   0  0  0  0  0  0  0  0  0  0  0  0
   -1.4274    1.6126   -0.5901 H   0  0  0  0  0  0  0  0  0  0  0  0
   -0.7606    2.4113   -2.0130 H   0  0  0  0  0  0  0  0  0  0  0  0
   -2.0294    0.7662   -2.4703 C   0  0  0  0  0  0  0  0  0  0  0  0
   -1.8019   -0.3798   -2.9370 O   0  5  0  0  0  0  0  0  0  0  0  0
   -3.1140    1.3787   -2.6050 O   0  0  0  0  0  0  0  0  0  0  0  0
    0.7981   -0.0820    0.9822 C   0  0  0  0  0  0  0  0  0  0  0  0
    1.9773   -0.1021    1.3214 O   0  0  0  0  0  0  0  0  0  0  0  0
   -0.1287    0.5362    1.8001 N   0  0  0  0  0  0  0  0  0  0  0  0
   -1.0917    0.5053    1.4773 H   0  0  0  0  0  0  0  0  0  0  0  0
    0.1636    1.0064    3.1446 C   0  0  0  0  0  0  0  0  0  0  0  0
    0.9703    1.7461    3.1248 H   0  0  0  0  0  0  0  0  0  0  0  0
   -0.7240    1.4753    3.5794 H   0  0  0  0  0  0  0  0  0  0  0  0
    0.4643    0.1698    3.7833 H   0  0  0  0  0  0  0  0  0  0  0  0
  1  2  1  0  0  0  0
  2  3  1  0  0  0  0
  2  4  1  0  0  0  0
  2  5  1  0  0  0  0
  5  6  2  0  0  0  0
  5  7  1  0  0  0  0
  7  8  1  0  0  0  0
  7  9  1  0  0  0  0
  9 10  1  0  0  0  0
  9 11  1  0  0  0  0
  9 20  1  0  0  0  0
 11 12  1  0  0  0  0
 11 13  1  0  0  0  0
 11 14  1  0  0  0  0
 14 15  1  0  0  0  0
 14 16  1  0  0  0  0
 14 17  1  0  0  0  0
 17 18  1  0  0  0  0
 17 19  2  0  0  0  0
 20 21  2  0  0  0  0
 20 22  1  0  0  0  0
 22 23  1  0  0  0  0
 22 24  1  0  0  0  0
 24 25  1  0  0  0  0
 24 26  1  0  0  0  0
 24 27  1  0  0  0  0
M  CHG  1  18  -1
M  END
$$$$

  -OEChem-04042215583D

 27 26  0     1  0  0  0  0  0999 V2000
   -2.5946   -4.0344    0.5388 H   0  0  0  0  0  0  0  0  0  0  0  0
   -2.5028   -3.1337   -0.0736 C   0  0  0  0  0  0  0  0  0  0  0  0
   -3.3501   -2.4746    0.1331 H   0  0  0  0  0  0  0  0  0  0  0  0
   -2.5274   -3.4171   -1.1294 H   0  0  0  0  0  0  0  0  0  0  0  0
   -1.2034   -2.4127    0.2352 C   0  0  0  0  0  0  0  0  0  0  0  0
   -0.4370   -2.8666    1.0719 O   0  0  0  0  0  0  0  0  0  0  0  0
   -0.9033   -1.2612   -0.4562 N   0  0  0  0  0  0  0  0  0  0  0  0
   -1.4975   -1.0891   -1.2763 H   0  0  0  0  0  0  0  0  0  0  0  0
    0.3917   -0.5619   -0.4435 C   0  0  1  0  0  0  0  0  0  0  0  0
    1.1714   -1.2507   -0.7826 H   0  0  0  0  0  0  0  0  0  0  0  0
    0.3926    0.6916   -1.3672 C   0  0  0  0  0  0  0  0  0  0  0  0
    1.1486    1.4004   -1.0124 H   0  0  0  0  0  0  0  0  0  0  0  0
    0.7198    0.3573   -2.3571 H   0  0  0  0  0  0  0  0  0  0  0  0
   -0.9435    1.4591   -1.5737 C   0  0  0  0  0  0  0  0  0  0  0  0
   -1.2584    1.8570   -0.6045 H   0  0  0  0  0  0  0  0  0  0  0  0
   -0.7412    2.3121   -2.2271 H   0  0  0  0  0  0  0  0  0  0  0  0
   -2.1209    0.6918   -2.1851 C   0  0  0  0  0  0  0  0  0  0  0  0
   -1.8727   -0.2905   -2.9289 O   0  5  0  0  0  0  0  0  0  0  0  0
   -3.2670    0.9963   -1.7804 O   0  0  0  0  0  0  0  0  0  0  0  0
    0.7887   -0.0990    0.9749 C   0  0  0  0  0  0  0  0  0  0  0  0
    1.9641   -0.1034    1.3281 O   0  0  0  0  0  0  0  0  0  0  0  0
   -0.1570    0.5106    1.7777 N   0  0  0  0  0  0  0  0  0  0  0  0
   -1.1117    0.4996    1.4266 H   0  0  0  0  0  0  0  0  0  0  0  0
    0.1135    1.0174    3.1129 C   0  0  0  0  0  0  0  0  0  0  0  0
    0.8889    1.7893    3.0791 H   0  0  0  0  0  0  0  0  0  0  0  0
   -0.7937    1.4566    3.5382 H   0  0  0  0  0  0  0  0  0  0  0  0
    0.4474    0.2060    3.7675 H   0  0  0  0  0  0  0  0  0  0  0  0
  1  2  1  0  0  0  0
  2  3  1  0  0  0  0
  2  4  1  0  0  0  0
  2  5  1  0  0  0  0
  5  6  2  0  0  0  0
  5  7  1  0  0  0  0
  7  8  1  0  0  0  0
  7  9  1  0  0  0  0
  9 10  1  0  0  0  0
  9 11  1  0  0  0  0
  9 20  1  0  0  0  0
 11 12  1  0  0  0  0
 11 13  1  0  0  0  0
 11 14  1  0  0  0  0
 14 15  1  0  0  0  0
 14 16  1  0  0  0  0
 14 17  1  0  0  0  0
 17 18  1  0  0  0  0
 17 19  2  0  0  0  0
 20 21  2  0  0  0  0
 20 22  1  0  0  0  0
 22 23  1  0  0  0  0
 22 24  1  0  0  0  0
 24 25  1  0  0  0  0
 24 26  1  0  0  0  0
 24 27  1  0  0  0  0
M  CHG  1  18  -1
M  END
$$$$

  -OEChem-04042215583D

 27 26  0     1  0  0  0  0  0999 V2000
   -2.4950   -3.9701    0.9067 H   0  0  0  0  0  0  0  0  0  0  0  0
   -2.4650   -3.0899    0.2592 C   0  0  0  0  0  0  0  0  0  0  0  0
   -3.1352   -2.3271    0.6650 H   0  0  0  0  0  0  0  0  0  0  0  0
   -2.8136   -3.3689   -0.7384 H   0  0  0  0  0  0  0  0  0  0  0  0
   -1.0529   -2.5407    0.1751 C   0  0  0  0  0  0  0  0  0  0  0  0
   -0.1292   -3.1366    0.7106 O   0  0  0  0  0  0  0  0  0  0  0  0
   -0.8312   -1.3722   -0.5172 N   0  0  0  0  0  0  0  0  0  0  0  0
   -1.6810   -0.8999   -0.8427 H   0  0  0  0  0  0  0  0  0  0  0  0
    0.4246   -0.6032   -0.5015 C   0  0  1  0  0  0  0  0  0  0  0  0
    1.2418   -1.2557   -0.8241 H   0  0  0  0  0  0  0  0  0  0  0  0
    0.4385    0.6840   -1.3824 C   0  0  0  0  0  0  0  0  0  0  0  0
    1.2041    1.3711   -1.0066 H   0  0  0  0  0  0  0  0  0  0  0  0
    0.7749    0.3565   -2.3714 H   0  0  0  0  0  0  0  0  0  0  0  0
   -0.8606    1.4973   -1.6381 C   0  0  0  0  0  0  0  0  0  0  0  0
   -1.0723    2.0794   -0.7363 H   0  0  0  0  0  0  0  0  0  0  0  0
   -0.6616    2.2156   -2.4387 H   0  0  0  0  0  0  0  0  0  0  0  0
   -2.1286    0.7300   -1.9987 C   0  0  0  0  0  0  0  0  0  0  0  0
   -2.2765    0.3420   -3.1794 O   0  5  0  0  0  0  0  0  0  0  0  0
   -2.8900    0.4204   -1.0445 O   0  0  0  0  0  0  0  0  0  0  0  0
    0.7417   -0.1529    0.9401 C   0  0  0  0  0  0  0  0  0  0  0  0
    1.8978   -0.0982    1.3477 O   0  0  0  0  0  0  0  0  0  0  0  0
   -0.2781    0.3776    1.7093 N   0  0  0  0  0  0  0  0  0  0  0  0
   -1.1947    0.4242    1.2641 H   0  0  0  0  0  0  0  0  0  0  0  0
   -0.0837    0.9799    3.0178 C   0  0  0  0  0  0  0  0  0  0  0  0
    0.5572    1.8636    2.9399 H   0  0  0  0  0  0  0  0  0  0  0  0
   -1.0473    1.2843    3.4368 H   0  0  0  0  0  0  0  0  0  0  0  0
    0.3806    0.2631    3.7026 H   0  0  0  0  0  0  0  0  0  0  0  0
  1  2  1  0  0  0  0
  2  3  1  0  0  0  0
  2  4  1  0  0  0  0
  2  5  1  0  0  0  0
  5  6  2  0  0  0  0
  5  7  1  0  0  0  0
  7  8  1  0  0  0  0
  7  9  1  0  0  0  0
  9 10  1  0  0  0  0
  9 11  1  0  0  0  0
  9 20  1  0  0  0  0
 11 12  1  0  0  0  0
 11 13  1  0  0  0  0
 11 14  1  0  0  0  0
 14 15  1  0  0  0  0
 14 16  1  0  0  0  0
 14 17  1  0  0  0  0
 17 18  1  0  0  0  0
 17 19  2  0  0  0  0
 20 21  2  0  0  0  0
 20 22  1  0  0  0  0
 22 23  1  0  0  0  0
 22 24  1  0  0  0  0
 24 25  1  0  0  0  0
 24 26  1  0  0  0  0
 24 27  1  0  0  0  0
M  CHG  1  18  -1
M  END
$$$$

  -OEChem-04042215583D

 27 26  0     1  0  0  0  0  0999 V2000
   -2.0981   -4.0984    1.0153 H   0  0  0  0  0  0  0  0  0  0  0  0
   -2.1671   -3.2260    0.3604 C   0  0  0  0  0  0  0  0  0  0  0  0
   -2.8537   -2.5007    0.8057 H   0  0  0  0  0  0  0  0  0  0  0  0
   -2.5641   -3.5370   -0.6091 H   0  0  0  0  0  0  0  0  0  0  0  0
   -0.8006   -2.5919    0.1768 C   0  0  0  0  0  0  0  0  0  0  0  0
    0.1935   -3.1272    0.6469 O   0  0  0  0  0  0  0  0  0  0  0  0
   -0.6983   -1.4230   -0.5429 N   0  0  0  0  0  0  0  0  0  0  0  0
   -1.6016   -1.0011   -0.7782 H   0  0  0  0  0  0  0  0  0  0  0  0
    0.4805   -0.5379   -0.5308 C   0  0  1  0  0  0  0  0  0  0  0  0
    1.3652   -1.1022   -0.8412 H   0  0  0  0  0  0  0  0  0  0  0  0
    0.3790    0.7725   -1.3752 C   0  0  0  0  0  0  0  0  0  0  0  0
    1.1079    1.5021   -1.0058 H   0  0  0  0  0  0  0  0  0  0  0  0
    0.7164    0.4831   -2.3755 H   0  0  0  0  0  0  0  0  0  0  0  0
   -0.9735    1.5079   -1.6062 C   0  0  0  0  0  0  0  0  0  0  0  0
   -1.0847    2.2465   -0.8065 H   0  0  0  0  0  0  0  0  0  0  0  0
   -0.9042    2.0688   -2.5430 H   0  0  0  0  0  0  0  0  0  0  0  0
   -2.2573    0.6908   -1.6342 C   0  0  0  0  0  0  0  0  0  0  0  0
   -2.6271    0.1800   -2.7146 O   0  5  0  0  0  0  0  0  0  0  0  0
   -2.7638    0.4265   -0.5108 O   0  0  0  0  0  0  0  0  0  0  0  0
    0.7025   -0.0557    0.9186 C   0  0  0  0  0  0  0  0  0  0  0  0
    1.8326    0.1045    1.3707 O   0  0  0  0  0  0  0  0  0  0  0  0
   -0.3980    0.3718    1.6418 N   0  0  0  0  0  0  0  0  0  0  0  0
   -1.2894    0.3787    1.1333 H   0  0  0  0  0  0  0  0  0  0  0  0
   -0.3137    1.0290    2.9345 C   0  0  0  0  0  0  0  0  0  0  0  0
    0.2204    1.9800    2.8451 H   0  0  0  0  0  0  0  0  0  0  0  0
   -1.3186    1.2274    3.3187 H   0  0  0  0  0  0  0  0  0  0  0  0
    0.2117    0.3920    3.6530 H   0  0  0  0  0  0  0  0  0  0  0  0
  1  2  1  0  0  0  0
  2  3  1  0  0  0  0
  2  4  1  0  0  0  0
  2  5  1  0  0  0  0
  5  6  2  0  0  0  0
  5  7  1  0  0  0  0
  7  8  1  0  0  0  0
  7  9  1  0  0  0  0
  9 10  1  0  0  0  0
  9 11  1  0  0  0  0
  9 20  1  0  0  0  0
 11 12  1  0  0  0  0
 11 13  1  0  0  0  0
 11 14  1  0  0  0  0
 14 15  1  0  0  0  0
 14 16  1  0  0  0  0
 14 17  1  0  0  0  0
 17 18  1  0  0  0  0
 17 19  2  0  0  0  0
 20 21  2  0  0  0  0
 20 22  1  0  0  0  0
 22 23  1  0  0  0  0
 22 24  1  0  0  0  0
 24 25  1  0  0  0  0
 24 26  1  0  0  0  0
 24 27  1  0  0  0  0
M  CHG  1  18  -1
M  END
$$$$

  -OEChem-04042215583D

 27 26  0     1  0  0  0  0  0999 V2000
   -2.0939   -4.2202    0.4292 H   0  0  0  0  0  0  0  0  0  0  0  0
   -2.2055   -3.2606   -0.0820 C   0  0  0  0  0  0  0  0  0  0  0  0
   -2.9035   -2.6366    0.4831 H   0  0  0  0  0  0  0  0  0  0  0  0
   -2.6155   -3.4318   -1.0803 H   0  0  0  0  0  0  0  0  0  0  0  0
   -0.8647   -2.5581   -0.1891 C   0  0  0  0  0  0  0  0  0  0  0  0
    0.1618   -3.1406    0.1318 O   0  0  0  0  0  0  0  0  0  0  0  0
   -0.8215   -1.2777   -0.6902 N   0  0  0  0  0  0  0  0  0  0  0  0
   -1.7258   -0.8823   -0.9691 H   0  0  0  0  0  0  0  0  0  0  0  0
    0.3594   -0.3963   -0.6938 C   0  0  1  0  0  0  0  0  0  0  0  0
    1.1779   -0.8852   -1.2305 H   0  0  0  0  0  0  0  0  0  0  0  0
    0.1358    1.0362   -1.2781 C   0  0  0  0  0  0  0  0  0  0  0  0
    0.9147    1.7076   -0.9004 H   0  0  0  0  0  0  0  0  0  0  0  0
    0.3233    0.9286   -2.3509 H   0  0  0  0  0  0  0  0  0  0  0  0
   -1.2339    1.7771   -1.1801 C   0  0  0  0  0  0  0  0  0  0  0  0
   -1.1282    2.5624   -0.4252 H   0  0  0  0  0  0  0  0  0  0  0  0
   -1.4268    2.2825   -2.1310 H   0  0  0  0  0  0  0  0  0  0  0  0
   -2.4708    0.9694   -0.8092 C   0  0  0  0  0  0  0  0  0  0  0  0
   -2.6869    0.8131    0.4187 O   0  5  0  0  0  0  0  0  0  0  0  0
   -3.0208    0.2937   -1.7114 O   0  0  0  0  0  0  0  0  0  0  0  0
    0.8194   -0.1607    0.7622 C   0  0  0  0  0  0  0  0  0  0  0  0
    2.0146   -0.0740    1.0327 O   0  0  0  0  0  0  0  0  0  0  0  0
   -0.1268    0.1299    1.7294 N   0  0  0  0  0  0  0  0  0  0  0  0
   -1.0908    0.2537    1.3887 H   0  0  0  0  0  0  0  0  0  0  0  0
    0.2016    0.5806    3.0703 C   0  0  0  0  0  0  0  0  0  0  0  0
    0.7384    1.5335    3.0320 H   0  0  0  0  0  0  0  0  0  0  0  0
   -0.7149    0.7198    3.6510 H   0  0  0  0  0  0  0  0  0  0  0  0
    0.8257   -0.1597    3.5804 H   0  0  0  0  0  0  0  0  0  0  0  0
  1  2  1  0  0  0  0
  2  3  1  0  0  0  0
  2  4  1  0  0  0  0
  2  5  1  0  0  0  0
  5  6  2  0  0  0  0
  5  7  1  0  0  0  0
  7  8  1  0  0  0  0
  7  9  1  0  0  0  0
  9 10  1  0  0  0  0
  9 11  1  0  0  0  0
  9 20  1  0  0  0  0
 11 12  1  0  0  0  0
 11 13  1  0  0  0  0
 11 14  1  0  0  0  0
 14 15  1  0  0  0  0
 14 16  1  0  0  0  0
 14 17  1  0  0  0  0
 17 18  1  0  0  0  0
 17 19  2  0  0  0  0
 20 21  2  0  0  0  0
 20 22  1  0  0  0  0
 22 23  1  0  0  0  0
 22 24  1  0  0  0  0
 24 25  1  0  0  0  0
 24 26  1  0  0  0  0
 24 27  1  0  0  0  0
M  CHG  1  18  -1
M  END
$$$$

  -OEChem-04042215583D

 27 26  0     1  0  0  0  0  0999 V2000
   -2.3138   -4.1138    0.6441 H   0  0  0  0  0  0  0  0  0  0  0  0
   -2.3352   -3.1928    0.0558 C   0  0  0  0  0  0  0  0  0  0  0  0
   -3.0468   -2.4981    0.5107 H   0  0  0  0  0  0  0  0  0  0  0  0
   -2.6683   -3.4238   -0.9589 H   0  0  0  0  0  0  0  0  0  0  0  0
   -0.9572   -2.5586    0.0145 C   0  0  0  0  0  0  0  0  0  0  0  0
    0.0082   -3.1565    0.4691 O   0  0  0  0  0  0  0  0  0  0  0  0
   -0.8073   -1.3260   -0.5774 N   0  0  0  0  0  0  0  0  0  0  0  0
   -1.6710   -0.9021   -0.9330 H   0  0  0  0  0  0  0  0  0  0  0  0
    0.4056   -0.4931   -0.5073 C   0  0  1  0  0  0  0  0  0  0  0  0
    1.2486   -1.0751   -0.8924 H   0  0  0  0  0  0  0  0  0  0  0  0
    0.3237    0.8454   -1.3074 C   0  0  0  0  0  0  0  0  0  0  0  0
    1.0468    1.5501   -0.8825 H   0  0  0  0  0  0  0  0  0  0  0  0
    0.6895    0.6070   -2.3110 H   0  0  0  0  0  0  0  0  0  0  0  0
   -1.0184    1.6142   -1.5233 C   0  0  0  0  0  0  0  0  0  0  0  0
   -0.8974    2.6215   -1.1138 H   0  0  0  0  0  0  0  0  0  0  0  0
   -1.1773    1.7317   -2.5997 H   0  0  0  0  0  0  0  0  0  0  0  0
   -2.2955    1.0321   -0.9238 C   0  0  0  0  0  0  0  0  0  0  0  0
   -2.4874    1.2112    0.3033 O   0  5  0  0  0  0  0  0  0  0  0  0
   -2.9501    0.2254   -1.6287 O   0  0  0  0  0  0  0  0  0  0  0  0
    0.7518   -0.1281    0.9548 C   0  0  0  0  0  0  0  0  0  0  0  0
    1.9254   -0.0950    1.3165 O   0  0  0  0  0  0  0  0  0  0  0  0
   -0.2386    0.2975    1.8206 N   0  0  0  0  0  0  0  0  0  0  0  0
   -1.1508    0.4996    1.3869 H   0  0  0  0  0  0  0  0  0  0  0  0
    0.0301    0.8453    3.1390 C   0  0  0  0  0  0  0  0  0  0  0  0
    0.6106    1.7694    3.0576 H   0  0  0  0  0  0  0  0  0  0  0  0
   -0.9122    1.0688    3.6481 H   0  0  0  0  0  0  0  0  0  0  0  0
    0.5884    0.1257    3.7462 H   0  0  0  0  0  0  0  0  0  0  0  0
  1  2  1  0  0  0  0
  2  3  1  0  0  0  0
  2  4  1  0  0  0  0
  2  5  1  0  0  0  0
  5  6  2  0  0  0  0
  5  7  1  0  0  0  0
  7  8  1  0  0  0  0
  7  9  1  0  0  0  0
  9 10  1  0  0  0  0
  9 11  1  0  0  0  0
  9 20  1  0  0  0  0
 11 12  1  0  0  0  0
 11 13  1  0  0  0  0
 11 14  1  0  0  0  0
 14 15  1  0  0  0  0
 14 16  1  0  0  0  0
 14 17  1  0  0  0  0
 17 18  1  0  0  0  0
 17 19  2  0  0  0  0
 20 21  2  0  0  0  0
 20 22  1  0  0  0  0
 22 23  1  0  0  0  0
 22 24  1  0  0  0  0
 24 25  1  0  0  0  0
 24 26  1  0  0  0  0
 24 27  1  0  0  0  0
M  CHG  1  18  -1
M  END
$$$$

  -OEChem-04042215583D

 27 26  0     1  0  0  0  0  0999 V2000
   -2.5067   -4.0156    0.5967 H   0  0  0  0  0  0  0  0  0  0  0  0
   -2.4984   -3.0609    0.0645 C   0  0  0  0  0  0  0  0  0  0  0  0
   -3.1348   -2.3505    0.5994 H   0  0  0  0  0  0  0  0  0  0  0  0
   -2.9025   -3.2075   -0.9401 H   0  0  0  0  0  0  0  0  0  0  0  0
   -1.0852   -2.5149   -0.0225 C   0  0  0  0  0  0  0  0  0  0  0  0
   -0.1418   -3.1847    0.3738 O   0  0  0  0  0  0  0  0  0  0  0  0
   -0.8827   -1.2761   -0.5849 N   0  0  0  0  0  0  0  0  0  0  0  0
   -1.7389   -0.7738   -0.8447 H   0  0  0  0  0  0  0  0  0  0  0  0
    0.3698   -0.5081   -0.4855 C   0  0  1  0  0  0  0  0  0  0  0  0
    1.1777   -1.1385   -0.8703 H   0  0  0  0  0  0  0  0  0  0  0  0
    0.3559    0.8034   -1.3274 C   0  0  0  0  0  0  0  0  0  0  0  0
    1.0632    1.5023   -0.8681 H   0  0  0  0  0  0  0  0  0  0  0  0
    0.7696    0.5517   -2.3089 H   0  0  0  0  0  0  0  0  0  0  0  0
   -0.9647    1.5895   -1.5944 C   0  0  0  0  0  0  0  0  0  0  0  0
   -0.7570    2.6587   -1.4910 H   0  0  0  0  0  0  0  0  0  0  0  0
   -1.2476    1.4237   -2.6385 H   0  0  0  0  0  0  0  0  0  0  0  0
   -2.1846    1.2588   -0.7344 C   0  0  0  0  0  0  0  0  0  0  0  0
   -2.1885    1.6609    0.4527 O   0  5  0  0  0  0  0  0  0  0  0  0
   -3.0229    0.4527   -1.2093 O   0  0  0  0  0  0  0  0  0  0  0  0
    0.7638   -0.1772    0.9738 C   0  0  0  0  0  0  0  0  0  0  0  0
    1.9426   -0.2499    1.3122 O   0  0  0  0  0  0  0  0  0  0  0  0
   -0.1698    0.2912    1.8787 N   0  0  0  0  0  0  0  0  0  0  0  0
   -1.0493    0.6313    1.4654 H   0  0  0  0  0  0  0  0  0  0  0  0
    0.1829    0.7770    3.2019 C   0  0  0  0  0  0  0  0  0  0  0  0
    0.8374    1.6510    3.1266 H   0  0  0  0  0  0  0  0  0  0  0  0
   -0.7220    1.0643    3.7454 H   0  0  0  0  0  0  0  0  0  0  0  0
    0.6954   -0.0042    3.7723 H   0  0  0  0  0  0  0  0  0  0  0  0
  1  2  1  0  0  0  0
  2  3  1  0  0  0  0
  2  4  1  0  0  0  0
  2  5  1  0  0  0  0
  5  6  2  0  0  0  0
  5  7  1  0  0  0  0
  7  8  1  0  0  0  0
  7  9  1  0  0  0  0
  9 10  1  0  0  0  0
  9 11  1  0  0  0  0
  9 20  1  0  0  0  0
 11 12  1  0  0  0  0
 11 13  1  0  0  0  0
 11 14  1  0  0  0  0
 14 15  1  0  0  0  0
 14 16  1  0  0  0  0
 14 17  1  0  0  0  0
 17 18  1  0  0  0  0
 17 19  2  0  0  0  0
 20 21  2  0  0  0  0
 20 22  1  0  0  0  0
 22 23  1  0  0  0  0
 22 24  1  0  0  0  0
 24 25  1  0  0  0  0
 24 26  1  0  0  0  0
 24 27  1  0  0  0  0
M  CHG  1  18  -1
M  END
$$$$

  -OEChem-04042215583D

 27 26  0     1  0  0  0  0  0999 V2000
   -2.3214   -4.0243    0.6982 H   0  0  0  0  0  0  0  0  0  0  0  0
   -2.3336   -3.1038    0.1089 C   0  0  0  0  0  0  0  0  0  0  0  0
   -3.0124   -2.3890    0.5826 H   0  0  0  0  0  0  0  0  0  0  0  0
   -2.7018   -3.3267   -0.8953 H   0  0  0  0  0  0  0  0  0  0  0  0
   -0.9401   -2.5085    0.0267 C   0  0  0  0  0  0  0  0  0  0  0  0
    0.0205   -3.1336    0.4531 O   0  0  0  0  0  0  0  0  0  0  0  0
   -0.7735   -1.2787   -0.5670 N   0  0  0  0  0  0  0  0  0  0  0  0
   -1.6513   -0.7995   -0.7991 H   0  0  0  0  0  0  0  0  0  0  0  0
    0.4246   -0.4405   -0.3924 C   0  0  1  0  0  0  0  0  0  0  0  0
    1.2903   -1.0445   -0.6832 H   0  0  0  0  0  0  0  0  0  0  0  0
    0.4006    0.7988   -1.3315 C   0  0  0  0  0  0  0  0  0  0  0  0
    0.9932    1.5878   -0.8562 H   0  0  0  0  0  0  0  0  0  0  0  0
    0.9241    0.5278   -2.2534 H   0  0  0  0  0  0  0  0  0  0  0  0
   -0.9621    1.4239   -1.7477 C   0  0  0  0  0  0  0  0  0  0  0  0
   -0.8102    2.4813   -1.9824 H   0  0  0  0  0  0  0  0  0  0  0  0
   -1.2819    0.9367   -2.6740 H   0  0  0  0  0  0  0  0  0  0  0  0
   -2.1140    1.3067   -0.7486 C   0  0  0  0  0  0  0  0  0  0  0  0
   -2.9762    0.4202   -0.9715 O   0  5  0  0  0  0  0  0  0  0  0  0
   -2.0408    1.9659    0.3138 O   0  0  0  0  0  0  0  0  0  0  0  0
    0.7056   -0.0285    1.0735 C   0  0  0  0  0  0  0  0  0  0  0  0
    1.8588   -0.0669    1.4953 O   0  0  0  0  0  0  0  0  0  0  0  0
   -0.2993    0.4285    1.9048 N   0  0  0  0  0  0  0  0  0  0  0  0
   -1.1325    0.7853    1.4176 H   0  0  0  0  0  0  0  0  0  0  0  0
   -0.0379    0.9587    3.2326 C   0  0  0  0  0  0  0  0  0  0  0  0
    0.5922    1.8514    3.1701 H   0  0  0  0  0  0  0  0  0  0  0  0
   -0.9810    1.2303    3.7161 H   0  0  0  0  0  0  0  0  0  0  0  0
    0.4649    0.2103    3.8533 H   0  0  0  0  0  0  0  0  0  0  0  0
  1  2  1  0  0  0  0
  2  3  1  0  0  0  0
  2  4  1  0  0  0  0
  2  5  1  0  0  0  0
  5  6  2  0  0  0  0
  5  7  1  0  0  0  0
  7  8  1  0  0  0  0
  7  9  1  0  0  0  0
  9 10  1  0  0  0  0
  9 11  1  0  0  0  0
  9 20  1  0  0  0  0
 11 12  1  0  0  0  0
 11 13  1  0  0  0  0
 11 14  1  0  0  0  0
 14 15  1  0  0  0  0
 14 16  1  0  0  0  0
 14 17  1  0  0  0  0
 17 18  1  0  0  0  0
 17 19  2  0  0  0  0
 20 21  2  0  0  0  0
 20 22  1  0  0  0  0
 22 23  1  0  0  0  0
 22 24  1  0  0  0  0
 24 25  1  0  0  0  0
 24 26  1  0  0  0  0
 24 27  1  0  0  0  0
M  CHG  1  18  -1
M  END
$$$$

  -OEChem-04042215583D

 27 26  0     1  0  0  0  0  0999 V2000
   -2.6808   -3.8018    0.5705 H   0  0  0  0  0  0  0  0  0  0  0  0
   -2.5985   -2.8597    0.0223 C   0  0  0  0  0  0  0  0  0  0  0  0
   -3.1622   -2.0894    0.5561 H   0  0  0  0  0  0  0  0  0  0  0  0
   -3.0300   -2.9864   -0.9734 H   0  0  0  0  0  0  0  0  0  0  0  0
   -1.1446   -2.4404   -0.0941 C   0  0  0  0  0  0  0  0  0  0  0  0
   -0.2568   -3.1984    0.2700 O   0  0  0  0  0  0  0  0  0  0  0  0
   -0.8445   -1.2172   -0.6485 N   0  0  0  0  0  0  0  0  0  0  0  0
   -1.6666   -0.6146   -0.7760 H   0  0  0  0  0  0  0  0  0  0  0  0
    0.4250   -0.5152   -0.3972 C   0  0  1  0  0  0  0  0  0  0  0  0
    1.2386   -1.1930   -0.6757 H   0  0  0  0  0  0  0  0  0  0  0  0
    0.5481    0.7397   -1.3038 C   0  0  0  0  0  0  0  0  0  0  0  0
    1.1897    1.4697   -0.7981 H   0  0  0  0  0  0  0  0  0  0  0  0
    1.0644    0.4448   -2.2224 H   0  0  0  0  0  0  0  0  0  0  0  0
   -0.7651    1.4540   -1.7185 C   0  0  0  0  0  0  0  0  0  0  0  0
   -0.5168    2.4291   -2.1473 H   0  0  0  0  0  0  0  0  0  0  0  0
   -1.2492    0.8698   -2.5072 H   0  0  0  0  0  0  0  0  0  0  0  0
   -1.7671    1.6612   -0.5848 C   0  0  0  0  0  0  0  0  0  0  0  0
   -1.4861    2.4876    0.3114 O   0  5  0  0  0  0  0  0  0  0  0  0
   -2.7243    0.8496   -0.5210 O   0  0  0  0  0  0  0  0  0  0  0  0
    0.6837   -0.1775    1.0920 C   0  0  0  0  0  0  0  0  0  0  0  0
    1.8021   -0.3689    1.5625 O   0  0  0  0  0  0  0  0  0  0  0  0
   -0.3043    0.3589    1.8976 N   0  0  0  0  0  0  0  0  0  0  0  0
   -1.0642    0.8298    1.3923 H   0  0  0  0  0  0  0  0  0  0  0  0
   -0.0428    0.8175    3.2519 C   0  0  0  0  0  0  0  0  0  0  0  0
    0.6554    1.6603    3.2415 H   0  0  0  0  0  0  0  0  0  0  0  0
   -0.9762    1.1439    3.7199 H   0  0  0  0  0  0  0  0  0  0  0  0
    0.3820    0.0097    3.8563 H   0  0  0  0  0  0  0  0  0  0  0  0
  1  2  1  0  0  0  0
  2  3  1  0  0  0  0
  2  4  1  0  0  0  0
  2  5  1  0  0  0  0
  5  6  2  0  0  0  0
  5  7  1  0  0  0  0
  7  8  1  0  0  0  0
  7  9  1  0  0  0  0
  9 10  1  0  0  0  0
  9 11  1  0  0  0  0
  9 20  1  0  0  0  0
 11 12  1  0  0  0  0
 11 13  1  0  0  0  0
 11 14  1  0  0  0  0
 14 15  1  0  0  0  0
 14 16  1  0  0  0  0
 14 17  1  0  0  0  0
 17 18  1  0  0  0  0
 17 19  2  0  0  0  0
 20 21  2  0  0  0  0
 20 22  1  0  0  0  0
 22 23  1  0  0  0  0
 22 24  1  0  0  0  0
 24 25  1  0  0  0  0
 24 26  1  0  0  0  0
 24 27  1  0  0  0  0
M  CHG  1  18  -1
M  END
$$$$

  -OEChem-04042215583D

 27 26  0     1  0  0  0  0  0999 V2000
   -2.6083   -3.7844    0.6597 H   0  0  0  0  0  0  0  0  0  0  0  0
   -2.5750   -2.8455    0.1005 C   0  0  0  0  0  0  0  0  0  0  0  0
   -3.0807   -2.0702    0.6829 H   0  0  0  0  0  0  0  0  0  0  0  0
   -3.1007   -2.9760   -0.8482 H   0  0  0  0  0  0  0  0  0  0  0  0
   -1.1365   -2.4362   -0.1573 C   0  0  0  0  0  0  0  0  0  0  0  0
   -0.2260   -3.2159    0.0831 O   0  0  0  0  0  0  0  0  0  0  0  0
   -0.8780   -1.1931   -0.6893 N   0  0  0  0  0  0  0  0  0  0  0  0
   -1.6916   -0.5673   -0.6668 H   0  0  0  0  0  0  0  0  0  0  0  0
    0.4021   -0.5006   -0.4765 C   0  0  1  0  0  0  0  0  0  0  0  0
    1.2029   -1.1667   -0.8141 H   0  0  0  0  0  0  0  0  0  0  0  0
    0.4822    0.7802   -1.3488 C   0  0  0  0  0  0  0  0  0  0  0  0
    1.1519    1.5008   -0.8666 H   0  0  0  0  0  0  0  0  0  0  0  0
    0.9398    0.5067   -2.3044 H   0  0  0  0  0  0  0  0  0  0  0  0
   -0.8622    1.4812   -1.6641 C   0  0  0  0  0  0  0  0  0  0  0  0
   -0.6564    2.3568   -2.2869 H   0  0  0  0  0  0  0  0  0  0  0  0
   -1.5013    0.8186   -2.2551 H   0  0  0  0  0  0  0  0  0  0  0  0
   -1.6246    1.9437   -0.4271 C   0  0  0  0  0  0  0  0  0  0  0  0
   -1.4234    3.0946    0.0196 O   0  5  0  0  0  0  0  0  0  0  0  0
   -2.3607    1.0796    0.1217 O   0  0  0  0  0  0  0  0  0  0  0  0
    0.7223   -0.2219    1.0112 C   0  0  0  0  0  0  0  0  0  0  0  0
    1.8725   -0.3570    1.4184 O   0  0  0  0  0  0  0  0  0  0  0  0
   -0.2428    0.2792    1.8639 N   0  0  0  0  0  0  0  0  0  0  0  0
   -1.1181    0.5787    1.4149 H   0  0  0  0  0  0  0  0  0  0  0  0
    0.0590    0.8151    3.1804 C   0  0  0  0  0  0  0  0  0  0  0  0
    0.7186    1.6845    3.0950 H   0  0  0  0  0  0  0  0  0  0  0  0
   -0.8652    1.1270    3.6757 H   0  0  0  0  0  0  0  0  0  0  0  0
    0.5457    0.0571    3.8022 H   0  0  0  0  0  0  0  0  0  0  0  0
  1  2  1  0  0  0  0
  2  3  1  0  0  0  0
  2  4  1  0  0  0  0
  2  5  1  0  0  0  0
  5  6  2  0  0  0  0
  5  7  1  0  0  0  0
  7  8  1  0  0  0  0
  7  9  1  0  0  0  0
  9 10  1  0  0  0  0
  9 11  1  0  0  0  0
  9 20  1  0  0  0  0
 11 12  1  0  0  0  0
 11 13  1  0  0  0  0
 11 14  1  0  0  0  0
 14 15  1  0  0  0  0
 14 16  1  0  0  0  0
 14 17  1  0  0  0  0
 17 18  1  0  0  0  0
 17 19  2  0  0  0  0
 20 21  2  0  0  0  0
 20 22  1  0  0  0  0
 22 23  1  0  0  0  0
 22 24  1  0  0  0  0
 24 25  1  0  0  0  0
 24 26  1  0  0  0  0
 24 27  1  0  0  0  0
M  CHG  1  18  -1
M  END
$$$$

  -OEChem-04042215583D

 27 26  0     1  0  0  0  0  0999 V2000
   -2.6414   -3.8196    0.5668 H   0  0  0  0  0  0  0  0  0  0  0  0
   -2.5925   -2.8560    0.0525 C   0  0  0  0  0  0  0  0  0  0  0  0
   -3.1242   -2.1105    0.6500 H   0  0  0  0  0  0  0  0  0  0  0  0
   -3.0822   -2.9465   -0.9200 H   0  0  0  0  0  0  0  0  0  0  0  0
   -1.1472   -2.4305   -0.1332 C   0  0  0  0  0  0  0  0  0  0  0  0
   -0.2425   -3.1957    0.1648 O   0  0  0  0  0  0  0  0  0  0  0  0
   -0.8771   -1.1933   -0.6746 N   0  0  0  0  0  0  0  0  0  0  0  0
   -1.6886   -0.5741   -0.7233 H   0  0  0  0  0  0  0  0  0  0  0  0
    0.3977   -0.4941   -0.4539 C   0  0  1  0  0  0  0  0  0  0  0  0
    1.2022   -1.1647   -0.7735 H   0  0  0  0  0  0  0  0  0  0  0  0
    0.4884    0.7714   -1.3462 C   0  0  0  0  0  0  0  0  0  0  0  0
    1.1570    1.5060   -0.8834 H   0  0  0  0  0  0  0  0  0  0  0  0
    0.9478    0.4724   -2.2934 H   0  0  0  0  0  0  0  0  0  0  0  0
   -0.8632    1.4448   -1.6850 C   0  0  0  0  0  0  0  0  0  0  0  0
   -0.6827    2.1651   -2.4885 H   0  0  0  0  0  0  0  0  0  0  0  0
   -1.5906    0.7306   -2.0794 H   0  0  0  0  0  0  0  0  0  0  0  0
   -1.4547    2.2125   -0.5135 C   0  0  0  0  0  0  0  0  0  0  0  0
   -1.1511    3.4131   -0.3318 O   0  5  0  0  0  0  0  0  0  0  0  0
   -2.1972    1.5297    0.2415 O   0  0  0  0  0  0  0  0  0  0  0  0
    0.7142   -0.1861    1.0291 C   0  0  0  0  0  0  0  0  0  0  0  0
    1.8557   -0.3549    1.4481 O   0  0  0  0  0  0  0  0  0  0  0  0
   -0.2465    0.3300    1.8774 N   0  0  0  0  0  0  0  0  0  0  0  0
   -1.0861    0.7024    1.4136 H   0  0  0  0  0  0  0  0  0  0  0  0
    0.0650    0.8406    3.2021 C   0  0  0  0  0  0  0  0  0  0  0  0
    0.7589    1.6843    3.1321 H   0  0  0  0  0  0  0  0  0  0  0  0
   -0.8504    1.1835    3.6932 H   0  0  0  0  0  0  0  0  0  0  0  0
    0.5165    0.0574    3.8194 H   0  0  0  0  0  0  0  0  0  0  0  0
  1  2  1  0  0  0  0
  2  3  1  0  0  0  0
  2  4  1  0  0  0  0
  2  5  1  0  0  0  0
  5  6  2  0  0  0  0
  5  7  1  0  0  0  0
  7  8  1  0  0  0  0
  7  9  1  0  0  0  0
  9 10  1  0  0  0  0
  9 11  1  0  0  0  0
  9 20  1  0  0  0  0
 11 12  1  0  0  0  0
 11 13  1  0  0  0  0
 11 14  1  0  0  0  0
 14 15  1  0  0  0  0
 14 16  1  0  0  0  0
 14 17  1  0  0  0  0
 17 18  1  0  0  0  0
 17 19  2  0  0  0  0
 20 21  2  0  0  0  0
 20 22  1  0  0  0  0
 22 23  1  0  0  0  0
 22 24  1  0  0  0  0
 24 25  1  0  0  0  0
 24 26  1  0  0  0  0
 24 27  1  0  0  0  0
M  CHG  1  18  -1
M  END
$$$$

  -OEChem-04042215583D

 27 26  0     1  0  0  0  0  0999 V2000
   -2.4583   -3.9130    0.7027 H   0  0  0  0  0  0  0  0  0  0  0  0
   -2.4720   -2.9519    0.1813 C   0  0  0  0  0  0  0  0  0  0  0  0
   -3.0169   -2.2280    0.7929 H   0  0  0  0  0  0  0  0  0  0  0  0
   -2.9893   -3.0735   -0.7734 H   0  0  0  0  0  0  0  0  0  0  0  0
   -1.0548   -2.4621   -0.0560 C   0  0  0  0  0  0  0  0  0  0  0  0
   -0.1076   -3.1707    0.2468 O   0  0  0  0  0  0  0  0  0  0  0  0
   -0.8578   -1.2357   -0.6532 N   0  0  0  0  0  0  0  0  0  0  0  0
   -1.6984   -0.6679   -0.7403 H   0  0  0  0  0  0  0  0  0  0  0  0
    0.3926   -0.4739   -0.5051 C   0  0  1  0  0  0  0  0  0  0  0  0
    1.2187   -1.1109   -0.8385 H   0  0  0  0  0  0  0  0  0  0  0  0
    0.3887    0.7889   -1.4064 C   0  0  0  0  0  0  0  0  0  0  0  0
    1.0669    1.5473   -0.9987 H   0  0  0  0  0  0  0  0  0  0  0  0
    0.8022    0.4857   -2.3733 H   0  0  0  0  0  0  0  0  0  0  0  0
   -0.9976    1.4210   -1.6917 C   0  0  0  0  0  0  0  0  0  0  0  0
   -0.9298    1.9415   -2.6516 H   0  0  0  0  0  0  0  0  0  0  0  0
   -1.7967    0.6875   -1.8106 H   0  0  0  0  0  0  0  0  0  0  0  0
   -1.3808    2.4613   -0.6501 C   0  0  0  0  0  0  0  0  0  0  0  0
   -2.0203    2.0111    0.3361 O   0  5  0  0  0  0  0  0  0  0  0  0
   -1.0288    3.6539   -0.7999 O   0  0  0  0  0  0  0  0  0  0  0  0
    0.7317   -0.1023    0.9581 C   0  0  0  0  0  0  0  0  0  0  0  0
    1.8749   -0.2704    1.3721 O   0  0  0  0  0  0  0  0  0  0  0  0
   -0.2326    0.4012    1.8113 N   0  0  0  0  0  0  0  0  0  0  0  0
   -1.0350    0.8425    1.3412 H   0  0  0  0  0  0  0  0  0  0  0  0
    0.0901    0.8937    3.1407 C   0  0  0  0  0  0  0  0  0  0  0  0
    0.7895    1.7335    3.0776 H   0  0  0  0  0  0  0  0  0  0  0  0
   -0.8204    1.2365    3.6410 H   0  0  0  0  0  0  0  0  0  0  0  0
    0.5395    0.1004    3.7464 H   0  0  0  0  0  0  0  0  0  0  0  0
  1  2  1  0  0  0  0
  2  3  1  0  0  0  0
  2  4  1  0  0  0  0
  2  5  1  0  0  0  0
  5  6  2  0  0  0  0
  5  7  1  0  0  0  0
  7  8  1  0  0  0  0
  7  9  1  0  0  0  0
  9 10  1  0  0  0  0
  9 11  1  0  0  0  0
  9 20  1  0  0  0  0
 11 12  1  0  0  0  0
 11 13  1  0  0  0  0
 11 14  1  0  0  0  0
 14 15  1  0  0  0  0
 14 16  1  0  0  0  0
 14 17  1  0  0  0  0
 17 18  1  0  0  0  0
 17 19  2  0  0  0  0
 20 21  2  0  0  0  0
 20 22  1  0  0  0  0
 22 23  1  0  0  0  0
 22 24  1  0  0  0  0
 24 25  1  0  0  0  0
 24 26  1  0  0  0  0
 24 27  1  0  0  0  0
M  CHG  1  18  -1
M  END
$$$$

  -OEChem-04042215583D

 27 26  0     1  0  0  0  0  0999 V2000
   -2.4622   -3.9231    0.7024 H   0  0  0  0  0  0  0  0  0  0  0  0
   -2.4690   -2.9713    0.1640 C   0  0  0  0  0  0  0  0  0  0  0  0
   -3.0467   -2.2450    0.7415 H   0  0  0  0  0  0  0  0  0  0  0  0
   -2.9478   -3.1172   -0.8073 H   0  0  0  0  0  0  0  0  0  0  0  0
   -1.0505   -2.4657   -0.0290 C   0  0  0  0  0  0  0  0  0  0  0  0
   -0.1072   -3.1546    0.3252 O   0  0  0  0  0  0  0  0  0  0  0  0
   -0.8478   -1.2549   -0.6559 N   0  0  0  0  0  0  0  0  0  0  0  0
   -1.6888   -0.7065   -0.8082 H   0  0  0  0  0  0  0  0  0  0  0  0
    0.4023   -0.4874   -0.5254 C   0  0  1  0  0  0  0  0  0  0  0  0
    1.2352   -1.1155   -0.8591 H   0  0  0  0  0  0  0  0  0  0  0  0
    0.3731    0.7867   -1.4094 C   0  0  0  0  0  0  0  0  0  0  0  0
    1.0685    1.5370   -1.0143 H   0  0  0  0  0  0  0  0  0  0  0  0
    0.7632    0.4923   -2.3885 H   0  0  0  0  0  0  0  0  0  0  0  0
   -1.0177    1.4308   -1.6624 C   0  0  0  0  0  0  0  0  0  0  0  0
   -1.0675    1.7190   -2.7167 H   0  0  0  0  0  0  0  0  0  0  0  0
   -1.8632    0.7649   -1.4935 H   0  0  0  0  0  0  0  0  0  0  0  0
   -1.2024    2.6929   -0.8327 C   0  0  0  0  0  0  0  0  0  0  0  0
   -1.6274    2.5002    0.3356 O   0  5  0  0  0  0  0  0  0  0  0  0
   -0.9288    3.8100   -1.3298 O   0  0  0  0  0  0  0  0  0  0  0  0
    0.7308   -0.0804    0.9306 C   0  0  0  0  0  0  0  0  0  0  0  0
    1.8538   -0.2965    1.3761 O   0  0  0  0  0  0  0  0  0  0  0  0
   -0.2452    0.4434    1.7596 N   0  0  0  0  0  0  0  0  0  0  0  0
   -0.9571    0.9980    1.2645 H   0  0  0  0  0  0  0  0  0  0  0  0
    0.0585    0.8743    3.1150 C   0  0  0  0  0  0  0  0  0  0  0  0
    0.7896    1.6891    3.1017 H   0  0  0  0  0  0  0  0  0  0  0  0
   -0.8524    1.2319    3.6043 H   0  0  0  0  0  0  0  0  0  0  0  0
    0.4622    0.0430    3.7020 H   0  0  0  0  0  0  0  0  0  0  0  0
  1  2  1  0  0  0  0
  2  3  1  0  0  0  0
  2  4  1  0  0  0  0
  2  5  1  0  0  0  0
  5  6  2  0  0  0  0
  5  7  1  0  0  0  0
  7  8  1  0  0  0  0
  7  9  1  0  0  0  0
  9 10  1  0  0  0  0
  9 11  1  0  0  0  0
  9 20  1  0  0  0  0
 11 12  1  0  0  0  0
 11 13  1  0  0  0  0
 11 14  1  0  0  0  0
 14 15  1  0  0  0  0
 14 16  1  0  0  0  0
 14 17  1  0  0  0  0
 17 18  1  0  0  0  0
 17 19  2  0  0  0  0
 20 21  2  0  0  0  0
 20 22  1  0  0  0  0
 22 23  1  0  0  0  0
 22 24  1  0  0  0  0
 24 25  1  0  0  0  0
 24 26  1  0  0  0  0
 24 27  1  0  0  0  0
M  CHG  1  18  -1
M  END
$$$$

  -OEChem-04042215583D

 27 26  0     1  0  0  0  0  0999 V2000
   -2.5221   -3.9065    0.6750 H   0  0  0  0  0  0  0  0  0  0  0  0
   -2.4951   -2.9724    0.1071 C   0  0  0  0  0  0  0  0  0  0  0  0
   -3.1122   -2.2307    0.6207 H   0  0  0  0  0  0  0  0  0  0  0  0
   -2.9073   -3.1518   -0.8889 H   0  0  0  0  0  0  0  0  0  0  0  0
   -1.0680   -2.4665   -0.0054 C   0  0  0  0  0  0  0  0  0  0  0  0
   -0.1500   -3.1379    0.4365 O   0  0  0  0  0  0  0  0  0  0  0  0
   -0.8257   -1.2793   -0.6625 N   0  0  0  0  0  0  0  0  0  0  0  0
   -1.6478   -0.7524   -0.9387 H   0  0  0  0  0  0  0  0  0  0  0  0
    0.4333   -0.5227   -0.5396 C   0  0  1  0  0  0  0  0  0  0  0  0
    1.2703   -1.1446   -0.8736 H   0  0  0  0  0  0  0  0  0  0  0  0
    0.3712    0.7652   -1.3998 C   0  0  0  0  0  0  0  0  0  0  0  0
    1.0710    1.5118   -1.0045 H   0  0  0  0  0  0  0  0  0  0  0  0
    0.7389    0.5046   -2.3970 H   0  0  0  0  0  0  0  0  0  0  0  0
   -1.0387    1.3955   -1.5886 C   0  0  0  0  0  0  0  0  0  0  0  0
   -1.2754    1.4239   -2.6565 H   0  0  0  0  0  0  0  0  0  0  0  0
   -1.8428    0.8475   -1.0980 H   0  0  0  0  0  0  0  0  0  0  0  0
   -1.0717    2.8111   -1.0333 C   0  0  0  0  0  0  0  0  0  0  0  0
   -1.2397    2.8835    0.2112 O   0  5  0  0  0  0  0  0  0  0  0  0
   -0.9508    3.7874   -1.8096 O   0  0  0  0  0  0  0  0  0  0  0  0
    0.7501   -0.0698    0.9060 C   0  0  0  0  0  0  0  0  0  0  0  0
    1.8525   -0.3173    1.3850 O   0  0  0  0  0  0  0  0  0  0  0  0
   -0.2342    0.4964    1.6984 N   0  0  0  0  0  0  0  0  0  0  0  0
   -0.8768    1.1010    1.1722 H   0  0  0  0  0  0  0  0  0  0  0  0
    0.0491    0.9267    3.0589 C   0  0  0  0  0  0  0  0  0  0  0  0
    0.8144    1.7094    3.0610 H   0  0  0  0  0  0  0  0  0  0  0  0
   -0.8590    1.3272    3.5190 H   0  0  0  0  0  0  0  0  0  0  0  0
    0.4000    0.0843    3.6635 H   0  0  0  0  0  0  0  0  0  0  0  0
  1  2  1  0  0  0  0
  2  3  1  0  0  0  0
  2  4  1  0  0  0  0
  2  5  1  0  0  0  0
  5  6  2  0  0  0  0
  5  7  1  0  0  0  0
  7  8  1  0  0  0  0
  7  9  1  0  0  0  0
  9 10  1  0  0  0  0
  9 11  1  0  0  0  0
  9 20  1  0  0  0  0
 11 12  1  0  0  0  0
 11 13  1  0  0  0  0
 11 14  1  0  0  0  0
 14 15  1  0  0  0  0
 14 16  1  0  0  0  0
 14 17  1  0  0  0  0
 17 18  1  0  0  0  0
 17 19  2  0  0  0  0
 20 21  2  0  0  0  0
 20 22  1  0  0  0  0
 22 23  1  0  0  0  0
 22 24  1  0  0  0  0
 24 25  1  0  0  0  0
 24 26  1  0  0  0  0
 24 27  1  0  0  0  0
M  CHG  1  18  -1
M  END
$$$$

  -OEChem-04042215583D

 27 26  0     1  0  0  0  0  0999 V2000
   -2.6378   -3.9228    0.4499 H   0  0  0  0  0  0  0  0  0  0  0  0
   -2.5520   -2.9678   -0.0759 C   0  0  0  0  0  0  0  0  0  0  0  0
   -3.2259   -2.2462    0.3926 H   0  0  0  0  0  0  0  0  0  0  0  0
   -2.8499   -3.1104   -1.1175 H   0  0  0  0  0  0  0  0  0  0  0  0
   -1.1233   -2.4582   -0.0099 C   0  0  0  0  0  0  0  0  0  0  0  0
   -0.2713   -3.1145    0.5655 O   0  0  0  0  0  0  0  0  0  0  0  0
   -0.7985   -1.2788   -0.6451 N   0  0  0  0  0  0  0  0  0  0  0  0
   -1.5636   -0.7632   -1.0705 H   0  0  0  0  0  0  0  0  0  0  0  0
    0.4716   -0.5542   -0.4553 C   0  0  1  0  0  0  0  0  0  0  0  0
    1.3117   -1.1925   -0.7471 H   0  0  0  0  0  0  0  0  0  0  0  0
    0.4644    0.7272   -1.3263 C   0  0  0  0  0  0  0  0  0  0  0  0
    1.1339    1.4720   -0.8787 H   0  0  0  0  0  0  0  0  0  0  0  0
    0.8881    0.4825   -2.3053 H   0  0  0  0  0  0  0  0  0  0  0  0
   -0.9375    1.3513   -1.5646 C   0  0  0  0  0  0  0  0  0  0  0  0
   -1.2827    1.1078   -2.5738 H   0  0  0  0  0  0  0  0  0  0  0  0
   -1.6841    0.9750   -0.8614 H   0  0  0  0  0  0  0  0  0  0  0  0
   -0.9072    2.8621   -1.3743 C   0  0  0  0  0  0  0  0  0  0  0  0
   -0.7096    3.5948   -2.3722 O   0  5  0  0  0  0  0  0  0  0  0  0
   -1.0965    3.2672   -0.2003 O   0  0  0  0  0  0  0  0  0  0  0  0
    0.7218   -0.1071    1.0036 C   0  0  0  0  0  0  0  0  0  0  0  0
    1.8118   -0.3137    1.5268 O   0  0  0  0  0  0  0  0  0  0  0  0
   -0.2945    0.4834    1.7343 N   0  0  0  0  0  0  0  0  0  0  0  0
   -0.9851    0.9686    1.1612 H   0  0  0  0  0  0  0  0  0  0  0  0
   -0.0604    1.0271    3.0632 C   0  0  0  0  0  0  0  0  0  0  0  0
    0.6867    1.8264    3.0227 H   0  0  0  0  0  0  0  0  0  0  0  0
   -0.9898    1.4399    3.4664 H   0  0  0  0  0  0  0  0  0  0  0  0
    0.2927    0.2442    3.7420 H   0  0  0  0  0  0  0  0  0  0  0  0
  1  2  1  0  0  0  0
  2  3  1  0  0  0  0
  2  4  1  0  0  0  0
  2  5  1  0  0  0  0
  5  6  2  0  0  0  0
  5  7  1  0  0  0  0
  7  8  1  0  0  0  0
  7  9  1  0  0  0  0
  9 10  1  0  0  0  0
  9 11  1  0  0  0  0
  9 20  1  0  0  0  0
 11 12  1  0  0  0  0
 11 13  1  0  0  0  0
 11 14  1  0  0  0  0
 14 15  1  0  0  0  0
 14 16  1  0  0  0  0
 14 17  1  0  0  0  0
 17 18  1  0  0  0  0
 17 19  2  0  0  0  0
 20 21  2  0  0  0  0
 20 22  1  0  0  0  0
 22 23  1  0  0  0  0
 22 24  1  0  0  0  0
 24 25  1  0  0  0  0
 24 26  1  0  0  0  0
 24 27  1  0  0  0  0
M  CHG  1  18  -1
M  END
$$$$

  -OEChem-04042215583D

 27 26  0     1  0  0  0  0  0999 V2000
   -2.6435   -3.9387    0.4110 H   0  0  0  0  0  0  0  0  0  0  0  0
   -2.5525   -2.9890   -0.1237 C   0  0  0  0  0  0  0  0  0  0  0  0
   -3.2613   -2.2753    0.3035 H   0  0  0  0  0  0  0  0  0  0  0  0
   -2.8000   -3.1513   -1.1757 H   0  0  0  0  0  0  0  0  0  0  0  0
   -1.1386   -2.4496   -0.0007 C   0  0  0  0  0  0  0  0  0  0  0  0
   -0.2976   -3.0855    0.6123 O   0  0  0  0  0  0  0  0  0  0  0  0
   -0.8164   -1.2586   -0.6154 N   0  0  0  0  0  0  0  0  0  0  0  0
   -1.5658   -0.7659   -1.0941 H   0  0  0  0  0  0  0  0  0  0  0  0
    0.4582   -0.5371   -0.4426 C   0  0  1  0  0  0  0  0  0  0  0  0
    1.2885   -1.1800   -0.7527 H   0  0  0  0  0  0  0  0  0  0  0  0
    0.4420    0.7327   -1.3290 C   0  0  0  0  0  0  0  0  0  0  0  0
    1.0996    1.4882   -0.8826 H   0  0  0  0  0  0  0  0  0  0  0  0
    0.8629    0.4899   -2.3099 H   0  0  0  0  0  0  0  0  0  0  0  0
   -0.9664    1.3369   -1.5491 C   0  0  0  0  0  0  0  0  0  0  0  0
   -1.4406    0.8707   -2.4177 H   0  0  0  0  0  0  0  0  0  0  0  0
   -1.6048    1.1533   -0.6800 H   0  0  0  0  0  0  0  0  0  0  0  0
   -0.9043    2.8485   -1.7469 C   0  0  0  0  0  0  0  0  0  0  0  0
   -0.5362    3.2806   -2.8655 O   0  5  0  0  0  0  0  0  0  0  0  0
   -1.2474    3.5625   -0.7729 O   0  0  0  0  0  0  0  0  0  0  0  0
    0.7418   -0.1179    1.0175 C   0  0  0  0  0  0  0  0  0  0  0  0
    1.8638   -0.2590    1.4913 O   0  0  0  0  0  0  0  0  0  0  0  0
   -0.2584    0.4557    1.7822 N   0  0  0  0  0  0  0  0  0  0  0  0
   -1.0528    0.8059    1.2529 H   0  0  0  0  0  0  0  0  0  0  0  0
    0.0043    1.0561    3.0814 C   0  0  0  0  0  0  0  0  0  0  0  0
    0.6670    1.9210    2.9742 H   0  0  0  0  0  0  0  0  0  0  0  0
   -0.9330    1.3894    3.5364 H   0  0  0  0  0  0  0  0  0  0  0  0
    0.4737    0.3301    3.7532 H   0  0  0  0  0  0  0  0  0  0  0  0
  1  2  1  0  0  0  0
  2  3  1  0  0  0  0
  2  4  1  0  0  0  0
  2  5  1  0  0  0  0
  5  6  2  0  0  0  0
  5  7  1  0  0  0  0
  7  8  1  0  0  0  0
  7  9  1  0  0  0  0
  9 10  1  0  0  0  0
  9 11  1  0  0  0  0
  9 20  1  0  0  0  0
 11 12  1  0  0  0  0
 11 13  1  0  0  0  0
 11 14  1  0  0  0  0
 14 15  1  0  0  0  0
 14 16  1  0  0  0  0
 14 17  1  0  0  0  0
 17 18  1  0  0  0  0
 17 19  2  0  0  0  0
 20 21  2  0  0  0  0
 20 22  1  0  0  0  0
 22 23  1  0  0  0  0
 22 24  1  0  0  0  0
 24 25  1  0  0  0  0
 24 26  1  0  0  0  0
 24 27  1  0  0  0  0
M  CHG  1  18  -1
M  END
$$$$

  -OEChem-04042215583D

 27 26  0     1  0  0  0  0  0999 V2000
   -2.6278   -3.9648    0.3903 H   0  0  0  0  0  0  0  0  0  0  0  0
   -2.5445   -3.0104   -0.1372 C   0  0  0  0  0  0  0  0  0  0  0  0
   -3.2802   -2.3147    0.2737 H   0  0  0  0  0  0  0  0  0  0  0  0
   -2.7603   -3.1728   -1.1961 H   0  0  0  0  0  0  0  0  0  0  0  0
   -1.1468   -2.4403    0.0247 C   0  0  0  0  0  0  0  0  0  0  0  0
   -0.3126   -3.0511    0.6714 O   0  0  0  0  0  0  0  0  0  0  0  0
   -0.8319   -1.2470   -0.5889 N   0  0  0  0  0  0  0  0  0  0  0  0
   -1.5687   -0.7841   -1.1149 H   0  0  0  0  0  0  0  0  0  0  0  0
    0.4445   -0.5242   -0.4397 C   0  0  1  0  0  0  0  0  0  0  0  0
    1.2677   -1.1707   -0.7613 H   0  0  0  0  0  0  0  0  0  0  0  0
    0.4209    0.7378   -1.3364 C   0  0  0  0  0  0  0  0  0  0  0  0
    1.0828    1.4998   -0.9086 H   0  0  0  0  0  0  0  0  0  0  0  0
    0.8269    0.4809   -2.3202 H   0  0  0  0  0  0  0  0  0  0  0  0
   -0.9888    1.3385   -1.5428 C   0  0  0  0  0  0  0  0  0  0  0  0
   -1.5653    0.7151   -2.2323 H   0  0  0  0  0  0  0  0  0  0  0  0
   -1.5224    1.3733   -0.5884 H   0  0  0  0  0  0  0  0  0  0  0  0
   -0.9225    2.7545   -2.1103 C   0  0  0  0  0  0  0  0  0  0  0  0
   -0.4733    2.8962   -3.2734 O   0  5  0  0  0  0  0  0  0  0  0  0
   -1.3625    3.6829   -1.3894 O   0  0  0  0  0  0  0  0  0  0  0  0
    0.7547   -0.1107    1.0162 C   0  0  0  0  0  0  0  0  0  0  0  0
    1.8929   -0.2150    1.4591 O   0  0  0  0  0  0  0  0  0  0  0  0
   -0.2328    0.4564    1.8016 N   0  0  0  0  0  0  0  0  0  0  0  0
   -1.0758    0.7346    1.3082 H   0  0  0  0  0  0  0  0  0  0  0  0
    0.0395    1.0583    3.0982 C   0  0  0  0  0  0  0  0  0  0  0  0
    0.6805    1.9382    2.9831 H   0  0  0  0  0  0  0  0  0  0  0  0
   -0.8965    1.3682    3.5720 H   0  0  0  0  0  0  0  0  0  0  0  0
    0.5376    0.3403    3.7579 H   0  0  0  0  0  0  0  0  0  0  0  0
  1  2  1  0  0  0  0
  2  3  1  0  0  0  0
  2  4  1  0  0  0  0
  2  5  1  0  0  0  0
  5  6  2  0  0  0  0
  5  7  1  0  0  0  0
  7  8  1  0  0  0  0
  7  9  1  0  0  0  0
  9 10  1  0  0  0  0
  9 11  1  0  0  0  0
  9 20  1  0  0  0  0
 11 12  1  0  0  0  0
 11 13  1  0  0  0  0
 11 14  1  0  0  0  0
 14 15  1  0  0  0  0
 14 16  1  0  0  0  0
 14 17  1  0  0  0  0
 17 18  1  0  0  0  0
 17 19  2  0  0  0  0
 20 21  2  0  0  0  0
 20 22  1  0  0  0  0
 22 23  1  0  0  0  0
 22 24  1  0  0  0  0
 24 25  1  0  0  0  0
 24 26  1  0  0  0  0
 24 27  1  0  0  0  0
M  CHG  1  18  -1
M  END
$$$$

  -OEChem-04042215583D

 27 26  0     1  0  0  0  0  0999 V2000
   -2.6069   -3.9754    0.3474 H   0  0  0  0  0  0  0  0  0  0  0  0
   -2.5248   -3.0224   -0.1828 C   0  0  0  0  0  0  0  0  0  0  0  0
   -3.2938   -2.3427    0.1925 H   0  0  0  0  0  0  0  0  0  0  0  0
   -2.6928   -3.1963   -1.2486 H   0  0  0  0  0  0  0  0  0  0  0  0
   -1.1489   -2.4177    0.0324 C   0  0  0  0  0  0  0  0  0  0  0  0
   -0.3261   -3.0078    0.7120 O   0  0  0  0  0  0  0  0  0  0  0  0
   -0.8415   -1.2147   -0.5658 N   0  0  0  0  0  0  0  0  0  0  0  0
   -1.5573   -0.7847   -1.1462 H   0  0  0  0  0  0  0  0  0  0  0  0
    0.4322   -0.4898   -0.4176 C   0  0  1  0  0  0  0  0  0  0  0  0
    1.2501   -1.1376   -0.7500 H   0  0  0  0  0  0  0  0  0  0  0  0
    0.3956    0.7524   -1.3347 C   0  0  0  0  0  0  0  0  0  0  0  0
    1.2314    1.4145   -1.0822 H   0  0  0  0  0  0  0  0  0  0  0  0
    0.5460    0.4220   -2.3680 H   0  0  0  0  0  0  0  0  0  0  0  0
   -0.9259    1.5533   -1.2721 C   0  0  0  0  0  0  0  0  0  0  0  0
   -1.7739    0.9336   -1.5735 H   0  0  0  0  0  0  0  0  0  0  0  0
   -1.1080    1.8987   -0.2512 H   0  0  0  0  0  0  0  0  0  0  0  0
   -0.8802    2.7608   -2.2055 C   0  0  0  0  0  0  0  0  0  0  0  0
   -0.9810    2.5357   -3.4367 O   0  5  0  0  0  0  0  0  0  0  0  0
   -0.7867    3.8992   -1.6868 O   0  0  0  0  0  0  0  0  0  0  0  0
    0.7688   -0.0884    1.0360 C   0  0  0  0  0  0  0  0  0  0  0  0
    1.9168   -0.1883    1.4540 O   0  0  0  0  0  0  0  0  0  0  0  0
   -0.2018    0.4684    1.8484 N   0  0  0  0  0  0  0  0  0  0  0  0
   -1.0717    0.7145    1.3869 H   0  0  0  0  0  0  0  0  0  0  0  0
    0.0860    1.0448    3.1527 C   0  0  0  0  0  0  0  0  0  0  0  0
    0.7764    1.8886    3.0538 H   0  0  0  0  0  0  0  0  0  0  0  0
   -0.8380    1.4034    3.6157 H   0  0  0  0  0  0  0  0  0  0  0  0
    0.5339    0.2945    3.8123 H   0  0  0  0  0  0  0  0  0  0  0  0
  1  2  1  0  0  0  0
  2  3  1  0  0  0  0
  2  4  1  0  0  0  0
  2  5  1  0  0  0  0
  5  6  2  0  0  0  0
  5  7  1  0  0  0  0
  7  8  1  0  0  0  0
  7  9  1  0  0  0  0
  9 10  1  0  0  0  0
  9 11  1  0  0  0  0
  9 20  1  0  0  0  0
 11 12  1  0  0  0  0
 11 13  1  0  0  0  0
 11 14  1  0  0  0  0
 14 15  1  0  0  0  0
 14 16  1  0  0  0  0
 14 17  1  0  0  0  0
 17 18  1  0  0  0  0
 17 19  2  0  0  0  0
 20 21  2  0  0  0  0
 20 22  1  0  0  0  0
 22 23  1  0  0  0  0
 22 24  1  0  0  0  0
 24 25  1  0  0  0  0
 24 26  1  0  0  0  0
 24 27  1  0  0  0  0
M  CHG  1  18  -1
M  END
$$$$

  -OEChem-04042215583D

 27 26  0     1  0  0  0  0  0999 V2000
   -2.7327   -3.9166    0.4459 H   0  0  0  0  0  0  0  0  0  0  0  0
   -2.6387   -2.9729   -0.0987 C   0  0  0  0  0  0  0  0  0  0  0  0
   -3.3846   -2.2703    0.2813 H   0  0  0  0  0  0  0  0  0  0  0  0
   -2.8306   -3.1568   -1.1588 H   0  0  0  0  0  0  0  0  0  0  0  0
   -1.2455   -2.3973    0.0830 C   0  0  0  0  0  0  0  0  0  0  0  0
   -0.4263   -2.9947    0.7608 O   0  0  0  0  0  0  0  0  0  0  0  0
   -0.9198   -1.2120   -0.5405 N   0  0  0  0  0  0  0  0  0  0  0  0
   -1.6244   -0.7938   -1.1443 H   0  0  0  0  0  0  0  0  0  0  0  0
    0.3877   -0.5374   -0.4657 C   0  0  1  0  0  0  0  0  0  0  0  0
    1.1622   -1.2154   -0.8387 H   0  0  0  0  0  0  0  0  0  0  0  0
    0.3539    0.7156   -1.3690 C   0  0  0  0  0  0  0  0  0  0  0  0
    1.2373    1.3356   -1.1800 H   0  0  0  0  0  0  0  0  0  0  0  0
    0.4197    0.3713   -2.4069 H   0  0  0  0  0  0  0  0  0  0  0  0
   -0.9203    1.5852   -1.2334 C   0  0  0  0  0  0  0  0  0  0  0  0
   -1.8307    0.9825   -1.2301 H   0  0  0  0  0  0  0  0  0  0  0  0
   -0.8884    2.1374   -0.2900 H   0  0  0  0  0  0  0  0  0  0  0  0
   -1.0371    2.5669   -2.3964 C   0  0  0  0  0  0  0  0  0  0  0  0
   -0.7187    3.7636   -2.1973 O   0  5  0  0  0  0  0  0  0  0  0  0
   -1.4645    2.1052   -3.4835 O   0  0  0  0  0  0  0  0  0  0  0  0
    0.8073   -0.1431    0.9675 C   0  0  0  0  0  0  0  0  0  0  0  0
    1.9728   -0.2643    1.3278 O   0  0  0  0  0  0  0  0  0  0  0  0
   -0.1065    0.4543    1.8161 N   0  0  0  0  0  0  0  0  0  0  0  0
   -1.0006    0.6967    1.4012 H   0  0  0  0  0  0  0  0  0  0  0  0
    0.2528    1.0283    3.1035 C   0  0  0  0  0  0  0  0  0  0  0  0
    0.9436    1.8666    2.9682 H   0  0  0  0  0  0  0  0  0  0  0  0
   -0.6429    1.3939    3.6142 H   0  0  0  0  0  0  0  0  0  0  0  0
    0.7289    0.2748    3.7393 H   0  0  0  0  0  0  0  0  0  0  0  0
  1  2  1  0  0  0  0
  2  3  1  0  0  0  0
  2  4  1  0  0  0  0
  2  5  1  0  0  0  0
  5  6  2  0  0  0  0
  5  7  1  0  0  0  0
  7  8  1  0  0  0  0
  7  9  1  0  0  0  0
  9 10  1  0  0  0  0
  9 11  1  0  0  0  0
  9 20  1  0  0  0  0
 11 12  1  0  0  0  0
 11 13  1  0  0  0  0
 11 14  1  0  0  0  0
 14 15  1  0  0  0  0
 14 16  1  0  0  0  0
 14 17  1  0  0  0  0
 17 18  1  0  0  0  0
 17 19  2  0  0  0  0
 20 21  2  0  0  0  0
 20 22  1  0  0  0  0
 22 23  1  0  0  0  0
 22 24  1  0  0  0  0
 24 25  1  0  0  0  0
 24 26  1  0  0  0  0
 24 27  1  0  0  0  0
M  CHG  1  18  -1
M  END
$$$$

  -OEChem-04042215583D

 27 26  0     1  0  0  0  0  0999 V2000
   -2.7596   -3.9114    0.4405 H   0  0  0  0  0  0  0  0  0  0  0  0
   -2.6494   -2.9759   -0.1150 C   0  0  0  0  0  0  0  0  0  0  0  0
   -3.4060   -2.2681    0.2327 H   0  0  0  0  0  0  0  0  0  0  0  0
   -2.8102   -3.1752   -1.1776 H   0  0  0  0  0  0  0  0  0  0  0  0
   -1.2622   -2.3972    0.0979 C   0  0  0  0  0  0  0  0  0  0  0  0
   -0.4617   -2.9830    0.8081 O   0  0  0  0  0  0  0  0  0  0  0  0
   -0.9196   -1.2215   -0.5340 N   0  0  0  0  0  0  0  0  0  0  0  0
   -1.6031   -0.8204   -1.1752 H   0  0  0  0  0  0  0  0  0  0  0  0
    0.3936   -0.5580   -0.4575 C   0  0  1  0  0  0  0  0  0  0  0  0
    1.1659   -1.2401   -0.8275 H   0  0  0  0  0  0  0  0  0  0  0  0
    0.3636    0.6986   -1.3547 C   0  0  0  0  0  0  0  0  0  0  0  0
    1.2546    1.3111   -1.1784 H   0  0  0  0  0  0  0  0  0  0  0  0
    0.4205    0.3472   -2.3909 H   0  0  0  0  0  0  0  0  0  0  0  0
   -0.9035    1.5827   -1.2142 C   0  0  0  0  0  0  0  0  0  0  0  0
   -1.7911    1.0129   -0.9347 H   0  0  0  0  0  0  0  0  0  0  0  0
   -0.7386    2.3204   -0.4233 H   0  0  0  0  0  0  0  0  0  0  0  0
   -1.2214    2.2973   -2.5239 C   0  0  0  0  0  0  0  0  0  0  0  0
   -0.8504    3.4869   -2.6646 O   0  5  0  0  0  0  0  0  0  0  0  0
   -1.8480    1.6287   -3.3837 O   0  0  0  0  0  0  0  0  0  0  0  0
    0.8070   -0.1541    0.9741 C   0  0  0  0  0  0  0  0  0  0  0  0
    1.9728   -0.2620    1.3380 O   0  0  0  0  0  0  0  0  0  0  0  0
   -0.1099    0.4594    1.8077 N   0  0  0  0  0  0  0  0  0  0  0  0
   -1.0070    0.6827    1.3880 H   0  0  0  0  0  0  0  0  0  0  0  0
    0.2427    1.0575    3.0858 C   0  0  0  0  0  0  0  0  0  0  0  0
    0.9309    1.8959    2.9376 H   0  0  0  0  0  0  0  0  0  0  0  0
   -0.6560    1.4281    3.5875 H   0  0  0  0  0  0  0  0  0  0  0  0
    0.7199    0.3173    3.7363 H   0  0  0  0  0  0  0  0  0  0  0  0
  1  2  1  0  0  0  0
  2  3  1  0  0  0  0
  2  4  1  0  0  0  0
  2  5  1  0  0  0  0
  5  6  2  0  0  0  0
  5  7  1  0  0  0  0
  7  8  1  0  0  0  0
  7  9  1  0  0  0  0
  9 10  1  0  0  0  0
  9 11  1  0  0  0  0
  9 20  1  0  0  0  0
 11 12  1  0  0  0  0
 11 13  1  0  0  0  0
 11 14  1  0  0  0  0
 14 15  1  0  0  0  0
 14 16  1  0  0  0  0
 14 17  1  0  0  0  0
 17 18  1  0  0  0  0
 17 19  2  0  0  0  0
 20 21  2  0  0  0  0
 20 22  1  0  0  0  0
 22 23  1  0  0  0  0
 22 24  1  0  0  0  0
 24 25  1  0  0  0  0
 24 26  1  0  0  0  0
 24 27  1  0  0  0  0
M  CHG  1  18  -1
M  END
$$$$

  -OEChem-04042215583D

 27 26  0     1  0  0  0  0  0999 V2000
   -2.7815   -3.8753    0.4285 H   0  0  0  0  0  0  0  0  0  0  0  0
   -2.6542   -2.9444   -0.1310 C   0  0  0  0  0  0  0  0  0  0  0  0
   -3.4135   -2.2292    0.1952 H   0  0  0  0  0  0  0  0  0  0  0  0
   -2.7946   -3.1500   -1.1953 H   0  0  0  0  0  0  0  0  0  0  0  0
   -1.2685   -2.3718    0.1061 C   0  0  0  0  0  0  0  0  0  0  0  0
   -0.4896   -2.9495    0.8469 O   0  0  0  0  0  0  0  0  0  0  0  0
   -0.9041   -1.2061   -0.5306 N   0  0  0  0  0  0  0  0  0  0  0  0
   -1.5669   -0.8157   -1.2038 H   0  0  0  0  0  0  0  0  0  0  0  0
    0.4152   -0.5548   -0.4461 C   0  0  1  0  0  0  0  0  0  0  0  0
    1.1860   -1.2433   -0.8064 H   0  0  0  0  0  0  0  0  0  0  0  0
    0.3812    0.6880   -1.3590 C   0  0  0  0  0  0  0  0  0  0  0  0
    1.2668    1.3076   -1.1806 H   0  0  0  0  0  0  0  0  0  0  0  0
    0.4512    0.3295   -2.3920 H   0  0  0  0  0  0  0  0  0  0  0  0
   -0.8943    1.5634   -1.2209 C   0  0  0  0  0  0  0  0  0  0  0  0
   -1.6963    1.0796   -0.6605 H   0  0  0  0  0  0  0  0  0  0  0  0
   -0.6360    2.4685   -0.6629 H   0  0  0  0  0  0  0  0  0  0  0  0
   -1.4406    1.9580   -2.5871 C   0  0  0  0  0  0  0  0  0  0  0  0
   -1.1898    3.0983   -3.0442 O   0  5  0  0  0  0  0  0  0  0  0  0
   -2.1205    1.0753   -3.1698 O   0  0  0  0  0  0  0  0  0  0  0  0
    0.8195   -0.1414    0.9850 C   0  0  0  0  0  0  0  0  0  0  0  0
    1.9830   -0.2449    1.3582 O   0  0  0  0  0  0  0  0  0  0  0  0
   -0.1002    0.4884    1.8026 N   0  0  0  0  0  0  0  0  0  0  0  0
   -1.0116    0.6681    1.3926 H   0  0  0  0  0  0  0  0  0  0  0  0
    0.2235    1.0515    3.1035 C   0  0  0  0  0  0  0  0  0  0  0  0
    0.9722    1.8436    3.0017 H   0  0  0  0  0  0  0  0  0  0  0  0
   -0.6741    1.4777    3.5612 H   0  0  0  0  0  0  0  0  0  0  0  0
    0.6154    0.2747    3.7680 H   0  0  0  0  0  0  0  0  0  0  0  0
  1  2  1  0  0  0  0
  2  3  1  0  0  0  0
  2  4  1  0  0  0  0
  2  5  1  0  0  0  0
  5  6  2  0  0  0  0
  5  7  1  0  0  0  0
  7  8  1  0  0  0  0
  7  9  1  0  0  0  0
  9 10  1  0  0  0  0
  9 11  1  0  0  0  0
  9 20  1  0  0  0  0
 11 12  1  0  0  0  0
 11 13  1  0  0  0  0
 11 14  1  0  0  0  0
 14 15  1  0  0  0  0
 14 16  1  0  0  0  0
 14 17  1  0  0  0  0
 17 18  1  0  0  0  0
 17 19  2  0  0  0  0
 20 21  2  0  0  0  0
 20 22  1  0  0  0  0
 22 23  1  0  0  0  0
 22 24  1  0  0  0  0
 24 25  1  0  0  0  0
 24 26  1  0  0  0  0
 24 27  1  0  0  0  0
M  CHG  1  18  -1
M  END
$$$$

  -OEChem-04042215583D

 27 26  0     1  0  0  0  0  0999 V2000
   -2.8321   -3.8346    0.3644 H   0  0  0  0  0  0  0  0  0  0  0  0
   -2.6728   -2.9083   -0.1939 C   0  0  0  0  0  0  0  0  0  0  0  0
   -3.4458   -2.1878    0.0854 H   0  0  0  0  0  0  0  0  0  0  0  0
   -2.7571   -3.1194   -1.2632 H   0  0  0  0  0  0  0  0  0  0  0  0
   -1.3002   -2.3367    0.1108 C   0  0  0  0  0  0  0  0  0  0  0  0
   -0.5617   -2.9058    0.8995 O   0  0  0  0  0  0  0  0  0  0  0  0
   -0.9012   -1.1804   -0.5193 N   0  0  0  0  0  0  0  0  0  0  0  0
   -1.5323   -0.8024   -1.2375 H   0  0  0  0  0  0  0  0  0  0  0  0
    0.4268   -0.5479   -0.4115 C   0  0  1  0  0  0  0  0  0  0  0  0
    1.1925   -1.2495   -0.7569 H   0  0  0  0  0  0  0  0  0  0  0  0
    0.3972    0.6699   -1.3539 C   0  0  0  0  0  0  0  0  0  0  0  0
    1.2680    1.3029   -1.1536 H   0  0  0  0  0  0  0  0  0  0  0  0
    0.5004    0.3099   -2.3836 H   0  0  0  0  0  0  0  0  0  0  0  0
   -0.8939    1.5230   -1.2280 C   0  0  0  0  0  0  0  0  0  0  0  0
   -1.5675    1.1853   -0.4373 H   0  0  0  0  0  0  0  0  0  0  0  0
   -0.6048    2.5447   -0.9639 H   0  0  0  0  0  0  0  0  0  0  0  0
   -1.6423    1.5635   -2.5520 C   0  0  0  0  0  0  0  0  0  0  0  0
   -1.6219    2.5976   -3.2599 O   0  5  0  0  0  0  0  0  0  0  0  0
   -2.2455    0.4950   -2.8365 O   0  0  0  0  0  0  0  0  0  0  0  0
    0.8252   -0.1295    1.0197 C   0  0  0  0  0  0  0  0  0  0  0  0
    1.9899   -0.2256    1.3914 O   0  0  0  0  0  0  0  0  0  0  0  0
   -0.0870    0.5215    1.8285 N   0  0  0  0  0  0  0  0  0  0  0  0
   -1.0116    0.6653    1.4337 H   0  0  0  0  0  0  0  0  0  0  0  0
    0.2351    1.0830    3.1305 C   0  0  0  0  0  0  0  0  0  0  0  0
    0.9672    1.8901    3.0267 H   0  0  0  0  0  0  0  0  0  0  0  0
   -0.6668    1.4889    3.5978 H   0  0  0  0  0  0  0  0  0  0  0  0
    0.6478    0.3111    3.7880 H   0  0  0  0  0  0  0  0  0  0  0  0
  1  2  1  0  0  0  0
  2  3  1  0  0  0  0
  2  4  1  0  0  0  0
  2  5  1  0  0  0  0
  5  6  2  0  0  0  0
  5  7  1  0  0  0  0
  7  8  1  0  0  0  0
  7  9  1  0  0  0  0
  9 10  1  0  0  0  0
  9 11  1  0  0  0  0
  9 20  1  0  0  0  0
 11 12  1  0  0  0  0
 11 13  1  0  0  0  0
 11 14  1  0  0  0  0
 14 15  1  0  0  0  0
 14 16  1  0  0  0  0
 14 17  1  0  0  0  0
 17 18  1  0  0  0  0
 17 19  2  0  0  0  0
 20 21  2  0  0  0  0
 20 22  1  0  0  0  0
 22 23  1  0  0  0  0
 22 24  1  0  0  0  0
 24 25  1  0  0  0  0
 24 26  1  0  0  0  0
 24 27  1  0  0  0  0
M  CHG  1  18  -1
M  END
$$$$

  -OEChem-04042215583D

 27 26  0     1  0  0  0  0  0999 V2000
   -2.6175   -3.9359    0.3451 H   0  0  0  0  0  0  0  0  0  0  0  0
   -2.5227   -2.9954   -0.2040 C   0  0  0  0  0  0  0  0  0  0  0  0
   -3.3139   -2.3140    0.1189 H   0  0  0  0  0  0  0  0  0  0  0  0
   -2.6435   -3.1934   -1.2722 H   0  0  0  0  0  0  0  0  0  0  0  0
   -1.1651   -2.3669    0.0523 C   0  0  0  0  0  0  0  0  0  0  0  0
   -0.3597   -2.9245    0.7827 O   0  0  0  0  0  0  0  0  0  0  0  0
   -0.8583   -1.1666   -0.5451 N   0  0  0  0  0  0  0  0  0  0  0  0
   -1.5559   -0.7922   -1.2048 H   0  0  0  0  0  0  0  0  0  0  0  0
    0.4270   -0.4526   -0.4500 C   0  0  1  0  0  0  0  0  0  0  0  0
    1.2228   -1.1050   -0.8230 H   0  0  0  0  0  0  0  0  0  0  0  0
    0.3440    0.7900   -1.3625 C   0  0  0  0  0  0  0  0  0  0  0  0
    1.1839    1.4526   -1.1287 H   0  0  0  0  0  0  0  0  0  0  0  0
    0.4691    0.4763   -2.4049 H   0  0  0  0  0  0  0  0  0  0  0  0
   -0.9779    1.5854   -1.2215 C   0  0  0  0  0  0  0  0  0  0  0  0
   -1.5007    1.3530   -0.2909 H   0  0  0  0  0  0  0  0  0  0  0  0
   -0.7395    2.6528   -1.1902 H   0  0  0  0  0  0  0  0  0  0  0  0
   -1.9044    1.3393   -2.4094 C   0  0  0  0  0  0  0  0  0  0  0  0
   -2.5113    0.2353   -2.4031 O   0  5  0  0  0  0  0  0  0  0  0  0
   -2.0035    2.2111   -3.3041 O   0  0  0  0  0  0  0  0  0  0  0  0
    0.8280   -0.0627    0.9890 C   0  0  0  0  0  0  0  0  0  0  0  0
    2.0043   -0.0933    1.3354 O   0  0  0  0  0  0  0  0  0  0  0  0
   -0.1075    0.4942    1.8402 N   0  0  0  0  0  0  0  0  0  0  0  0
   -1.0622    0.5256    1.4946 H   0  0  0  0  0  0  0  0  0  0  0  0
    0.1855    0.9466    3.1907 C   0  0  0  0  0  0  0  0  0  0  0  0
    0.9485    1.7314    3.1746 H   0  0  0  0  0  0  0  0  0  0  0  0
   -0.7183    1.3523    3.6545 H   0  0  0  0  0  0  0  0  0  0  0  0
    0.5458    0.1130    3.8018 H   0  0  0  0  0  0  0  0  0  0  0  0
  1  2  1  0  0  0  0
  2  3  1  0  0  0  0
  2  4  1  0  0  0  0
  2  5  1  0  0  0  0
  5  6  2  0  0  0  0
  5  7  1  0  0  0  0
  7  8  1  0  0  0  0
  7  9  1  0  0  0  0
  9 10  1  0  0  0  0
  9 11  1  0  0  0  0
  9 20  1  0  0  0  0
 11 12  1  0  0  0  0
 11 13  1  0  0  0  0
 11 14  1  0  0  0  0
 14 15  1  0  0  0  0
 14 16  1  0  0  0  0
 14 17  1  0  0  0  0
 17 18  1  0  0  0  0
 17 19  2  0  0  0  0
 20 21  2  0  0  0  0
 20 22  1  0  0  0  0
 22 23  1  0  0  0  0
 22 24  1  0  0  0  0
 24 25  1  0  0  0  0
 24 26  1  0  0  0  0
 24 27  1  0  0  0  0
M  CHG  1  18  -1
M  END
$$$$

  -OEChem-04042215583D

 27 26  0     1  0  0  0  0  0999 V2000
   -2.5824   -3.9524    0.4471 H   0  0  0  0  0  0  0  0  0  0  0  0
   -2.5029   -3.0304   -0.1347 C   0  0  0  0  0  0  0  0  0  0  0  0
   -3.2623   -2.3244    0.2115 H   0  0  0  0  0  0  0  0  0  0  0  0
   -2.6881   -3.2565   -1.1879 H   0  0  0  0  0  0  0  0  0  0  0  0
   -1.1227   -2.4196    0.0244 C   0  0  0  0  0  0  0  0  0  0  0  0
   -0.2585   -3.0108    0.6548 O   0  0  0  0  0  0  0  0  0  0  0  0
   -0.8577   -1.2017   -0.5572 N   0  0  0  0  0  0  0  0  0  0  0  0
   -1.6394   -0.7639   -1.0625 H   0  0  0  0  0  0  0  0  0  0  0  0
    0.4097   -0.4590   -0.4706 C   0  0  1  0  0  0  0  0  0  0  0  0
    1.2121   -1.0982   -0.8524 H   0  0  0  0  0  0  0  0  0  0  0  0
    0.3447    0.8088   -1.3560 C   0  0  0  0  0  0  0  0  0  0  0  0
    1.1906    1.4534   -1.0955 H   0  0  0  0  0  0  0  0  0  0  0  0
    0.4789    0.5174   -2.4034 H   0  0  0  0  0  0  0  0  0  0  0  0
   -0.9593    1.6335   -1.2349 C   0  0  0  0  0  0  0  0  0  0  0  0
   -1.3552    1.5929   -0.2176 H   0  0  0  0  0  0  0  0  0  0  0  0
   -0.7262    2.6819   -1.4432 H   0  0  0  0  0  0  0  0  0  0  0  0
   -2.0355    1.1913   -2.2271 C   0  0  0  0  0  0  0  0  0  0  0  0
   -2.8442    0.3147   -1.8240 O   0  5  0  0  0  0  0  0  0  0  0  0
   -2.0183    1.6712   -3.3843 O   0  0  0  0  0  0  0  0  0  0  0  0
    0.8067   -0.0946    0.9761 C   0  0  0  0  0  0  0  0  0  0  0  0
    1.9858   -0.0878    1.3143 O   0  0  0  0  0  0  0  0  0  0  0  0
   -0.1417    0.4167    1.8419 N   0  0  0  0  0  0  0  0  0  0  0  0
   -1.0937    0.4598    1.4880 H   0  0  0  0  0  0  0  0  0  0  0  0
    0.1556    0.9166    3.1745 C   0  0  0  0  0  0  0  0  0  0  0  0
    0.8504    1.7608    3.1193 H   0  0  0  0  0  0  0  0  0  0  0  0
   -0.7634    1.2552    3.6619 H   0  0  0  0  0  0  0  0  0  0  0  0
    0.6029    0.1274    3.7872 H   0  0  0  0  0  0  0  0  0  0  0  0
  1  2  1  0  0  0  0
  2  3  1  0  0  0  0
  2  4  1  0  0  0  0
  2  5  1  0  0  0  0
  5  6  2  0  0  0  0
  5  7  1  0  0  0  0
  7  8  1  0  0  0  0
  7  9  1  0  0  0  0
  9 10  1  0  0  0  0
  9 11  1  0  0  0  0
  9 20  1  0  0  0  0
 11 12  1  0  0  0  0
 11 13  1  0  0  0  0
 11 14  1  0  0  0  0
 14 15  1  0  0  0  0
 14 16  1  0  0  0  0
 14 17  1  0  0  0  0
 17 18  1  0  0  0  0
 17 19  2  0  0  0  0
 20 21  2  0  0  0  0
 20 22  1  0  0  0  0
 22 23  1  0  0  0  0
 22 24  1  0  0  0  0
 24 25  1  0  0  0  0
 24 26  1  0  0  0  0
 24 27  1  0  0  0  0
M  CHG  1  18  -1
M  END
$$$$

  -OEChem-04042215583D

 27 26  0     1  0  0  0  0  0999 V2000
   -2.6378   -3.9927    0.4135 H   0  0  0  0  0  0  0  0  0  0  0  0
   -2.5404   -3.0626   -0.1528 C   0  0  0  0  0  0  0  0  0  0  0  0
   -3.3642   -2.3956    0.1143 H   0  0  0  0  0  0  0  0  0  0  0  0
   -2.6032   -3.2885   -1.2204 H   0  0  0  0  0  0  0  0  0  0  0  0
   -1.2140   -2.3914    0.1545 C   0  0  0  0  0  0  0  0  0  0  0  0
   -0.4398   -2.9033    0.9494 O   0  0  0  0  0  0  0  0  0  0  0  0
   -0.8956   -1.2165   -0.4867 N   0  0  0  0  0  0  0  0  0  0  0  0
   -1.5201   -0.9476   -1.2583 H   0  0  0  0  0  0  0  0  0  0  0  0
    0.3983   -0.5214   -0.4244 C   0  0  1  0  0  0  0  0  0  0  0  0
    1.1778   -1.2067   -0.7710 H   0  0  0  0  0  0  0  0  0  0  0  0
    0.3825    0.7123   -1.3632 C   0  0  0  0  0  0  0  0  0  0  0  0
    1.2559    1.3306   -1.1313 H   0  0  0  0  0  0  0  0  0  0  0  0
    0.5063    0.3652   -2.3941 H   0  0  0  0  0  0  0  0  0  0  0  0
   -0.8832    1.6108   -1.2984 C   0  0  0  0  0  0  0  0  0  0  0  0
   -1.1083    1.8449   -0.2554 H   0  0  0  0  0  0  0  0  0  0  0  0
   -0.6403    2.5536   -1.7966 H   0  0  0  0  0  0  0  0  0  0  0  0
   -2.1563    1.0741   -1.9674 C   0  0  0  0  0  0  0  0  0  0  0  0
   -2.0849    0.0386   -2.6787 O   0  5  0  0  0  0  0  0  0  0  0  0
   -3.2278    1.6484   -1.6648 O   0  0  0  0  0  0  0  0  0  0  0  0
    0.8023   -0.0957    1.0037 C   0  0  0  0  0  0  0  0  0  0  0  0
    1.9797   -0.1244    1.3483 O   0  0  0  0  0  0  0  0  0  0  0  0
   -0.1272    0.4992    1.8355 N   0  0  0  0  0  0  0  0  0  0  0  0
   -1.0784    0.5509    1.4796 H   0  0  0  0  0  0  0  0  0  0  0  0
    0.1736    1.0078    3.1637 C   0  0  0  0  0  0  0  0  0  0  0  0
    0.9478    1.7800    3.1121 H   0  0  0  0  0  0  0  0  0  0  0  0
   -0.7239    1.4469    3.6089 H   0  0  0  0  0  0  0  0  0  0  0  0
    0.5225    0.1970    3.8114 H   0  0  0  0  0  0  0  0  0  0  0  0
  1  2  1  0  0  0  0
  2  3  1  0  0  0  0
  2  4  1  0  0  0  0
  2  5  1  0  0  0  0
  5  6  2  0  0  0  0
  5  7  1  0  0  0  0
  7  8  1  0  0  0  0
  7  9  1  0  0  0  0
  9 10  1  0  0  0  0
  9 11  1  0  0  0  0
  9 20  1  0  0  0  0
 11 12  1  0  0  0  0
 11 13  1  0  0  0  0
 11 14  1  0  0  0  0
 14 15  1  0  0  0  0
 14 16  1  0  0  0  0
 14 17  1  0  0  0  0
 17 18  1  0  0  0  0
 17 19  2  0  0  0  0
 20 21  2  0  0  0  0
 20 22  1  0  0  0  0
 22 23  1  0  0  0  0
 22 24  1  0  0  0  0
 24 25  1  0  0  0  0
 24 26  1  0  0  0  0
 24 27  1  0  0  0  0
M  CHG  1  18  -1
M  END
$$$$

  -OEChem-04042215583D

 27 26  0     1  0  0  0  0  0999 V2000
   -2.6566   -3.9386    0.5764 H   0  0  0  0  0  0  0  0  0  0  0  0
   -2.5437   -3.0499   -0.0500 C   0  0  0  0  0  0  0  0  0  0  0  0
   -3.3122   -2.3222    0.2244 H   0  0  0  0  0  0  0  0  0  0  0  0
   -2.6832   -3.3309   -1.0969 H   0  0  0  0  0  0  0  0  0  0  0  0
   -1.1679   -2.4384    0.1407 C   0  0  0  0  0  0  0  0  0  0  0  0
   -0.3399   -2.9993    0.8436 O   0  0  0  0  0  0  0  0  0  0  0  0
   -0.8630   -1.2658   -0.5111 N   0  0  0  0  0  0  0  0  0  0  0  0
   -1.5632   -0.9312   -1.1839 H   0  0  0  0  0  0  0  0  0  0  0  0
    0.4245   -0.5542   -0.4633 C   0  0  1  0  0  0  0  0  0  0  0  0
    1.2163   -1.2238   -0.8126 H   0  0  0  0  0  0  0  0  0  0  0  0
    0.4089    0.7156   -1.3581 C   0  0  0  0  0  0  0  0  0  0  0  0
    1.3025    1.3099   -1.1405 H   0  0  0  0  0  0  0  0  0  0  0  0
    0.4927    0.3846   -2.3985 H   0  0  0  0  0  0  0  0  0  0  0  0
   -0.8347    1.6419   -1.2634 C   0  0  0  0  0  0  0  0  0  0  0  0
   -0.8923    2.0586   -0.2543 H   0  0  0  0  0  0  0  0  0  0  0  0
   -0.6806    2.4817   -1.9465 H   0  0  0  0  0  0  0  0  0  0  0  0
   -2.1784    1.0072   -1.6198 C   0  0  0  0  0  0  0  0  0  0  0  0
   -2.2226    0.2314   -2.6058 O   0  5  0  0  0  0  0  0  0  0  0  0
   -3.0917    1.1159   -0.7678 O   0  0  0  0  0  0  0  0  0  0  0  0
    0.7869   -0.1331    0.9767 C   0  0  0  0  0  0  0  0  0  0  0  0
    1.9559   -0.1336    1.3511 O   0  0  0  0  0  0  0  0  0  0  0  0
   -0.1830    0.4394    1.7791 N   0  0  0  0  0  0  0  0  0  0  0  0
   -1.1133    0.5211    1.3680 H   0  0  0  0  0  0  0  0  0  0  0  0
    0.0769    1.0218    3.0848 C   0  0  0  0  0  0  0  0  0  0  0  0
    0.7682    1.8657    2.9959 H   0  0  0  0  0  0  0  0  0  0  0  0
   -0.8568    1.3822    3.5263 H   0  0  0  0  0  0  0  0  0  0  0  0
    0.5118    0.2745    3.7561 H   0  0  0  0  0  0  0  0  0  0  0  0
  1  2  1  0  0  0  0
  2  3  1  0  0  0  0
  2  4  1  0  0  0  0
  2  5  1  0  0  0  0
  5  6  2  0  0  0  0
  5  7  1  0  0  0  0
  7  8  1  0  0  0  0
  7  9  1  0  0  0  0
  9 10  1  0  0  0  0
  9 11  1  0  0  0  0
  9 20  1  0  0  0  0
 11 12  1  0  0  0  0
 11 13  1  0  0  0  0
 11 14  1  0  0  0  0
 14 15  1  0  0  0  0
 14 16  1  0  0  0  0
 14 17  1  0  0  0  0
 17 18  1  0  0  0  0
 17 19  2  0  0  0  0
 20 21  2  0  0  0  0
 20 22  1  0  0  0  0
 22 23  1  0  0  0  0
 22 24  1  0  0  0  0
 24 25  1  0  0  0  0
 24 26  1  0  0  0  0
 24 27  1  0  0  0  0
M  CHG  1  18  -1
M  END
$$$$

  -OEChem-04042215583D

 27 26  0     1  0  0  0  0  0999 V2000
   -2.2050   -4.1318    0.4687 H   0  0  0  0  0  0  0  0  0  0  0  0
   -2.2552   -3.1885   -0.0813 C   0  0  0  0  0  0  0  0  0  0  0  0
   -2.9754   -2.5288    0.4108 H   0  0  0  0  0  0  0  0  0  0  0  0
   -2.5969   -3.3860   -1.1003 H   0  0  0  0  0  0  0  0  0  0  0  0
   -0.8924   -2.5219   -0.1143 C   0  0  0  0  0  0  0  0  0  0  0  0
    0.0918   -3.1145    0.3053 O   0  0  0  0  0  0  0  0  0  0  0  0
   -0.7777   -1.2625   -0.6553 N   0  0  0  0  0  0  0  0  0  0  0  0
   -1.6499   -0.8445   -0.9992 H   0  0  0  0  0  0  0  0  0  0  0  0
    0.4174   -0.4060   -0.5758 C   0  0  1  0  0  0  0  0  0  0  0  0
    1.2647   -0.9392   -1.0174 H   0  0  0  0  0  0  0  0  0  0  0  0
    0.2543    0.9651   -1.2947 C   0  0  0  0  0  0  0  0  0  0  0  0
    1.1207    1.5939   -1.0641 H   0  0  0  0  0  0  0  0  0  0  0  0
    0.3035    0.7426   -2.3652 H   0  0  0  0  0  0  0  0  0  0  0  0
   -1.0368    1.8138   -1.0935 C   0  0  0  0  0  0  0  0  0  0  0  0
   -0.8590    2.4864   -0.2488 H   0  0  0  0  0  0  0  0  0  0  0  0
   -1.1828    2.4460   -1.9742 H   0  0  0  0  0  0  0  0  0  0  0  0
   -2.3389    1.0709   -0.8137 C   0  0  0  0  0  0  0  0  0  0  0  0
   -2.6679    0.9454    0.3917 O   0  5  0  0  0  0  0  0  0  0  0  0
   -2.8446    0.4107   -1.7531 O   0  0  0  0  0  0  0  0  0  0  0  0
    0.7814   -0.0985    0.8940 C   0  0  0  0  0  0  0  0  0  0  0  0
    1.9592   -0.0308    1.2363 O   0  0  0  0  0  0  0  0  0  0  0  0
   -0.2096    0.2641    1.7889 N   0  0  0  0  0  0  0  0  0  0  0  0
   -1.1524    0.3893    1.3941 H   0  0  0  0  0  0  0  0  0  0  0  0
    0.0517    0.7528    3.1316 C   0  0  0  0  0  0  0  0  0  0  0  0
    0.6179    1.6887    3.0941 H   0  0  0  0  0  0  0  0  0  0  0  0
   -0.8935    0.9375    3.6506 H   0  0  0  0  0  0  0  0  0  0  0  0
    0.6215    0.0134    3.7033 H   0  0  0  0  0  0  0  0  0  0  0  0
  1  2  1  0  0  0  0
  2  3  1  0  0  0  0
  2  4  1  0  0  0  0
  2  5  1  0  0  0  0
  5  6  2  0  0  0  0
  5  7  1  0  0  0  0
  7  8  1  0  0  0  0
  7  9  1  0  0  0  0
  9 10  1  0  0  0  0
  9 11  1  0  0  0  0
  9 20  1  0  0  0  0
 11 12  1  0  0  0  0
 11 13  1  0  0  0  0
 11 14  1  0  0  0  0
 14 15  1  0  0  0  0
 14 16  1  0  0  0  0
 14 17  1  0  0  0  0
 17 18  1  0  0  0  0
 17 19  2  0  0  0  0
 20 21  2  0  0  0  0
 20 22  1  0  0  0  0
 22 23  1  0  0  0  0
 22 24  1  0  0  0  0
 24 25  1  0  0  0  0
 24 26  1  0  0  0  0
 24 27  1  0  0  0  0
M  CHG  1  18  -1
M  END
$$$$

  -OEChem-04042215583D

 27 26  0     1  0  0  0  0  0999 V2000
   -2.4032   -4.0762    0.5217 H   0  0  0  0  0  0  0  0  0  0  0  0
   -2.4008   -3.1308   -0.0269 C   0  0  0  0  0  0  0  0  0  0  0  0
   -3.0983   -2.4396    0.4544 H   0  0  0  0  0  0  0  0  0  0  0  0
   -2.7343   -3.3111   -1.0517 H   0  0  0  0  0  0  0  0  0  0  0  0
   -1.0085   -2.5269   -0.0362 C   0  0  0  0  0  0  0  0  0  0  0  0
   -0.0624   -3.1576    0.4144 O   0  0  0  0  0  0  0  0  0  0  0  0
   -0.8232   -1.2825   -0.5922 N   0  0  0  0  0  0  0  0  0  0  0  0
   -1.6742   -0.8176   -0.9300 H   0  0  0  0  0  0  0  0  0  0  0  0
    0.4014   -0.4762   -0.4643 C   0  0  1  0  0  0  0  0  0  0  0  0
    1.2360   -1.0764   -0.8401 H   0  0  0  0  0  0  0  0  0  0  0  0
    0.3542    0.8390   -1.2924 C   0  0  0  0  0  0  0  0  0  0  0  0
    1.2241    1.4498   -1.0289 H   0  0  0  0  0  0  0  0  0  0  0  0
    0.4927    0.5331   -2.3341 H   0  0  0  0  0  0  0  0  0  0  0  0
   -0.9065    1.7579   -1.2839 C   0  0  0  0  0  0  0  0  0  0  0  0
   -0.6661    2.6378   -0.6795 H   0  0  0  0  0  0  0  0  0  0  0  0
   -1.0844    2.1170   -2.3018 H   0  0  0  0  0  0  0  0  0  0  0  0
   -2.2159    1.1897   -0.7396 C   0  0  0  0  0  0  0  0  0  0  0  0
   -2.4520    1.3344    0.4838 O   0  5  0  0  0  0  0  0  0  0  0  0
   -2.8752    0.4391   -1.5003 O   0  0  0  0  0  0  0  0  0  0  0  0
    0.7561   -0.1289    1.0000 C   0  0  0  0  0  0  0  0  0  0  0  0
    1.9330   -0.1289    1.3526 O   0  0  0  0  0  0  0  0  0  0  0  0
   -0.2102    0.3127    1.8840 N   0  0  0  0  0  0  0  0  0  0  0  0
   -1.1252    0.5411    1.4711 H   0  0  0  0  0  0  0  0  0  0  0  0
    0.0940    0.8444    3.2014 C   0  0  0  0  0  0  0  0  0  0  0  0
    0.7138    1.7426    3.1173 H   0  0  0  0  0  0  0  0  0  0  0  0
   -0.8326    1.1079    3.7198 H   0  0  0  0  0  0  0  0  0  0  0  0
    0.6256    0.0989    3.8010 H   0  0  0  0  0  0  0  0  0  0  0  0
  1  2  1  0  0  0  0
  2  3  1  0  0  0  0
  2  4  1  0  0  0  0
  2  5  1  0  0  0  0
  5  6  2  0  0  0  0
  5  7  1  0  0  0  0
  7  8  1  0  0  0  0
  7  9  1  0  0  0  0
  9 10  1  0  0  0  0
  9 11  1  0  0  0  0
  9 20  1  0  0  0  0
 11 12  1  0  0  0  0
 11 13  1  0  0  0  0
 11 14  1  0  0  0  0
 14 15  1  0  0  0  0
 14 16  1  0  0  0  0
 14 17  1  0  0  0  0
 17 18  1  0  0  0  0
 17 19  2  0  0  0  0
 20 21  2  0  0  0  0
 20 22  1  0  0  0  0
 22 23  1  0  0  0  0
 22 24  1  0  0  0  0
 24 25  1  0  0  0  0
 24 26  1  0  0  0  0
 24 27  1  0  0  0  0
M  CHG  1  18  -1
M  END
$$$$

  -OEChem-04042215583D

 27 26  0     1  0  0  0  0  0999 V2000
   -2.5175   -4.0429    0.4281 H   0  0  0  0  0  0  0  0  0  0  0  0
   -2.5136   -3.0374   -0.0008 C   0  0  0  0  0  0  0  0  0  0  0  0
   -3.1252   -2.3815    0.6250 H   0  0  0  0  0  0  0  0  0  0  0  0
   -2.9490   -3.0747   -1.0022 H   0  0  0  0  0  0  0  0  0  0  0  0
   -1.0973   -2.4974   -0.0740 C   0  0  0  0  0  0  0  0  0  0  0  0
   -0.1577   -3.1858    0.2986 O   0  0  0  0  0  0  0  0  0  0  0  0
   -0.8875   -1.2415   -0.5942 N   0  0  0  0  0  0  0  0  0  0  0  0
   -1.7406   -0.7156   -0.8183 H   0  0  0  0  0  0  0  0  0  0  0  0
    0.3625   -0.4805   -0.4468 C   0  0  1  0  0  0  0  0  0  0  0  0
    1.1678   -1.1154   -0.8302 H   0  0  0  0  0  0  0  0  0  0  0  0
    0.3642    0.8104   -1.3102 C   0  0  0  0  0  0  0  0  0  0  0  0
    1.2323    1.4101   -1.0164 H   0  0  0  0  0  0  0  0  0  0  0  0
    0.5442    0.4900   -2.3412 H   0  0  0  0  0  0  0  0  0  0  0  0
   -0.8763    1.7561   -1.3549 C   0  0  0  0  0  0  0  0  0  0  0  0
   -0.5519    2.7502   -1.0331 H   0  0  0  0  0  0  0  0  0  0  0  0
   -1.1939    1.8541   -2.3975 H   0  0  0  0  0  0  0  0  0  0  0  0
   -2.1081    1.3877   -0.5273 C   0  0  0  0  0  0  0  0  0  0  0  0
   -2.1508    1.7606    0.6682 O   0  5  0  0  0  0  0  0  0  0  0  0
   -2.9392    0.6052   -1.0526 O   0  0  0  0  0  0  0  0  0  0  0  0
    0.7697   -0.1744    1.0145 C   0  0  0  0  0  0  0  0  0  0  0  0
    1.9530   -0.2600    1.3336 O   0  0  0  0  0  0  0  0  0  0  0  0
   -0.1416    0.2820    1.9472 N   0  0  0  0  0  0  0  0  0  0  0  0
   -1.0264    0.6382    1.5614 H   0  0  0  0  0  0  0  0  0  0  0  0
    0.2461    0.7554    3.2653 C   0  0  0  0  0  0  0  0  0  0  0  0
    0.8876    1.6379    3.1795 H   0  0  0  0  0  0  0  0  0  0  0  0
   -0.6449    1.0260    3.8394 H   0  0  0  0  0  0  0  0  0  0  0  0
    0.7845   -0.0254    3.8115 H   0  0  0  0  0  0  0  0  0  0  0  0
  1  2  1  0  0  0  0
  2  3  1  0  0  0  0
  2  4  1  0  0  0  0
  2  5  1  0  0  0  0
  5  6  2  0  0  0  0
  5  7  1  0  0  0  0
  7  8  1  0  0  0  0
  7  9  1  0  0  0  0
  9 10  1  0  0  0  0
  9 11  1  0  0  0  0
  9 20  1  0  0  0  0
 11 12  1  0  0  0  0
 11 13  1  0  0  0  0
 11 14  1  0  0  0  0
 14 15  1  0  0  0  0
 14 16  1  0  0  0  0
 14 17  1  0  0  0  0
 17 18  1  0  0  0  0
 17 19  2  0  0  0  0
 20 21  2  0  0  0  0
 20 22  1  0  0  0  0
 22 23  1  0  0  0  0
 22 24  1  0  0  0  0
 24 25  1  0  0  0  0
 24 26  1  0  0  0  0
 24 27  1  0  0  0  0
M  CHG  1  18  -1
M  END
$$$$

  -OEChem-04042215583D

 27 26  0     1  0  0  0  0  0999 V2000
   -2.2297   -3.8857    1.0607 H   0  0  0  0  0  0  0  0  0  0  0  0
   -2.2654   -2.9818    0.4470 C   0  0  0  0  0  0  0  0  0  0  0  0
   -2.9031   -2.2436    0.9413 H   0  0  0  0  0  0  0  0  0  0  0  0
   -2.6988   -3.2267   -0.5256 H   0  0  0  0  0  0  0  0  0  0  0  0
   -0.8706   -2.4132    0.2607 C   0  0  0  0  0  0  0  0  0  0  0  0
    0.1063   -3.0551    0.6209 O   0  0  0  0  0  0  0  0  0  0  0  0
   -0.7248   -1.1755   -0.3207 N   0  0  0  0  0  0  0  0  0  0  0  0
   -1.5975   -0.6483   -0.4539 H   0  0  0  0  0  0  0  0  0  0  0  0
    0.5130   -0.3877   -0.2975 C   0  0  1  0  0  0  0  0  0  0  0  0
    1.2854   -1.0713   -0.6654 H   0  0  0  0  0  0  0  0  0  0  0  0
    0.4905    0.7597   -1.3416 C   0  0  0  0  0  0  0  0  0  0  0  0
    1.3406    1.4131   -1.1186 H   0  0  0  0  0  0  0  0  0  0  0  0
    0.6940    0.3094   -2.3183 H   0  0  0  0  0  0  0  0  0  0  0  0
   -0.7551    1.6739   -1.5255 C   0  0  0  0  0  0  0  0  0  0  0  0
   -0.4057    2.7012   -1.6672 H   0  0  0  0  0  0  0  0  0  0  0  0
   -1.2413    1.3792   -2.4603 H   0  0  0  0  0  0  0  0  0  0  0  0
   -1.8455    1.6840   -0.4537 C   0  0  0  0  0  0  0  0  0  0  0  0
   -2.6962    0.7545   -0.4801 O   0  5  0  0  0  0  0  0  0  0  0  0
   -1.8613    2.6372    0.3597 O   0  0  0  0  0  0  0  0  0  0  0  0
    1.0876    0.0249    1.0860 C   0  0  0  0  0  0  0  0  0  0  0  0
    2.3029    0.1142    1.2140 O   0  0  0  0  0  0  0  0  0  0  0  0
    0.4403    0.5377    2.1890 N   0  0  0  0  0  0  0  0  0  0  0  0
    1.0786    0.8721    2.9014 H   0  0  0  0  0  0  0  0  0  0  0  0
   -0.9770    0.4788    2.5173 C   0  0  0  0  0  0  0  0  0  0  0  0
   -1.3713    1.4898    2.6543 H   0  0  0  0  0  0  0  0  0  0  0  0
   -1.5654   -0.0168    1.7469 H   0  0  0  0  0  0  0  0  0  0  0  0
   -1.1156   -0.0771    3.4489 H   0  0  0  0  0  0  0  0  0  0  0  0
  1  2  1  0  0  0  0
  2  3  1  0  0  0  0
  2  4  1  0  0  0  0
  2  5  1  0  0  0  0
  5  6  2  0  0  0  0
  5  7  1  0  0  0  0
  7  8  1  0  0  0  0
  7  9  1  0  0  0  0
  9 10  1  0  0  0  0
  9 11  1  0  0  0  0
  9 20  1  0  0  0  0
 11 12  1  0  0  0  0
 11 13  1  0  0  0  0
 11 14  1  0  0  0  0
 14 15  1  0  0  0  0
 14 16  1  0  0  0  0
 14 17  1  0  0  0  0
 17 18  1  0  0  0  0
 17 19  2  0  0  0  0
 20 21  2  0  0  0  0
 20 22  1  0  0  0  0
 22 23  1  0  0  0  0
 22 24  1  0  0  0  0
 24 25  1  0  0  0  0
 24 26  1  0  0  0  0
 24 27  1  0  0  0  0
M  CHG  1  18  -1
M  END
$$$$

  -OEChem-04042215583D

 27 26  0     1  0  0  0  0  0999 V2000
   -2.5295   -3.8626    0.5549 H   0  0  0  0  0  0  0  0  0  0  0  0
   -2.5171   -2.8878    0.0600 C   0  0  0  0  0  0  0  0  0  0  0  0
   -3.0400   -2.1646    0.6921 H   0  0  0  0  0  0  0  0  0  0  0  0
   -3.0399   -2.9664   -0.8961 H   0  0  0  0  0  0  0  0  0  0  0  0
   -1.0879   -2.4303   -0.1683 C   0  0  0  0  0  0  0  0  0  0  0  0
   -0.1594   -3.1938    0.0534 O   0  0  0  0  0  0  0  0  0  0  0  0
   -0.8603   -1.1640   -0.6579 N   0  0  0  0  0  0  0  0  0  0  0  0
   -1.6886   -0.5593   -0.6154 H   0  0  0  0  0  0  0  0  0  0  0  0
    0.3968   -0.4430   -0.4158 C   0  0  1  0  0  0  0  0  0  0  0  0
    1.2054   -1.1030   -0.7476 H   0  0  0  0  0  0  0  0  0  0  0  0
    0.4680    0.7928   -1.3458 C   0  0  0  0  0  0  0  0  0  0  0  0
    1.2809    1.4347   -0.9899 H   0  0  0  0  0  0  0  0  0  0  0  0
    0.7405    0.4536   -2.3499 H   0  0  0  0  0  0  0  0  0  0  0  0
   -0.8122    1.6577   -1.4723 C   0  0  0  0  0  0  0  0  0  0  0  0
   -0.5489    2.5965   -1.9682 H   0  0  0  0  0  0  0  0  0  0  0  0
   -1.5189    1.1406   -2.1283 H   0  0  0  0  0  0  0  0  0  0  0  0
   -1.5340    1.9826   -0.1707 C   0  0  0  0  0  0  0  0  0  0  0  0
   -1.2549    3.0405    0.4351 O   0  5  0  0  0  0  0  0  0  0  0  0
   -2.3222    1.0976    0.2602 O   0  0  0  0  0  0  0  0  0  0  0  0
    0.7452   -0.1786    1.0704 C   0  0  0  0  0  0  0  0  0  0  0  0
    1.9086   -0.3082    1.4417 O   0  0  0  0  0  0  0  0  0  0  0  0
   -0.1970    0.2815    1.9698 N   0  0  0  0  0  0  0  0  0  0  0  0
   -1.0850    0.5925    1.5557 H   0  0  0  0  0  0  0  0  0  0  0  0
    0.1467    0.7971    3.2844 C   0  0  0  0  0  0  0  0  0  0  0  0
    0.7844    1.6820    3.1919 H   0  0  0  0  0  0  0  0  0  0  0  0
   -0.7630    1.0792    3.8224 H   0  0  0  0  0  0  0  0  0  0  0  0
    0.6732    0.0370    3.8698 H   0  0  0  0  0  0  0  0  0  0  0  0
  1  2  1  0  0  0  0
  2  3  1  0  0  0  0
  2  4  1  0  0  0  0
  2  5  1  0  0  0  0
  5  6  2  0  0  0  0
  5  7  1  0  0  0  0
  7  8  1  0  0  0  0
  7  9  1  0  0  0  0
  9 10  1  0  0  0  0
  9 11  1  0  0  0  0
  9 20  1  0  0  0  0
 11 12  1  0  0  0  0
 11 13  1  0  0  0  0
 11 14  1  0  0  0  0
 14 15  1  0  0  0  0
 14 16  1  0  0  0  0
 14 17  1  0  0  0  0
 17 18  1  0  0  0  0
 17 19  2  0  0  0  0
 20 21  2  0  0  0  0
 20 22  1  0  0  0  0
 22 23  1  0  0  0  0
 22 24  1  0  0  0  0
 24 25  1  0  0  0  0
 24 26  1  0  0  0  0
 24 27  1  0  0  0  0
M  CHG  1  18  -1
M  END
$$$$

  -OEChem-04042215583D

 27 26  0     1  0  0  0  0  0999 V2000
   -2.6340   -3.8383    0.4871 H   0  0  0  0  0  0  0  0  0  0  0  0
   -2.5919   -2.8496    0.0222 C   0  0  0  0  0  0  0  0  0  0  0  0
   -3.1252   -2.1381    0.6582 H   0  0  0  0  0  0  0  0  0  0  0  0
   -3.0840   -2.8939   -0.9523 H   0  0  0  0  0  0  0  0  0  0  0  0
   -1.1494   -2.4074   -0.1456 C   0  0  0  0  0  0  0  0  0  0  0  0
   -0.2408   -3.1777    0.1260 O   0  0  0  0  0  0  0  0  0  0  0  0
   -0.8871   -1.1502   -0.6435 N   0  0  0  0  0  0  0  0  0  0  0  0
   -1.7020   -0.5343   -0.6699 H   0  0  0  0  0  0  0  0  0  0  0  0
    0.3814   -0.4504   -0.3967 C   0  0  1  0  0  0  0  0  0  0  0  0
    1.1760   -1.1362   -0.7105 H   0  0  0  0  0  0  0  0  0  0  0  0
    0.4953    0.7610   -1.3529 C   0  0  0  0  0  0  0  0  0  0  0  0
    1.3181    1.4005   -1.0152 H   0  0  0  0  0  0  0  0  0  0  0  0
    0.7602    0.3885   -2.3471 H   0  0  0  0  0  0  0  0  0  0  0  0
   -0.7808    1.6218   -1.4975 C   0  0  0  0  0  0  0  0  0  0  0  0
   -0.5648    2.4336   -2.1982 H   0  0  0  0  0  0  0  0  0  0  0  0
   -1.5809    1.0267   -1.9472 H   0  0  0  0  0  0  0  0  0  0  0  0
   -1.2881    2.2443   -0.2077 C   0  0  0  0  0  0  0  0  0  0  0  0
   -0.8056    3.3261    0.1948 O   0  5  0  0  0  0  0  0  0  0  0  0
   -2.1465    1.5602    0.4115 O   0  0  0  0  0  0  0  0  0  0  0  0
    0.7374   -0.1685    1.0851 C   0  0  0  0  0  0  0  0  0  0  0  0
    1.8906   -0.3575    1.4626 O   0  0  0  0  0  0  0  0  0  0  0  0
   -0.1866    0.3249    1.9856 N   0  0  0  0  0  0  0  0  0  0  0  0
   -1.0382    0.7184    1.5648 H   0  0  0  0  0  0  0  0  0  0  0  0
    0.1836    0.8097    3.3052 C   0  0  0  0  0  0  0  0  0  0  0  0
    0.8522    1.6723    3.2200 H   0  0  0  0  0  0  0  0  0  0  0  0
   -0.7120    1.1165    3.8532 H   0  0  0  0  0  0  0  0  0  0  0  0
    0.6861    0.0237    3.8779 H   0  0  0  0  0  0  0  0  0  0  0  0
  1  2  1  0  0  0  0
  2  3  1  0  0  0  0
  2  4  1  0  0  0  0
  2  5  1  0  0  0  0
  5  6  2  0  0  0  0
  5  7  1  0  0  0  0
  7  8  1  0  0  0  0
  7  9  1  0  0  0  0
  9 10  1  0  0  0  0
  9 11  1  0  0  0  0
  9 20  1  0  0  0  0
 11 12  1  0  0  0  0
 11 13  1  0  0  0  0
 11 14  1  0  0  0  0
 14 15  1  0  0  0  0
 14 16  1  0  0  0  0
 14 17  1  0  0  0  0
 17 18  1  0  0  0  0
 17 19  2  0  0  0  0
 20 21  2  0  0  0  0
 20 22  1  0  0  0  0
 22 23  1  0  0  0  0
 22 24  1  0  0  0  0
 24 25  1  0  0  0  0
 24 26  1  0  0  0  0
 24 27  1  0  0  0  0
M  CHG  1  18  -1
M  END
$$$$

  -OEChem-04042215583D

 27 26  0     1  0  0  0  0  0999 V2000
   -2.6627   -3.8133    0.5165 H   0  0  0  0  0  0  0  0  0  0  0  0
   -2.6016   -2.8498    0.0030 C   0  0  0  0  0  0  0  0  0  0  0  0
   -3.1683   -2.1105    0.5752 H   0  0  0  0  0  0  0  0  0  0  0  0
   -3.0456   -2.9482   -0.9903 H   0  0  0  0  0  0  0  0  0  0  0  0
   -1.1536   -2.4089   -0.1176 C   0  0  0  0  0  0  0  0  0  0  0  0
   -0.2570   -3.1694    0.2122 O   0  0  0  0  0  0  0  0  0  0  0  0
   -0.8723   -1.1665   -0.6433 N   0  0  0  0  0  0  0  0  0  0  0  0
   -1.6818   -0.5598   -0.7587 H   0  0  0  0  0  0  0  0  0  0  0  0
    0.3978   -0.4659   -0.4003 C   0  0  1  0  0  0  0  0  0  0  0  0
    1.1986   -1.1508   -0.7001 H   0  0  0  0  0  0  0  0  0  0  0  0
    0.5086    0.7501   -1.3512 C   0  0  0  0  0  0  0  0  0  0  0  0
    1.3445    1.3839   -1.0349 H   0  0  0  0  0  0  0  0  0  0  0  0
    0.7517    0.3686   -2.3476 H   0  0  0  0  0  0  0  0  0  0  0  0
   -0.7664    1.6158   -1.4852 C   0  0  0  0  0  0  0  0  0  0  0  0
   -0.6296    2.2740   -2.3483 H   0  0  0  0  0  0  0  0  0  0  0  0
   -1.6419    1.0004   -1.7074 H   0  0  0  0  0  0  0  0  0  0  0  0
   -1.0515    2.5072   -0.2866 C   0  0  0  0  0  0  0  0  0  0  0  0
   -0.4138    3.5750   -0.1438 O   0  5  0  0  0  0  0  0  0  0  0  0
   -1.9153    2.0662    0.5156 O   0  0  0  0  0  0  0  0  0  0  0  0
    0.7252   -0.1521    1.0805 C   0  0  0  0  0  0  0  0  0  0  0  0
    1.8543   -0.3900    1.4998 O   0  0  0  0  0  0  0  0  0  0  0  0
   -0.2166    0.3671    1.9485 N   0  0  0  0  0  0  0  0  0  0  0  0
   -1.0054    0.8465    1.4956 H   0  0  0  0  0  0  0  0  0  0  0  0
    0.1293    0.8170    3.2872 C   0  0  0  0  0  0  0  0  0  0  0  0
    0.8499    1.6397    3.2381 H   0  0  0  0  0  0  0  0  0  0  0  0
   -0.7676    1.1703    3.8042 H   0  0  0  0  0  0  0  0  0  0  0  0
    0.5629   -0.0028    3.8686 H   0  0  0  0  0  0  0  0  0  0  0  0
  1  2  1  0  0  0  0
  2  3  1  0  0  0  0
  2  4  1  0  0  0  0
  2  5  1  0  0  0  0
  5  6  2  0  0  0  0
  5  7  1  0  0  0  0
  7  8  1  0  0  0  0
  7  9  1  0  0  0  0
  9 10  1  0  0  0  0
  9 11  1  0  0  0  0
  9 20  1  0  0  0  0
 11 12  1  0  0  0  0
 11 13  1  0  0  0  0
 11 14  1  0  0  0  0
 14 15  1  0  0  0  0
 14 16  1  0  0  0  0
 14 17  1  0  0  0  0
 17 18  1  0  0  0  0
 17 19  2  0  0  0  0
 20 21  2  0  0  0  0
 20 22  1  0  0  0  0
 22 23  1  0  0  0  0
 22 24  1  0  0  0  0
 24 25  1  0  0  0  0
 24 26  1  0  0  0  0
 24 27  1  0  0  0  0
M  CHG  1  18  -1
M  END
$$$$

  -OEChem-04042215583D

 27 26  0     1  0  0  0  0  0999 V2000
   -2.6363   -3.8356    0.5229 H   0  0  0  0  0  0  0  0  0  0  0  0
   -2.5779   -2.8655    0.0218 C   0  0  0  0  0  0  0  0  0  0  0  0
   -3.1540   -2.1369    0.5979 H   0  0  0  0  0  0  0  0  0  0  0  0
   -3.0130   -2.9556   -0.9764 H   0  0  0  0  0  0  0  0  0  0  0  0
   -1.1325   -2.4134   -0.0817 C   0  0  0  0  0  0  0  0  0  0  0  0
   -0.2374   -3.1531    0.2938 O   0  0  0  0  0  0  0  0  0  0  0  0
   -0.8498   -1.1894   -0.6494 N   0  0  0  0  0  0  0  0  0  0  0  0
   -1.6587   -0.6003   -0.8263 H   0  0  0  0  0  0  0  0  0  0  0  0
    0.4184   -0.4772   -0.4226 C   0  0  1  0  0  0  0  0  0  0  0  0
    1.2315   -1.1515   -0.7129 H   0  0  0  0  0  0  0  0  0  0  0  0
    0.5032    0.7491   -1.3625 C   0  0  0  0  0  0  0  0  0  0  0  0
    1.3503    1.3808   -1.0718 H   0  0  0  0  0  0  0  0  0  0  0  0
    0.7192    0.3696   -2.3660 H   0  0  0  0  0  0  0  0  0  0  0  0
   -0.7804    1.6103   -1.4652 C   0  0  0  0  0  0  0  0  0  0  0  0
   -0.7782    2.0874   -2.4496 H   0  0  0  0  0  0  0  0  0  0  0  0
   -1.6921    1.0120   -1.4215 H   0  0  0  0  0  0  0  0  0  0  0  0
   -0.8462    2.7293   -0.4353 C   0  0  0  0  0  0  0  0  0  0  0  0
   -0.1671    3.7671   -0.6098 O   0  5  0  0  0  0  0  0  0  0  0  0
   -1.5930    2.5080    0.5521 O   0  0  0  0  0  0  0  0  0  0  0  0
    0.7175   -0.1188    1.0532 C   0  0  0  0  0  0  0  0  0  0  0  0
    1.8189   -0.3966    1.5183 O   0  0  0  0  0  0  0  0  0  0  0  0
   -0.2479    0.4243    1.8812 N   0  0  0  0  0  0  0  0  0  0  0  0
   -0.9510    0.9971    1.3959 H   0  0  0  0  0  0  0  0  0  0  0  0
    0.0542    0.8225    3.2471 C   0  0  0  0  0  0  0  0  0  0  0  0
    0.8136    1.6110    3.2558 H   0  0  0  0  0  0  0  0  0  0  0  0
   -0.8494    1.2048    3.7309 H   0  0  0  0  0  0  0  0  0  0  0  0
    0.4207   -0.0319    3.8252 H   0  0  0  0  0  0  0  0  0  0  0  0
  1  2  1  0  0  0  0
  2  3  1  0  0  0  0
  2  4  1  0  0  0  0
  2  5  1  0  0  0  0
  5  6  2  0  0  0  0
  5  7  1  0  0  0  0
  7  8  1  0  0  0  0
  7  9  1  0  0  0  0
  9 10  1  0  0  0  0
  9 11  1  0  0  0  0
  9 20  1  0  0  0  0
 11 12  1  0  0  0  0
 11 13  1  0  0  0  0
 11 14  1  0  0  0  0
 14 15  1  0  0  0  0
 14 16  1  0  0  0  0
 14 17  1  0  0  0  0
 17 18  1  0  0  0  0
 17 19  2  0  0  0  0
 20 21  2  0  0  0  0
 20 22  1  0  0  0  0
 22 23  1  0  0  0  0
 22 24  1  0  0  0  0
 24 25  1  0  0  0  0
 24 26  1  0  0  0  0
 24 27  1  0  0  0  0
M  CHG  1  18  -1
M  END
$$$$

  -OEChem-04042215583D

 27 26  0     1  0  0  0  0  0999 V2000
   -2.5149   -3.8923    0.6073 H   0  0  0  0  0  0  0  0  0  0  0  0
   -2.4977   -2.9321    0.0843 C   0  0  0  0  0  0  0  0  0  0  0  0
   -3.0974   -2.2140    0.6492 H   0  0  0  0  0  0  0  0  0  0  0  0
   -2.9365   -3.0620   -0.9080 H   0  0  0  0  0  0  0  0  0  0  0  0
   -1.0710   -2.4284   -0.0416 C   0  0  0  0  0  0  0  0  0  0  0  0
   -0.1466   -3.1250    0.3442 O   0  0  0  0  0  0  0  0  0  0  0  0
   -0.8376   -1.2136   -0.6499 N   0  0  0  0  0  0  0  0  0  0  0  0
   -1.6647   -0.6633   -0.8602 H   0  0  0  0  0  0  0  0  0  0  0  0
    0.4203   -0.4629   -0.4939 C   0  0  1  0  0  0  0  0  0  0  0  0
    1.2459   -1.1010   -0.8273 H   0  0  0  0  0  0  0  0  0  0  0  0
    0.3836    0.7811   -1.4111 C   0  0  0  0  0  0  0  0  0  0  0  0
    1.2270    1.4405   -1.1759 H   0  0  0  0  0  0  0  0  0  0  0  0
    0.5354    0.4307   -2.4366 H   0  0  0  0  0  0  0  0  0  0  0  0
   -0.9436    1.5854   -1.3889 C   0  0  0  0  0  0  0  0  0  0  0  0
   -1.1988    1.8498   -2.4192 H   0  0  0  0  0  0  0  0  0  0  0  0
   -1.7875    1.0139   -0.9998 H   0  0  0  0  0  0  0  0  0  0  0  0
   -0.8263    2.8820   -0.6001 C   0  0  0  0  0  0  0  0  0  0  0  0
   -1.2604    2.8333    0.5785 O   0  5  0  0  0  0  0  0  0  0  0  0
   -0.3084    3.8864   -1.1411 O   0  0  0  0  0  0  0  0  0  0  0  0
    0.7676   -0.0570    0.9590 C   0  0  0  0  0  0  0  0  0  0  0  0
    1.8778   -0.3367    1.4014 O   0  0  0  0  0  0  0  0  0  0  0  0
   -0.1844    0.4852    1.8044 N   0  0  0  0  0  0  0  0  0  0  0  0
   -0.8423    1.1170    1.3300 H   0  0  0  0  0  0  0  0  0  0  0  0
    0.1459    0.8559    3.1718 C   0  0  0  0  0  0  0  0  0  0  0  0
    0.9218    1.6282    3.1814 H   0  0  0  0  0  0  0  0  0  0  0  0
   -0.7422    1.2496    3.6746 H   0  0  0  0  0  0  0  0  0  0  0  0
    0.5026   -0.0145    3.7316 H   0  0  0  0  0  0  0  0  0  0  0  0
  1  2  1  0  0  0  0
  2  3  1  0  0  0  0
  2  4  1  0  0  0  0
  2  5  1  0  0  0  0
  5  6  2  0  0  0  0
  5  7  1  0  0  0  0
  7  8  1  0  0  0  0
  7  9  1  0  0  0  0
  9 10  1  0  0  0  0
  9 11  1  0  0  0  0
  9 20  1  0  0  0  0
 11 12  1  0  0  0  0
 11 13  1  0  0  0  0
 11 14  1  0  0  0  0
 14 15  1  0  0  0  0
 14 16  1  0  0  0  0
 14 17  1  0  0  0  0
 17 18  1  0  0  0  0
 17 19  2  0  0  0  0
 20 21  2  0  0  0  0
 20 22  1  0  0  0  0
 22 23  1  0  0  0  0
 22 24  1  0  0  0  0
 24 25  1  0  0  0  0
 24 26  1  0  0  0  0
 24 27  1  0  0  0  0
M  CHG  1  18  -1
M  END
$$$$

  -OEChem-04042215583D

 27 26  0     1  0  0  0  0  0999 V2000
   -2.6646   -3.8503    0.4460 H   0  0  0  0  0  0  0  0  0  0  0  0
   -2.5704   -2.8868   -0.0626 C   0  0  0  0  0  0  0  0  0  0  0  0
   -3.2034   -2.1562    0.4473 H   0  0  0  0  0  0  0  0  0  0  0  0
   -2.9123   -2.9975   -1.0946 H   0  0  0  0  0  0  0  0  0  0  0  0
   -1.1255   -2.4209   -0.0416 C   0  0  0  0  0  0  0  0  0  0  0  0
   -0.2720   -3.1193    0.4798 O   0  0  0  0  0  0  0  0  0  0  0  0
   -0.7902   -1.2388   -0.6663 N   0  0  0  0  0  0  0  0  0  0  0  0
   -1.5655   -0.6807   -1.0109 H   0  0  0  0  0  0  0  0  0  0  0  0
    0.4783   -0.5258   -0.4334 C   0  0  1  0  0  0  0  0  0  0  0  0
    1.3130   -1.1791   -0.7081 H   0  0  0  0  0  0  0  0  0  0  0  0
    0.4943    0.7203   -1.3455 C   0  0  0  0  0  0  0  0  0  0  0  0
    1.3263    1.3734   -1.0563 H   0  0  0  0  0  0  0  0  0  0  0  0
    0.6951    0.3913   -2.3698 H   0  0  0  0  0  0  0  0  0  0  0  0
   -0.8376    1.5194   -1.3522 C   0  0  0  0  0  0  0  0  0  0  0  0
   -1.2283    1.5448   -2.3737 H   0  0  0  0  0  0  0  0  0  0  0  0
   -1.6100    1.0646   -0.7281 H   0  0  0  0  0  0  0  0  0  0  0  0
   -0.6436    2.9493   -0.8709 C   0  0  0  0  0  0  0  0  0  0  0  0
   -0.3078    3.8361   -1.6902 O   0  5  0  0  0  0  0  0  0  0  0  0
   -0.8494    3.1289    0.3555 O   0  0  0  0  0  0  0  0  0  0  0  0
    0.7361   -0.0705    1.0237 C   0  0  0  0  0  0  0  0  0  0  0  0
    1.7954   -0.3780    1.5613 O   0  0  0  0  0  0  0  0  0  0  0  0
   -0.2558    0.5428    1.7698 N   0  0  0  0  0  0  0  0  0  0  0  0
   -0.8250    1.1930    1.2179 H   0  0  0  0  0  0  0  0  0  0  0  0
   -0.0120    0.9573    3.1430 C   0  0  0  0  0  0  0  0  0  0  0  0
    0.7972    1.6939    3.1813 H   0  0  0  0  0  0  0  0  0  0  0  0
   -0.9153    1.4115    3.5606 H   0  0  0  0  0  0  0  0  0  0  0  0
    0.2601    0.0970    3.7628 H   0  0  0  0  0  0  0  0  0  0  0  0
  1  2  1  0  0  0  0
  2  3  1  0  0  0  0
  2  4  1  0  0  0  0
  2  5  1  0  0  0  0
  5  6  2  0  0  0  0
  5  7  1  0  0  0  0
  7  8  1  0  0  0  0
  7  9  1  0  0  0  0
  9 10  1  0  0  0  0
  9 11  1  0  0  0  0
  9 20  1  0  0  0  0
 11 12  1  0  0  0  0
 11 13  1  0  0  0  0
 11 14  1  0  0  0  0
 14 15  1  0  0  0  0
 14 16  1  0  0  0  0
 14 17  1  0  0  0  0
 17 18  1  0  0  0  0
 17 19  2  0  0  0  0
 20 21  2  0  0  0  0
 20 22  1  0  0  0  0
 22 23  1  0  0  0  0
 22 24  1  0  0  0  0
 24 25  1  0  0  0  0
 24 26  1  0  0  0  0
 24 27  1  0  0  0  0
M  CHG  1  18  -1
M  END
$$$$

  -OEChem-04042215583D

 27 26  0     1  0  0  0  0  0999 V2000
   -2.6925   -3.8739    0.3745 H   0  0  0  0  0  0  0  0  0  0  0  0
   -2.5805   -2.9199   -0.1482 C   0  0  0  0  0  0  0  0  0  0  0  0
   -3.2609   -2.1913    0.2999 H   0  0  0  0  0  0  0  0  0  0  0  0
   -2.8479   -3.0595   -1.1984 H   0  0  0  0  0  0  0  0  0  0  0  0
   -1.1489   -2.4258   -0.0398 C   0  0  0  0  0  0  0  0  0  0  0  0
   -0.3175   -3.0988    0.5460 O   0  0  0  0  0  0  0  0  0  0  0  0
   -0.8008   -1.2359   -0.6419 N   0  0  0  0  0  0  0  0  0  0  0  0
   -1.5531   -0.6987   -1.0640 H   0  0  0  0  0  0  0  0  0  0  0  0
    0.4731   -0.5311   -0.4140 C   0  0  1  0  0  0  0  0  0  0  0  0
    1.3020   -1.1851   -0.7039 H   0  0  0  0  0  0  0  0  0  0  0  0
    0.4783    0.7142   -1.3258 C   0  0  0  0  0  0  0  0  0  0  0  0
    1.3016    1.3710   -1.0204 H   0  0  0  0  0  0  0  0  0  0  0  0
    0.6843    0.4063   -2.3559 H   0  0  0  0  0  0  0  0  0  0  0  0
   -0.8578    1.5006   -1.3078 C   0  0  0  0  0  0  0  0  0  0  0  0
   -1.4114    1.2909   -2.2277 H   0  0  0  0  0  0  0  0  0  0  0  0
   -1.4949    1.1952   -0.4745 H   0  0  0  0  0  0  0  0  0  0  0  0
   -0.6363    3.0038   -1.1895 C   0  0  0  0  0  0  0  0  0  0  0  0
   -0.3095    3.6430   -2.2178 O   0  5  0  0  0  0  0  0  0  0  0  0
   -0.8209    3.5029   -0.0524 O   0  0  0  0  0  0  0  0  0  0  0  0
    0.7482   -0.1004    1.0465 C   0  0  0  0  0  0  0  0  0  0  0  0
    1.8449   -0.3283    1.5461 O   0  0  0  0  0  0  0  0  0  0  0  0
   -0.2372    0.5013    1.8094 N   0  0  0  0  0  0  0  0  0  0  0  0
   -0.9490    0.9819    1.2627 H   0  0  0  0  0  0  0  0  0  0  0  0
    0.0428    1.0450    3.1298 C   0  0  0  0  0  0  0  0  0  0  0  0
    0.7680    1.8622    3.0591 H   0  0  0  0  0  0  0  0  0  0  0  0
   -0.8771    1.4332    3.5764 H   0  0  0  0  0  0  0  0  0  0  0  0
    0.4446    0.2691    3.7894 H   0  0  0  0  0  0  0  0  0  0  0  0
  1  2  1  0  0  0  0
  2  3  1  0  0  0  0
  2  4  1  0  0  0  0
  2  5  1  0  0  0  0
  5  6  2  0  0  0  0
  5  7  1  0  0  0  0
  7  8  1  0  0  0  0
  7  9  1  0  0  0  0
  9 10  1  0  0  0  0
  9 11  1  0  0  0  0
  9 20  1  0  0  0  0
 11 12  1  0  0  0  0
 11 13  1  0  0  0  0
 11 14  1  0  0  0  0
 14 15  1  0  0  0  0
 14 16  1  0  0  0  0
 14 17  1  0  0  0  0
 17 18  1  0  0  0  0
 17 19  2  0  0  0  0
 20 21  2  0  0  0  0
 20 22  1  0  0  0  0
 22 23  1  0  0  0  0
 22 24  1  0  0  0  0
 24 25  1  0  0  0  0
 24 26  1  0  0  0  0
 24 27  1  0  0  0  0
M  CHG  1  18  -1
M  END
$$$$

  -OEChem-04042215583D

 27 26  0     1  0  0  0  0  0999 V2000
   -2.6683   -3.9066    0.3525 H   0  0  0  0  0  0  0  0  0  0  0  0
   -2.5671   -2.9517   -0.1710 C   0  0  0  0  0  0  0  0  0  0  0  0
   -3.2808   -2.2407    0.2527 H   0  0  0  0  0  0  0  0  0  0  0  0
   -2.7982   -3.1027   -1.2284 H   0  0  0  0  0  0  0  0  0  0  0  0
   -1.1536   -2.4180   -0.0215 C   0  0  0  0  0  0  0  0  0  0  0  0
   -0.3218   -3.0662    0.5910 O   0  0  0  0  0  0  0  0  0  0  0  0
   -0.8212   -1.2162   -0.6088 N   0  0  0  0  0  0  0  0  0  0  0  0
   -1.5653   -0.7059   -1.0771 H   0  0  0  0  0  0  0  0  0  0  0  0
    0.4544   -0.5072   -0.4078 C   0  0  1  0  0  0  0  0  0  0  0  0
    1.2758   -1.1629   -0.7153 H   0  0  0  0  0  0  0  0  0  0  0  0
    0.4488    0.7278   -1.3332 C   0  0  0  0  0  0  0  0  0  0  0  0
    1.2702    1.3888   -1.0332 H   0  0  0  0  0  0  0  0  0  0  0  0
    0.6492    0.4160   -2.3634 H   0  0  0  0  0  0  0  0  0  0  0  0
   -0.8837    1.5146   -1.3075 C   0  0  0  0  0  0  0  0  0  0  0  0
   -1.5642    1.1046   -2.0593 H   0  0  0  0  0  0  0  0  0  0  0  0
   -1.3719    1.4155   -0.3356 H   0  0  0  0  0  0  0  0  0  0  0  0
   -0.6792    3.0029   -1.5803 C   0  0  0  0  0  0  0  0  0  0  0  0
   -0.2418    3.3363   -2.7080 O   0  5  0  0  0  0  0  0  0  0  0  0
   -1.0056    3.8006   -0.6679 O   0  0  0  0  0  0  0  0  0  0  0  0
    0.7598   -0.1046    1.0539 C   0  0  0  0  0  0  0  0  0  0  0  0
    1.8864   -0.2682    1.5087 O   0  0  0  0  0  0  0  0  0  0  0  0
   -0.2148    0.4711    1.8492 N   0  0  0  0  0  0  0  0  0  0  0  0
   -1.0248    0.8252    1.3489 H   0  0  0  0  0  0  0  0  0  0  0  0
    0.0800    1.0447    3.1536 C   0  0  0  0  0  0  0  0  0  0  0  0
    0.7809    1.8798    3.0535 H   0  0  0  0  0  0  0  0  0  0  0  0
   -0.8394    1.4153    3.6162 H   0  0  0  0  0  0  0  0  0  0  0  0
    0.5183    0.2902    3.8148 H   0  0  0  0  0  0  0  0  0  0  0  0
  1  2  1  0  0  0  0
  2  3  1  0  0  0  0
  2  4  1  0  0  0  0
  2  5  1  0  0  0  0
  5  6  2  0  0  0  0
  5  7  1  0  0  0  0
  7  8  1  0  0  0  0
  7  9  1  0  0  0  0
  9 10  1  0  0  0  0
  9 11  1  0  0  0  0
  9 20  1  0  0  0  0
 11 12  1  0  0  0  0
 11 13  1  0  0  0  0
 11 14  1  0  0  0  0
 14 15  1  0  0  0  0
 14 16  1  0  0  0  0
 14 17  1  0  0  0  0
 17 18  1  0  0  0  0
 17 19  2  0  0  0  0
 20 21  2  0  0  0  0
 20 22  1  0  0  0  0
 22 23  1  0  0  0  0
 22 24  1  0  0  0  0
 24 25  1  0  0  0  0
 24 26  1  0  0  0  0
 24 27  1  0  0  0  0
M  CHG  1  18  -1
M  END
$$$$

  -OEChem-04042215583D

 27 26  0     1  0  0  0  0  0999 V2000
   -2.6412   -3.9536    0.3098 H   0  0  0  0  0  0  0  0  0  0  0  0
   -2.5533   -2.9862   -0.1927 C   0  0  0  0  0  0  0  0  0  0  0  0
   -3.2982   -2.3034    0.2237 H   0  0  0  0  0  0  0  0  0  0  0  0
   -2.7515   -3.1238   -1.2587 H   0  0  0  0  0  0  0  0  0  0  0  0
   -1.1603   -2.4155    0.0054 C   0  0  0  0  0  0  0  0  0  0  0  0
   -0.3370   -3.0357    0.6570 O   0  0  0  0  0  0  0  0  0  0  0  0
   -0.8364   -1.2111   -0.5812 N   0  0  0  0  0  0  0  0  0  0  0  0
   -1.5647   -0.7379   -1.1096 H   0  0  0  0  0  0  0  0  0  0  0  0
    0.4391   -0.4965   -0.4037 C   0  0  1  0  0  0  0  0  0  0  0  0
    1.2566   -1.1516   -0.7225 H   0  0  0  0  0  0  0  0  0  0  0  0
    0.4225    0.7369   -1.3318 C   0  0  0  0  0  0  0  0  0  0  0  0
    1.2480    1.4004   -1.0498 H   0  0  0  0  0  0  0  0  0  0  0  0
    0.6049    0.4156   -2.3627 H   0  0  0  0  0  0  0  0  0  0  0  0
   -0.9052    1.5282   -1.2945 C   0  0  0  0  0  0  0  0  0  0  0  0
   -1.6821    0.9830   -1.8375 H   0  0  0  0  0  0  0  0  0  0  0  0
   -1.2429    1.6540   -0.2635 H   0  0  0  0  0  0  0  0  0  0  0  0
   -0.7556    2.9112   -1.9251 C   0  0  0  0  0  0  0  0  0  0  0  0
   -0.4748    2.9622   -3.1474 O   0  5  0  0  0  0  0  0  0  0  0  0
   -0.9759    3.9073   -1.1944 O   0  0  0  0  0  0  0  0  0  0  0  0
    0.7640   -0.0991    1.0545 C   0  0  0  0  0  0  0  0  0  0  0  0
    1.9056   -0.2232    1.4835 O   0  0  0  0  0  0  0  0  0  0  0  0
   -0.2047    0.4662    1.8640 N   0  0  0  0  0  0  0  0  0  0  0  0
   -1.0533    0.7571    1.3888 H   0  0  0  0  0  0  0  0  0  0  0  0
    0.0955    1.0531    3.1613 C   0  0  0  0  0  0  0  0  0  0  0  0
    0.7473    1.9247    3.0435 H   0  0  0  0  0  0  0  0  0  0  0  0
   -0.8288    1.3724    3.6514 H   0  0  0  0  0  0  0  0  0  0  0  0
    0.5930    0.3226    3.8077 H   0  0  0  0  0  0  0  0  0  0  0  0
  1  2  1  0  0  0  0
  2  3  1  0  0  0  0
  2  4  1  0  0  0  0
  2  5  1  0  0  0  0
  5  6  2  0  0  0  0
  5  7  1  0  0  0  0
  7  8  1  0  0  0  0
  7  9  1  0  0  0  0
  9 10  1  0  0  0  0
  9 11  1  0  0  0  0
  9 20  1  0  0  0  0
 11 12  1  0  0  0  0
 11 13  1  0  0  0  0
 11 14  1  0  0  0  0
 14 15  1  0  0  0  0
 14 16  1  0  0  0  0
 14 17  1  0  0  0  0
 17 18  1  0  0  0  0
 17 19  2  0  0  0  0
 20 21  2  0  0  0  0
 20 22  1  0  0  0  0
 22 23  1  0  0  0  0
 22 24  1  0  0  0  0
 24 25  1  0  0  0  0
 24 26  1  0  0  0  0
 24 27  1  0  0  0  0
M  CHG  1  18  -1
M  END
$$$$

  -OEChem-04042215583D

 27 26  0     1  0  0  0  0  0999 V2000
   -2.6167   -3.9570    0.2629 H   0  0  0  0  0  0  0  0  0  0  0  0
   -2.5328   -2.9831   -0.2273 C   0  0  0  0  0  0  0  0  0  0  0  0
   -3.2946   -2.3151    0.1824 H   0  0  0  0  0  0  0  0  0  0  0  0
   -2.7095   -3.1114   -1.2982 H   0  0  0  0  0  0  0  0  0  0  0  0
   -1.1517   -2.3960    0.0032 C   0  0  0  0  0  0  0  0  0  0  0  0
   -0.3353   -3.0081    0.6710 O   0  0  0  0  0  0  0  0  0  0  0  0
   -0.8327   -1.1814   -0.5648 N   0  0  0  0  0  0  0  0  0  0  0  0
   -1.5446   -0.7289   -1.1334 H   0  0  0  0  0  0  0  0  0  0  0  0
    0.4413   -0.4658   -0.3844 C   0  0  1  0  0  0  0  0  0  0  0  0
    1.2539   -1.1213   -0.7148 H   0  0  0  0  0  0  0  0  0  0  0  0
    0.4040    0.7500   -1.3313 C   0  0  0  0  0  0  0  0  0  0  0  0
    1.3509    1.2940   -1.2449 H   0  0  0  0  0  0  0  0  0  0  0  0
    0.3273    0.3935   -2.3642 H   0  0  0  0  0  0  0  0  0  0  0  0
   -0.7580    1.7279   -1.0528 C   0  0  0  0  0  0  0  0  0  0  0  0
   -1.7211    1.2195   -1.1481 H   0  0  0  0  0  0  0  0  0  0  0  0
   -0.6854    2.1239   -0.0375 H   0  0  0  0  0  0  0  0  0  0  0  0
   -0.7294    2.9004   -2.0304 C   0  0  0  0  0  0  0  0  0  0  0  0
   -1.0968    2.6640   -3.2079 O   0  5  0  0  0  0  0  0  0  0  0  0
   -0.3812    4.0248   -1.5969 O   0  0  0  0  0  0  0  0  0  0  0  0
    0.7817   -0.0876    1.0752 C   0  0  0  0  0  0  0  0  0  0  0  0
    1.9293   -0.2062    1.4893 O   0  0  0  0  0  0  0  0  0  0  0  0
   -0.1811    0.4628    1.9017 N   0  0  0  0  0  0  0  0  0  0  0  0
   -1.0451    0.7341    1.4431 H   0  0  0  0  0  0  0  0  0  0  0  0
    0.1242    1.0312    3.2057 C   0  0  0  0  0  0  0  0  0  0  0  0
    0.8062    1.8813    3.1011 H   0  0  0  0  0  0  0  0  0  0  0  0
   -0.7945    1.3786    3.6872 H   0  0  0  0  0  0  0  0  0  0  0  0
    0.5895    0.2800    3.8520 H   0  0  0  0  0  0  0  0  0  0  0  0
  1  2  1  0  0  0  0
  2  3  1  0  0  0  0
  2  4  1  0  0  0  0
  2  5  1  0  0  0  0
  5  6  2  0  0  0  0
  5  7  1  0  0  0  0
  7  8  1  0  0  0  0
  7  9  1  0  0  0  0
  9 10  1  0  0  0  0
  9 11  1  0  0  0  0
  9 20  1  0  0  0  0
 11 12  1  0  0  0  0
 11 13  1  0  0  0  0
 11 14  1  0  0  0  0
 14 15  1  0  0  0  0
 14 16  1  0  0  0  0
 14 17  1  0  0  0  0
 17 18  1  0  0  0  0
 17 19  2  0  0  0  0
 20 21  2  0  0  0  0
 20 22  1  0  0  0  0
 22 23  1  0  0  0  0
 22 24  1  0  0  0  0
 24 25  1  0  0  0  0
 24 26  1  0  0  0  0
 24 27  1  0  0  0  0
M  CHG  1  18  -1
M  END
$$$$

  -OEChem-04042215583D

 27 26  0     1  0  0  0  0  0999 V2000
   -2.7645   -3.8676    0.3769 H   0  0  0  0  0  0  0  0  0  0  0  0
   -2.6544   -2.9106   -0.1407 C   0  0  0  0  0  0  0  0  0  0  0  0
   -3.3782   -2.2022    0.2701 H   0  0  0  0  0  0  0  0  0  0  0  0
   -2.8641   -3.0578   -1.2031 H   0  0  0  0  0  0  0  0  0  0  0  0
   -1.2457   -2.3736    0.0399 C   0  0  0  0  0  0  0  0  0  0  0  0
   -0.4338   -3.0047    0.6957 O   0  0  0  0  0  0  0  0  0  0  0  0
   -0.8985   -1.1797   -0.5538 N   0  0  0  0  0  0  0  0  0  0  0  0
   -1.6058   -0.7139   -1.1194 H   0  0  0  0  0  0  0  0  0  0  0  0
    0.4107   -0.5162   -0.4342 C   0  0  1  0  0  0  0  0  0  0  0  0
    1.1837   -1.1996   -0.8008 H   0  0  0  0  0  0  0  0  0  0  0  0
    0.3717    0.7112   -1.3646 C   0  0  0  0  0  0  0  0  0  0  0  0
    1.3423    1.2182   -1.3418 H   0  0  0  0  0  0  0  0  0  0  0  0
    0.2147    0.3583   -2.3898 H   0  0  0  0  0  0  0  0  0  0  0  0
   -0.7356    1.7294   -1.0095 C   0  0  0  0  0  0  0  0  0  0  0  0
   -1.6850    1.2302   -0.8003 H   0  0  0  0  0  0  0  0  0  0  0  0
   -0.4506    2.2878   -0.1132 H   0  0  0  0  0  0  0  0  0  0  0  0
   -0.9642    2.7089   -2.1569 C   0  0  0  0  0  0  0  0  0  0  0  0
   -0.4818    3.8628   -2.0640 O   0  5  0  0  0  0  0  0  0  0  0  0
   -1.6418    2.2855   -3.1264 O   0  0  0  0  0  0  0  0  0  0  0  0
    0.8210   -0.1408    1.0071 C   0  0  0  0  0  0  0  0  0  0  0  0
    1.9814   -0.2841    1.3755 O   0  0  0  0  0  0  0  0  0  0  0  0
   -0.0908    0.4557    1.8589 N   0  0  0  0  0  0  0  0  0  0  0  0
   -0.9702    0.7325    1.4335 H   0  0  0  0  0  0  0  0  0  0  0  0
    0.2769    1.0273    3.1450 C   0  0  0  0  0  0  0  0  0  0  0  0
    0.9691    1.8640    3.0064 H   0  0  0  0  0  0  0  0  0  0  0  0
   -0.6152    1.3943    3.6610 H   0  0  0  0  0  0  0  0  0  0  0  0
    0.7546    0.2719    3.7773 H   0  0  0  0  0  0  0  0  0  0  0  0
  1  2  1  0  0  0  0
  2  3  1  0  0  0  0
  2  4  1  0  0  0  0
  2  5  1  0  0  0  0
  5  6  2  0  0  0  0
  5  7  1  0  0  0  0
  7  8  1  0  0  0  0
  7  9  1  0  0  0  0
  9 10  1  0  0  0  0
  9 11  1  0  0  0  0
  9 20  1  0  0  0  0
 11 12  1  0  0  0  0
 11 13  1  0  0  0  0
 11 14  1  0  0  0  0
 14 15  1  0  0  0  0
 14 16  1  0  0  0  0
 14 17  1  0  0  0  0
 17 18  1  0  0  0  0
 17 19  2  0  0  0  0
 20 21  2  0  0  0  0
 20 22  1  0  0  0  0
 22 23  1  0  0  0  0
 22 24  1  0  0  0  0
 24 25  1  0  0  0  0
 24 26  1  0  0  0  0
 24 27  1  0  0  0  0
M  CHG  1  18  -1
M  END
$$$$

  -OEChem-04042215583D

 27 26  0     1  0  0  0  0  0999 V2000
   -2.7949   -3.8497    0.3765 H   0  0  0  0  0  0  0  0  0  0  0  0
   -2.6682   -2.9030   -0.1560 C   0  0  0  0  0  0  0  0  0  0  0  0
   -3.4042   -2.1867    0.2176 H   0  0  0  0  0  0  0  0  0  0  0  0
   -2.8450   -3.0714   -1.2214 H   0  0  0  0  0  0  0  0  0  0  0  0
   -1.2653   -2.3624    0.0572 C   0  0  0  0  0  0  0  0  0  0  0  0
   -0.4726   -2.9830    0.7464 O   0  0  0  0  0  0  0  0  0  0  0  0
   -0.8988   -1.1795   -0.5466 N   0  0  0  0  0  0  0  0  0  0  0  0
   -1.5885   -0.7234   -1.1440 H   0  0  0  0  0  0  0  0  0  0  0  0
    0.4170   -0.5281   -0.4261 C   0  0  1  0  0  0  0  0  0  0  0  0
    1.1864   -1.2178   -0.7881 H   0  0  0  0  0  0  0  0  0  0  0  0
    0.3805    0.6957   -1.3589 C   0  0  0  0  0  0  0  0  0  0  0  0
    1.3527    1.1997   -1.3503 H   0  0  0  0  0  0  0  0  0  0  0  0
    0.2162    0.3325   -2.3797 H   0  0  0  0  0  0  0  0  0  0  0  0
   -0.7231    1.7190   -0.9991 C   0  0  0  0  0  0  0  0  0  0  0  0
   -1.5885    1.2397   -0.5355 H   0  0  0  0  0  0  0  0  0  0  0  0
   -0.3285    2.4410   -0.2776 H   0  0  0  0  0  0  0  0  0  0  0  0
   -1.2146    2.4506   -2.2437 C   0  0  0  0  0  0  0  0  0  0  0  0
   -0.8135    3.6192   -2.4571 O   0  5  0  0  0  0  0  0  0  0  0  0
   -2.0063    1.8111   -2.9816 O   0  0  0  0  0  0  0  0  0  0  0  0
    0.8257   -0.1386    1.0120 C   0  0  0  0  0  0  0  0  0  0  0  0
    1.9864   -0.2756    1.3825 O   0  0  0  0  0  0  0  0  0  0  0  0
   -0.0834    0.4784    1.8518 N   0  0  0  0  0  0  0  0  0  0  0  0
   -0.9692    0.7362    1.4274 H   0  0  0  0  0  0  0  0  0  0  0  0
    0.2749    1.0500    3.1406 C   0  0  0  0  0  0  0  0  0  0  0  0
    0.9734    1.8823    3.0078 H   0  0  0  0  0  0  0  0  0  0  0  0
   -0.6202    1.4228    3.6471 H   0  0  0  0  0  0  0  0  0  0  0  0
    0.7418    0.2928    3.7788 H   0  0  0  0  0  0  0  0  0  0  0  0
  1  2  1  0  0  0  0
  2  3  1  0  0  0  0
  2  4  1  0  0  0  0
  2  5  1  0  0  0  0
  5  6  2  0  0  0  0
  5  7  1  0  0  0  0
  7  8  1  0  0  0  0
  7  9  1  0  0  0  0
  9 10  1  0  0  0  0
  9 11  1  0  0  0  0
  9 20  1  0  0  0  0
 11 12  1  0  0  0  0
 11 13  1  0  0  0  0
 11 14  1  0  0  0  0
 14 15  1  0  0  0  0
 14 16  1  0  0  0  0
 14 17  1  0  0  0  0
 17 18  1  0  0  0  0
 17 19  2  0  0  0  0
 20 21  2  0  0  0  0
 20 22  1  0  0  0  0
 22 23  1  0  0  0  0
 22 24  1  0  0  0  0
 24 25  1  0  0  0  0
 24 26  1  0  0  0  0
 24 27  1  0  0  0  0
M  CHG  1  18  -1
M  END
$$$$

  -OEChem-04042215583D

 27 26  0     1  0  0  0  0  0999 V2000
   -2.8368   -3.8210    0.3239 H   0  0  0  0  0  0  0  0  0  0  0  0
   -2.6855   -2.8746   -0.2026 C   0  0  0  0  0  0  0  0  0  0  0  0
   -3.4260   -2.1516    0.1489 H   0  0  0  0  0  0  0  0  0  0  0  0
   -2.8311   -3.0385   -1.2735 H   0  0  0  0  0  0  0  0  0  0  0  0
   -1.2855   -2.3461    0.0531 C   0  0  0  0  0  0  0  0  0  0  0  0
   -0.5188   -2.9682    0.7709 O   0  0  0  0  0  0  0  0  0  0  0  0
   -0.8926   -1.1681   -0.5406 N   0  0  0  0  0  0  0  0  0  0  0  0
   -1.5625   -0.7100   -1.1643 H   0  0  0  0  0  0  0  0  0  0  0  0
    0.4269   -0.5294   -0.3971 C   0  0  1  0  0  0  0  0  0  0  0  0
    1.1948   -1.2257   -0.7488 H   0  0  0  0  0  0  0  0  0  0  0  0
    0.3909    0.6786   -1.3462 C   0  0  0  0  0  0  0  0  0  0  0  0
    1.3577    1.1922   -1.3244 H   0  0  0  0  0  0  0  0  0  0  0  0
    0.2529    0.3048   -2.3673 H   0  0  0  0  0  0  0  0  0  0  0  0
   -0.7273    1.6936   -1.0007 C   0  0  0  0  0  0  0  0  0  0  0  0
   -1.4633    1.2822   -0.3063 H   0  0  0  0  0  0  0  0  0  0  0  0
   -0.2834    2.5673   -0.5142 H   0  0  0  0  0  0  0  0  0  0  0  0
   -1.4691    2.1257   -2.2589 C   0  0  0  0  0  0  0  0  0  0  0  0
   -1.2709    3.2702   -2.7306 O   0  5  0  0  0  0  0  0  0  0  0  0
   -2.2493    1.2649   -2.7424 O   0  0  0  0  0  0  0  0  0  0  0  0
    0.8305   -0.1378    1.0417 C   0  0  0  0  0  0  0  0  0  0  0  0
    1.9950   -0.2572    1.4072 O   0  0  0  0  0  0  0  0  0  0  0  0
   -0.0728    0.4924    1.8775 N   0  0  0  0  0  0  0  0  0  0  0  0
   -0.9761    0.7115    1.4683 H   0  0  0  0  0  0  0  0  0  0  0  0
    0.2882    1.0822    3.1573 C   0  0  0  0  0  0  0  0  0  0  0  0
    0.9868    1.9123    3.0110 H   0  0  0  0  0  0  0  0  0  0  0  0
   -0.6054    1.4631    3.6603 H   0  0  0  0  0  0  0  0  0  0  0  0
    0.7561    0.3342    3.8054 H   0  0  0  0  0  0  0  0  0  0  0  0
  1  2  1  0  0  0  0
  2  3  1  0  0  0  0
  2  4  1  0  0  0  0
  2  5  1  0  0  0  0
  5  6  2  0  0  0  0
  5  7  1  0  0  0  0
  7  8  1  0  0  0  0
  7  9  1  0  0  0  0
  9 10  1  0  0  0  0
  9 11  1  0  0  0  0
  9 20  1  0  0  0  0
 11 12  1  0  0  0  0
 11 13  1  0  0  0  0
 11 14  1  0  0  0  0
 14 15  1  0  0  0  0
 14 16  1  0  0  0  0
 14 17  1  0  0  0  0
 17 18  1  0  0  0  0
 17 19  2  0  0  0  0
 20 21  2  0  0  0  0
 20 22  1  0  0  0  0
 22 23  1  0  0  0  0
 22 24  1  0  0  0  0
 24 25  1  0  0  0  0
 24 26  1  0  0  0  0
 24 27  1  0  0  0  0
M  CHG  1  18  -1
M  END
$$$$

  -OEChem-04042215583D

 27 26  0     1  0  0  0  0  0999 V2000
   -2.6898   -3.8658    0.2187 H   0  0  0  0  0  0  0  0  0  0  0  0
   -2.5626   -2.9132   -0.3027 C   0  0  0  0  0  0  0  0  0  0  0  0
   -3.3356   -2.2179    0.0342 H   0  0  0  0  0  0  0  0  0  0  0  0
   -2.6802   -3.0780   -1.3768 H   0  0  0  0  0  0  0  0  0  0  0  0
   -1.1886   -2.3343   -0.0181 C   0  0  0  0  0  0  0  0  0  0  0  0
   -0.4006   -2.9450    0.6876 O   0  0  0  0  0  0  0  0  0  0  0  0
   -0.8430   -1.1206   -0.5654 N   0  0  0  0  0  0  0  0  0  0  0  0
   -1.5364   -0.6668   -1.1762 H   0  0  0  0  0  0  0  0  0  0  0  0
    0.4481   -0.4311   -0.3955 C   0  0  1  0  0  0  0  0  0  0  0  0
    1.2422   -1.0898   -0.7611 H   0  0  0  0  0  0  0  0  0  0  0  0
    0.3575    0.7777   -1.3382 C   0  0  0  0  0  0  0  0  0  0  0  0
    1.2940    1.3413   -1.2796 H   0  0  0  0  0  0  0  0  0  0  0  0
    0.2678    0.4201   -2.3705 H   0  0  0  0  0  0  0  0  0  0  0  0
   -0.8165    1.7246   -0.9876 C   0  0  0  0  0  0  0  0  0  0  0  0
   -1.3788    1.3939   -0.1128 H   0  0  0  0  0  0  0  0  0  0  0  0
   -0.4230    2.7203   -0.7624 H   0  0  0  0  0  0  0  0  0  0  0  0
   -1.7751    1.8140   -2.1667 C   0  0  0  0  0  0  0  0  0  0  0  0
   -2.4507    0.7689   -2.3685 O   0  5  0  0  0  0  0  0  0  0  0  0
   -1.8490    2.8678   -2.8410 O   0  0  0  0  0  0  0  0  0  0  0  0
    0.8419   -0.0712    1.0547 C   0  0  0  0  0  0  0  0  0  0  0  0
    2.0140   -0.1463    1.4079 O   0  0  0  0  0  0  0  0  0  0  0  0
   -0.0783    0.4906    1.9194 N   0  0  0  0  0  0  0  0  0  0  0  0
   -1.0168    0.6193    1.5529 H   0  0  0  0  0  0  0  0  0  0  0  0
    0.2437    0.9727    3.2529 C   0  0  0  0  0  0  0  0  0  0  0  0
    0.9800    1.7811    3.1996 H   0  0  0  0  0  0  0  0  0  0  0  0
   -0.6575    1.3554    3.7409 H   0  0  0  0  0  0  0  0  0  0  0  0
    0.6505    0.1607    3.8642 H   0  0  0  0  0  0  0  0  0  0  0  0
  1  2  1  0  0  0  0
  2  3  1  0  0  0  0
  2  4  1  0  0  0  0
  2  5  1  0  0  0  0
  5  6  2  0  0  0  0
  5  7  1  0  0  0  0
  7  8  1  0  0  0  0
  7  9  1  0  0  0  0
  9 10  1  0  0  0  0
  9 11  1  0  0  0  0
  9 20  1  0  0  0  0
 11 12  1  0  0  0  0
 11 13  1  0  0  0  0
 11 14  1  0  0  0  0
 14 15  1  0  0  0  0
 14 16  1  0  0  0  0
 14 17  1  0  0  0  0
 17 18  1  0  0  0  0
 17 19  2  0  0  0  0
 20 21  2  0  0  0  0
 20 22  1  0  0  0  0
 22 23  1  0  0  0  0
 22 24  1  0  0  0  0
 24 25  1  0  0  0  0
 24 26  1  0  0  0  0
 24 27  1  0  0  0  0
M  CHG  1  18  -1
M  END
$$$$

  -OEChem-04042215583D

 27 26  0     1  0  0  0  0  0999 V2000
   -2.6594   -3.8714    0.3382 H   0  0  0  0  0  0  0  0  0  0  0  0
   -2.5520   -2.9312   -0.2093 C   0  0  0  0  0  0  0  0  0  0  0  0
   -3.3014   -2.2221    0.1519 H   0  0  0  0  0  0  0  0  0  0  0  0
   -2.7266   -3.1160   -1.2723 H   0  0  0  0  0  0  0  0  0  0  0  0
   -1.1613   -2.3571   -0.0081 C   0  0  0  0  0  0  0  0  0  0  0  0
   -0.3274   -2.9786    0.6336 O   0  0  0  0  0  0  0  0  0  0  0  0
   -0.8551   -1.1330   -0.5545 N   0  0  0  0  0  0  0  0  0  0  0  0
   -1.6047   -0.6613   -1.0816 H   0  0  0  0  0  0  0  0  0  0  0  0
    0.4231   -0.4187   -0.4172 C   0  0  1  0  0  0  0  0  0  0  0  0
    1.2159   -1.0757   -0.7884 H   0  0  0  0  0  0  0  0  0  0  0  0
    0.3520    0.7982   -1.3606 C   0  0  0  0  0  0  0  0  0  0  0  0
    1.2988    1.3422   -1.2811 H   0  0  0  0  0  0  0  0  0  0  0  0
    0.2705    0.4521   -2.3971 H   0  0  0  0  0  0  0  0  0  0  0  0
   -0.8019    1.7789   -1.0423 C   0  0  0  0  0  0  0  0  0  0  0  0
   -1.1990    1.6375   -0.0371 H   0  0  0  0  0  0  0  0  0  0  0  0
   -0.4187    2.8023   -1.0960 H   0  0  0  0  0  0  0  0  0  0  0  0
   -1.9394    1.6323   -2.0514 C   0  0  0  0  0  0  0  0  0  0  0  0
   -2.6360    0.5877   -1.9434 O   0  5  0  0  0  0  0  0  0  0  0  0
   -2.1114    2.5252   -2.9136 O   0  0  0  0  0  0  0  0  0  0  0  0
    0.8302   -0.0718    1.0325 C   0  0  0  0  0  0  0  0  0  0  0  0
    2.0093   -0.1163    1.3678 O   0  0  0  0  0  0  0  0  0  0  0  0
   -0.0925    0.4551    1.9165 N   0  0  0  0  0  0  0  0  0  0  0  0
   -1.0457    0.5354    1.5732 H   0  0  0  0  0  0  0  0  0  0  0  0
    0.2273    0.9016    3.2629 C   0  0  0  0  0  0  0  0  0  0  0  0
    0.9786    1.6973    3.2333 H   0  0  0  0  0  0  0  0  0  0  0  0
   -0.6707    1.2908    3.7516 H   0  0  0  0  0  0  0  0  0  0  0  0
    0.6141    0.0688    3.8590 H   0  0  0  0  0  0  0  0  0  0  0  0
  1  2  1  0  0  0  0
  2  3  1  0  0  0  0
  2  4  1  0  0  0  0
  2  5  1  0  0  0  0
  5  6  2  0  0  0  0
  5  7  1  0  0  0  0
  7  8  1  0  0  0  0
  7  9  1  0  0  0  0
  9 10  1  0  0  0  0
  9 11  1  0  0  0  0
  9 20  1  0  0  0  0
 11 12  1  0  0  0  0
 11 13  1  0  0  0  0
 11 14  1  0  0  0  0
 14 15  1  0  0  0  0
 14 16  1  0  0  0  0
 14 17  1  0  0  0  0
 17 18  1  0  0  0  0
 17 19  2  0  0  0  0
 20 21  2  0  0  0  0
 20 22  1  0  0  0  0
 22 23  1  0  0  0  0
 22 24  1  0  0  0  0
 24 25  1  0  0  0  0
 24 26  1  0  0  0  0
 24 27  1  0  0  0  0
M  CHG  1  18  -1
M  END
$$$$

  -OEChem-04042215583D

 27 26  0     1  0  0  0  0  0999 V2000
   -2.6054   -3.8890    0.4512 H   0  0  0  0  0  0  0  0  0  0  0  0
   -2.5323   -2.9538   -0.1104 C   0  0  0  0  0  0  0  0  0  0  0  0
   -3.2307   -2.2283    0.3152 H   0  0  0  0  0  0  0  0  0  0  0  0
   -2.8093   -3.1397   -1.1511 H   0  0  0  0  0  0  0  0  0  0  0  0
   -1.1183   -2.4064   -0.0451 C   0  0  0  0  0  0  0  0  0  0  0  0
   -0.2285   -3.0645    0.4740 O   0  0  0  0  0  0  0  0  0  0  0  0
   -0.8522   -1.1688   -0.5833 N   0  0  0  0  0  0  0  0  0  0  0  0
   -1.6680   -0.6431   -0.9251 H   0  0  0  0  0  0  0  0  0  0  0  0
    0.4157   -0.4368   -0.4512 C   0  0  1  0  0  0  0  0  0  0  0  0
    1.2139   -1.0826   -0.8306 H   0  0  0  0  0  0  0  0  0  0  0  0
    0.3694    0.8158   -1.3561 C   0  0  0  0  0  0  0  0  0  0  0  0
    1.3274    1.3349   -1.2501 H   0  0  0  0  0  0  0  0  0  0  0  0
    0.2894    0.5037   -2.4030 H   0  0  0  0  0  0  0  0  0  0  0  0
   -0.7596    1.8259   -1.0410 C   0  0  0  0  0  0  0  0  0  0  0  0
   -0.9760    1.8742    0.0261 H   0  0  0  0  0  0  0  0  0  0  0  0
   -0.4203    2.8231   -1.3368 H   0  0  0  0  0  0  0  0  0  0  0  0
   -2.0417    1.5223   -1.8153 C   0  0  0  0  0  0  0  0  0  0  0  0
   -2.8232    0.6835   -1.2937 O   0  5  0  0  0  0  0  0  0  0  0  0
   -2.2171    2.0674   -2.9296 O   0  0  0  0  0  0  0  0  0  0  0  0
    0.8030   -0.1218    1.0101 C   0  0  0  0  0  0  0  0  0  0  0  0
    1.9798   -0.1394    1.3562 O   0  0  0  0  0  0  0  0  0  0  0  0
   -0.1463    0.3650    1.8893 N   0  0  0  0  0  0  0  0  0  0  0  0
   -1.0839    0.4825    1.5110 H   0  0  0  0  0  0  0  0  0  0  0  0
    0.1565    0.8639    3.2210 C   0  0  0  0  0  0  0  0  0  0  0  0
    0.7744    1.7653    3.1586 H   0  0  0  0  0  0  0  0  0  0  0  0
   -0.7698    1.1116    3.7477 H   0  0  0  0  0  0  0  0  0  0  0  0
    0.6915    0.1054    3.8017 H   0  0  0  0  0  0  0  0  0  0  0  0
  1  2  1  0  0  0  0
  2  3  1  0  0  0  0
  2  4  1  0  0  0  0
  2  5  1  0  0  0  0
  5  6  2  0  0  0  0
  5  7  1  0  0  0  0
  7  8  1  0  0  0  0
  7  9  1  0  0  0  0
  9 10  1  0  0  0  0
  9 11  1  0  0  0  0
  9 20  1  0  0  0  0
 11 12  1  0  0  0  0
 11 13  1  0  0  0  0
 11 14  1  0  0  0  0
 14 15  1  0  0  0  0
 14 16  1  0  0  0  0
 14 17  1  0  0  0  0
 17 18  1  0  0  0  0
 17 19  2  0  0  0  0
 20 21  2  0  0  0  0
 20 22  1  0  0  0  0
 22 23  1  0  0  0  0
 22 24  1  0  0  0  0
 24 25  1  0  0  0  0
 24 26  1  0  0  0  0
 24 27  1  0  0  0  0
M  CHG  1  18  -1
M  END
$$$$

  -OEChem-04042215583D

 27 26  0     1  0  0  0  0  0999 V2000
   -2.7020   -3.9145    0.3891 H   0  0  0  0  0  0  0  0  0  0  0  0
   -2.5811   -2.9812   -0.1671 C   0  0  0  0  0  0  0  0  0  0  0  0
   -3.3499   -2.2736    0.1544 H   0  0  0  0  0  0  0  0  0  0  0  0
   -2.7115   -3.1825   -1.2335 H   0  0  0  0  0  0  0  0  0  0  0  0
   -1.2046   -2.3917    0.0802 C   0  0  0  0  0  0  0  0  0  0  0  0
   -0.3973   -2.9893    0.7764 O   0  0  0  0  0  0  0  0  0  0  0  0
   -0.8727   -1.1957   -0.5123 N   0  0  0  0  0  0  0  0  0  0  0  0
   -1.5642   -0.7972   -1.1618 H   0  0  0  0  0  0  0  0  0  0  0  0
    0.4191   -0.5033   -0.4048 C   0  0  1  0  0  0  0  0  0  0  0  0
    1.1999   -1.1858   -0.7541 H   0  0  0  0  0  0  0  0  0  0  0  0
    0.3951    0.7160   -1.3566 C   0  0  0  0  0  0  0  0  0  0  0  0
    1.3662    1.2156   -1.2814 H   0  0  0  0  0  0  0  0  0  0  0  0
    0.2981    0.3638   -2.3889 H   0  0  0  0  0  0  0  0  0  0  0  0
   -0.7079    1.7682   -1.0680 C   0  0  0  0  0  0  0  0  0  0  0  0
   -0.6957    2.0551   -0.0152 H   0  0  0  0  0  0  0  0  0  0  0  0
   -0.4591    2.6653   -1.6416 H   0  0  0  0  0  0  0  0  0  0  0  0
   -2.1315    1.3698   -1.4756 C   0  0  0  0  0  0  0  0  0  0  0  0
   -2.2901    0.4492   -2.3184 O   0  5  0  0  0  0  0  0  0  0  0  0
   -3.0621    1.8926   -0.8195 O   0  0  0  0  0  0  0  0  0  0  0  0
    0.8072   -0.1238    1.0411 C   0  0  0  0  0  0  0  0  0  0  0  0
    1.9824   -0.1635    1.3927 O   0  0  0  0  0  0  0  0  0  0  0  0
   -0.1282    0.4442    1.8863 N   0  0  0  0  0  0  0  0  0  0  0  0
   -1.0564    0.5892    1.4927 H   0  0  0  0  0  0  0  0  0  0  0  0
    0.1893    1.0138    3.1856 C   0  0  0  0  0  0  0  0  0  0  0  0
    0.8951    1.8435    3.0768 H   0  0  0  0  0  0  0  0  0  0  0  0
   -0.7206    1.3918    3.6608 H   0  0  0  0  0  0  0  0  0  0  0  0
    0.6308    0.2541    3.8383 H   0  0  0  0  0  0  0  0  0  0  0  0
  1  2  1  0  0  0  0
  2  3  1  0  0  0  0
  2  4  1  0  0  0  0
  2  5  1  0  0  0  0
  5  6  2  0  0  0  0
  5  7  1  0  0  0  0
  7  8  1  0  0  0  0
  7  9  1  0  0  0  0
  9 10  1  0  0  0  0
  9 11  1  0  0  0  0
  9 20  1  0  0  0  0
 11 12  1  0  0  0  0
 11 13  1  0  0  0  0
 11 14  1  0  0  0  0
 14 15  1  0  0  0  0
 14 16  1  0  0  0  0
 14 17  1  0  0  0  0
 17 18  1  0  0  0  0
 17 19  2  0  0  0  0
 20 21  2  0  0  0  0
 20 22  1  0  0  0  0
 22 23  1  0  0  0  0
 22 24  1  0  0  0  0
 24 25  1  0  0  0  0
 24 26  1  0  0  0  0
 24 27  1  0  0  0  0
M  CHG  1  18  -1
M  END
$$$$

  -OEChem-04042215583D

 27 26  0     1  0  0  0  0  0999 V2000
   -2.5396   -3.8190    0.8152 H   0  0  0  0  0  0  0  0  0  0  0  0
   -2.5011   -2.9220    0.1916 C   0  0  0  0  0  0  0  0  0  0  0  0
   -3.0811   -2.1305    0.6742 H   0  0  0  0  0  0  0  0  0  0  0  0
   -2.9471   -3.1435   -0.7812 H   0  0  0  0  0  0  0  0  0  0  0  0
   -1.0654   -2.4654    0.0084 C   0  0  0  0  0  0  0  0  0  0  0  0
   -0.1432   -3.1697    0.3947 O   0  0  0  0  0  0  0  0  0  0  0  0
   -0.8194   -1.2637   -0.6163 N   0  0  0  0  0  0  0  0  0  0  0  0
   -1.6590   -0.6874   -0.7415 H   0  0  0  0  0  0  0  0  0  0  0  0
    0.4550   -0.5340   -0.5037 C   0  0  1  0  0  0  0  0  0  0  0  0
    1.2648   -1.1898   -0.8385 H   0  0  0  0  0  0  0  0  0  0  0  0
    0.4644    0.7420   -1.3865 C   0  0  0  0  0  0  0  0  0  0  0  0
    1.4504    1.2094   -1.2992 H   0  0  0  0  0  0  0  0  0  0  0  0
    0.3457    0.4293   -2.4292 H   0  0  0  0  0  0  0  0  0  0  0  0
   -0.6066    1.8231   -1.0902 C   0  0  0  0  0  0  0  0  0  0  0  0
   -0.4530    2.2357   -0.0899 H   0  0  0  0  0  0  0  0  0  0  0  0
   -0.4582    2.6487   -1.7924 H   0  0  0  0  0  0  0  0  0  0  0  0
   -2.0496    1.3522   -1.2233 C   0  0  0  0  0  0  0  0  0  0  0  0
   -2.5805    1.3276   -2.3561 O   0  5  0  0  0  0  0  0  0  0  0  0
   -2.5621    0.8619   -0.1813 O   0  0  0  0  0  0  0  0  0  0  0  0
    0.7464   -0.1703    0.9678 C   0  0  0  0  0  0  0  0  0  0  0  0
    1.8940   -0.1876    1.4028 O   0  0  0  0  0  0  0  0  0  0  0  0
   -0.2744    0.3494    1.7447 N   0  0  0  0  0  0  0  0  0  0  0  0
   -1.1660    0.5110    1.2589 H   0  0  0  0  0  0  0  0  0  0  0  0
   -0.0748    0.9269    3.0625 C   0  0  0  0  0  0  0  0  0  0  0  0
    0.5708    1.8084    2.9989 H   0  0  0  0  0  0  0  0  0  0  0  0
   -1.0367    1.2289    3.4871 H   0  0  0  0  0  0  0  0  0  0  0  0
    0.3859    0.1957    3.7343 H   0  0  0  0  0  0  0  0  0  0  0  0
  1  2  1  0  0  0  0
  2  3  1  0  0  0  0
  2  4  1  0  0  0  0
  2  5  1  0  0  0  0
  5  6  2  0  0  0  0
  5  7  1  0  0  0  0
  7  8  1  0  0  0  0
  7  9  1  0  0  0  0
  9 10  1  0  0  0  0
  9 11  1  0  0  0  0
  9 20  1  0  0  0  0
 11 12  1  0  0  0  0
 11 13  1  0  0  0  0
 11 14  1  0  0  0  0
 14 15  1  0  0  0  0
 14 16  1  0  0  0  0
 14 17  1  0  0  0  0
 17 18  1  0  0  0  0
 17 19  2  0  0  0  0
 20 21  2  0  0  0  0
 20 22  1  0  0  0  0
 22 23  1  0  0  0  0
 22 24  1  0  0  0  0
 24 25  1  0  0  0  0
 24 26  1  0  0  0  0
 24 27  1  0  0  0  0
M  CHG  1  18  -1
M  END
$$$$

  -OEChem-04042215583D

 27 26  0     1  0  0  0  0  0999 V2000
   -2.5338   -3.9326    0.6033 H   0  0  0  0  0  0  0  0  0  0  0  0
   -2.4853   -3.0135    0.0134 C   0  0  0  0  0  0  0  0  0  0  0  0
   -3.1613   -2.2744    0.4527 H   0  0  0  0  0  0  0  0  0  0  0  0
   -2.8109   -3.2262   -1.0077 H   0  0  0  0  0  0  0  0  0  0  0  0
   -1.0696   -2.4669    0.0007 C   0  0  0  0  0  0  0  0  0  0  0  0
   -0.1550   -3.1177    0.4863 O   0  0  0  0  0  0  0  0  0  0  0  0
   -0.8285   -1.2485   -0.5901 N   0  0  0  0  0  0  0  0  0  0  0  0
   -1.6515   -0.7593   -0.9625 H   0  0  0  0  0  0  0  0  0  0  0  0
    0.4267   -0.4872   -0.4816 C   0  0  1  0  0  0  0  0  0  0  0  0
    1.2405   -1.1203   -0.8480 H   0  0  0  0  0  0  0  0  0  0  0  0
    0.3791    0.7939   -1.3555 C   0  0  0  0  0  0  0  0  0  0  0  0
    1.3523    1.2921   -1.2988 H   0  0  0  0  0  0  0  0  0  0  0  0
    0.2417    0.4717   -2.3927 H   0  0  0  0  0  0  0  0  0  0  0  0
   -0.7235    1.8437   -1.0460 C   0  0  0  0  0  0  0  0  0  0  0  0
   -0.4271    2.4102   -0.1579 H   0  0  0  0  0  0  0  0  0  0  0  0
   -0.7723    2.5535   -1.8765 H   0  0  0  0  0  0  0  0  0  0  0  0
   -2.1224    1.2781   -0.8148 C   0  0  0  0  0  0  0  0  0  0  0  0
   -2.6649    0.6617   -1.7634 O   0  5  0  0  0  0  0  0  0  0  0  0
   -2.5277    1.2398    0.3727 O   0  0  0  0  0  0  0  0  0  0  0  0
    0.7803   -0.1148    0.9758 C   0  0  0  0  0  0  0  0  0  0  0  0
    1.9530   -0.1285    1.3407 O   0  0  0  0  0  0  0  0  0  0  0  0
   -0.1868    0.3858    1.8287 N   0  0  0  0  0  0  0  0  0  0  0  0
   -1.1085    0.5745    1.4102 H   0  0  0  0  0  0  0  0  0  0  0  0
    0.1032    0.9397    3.1399 C   0  0  0  0  0  0  0  0  0  0  0  0
    0.7543    1.8148    3.0495 H   0  0  0  0  0  0  0  0  0  0  0  0
   -0.8267    1.2459    3.6283 H   0  0  0  0  0  0  0  0  0  0  0  0
    0.5954    0.1922    3.7701 H   0  0  0  0  0  0  0  0  0  0  0  0
  1  2  1  0  0  0  0
  2  3  1  0  0  0  0
  2  4  1  0  0  0  0
  2  5  1  0  0  0  0
  5  6  2  0  0  0  0
  5  7  1  0  0  0  0
  7  8  1  0  0  0  0
  7  9  1  0  0  0  0
  9 10  1  0  0  0  0
  9 11  1  0  0  0  0
  9 20  1  0  0  0  0
 11 12  1  0  0  0  0
 11 13  1  0  0  0  0
 11 14  1  0  0  0  0
 14 15  1  0  0  0  0
 14 16  1  0  0  0  0
 14 17  1  0  0  0  0
 17 18  1  0  0  0  0
 17 19  2  0  0  0  0
 20 21  2  0  0  0  0
 20 22  1  0  0  0  0
 22 23  1  0  0  0  0
 22 24  1  0  0  0  0
 24 25  1  0  0  0  0
 24 26  1  0  0  0  0
 24 27  1  0  0  0  0
M  CHG  1  18  -1
M  END
$$$$

  -OEChem-04042215583D

 27 26  0     1  0  0  0  0  0999 V2000
   -2.5517   -3.9728    0.5640 H   0  0  0  0  0  0  0  0  0  0  0  0
   -2.5066   -3.0348    0.0044 C   0  0  0  0  0  0  0  0  0  0  0  0
   -3.1823   -2.3118    0.4697 H   0  0  0  0  0  0  0  0  0  0  0  0
   -2.8350   -3.2150   -1.0220 H   0  0  0  0  0  0  0  0  0  0  0  0
   -1.0918   -2.4856    0.0045 C   0  0  0  0  0  0  0  0  0  0  0  0
   -0.1771   -3.1460    0.4763 O   0  0  0  0  0  0  0  0  0  0  0  0
   -0.8510   -1.2564   -0.5634 N   0  0  0  0  0  0  0  0  0  0  0  0
   -1.6806   -0.7487   -0.8958 H   0  0  0  0  0  0  0  0  0  0  0  0
    0.3966   -0.4918   -0.4132 C   0  0  1  0  0  0  0  0  0  0  0  0
    1.2091   -1.1407   -0.7547 H   0  0  0  0  0  0  0  0  0  0  0  0
    0.4009    0.7573   -1.3311 C   0  0  0  0  0  0  0  0  0  0  0  0
    1.3760    1.2481   -1.2477 H   0  0  0  0  0  0  0  0  0  0  0  0
    0.3171    0.3867   -2.3577 H   0  0  0  0  0  0  0  0  0  0  0  0
   -0.7035    1.8386   -1.1533 C   0  0  0  0  0  0  0  0  0  0  0  0
   -0.3329    2.5806   -0.4395 H   0  0  0  0  0  0  0  0  0  0  0  0
   -0.8465    2.3557   -2.1065 H   0  0  0  0  0  0  0  0  0  0  0  0
   -2.0657    1.3587   -0.6503 C   0  0  0  0  0  0  0  0  0  0  0  0
   -2.7462    0.6486   -1.4317 O   0  5  0  0  0  0  0  0  0  0  0  0
   -2.3496    1.5471    0.5567 O   0  0  0  0  0  0  0  0  0  0  0  0
    0.7662   -0.1135    1.0402 C   0  0  0  0  0  0  0  0  0  0  0  0
    1.9435   -0.1585    1.3883 O   0  0  0  0  0  0  0  0  0  0  0  0
   -0.1707    0.3912    1.9219 N   0  0  0  0  0  0  0  0  0  0  0  0
   -1.0773    0.6566    1.5139 H   0  0  0  0  0  0  0  0  0  0  0  0
    0.1691    0.9353    3.2258 C   0  0  0  0  0  0  0  0  0  0  0  0
    0.8334    1.7984    3.1184 H   0  0  0  0  0  0  0  0  0  0  0  0
   -0.7398    1.2575    3.7423 H   0  0  0  0  0  0  0  0  0  0  0  0
    0.6651    0.1768    3.8397 H   0  0  0  0  0  0  0  0  0  0  0  0
  1  2  1  0  0  0  0
  2  3  1  0  0  0  0
  2  4  1  0  0  0  0
  2  5  1  0  0  0  0
  5  6  2  0  0  0  0
  5  7  1  0  0  0  0
  7  8  1  0  0  0  0
  7  9  1  0  0  0  0
  9 10  1  0  0  0  0
  9 11  1  0  0  0  0
  9 20  1  0  0  0  0
 11 12  1  0  0  0  0
 11 13  1  0  0  0  0
 11 14  1  0  0  0  0
 14 15  1  0  0  0  0
 14 16  1  0  0  0  0
 14 17  1  0  0  0  0
 17 18  1  0  0  0  0
 17 19  2  0  0  0  0
 20 21  2  0  0  0  0
 20 22  1  0  0  0  0
 22 23  1  0  0  0  0
 22 24  1  0  0  0  0
 24 25  1  0  0  0  0
 24 26  1  0  0  0  0
 24 27  1  0  0  0  0
M  CHG  1  18  -1
M  END
$$$$

  -OEChem-04042215583D

 27 26  0     1  0  0  0  0  0999 V2000
   -2.4944   -3.9932    0.5577 H   0  0  0  0  0  0  0  0  0  0  0  0
   -2.4746   -3.0453    0.0137 C   0  0  0  0  0  0  0  0  0  0  0  0
   -3.1372   -2.3351    0.5159 H   0  0  0  0  0  0  0  0  0  0  0  0
   -2.8392   -3.2090   -1.0031 H   0  0  0  0  0  0  0  0  0  0  0  0
   -1.0635   -2.4882   -0.0279 C   0  0  0  0  0  0  0  0  0  0  0  0
   -0.1274   -3.1595    0.3822 O   0  0  0  0  0  0  0  0  0  0  0  0
   -0.8538   -1.2377   -0.5612 N   0  0  0  0  0  0  0  0  0  0  0  0
   -1.7061   -0.7134   -0.7969 H   0  0  0  0  0  0  0  0  0  0  0  0
    0.3781   -0.4562   -0.3830 C   0  0  1  0  0  0  0  0  0  0  0  0
    1.1957   -1.1018   -0.7206 H   0  0  0  0  0  0  0  0  0  0  0  0
    0.3902    0.7690   -1.3309 C   0  0  0  0  0  0  0  0  0  0  0  0
    1.3549    1.2751   -1.2227 H   0  0  0  0  0  0  0  0  0  0  0  0
    0.3562    0.3702   -2.3497 H   0  0  0  0  0  0  0  0  0  0  0  0
   -0.7316    1.8453   -1.2355 C   0  0  0  0  0  0  0  0  0  0  0  0
   -0.3013    2.7328   -0.7614 H   0  0  0  0  0  0  0  0  0  0  0  0
   -1.0213    2.1376   -2.2489 H   0  0  0  0  0  0  0  0  0  0  0  0
   -1.9997    1.4862   -0.4583 C   0  0  0  0  0  0  0  0  0  0  0  0
   -2.8064    0.6991   -1.0144 O   0  5  0  0  0  0  0  0  0  0  0  0
   -2.1170    1.8967    0.7198 O   0  0  0  0  0  0  0  0  0  0  0  0
    0.7652   -0.0994    1.0727 C   0  0  0  0  0  0  0  0  0  0  0  0
    1.9453   -0.1782    1.4052 O   0  0  0  0  0  0  0  0  0  0  0  0
   -0.1510    0.3738    1.9922 N   0  0  0  0  0  0  0  0  0  0  0  0
   -1.0334    0.7268    1.5997 H   0  0  0  0  0  0  0  0  0  0  0  0
    0.2288    0.8616    3.3077 C   0  0  0  0  0  0  0  0  0  0  0  0
    0.8968    1.7240    3.2176 H   0  0  0  0  0  0  0  0  0  0  0  0
   -0.6636    1.1686    3.8612 H   0  0  0  0  0  0  0  0  0  0  0  0
    0.7352    0.0755    3.8766 H   0  0  0  0  0  0  0  0  0  0  0  0
  1  2  1  0  0  0  0
  2  3  1  0  0  0  0
  2  4  1  0  0  0  0
  2  5  1  0  0  0  0
  5  6  2  0  0  0  0
  5  7  1  0  0  0  0
  7  8  1  0  0  0  0
  7  9  1  0  0  0  0
  9 10  1  0  0  0  0
  9 11  1  0  0  0  0
  9 20  1  0  0  0  0
 11 12  1  0  0  0  0
 11 13  1  0  0  0  0
 11 14  1  0  0  0  0
 14 15  1  0  0  0  0
 14 16  1  0  0  0  0
 14 17  1  0  0  0  0
 17 18  1  0  0  0  0
 17 19  2  0  0  0  0
 20 21  2  0  0  0  0
 20 22  1  0  0  0  0
 22 23  1  0  0  0  0
 22 24  1  0  0  0  0
 24 25  1  0  0  0  0
 24 26  1  0  0  0  0
 24 27  1  0  0  0  0
M  CHG  1  18  -1
M  END
$$$$

  -OEChem-04042215583D

 27 26  0     1  0  0  0  0  0999 V2000
   -2.2096   -3.8591    1.0965 H   0  0  0  0  0  0  0  0  0  0  0  0
   -2.2455   -2.9714    0.4596 C   0  0  0  0  0  0  0  0  0  0  0  0
   -2.8943   -2.2260    0.9277 H   0  0  0  0  0  0  0  0  0  0  0  0
   -2.6656   -3.2450   -0.5110 H   0  0  0  0  0  0  0  0  0  0  0  0
   -0.8526   -2.3973    0.2743 C   0  0  0  0  0  0  0  0  0  0  0  0
    0.1252   -3.0337    0.6411 O   0  0  0  0  0  0  0  0  0  0  0  0
   -0.7092   -1.1616   -0.3122 N   0  0  0  0  0  0  0  0  0  0  0  0
   -1.5801   -0.6254   -0.4274 H   0  0  0  0  0  0  0  0  0  0  0  0
    0.5211   -0.3640   -0.2711 C   0  0  1  0  0  0  0  0  0  0  0  0
    1.2991   -1.0531   -0.6160 H   0  0  0  0  0  0  0  0  0  0  0  0
    0.5057    0.7427   -1.3537 C   0  0  0  0  0  0  0  0  0  0  0  0
    1.4725    1.2550   -1.3098 H   0  0  0  0  0  0  0  0  0  0  0  0
    0.4658    0.2359   -2.3232 H   0  0  0  0  0  0  0  0  0  0  0  0
   -0.5997    1.8365   -1.3747 C   0  0  0  0  0  0  0  0  0  0  0  0
   -0.1042    2.8110   -1.3225 H   0  0  0  0  0  0  0  0  0  0  0  0
   -1.0990    1.7907   -2.3467 H   0  0  0  0  0  0  0  0  0  0  0  0
   -1.6935    1.8133   -0.3061 C   0  0  0  0  0  0  0  0  0  0  0  0
   -2.5546    0.8956   -0.3851 O   0  5  0  0  0  0  0  0  0  0  0  0
   -1.7207    2.7406    0.5372 O   0  0  0  0  0  0  0  0  0  0  0  0
    1.0891    0.0742    1.1068 C   0  0  0  0  0  0  0  0  0  0  0  0
    2.3022    0.2000    1.2251 O   0  0  0  0  0  0  0  0  0  0  0  0
    0.4338    0.5983    2.1990 N   0  0  0  0  0  0  0  0  0  0  0  0
    1.0677    0.9683    2.8974 H   0  0  0  0  0  0  0  0  0  0  0  0
   -0.9617    0.4220    2.5757 C   0  0  0  0  0  0  0  0  0  0  0  0
   -1.4110    1.3922    2.8076 H   0  0  0  0  0  0  0  0  0  0  0  0
   -1.5516   -0.0452    1.7892 H   0  0  0  0  0  0  0  0  0  0  0  0
   -1.0266   -0.2134    3.4636 H   0  0  0  0  0  0  0  0  0  0  0  0
  1  2  1  0  0  0  0
  2  3  1  0  0  0  0
  2  4  1  0  0  0  0
  2  5  1  0  0  0  0
  5  6  2  0  0  0  0
  5  7  1  0  0  0  0
  7  8  1  0  0  0  0
  7  9  1  0  0  0  0
  9 10  1  0  0  0  0
  9 11  1  0  0  0  0
  9 20  1  0  0  0  0
 11 12  1  0  0  0  0
 11 13  1  0  0  0  0
 11 14  1  0  0  0  0
 14 15  1  0  0  0  0
 14 16  1  0  0  0  0
 14 17  1  0  0  0  0
 17 18  1  0  0  0  0
 17 19  2  0  0  0  0
 20 21  2  0  0  0  0
 20 22  1  0  0  0  0
 22 23  1  0  0  0  0
 22 24  1  0  0  0  0
 24 25  1  0  0  0  0
 24 26  1  0  0  0  0
 24 27  1  0  0  0  0
M  CHG  1  18  -1
M  END
$$$$

  -OEChem-04042215583D

 27 26  0     1  0  0  0  0  0999 V2000
   -2.9312   -3.6301    0.8502 H   0  0  0  0  0  0  0  0  0  0  0  0
   -2.7820   -2.7324    0.2445 C   0  0  0  0  0  0  0  0  0  0  0  0
   -3.2681   -1.8875    0.7404 H   0  0  0  0  0  0  0  0  0  0  0  0
   -3.2428   -2.8817   -0.7348 H   0  0  0  0  0  0  0  0  0  0  0  0
   -1.3004   -2.4457    0.0810 C   0  0  0  0  0  0  0  0  0  0  0  0
   -0.4742   -3.2640    0.4588 O   0  0  0  0  0  0  0  0  0  0  0  0
   -0.9079   -1.2713   -0.5202 N   0  0  0  0  0  0  0  0  0  0  0  0
   -1.6699   -0.5887   -0.6193 H   0  0  0  0  0  0  0  0  0  0  0  0
    0.4021   -0.6563   -0.2747 C   0  0  1  0  0  0  0  0  0  0  0  0
    1.1490   -1.4309   -0.4789 H   0  0  0  0  0  0  0  0  0  0  0  0
    0.6612    0.4458   -1.3311 C   0  0  0  0  0  0  0  0  0  0  0  0
    1.6575    0.8480   -1.1194 H   0  0  0  0  0  0  0  0  0  0  0  0
    0.7182   -0.0364   -2.3121 H   0  0  0  0  0  0  0  0  0  0  0  0
   -0.3009    1.6638   -1.4634 C   0  0  0  0  0  0  0  0  0  0  0  0
    0.3057    2.5599   -1.6274 H   0  0  0  0  0  0  0  0  0  0  0  0
   -0.8961    1.5191   -2.3698 H   0  0  0  0  0  0  0  0  0  0  0  0
   -1.2933    1.9508   -0.3362 C   0  0  0  0  0  0  0  0  0  0  0  0
   -1.0991    2.9614    0.3749 O   0  5  0  0  0  0  0  0  0  0  0  0
   -2.2062    1.1086   -0.1282 O   0  0  0  0  0  0  0  0  0  0  0  0
    0.6866   -0.2673    1.1962 C   0  0  0  0  0  0  0  0  0  0  0  0
    1.8108   -0.4514    1.6550 O   0  0  0  0  0  0  0  0  0  0  0  0
   -0.2583    0.3775    1.9711 N   0  0  0  0  0  0  0  0  0  0  0  0
   -1.0848    0.7169    1.4648 H   0  0  0  0  0  0  0  0  0  0  0  0
    0.0608    1.0203    3.2348 C   0  0  0  0  0  0  0  0  0  0  0  0
    0.7778    1.8325    3.0781 H   0  0  0  0  0  0  0  0  0  0  0  0
   -0.8472    1.4392    3.6783 H   0  0  0  0  0  0  0  0  0  0  0  0
    0.4875    0.2977    3.9374 H   0  0  0  0  0  0  0  0  0  0  0  0
  1  2  1  0  0  0  0
  2  3  1  0  0  0  0
  2  4  1  0  0  0  0
  2  5  1  0  0  0  0
  5  6  2  0  0  0  0
  5  7  1  0  0  0  0
  7  8  1  0  0  0  0
  7  9  1  0  0  0  0
  9 10  1  0  0  0  0
  9 11  1  0  0  0  0
  9 20  1  0  0  0  0
 11 12  1  0  0  0  0
 11 13  1  0  0  0  0
 11 14  1  0  0  0  0
 14 15  1  0  0  0  0
 14 16  1  0  0  0  0
 14 17  1  0  0  0  0
 17 18  1  0  0  0  0
 17 19  2  0  0  0  0
 20 21  2  0  0  0  0
 20 22  1  0  0  0  0
 22 23  1  0  0  0  0
 22 24  1  0  0  0  0
 24 25  1  0  0  0  0
 24 26  1  0  0  0  0
 24 27  1  0  0  0  0
M  CHG  1  18  -1
M  END
$$$$

  -OEChem-04042215583D

 27 26  0     1  0  0  0  0  0999 V2000
   -2.4812   -3.9221    0.5775 H   0  0  0  0  0  0  0  0  0  0  0  0
   -2.4775   -2.9394    0.0982 C   0  0  0  0  0  0  0  0  0  0  0  0
   -3.0211   -2.2348    0.7337 H   0  0  0  0  0  0  0  0  0  0  0  0
   -2.9845   -3.0115   -0.8668 H   0  0  0  0  0  0  0  0  0  0  0  0
   -1.0527   -2.4556   -0.1012 C   0  0  0  0  0  0  0  0  0  0  0  0
   -0.1157   -3.2002    0.1467 O   0  0  0  0  0  0  0  0  0  0  0  0
   -0.8400   -1.1870   -0.5920 N   0  0  0  0  0  0  0  0  0  0  0  0
   -1.6772   -0.5946   -0.5751 H   0  0  0  0  0  0  0  0  0  0  0  0
    0.3960   -0.4386   -0.3356 C   0  0  1  0  0  0  0  0  0  0  0  0
    1.2089   -1.1125   -0.6275 H   0  0  0  0  0  0  0  0  0  0  0  0
    0.4936    0.7223   -1.3531 C   0  0  0  0  0  0  0  0  0  0  0  0
    1.4285    1.2511   -1.1402 H   0  0  0  0  0  0  0  0  0  0  0  0
    0.5861    0.2998   -2.3586 H   0  0  0  0  0  0  0  0  0  0  0  0
   -0.6413    1.7795   -1.3801 C   0  0  0  0  0  0  0  0  0  0  0  0
   -0.2309    2.7190   -1.7620 H   0  0  0  0  0  0  0  0  0  0  0  0
   -1.3935    1.4477   -2.1020 H   0  0  0  0  0  0  0  0  0  0  0  0
   -1.3726    2.0608   -0.0746 C   0  0  0  0  0  0  0  0  0  0  0  0
   -1.0696    3.0751    0.5919 O   0  5  0  0  0  0  0  0  0  0  0  0
   -2.2131    1.1917    0.2866 O   0  0  0  0  0  0  0  0  0  0  0  0
    0.7497   -0.1402    1.1446 C   0  0  0  0  0  0  0  0  0  0  0  0
    1.9177   -0.2550    1.5074 O   0  0  0  0  0  0  0  0  0  0  0  0
   -0.1863    0.3161    2.0519 N   0  0  0  0  0  0  0  0  0  0  0  0
   -1.0694    0.6364    1.6350 H   0  0  0  0  0  0  0  0  0  0  0  0
    0.1767    0.8717    3.3452 C   0  0  0  0  0  0  0  0  0  0  0  0
    0.7994    1.7625    3.2149 H   0  0  0  0  0  0  0  0  0  0  0  0
   -0.7257    1.1560    3.8942 H   0  0  0  0  0  0  0  0  0  0  0  0
    0.7261    0.1355    3.9402 H   0  0  0  0  0  0  0  0  0  0  0  0
  1  2  1  0  0  0  0
  2  3  1  0  0  0  0
  2  4  1  0  0  0  0
  2  5  1  0  0  0  0
  5  6  2  0  0  0  0
  5  7  1  0  0  0  0
  7  8  1  0  0  0  0
  7  9  1  0  0  0  0
  9 10  1  0  0  0  0
  9 11  1  0  0  0  0
  9 20  1  0  0  0  0
 11 12  1  0  0  0  0
 11 13  1  0  0  0  0
 11 14  1  0  0  0  0
 14 15  1  0  0  0  0
 14 16  1  0  0  0  0
 14 17  1  0  0  0  0
 17 18  1  0  0  0  0
 17 19  2  0  0  0  0
 20 21  2  0  0  0  0
 20 22  1  0  0  0  0
 22 23  1  0  0  0  0
 22 24  1  0  0  0  0
 24 25  1  0  0  0  0
 24 26  1  0  0  0  0
 24 27  1  0  0  0  0
M  CHG  1  18  -1
M  END
$$$$

  -OEChem-04042215583D

 27 26  0     1  0  0  0  0  0999 V2000
   -2.7988   -3.7625    0.3456 H   0  0  0  0  0  0  0  0  0  0  0  0
   -2.7043   -2.7614   -0.0838 C   0  0  0  0  0  0  0  0  0  0  0  0
   -3.2360   -2.0524    0.5564 H   0  0  0  0  0  0  0  0  0  0  0  0
   -3.1601   -2.7561   -1.0768 H   0  0  0  0  0  0  0  0  0  0  0  0
   -1.2417   -2.3674   -0.1838 C   0  0  0  0  0  0  0  0  0  0  0  0
   -0.3736   -3.1820    0.0899 O   0  0  0  0  0  0  0  0  0  0  0  0
   -0.9175   -1.1026   -0.6235 N   0  0  0  0  0  0  0  0  0  0  0  0
   -1.7063   -0.4552   -0.6600 H   0  0  0  0  0  0  0  0  0  0  0  0
    0.3679   -0.4601   -0.3212 C   0  0  1  0  0  0  0  0  0  0  0  0
    1.1272   -1.1926   -0.6165 H   0  0  0  0  0  0  0  0  0  0  0  0
    0.5853    0.7008   -1.3188 C   0  0  0  0  0  0  0  0  0  0  0  0
    1.5526    1.1575   -1.0841 H   0  0  0  0  0  0  0  0  0  0  0  0
    0.6588    0.2866   -2.3292 H   0  0  0  0  0  0  0  0  0  0  0  0
   -0.4764    1.8246   -1.3369 C   0  0  0  0  0  0  0  0  0  0  0  0
   -0.0781    2.6654   -1.9122 H   0  0  0  0  0  0  0  0  0  0  0  0
   -1.3538    1.4589   -1.8791 H   0  0  0  0  0  0  0  0  0  0  0  0
   -0.9457    2.3482    0.0099 C   0  0  0  0  0  0  0  0  0  0  0  0
   -0.3235    3.2812    0.5644 O   0  5  0  0  0  0  0  0  0  0  0  0
   -1.9312    1.7407    0.5091 O   0  0  0  0  0  0  0  0  0  0  0  0
    0.7290   -0.2341    1.1711 C   0  0  0  0  0  0  0  0  0  0  0  0
    1.8667   -0.5046    1.5475 O   0  0  0  0  0  0  0  0  0  0  0  0
   -0.1727    0.2659    2.0902 N   0  0  0  0  0  0  0  0  0  0  0  0
   -0.9848    0.7409    1.6767 H   0  0  0  0  0  0  0  0  0  0  0  0
    0.2244    0.6903    3.4229 C   0  0  0  0  0  0  0  0  0  0  0  0
    0.9335    1.5220    3.3612 H   0  0  0  0  0  0  0  0  0  0  0  0
   -0.6539    1.0226    3.9839 H   0  0  0  0  0  0  0  0  0  0  0  0
    0.6901   -0.1363    3.9687 H   0  0  0  0  0  0  0  0  0  0  0  0
  1  2  1  0  0  0  0
  2  3  1  0  0  0  0
  2  4  1  0  0  0  0
  2  5  1  0  0  0  0
  5  6  2  0  0  0  0
  5  7  1  0  0  0  0
  7  8  1  0  0  0  0
  7  9  1  0  0  0  0
  9 10  1  0  0  0  0
  9 11  1  0  0  0  0
  9 20  1  0  0  0  0
 11 12  1  0  0  0  0
 11 13  1  0  0  0  0
 11 14  1  0  0  0  0
 14 15  1  0  0  0  0
 14 16  1  0  0  0  0
 14 17  1  0  0  0  0
 17 18  1  0  0  0  0
 17 19  2  0  0  0  0
 20 21  2  0  0  0  0
 20 22  1  0  0  0  0
 22 23  1  0  0  0  0
 22 24  1  0  0  0  0
 24 25  1  0  0  0  0
 24 26  1  0  0  0  0
 24 27  1  0  0  0  0
M  CHG  1  18  -1
M  END
$$$$

  -OEChem-04042215583D

 27 26  0     1  0  0  0  0  0999 V2000
   -2.6787   -3.8427    0.3816 H   0  0  0  0  0  0  0  0  0  0  0  0
   -2.6188   -2.8311   -0.0292 C   0  0  0  0  0  0  0  0  0  0  0  0
   -3.1710   -2.1523    0.6259 H   0  0  0  0  0  0  0  0  0  0  0  0
   -3.0790   -2.8237   -1.0202 H   0  0  0  0  0  0  0  0  0  0  0  0
   -1.1701   -2.3880   -0.1261 C   0  0  0  0  0  0  0  0  0  0  0  0
   -0.2784   -3.1605    0.1877 O   0  0  0  0  0  0  0  0  0  0  0  0
   -0.8835   -1.1299   -0.6108 N   0  0  0  0  0  0  0  0  0  0  0  0
   -1.6899   -0.5183   -0.7199 H   0  0  0  0  0  0  0  0  0  0  0  0
    0.3872   -0.4404   -0.3446 C   0  0  1  0  0  0  0  0  0  0  0  0
    1.1716   -1.1471   -0.6375 H   0  0  0  0  0  0  0  0  0  0  0  0
    0.5311    0.7182   -1.3576 C   0  0  0  0  0  0  0  0  0  0  0  0
    1.4907    1.2133   -1.1737 H   0  0  0  0  0  0  0  0  0  0  0  0
    0.5735    0.2917   -2.3648 H   0  0  0  0  0  0  0  0  0  0  0  0
   -0.5780    1.7934   -1.3409 C   0  0  0  0  0  0  0  0  0  0  0  0
   -0.3450    2.5304   -2.1148 H   0  0  0  0  0  0  0  0  0  0  0  0
   -1.5276    1.3296   -1.6234 H   0  0  0  0  0  0  0  0  0  0  0  0
   -0.7699    2.5473   -0.0346 C   0  0  0  0  0  0  0  0  0  0  0  0
    0.0500    3.4358    0.2880 O   0  5  0  0  0  0  0  0  0  0  0  0
   -1.7494    2.1784    0.6652 O   0  0  0  0  0  0  0  0  0  0  0  0
    0.7452   -0.1586    1.1380 C   0  0  0  0  0  0  0  0  0  0  0  0
    1.8726   -0.4444    1.5327 O   0  0  0  0  0  0  0  0  0  0  0  0
   -0.1696    0.3445    2.0436 N   0  0  0  0  0  0  0  0  0  0  0  0
   -0.9437    0.8710    1.6197 H   0  0  0  0  0  0  0  0  0  0  0  0
    0.2206    0.7534    3.3835 C   0  0  0  0  0  0  0  0  0  0  0  0
    0.9499    1.5686    3.3352 H   0  0  0  0  0  0  0  0  0  0  0  0
   -0.6563    1.1043    3.9354 H   0  0  0  0  0  0  0  0  0  0  0  0
    0.6597   -0.0866    3.9310 H   0  0  0  0  0  0  0  0  0  0  0  0
  1  2  1  0  0  0  0
  2  3  1  0  0  0  0
  2  4  1  0  0  0  0
  2  5  1  0  0  0  0
  5  6  2  0  0  0  0
  5  7  1  0  0  0  0
  7  8  1  0  0  0  0
  7  9  1  0  0  0  0
  9 10  1  0  0  0  0
  9 11  1  0  0  0  0
  9 20  1  0  0  0  0
 11 12  1  0  0  0  0
 11 13  1  0  0  0  0
 11 14  1  0  0  0  0
 14 15  1  0  0  0  0
 14 16  1  0  0  0  0
 14 17  1  0  0  0  0
 17 18  1  0  0  0  0
 17 19  2  0  0  0  0
 20 21  2  0  0  0  0
 20 22  1  0  0  0  0
 22 23  1  0  0  0  0
 22 24  1  0  0  0  0
 24 25  1  0  0  0  0
 24 26  1  0  0  0  0
 24 27  1  0  0  0  0
M  CHG  1  18  -1
M  END
$$$$

  -OEChem-04042215583D

 27 26  0     1  0  0  0  0  0999 V2000
   -2.6773   -3.8003    0.4703 H   0  0  0  0  0  0  0  0  0  0  0  0
   -2.6026   -2.8259   -0.0204 C   0  0  0  0  0  0  0  0  0  0  0  0
   -3.1818   -2.0985    0.5544 H   0  0  0  0  0  0  0  0  0  0  0  0
   -3.0227   -2.9026   -1.0262 H   0  0  0  0  0  0  0  0  0  0  0  0
   -1.1518   -2.3851   -0.0960 C   0  0  0  0  0  0  0  0  0  0  0  0
   -0.2681   -3.1459    0.2641 O   0  0  0  0  0  0  0  0  0  0  0  0
   -0.8539   -1.1455   -0.6204 N   0  0  0  0  0  0  0  0  0  0  0  0
   -1.6556   -0.5441   -0.7899 H   0  0  0  0  0  0  0  0  0  0  0  0
    0.4170   -0.4494   -0.3646 C   0  0  1  0  0  0  0  0  0  0  0  0
    1.2124   -1.1482   -0.6467 H   0  0  0  0  0  0  0  0  0  0  0  0
    0.5303    0.7157   -1.3736 C   0  0  0  0  0  0  0  0  0  0  0  0
    1.4918    1.2199   -1.2262 H   0  0  0  0  0  0  0  0  0  0  0  0
    0.5402    0.2893   -2.3816 H   0  0  0  0  0  0  0  0  0  0  0  0
   -0.5983    1.7693   -1.3140 C   0  0  0  0  0  0  0  0  0  0  0  0
   -0.5359    2.3735   -2.2237 H   0  0  0  0  0  0  0  0  0  0  0  0
   -1.5740    1.2765   -1.3328 H   0  0  0  0  0  0  0  0  0  0  0  0
   -0.5394    2.7339   -0.1385 C   0  0  0  0  0  0  0  0  0  0  0  0
    0.3718    3.5911   -0.0954 O   0  5  0  0  0  0  0  0  0  0  0  0
   -1.4325    2.5810    0.7339 O   0  0  0  0  0  0  0  0  0  0  0  0
    0.7464   -0.1229    1.1142 C   0  0  0  0  0  0  0  0  0  0  0  0
    1.8448   -0.4507    1.5540 O   0  0  0  0  0  0  0  0  0  0  0  0
   -0.1891    0.4108    1.9816 N   0  0  0  0  0  0  0  0  0  0  0  0
   -0.8867    1.0156    1.5303 H   0  0  0  0  0  0  0  0  0  0  0  0
    0.1598    0.7717    3.3472 C   0  0  0  0  0  0  0  0  0  0  0  0
    0.9334    1.5464    3.3508 H   0  0  0  0  0  0  0  0  0  0  0  0
   -0.7218    1.1588    3.8663 H   0  0  0  0  0  0  0  0  0  0  0  0
    0.5277   -0.1015    3.8956 H   0  0  0  0  0  0  0  0  0  0  0  0
  1  2  1  0  0  0  0
  2  3  1  0  0  0  0
  2  4  1  0  0  0  0
  2  5  1  0  0  0  0
  5  6  2  0  0  0  0
  5  7  1  0  0  0  0
  7  8  1  0  0  0  0
  7  9  1  0  0  0  0
  9 10  1  0  0  0  0
  9 11  1  0  0  0  0
  9 20  1  0  0  0  0
 11 12  1  0  0  0  0
 11 13  1  0  0  0  0
 11 14  1  0  0  0  0
 14 15  1  0  0  0  0
 14 16  1  0  0  0  0
 14 17  1  0  0  0  0
 17 18  1  0  0  0  0
 17 19  2  0  0  0  0
 20 21  2  0  0  0  0
 20 22  1  0  0  0  0
 22 23  1  0  0  0  0
 22 24  1  0  0  0  0
 24 25  1  0  0  0  0
 24 26  1  0  0  0  0
 24 27  1  0  0  0  0
M  CHG  1  18  -1
M  END
$$$$

  -OEChem-04042215583D

 27 26  0     1  0  0  0  0  0999 V2000
   -2.6661   -3.7919    0.4941 H   0  0  0  0  0  0  0  0  0  0  0  0
   -2.5850   -2.8249   -0.0102 C   0  0  0  0  0  0  0  0  0  0  0  0
   -3.1751   -2.0900    0.5433 H   0  0  0  0  0  0  0  0  0  0  0  0
   -2.9881   -2.9185   -1.0216 H   0  0  0  0  0  0  0  0  0  0  0  0
   -1.1334   -2.3828   -0.0689 C   0  0  0  0  0  0  0  0  0  0  0  0
   -0.2575   -3.1287    0.3374 O   0  0  0  0  0  0  0  0  0  0  0  0
   -0.8241   -1.1641   -0.6347 N   0  0  0  0  0  0  0  0  0  0  0  0
   -1.6196   -0.5725   -0.8557 H   0  0  0  0  0  0  0  0  0  0  0  0
    0.4477   -0.4634   -0.3907 C   0  0  1  0  0  0  0  0  0  0  0  0
    1.2540   -1.1520   -0.6662 H   0  0  0  0  0  0  0  0  0  0  0  0
    0.5251    0.7147   -1.3860 C   0  0  0  0  0  0  0  0  0  0  0  0
    1.4875    1.2260   -1.2706 H   0  0  0  0  0  0  0  0  0  0  0  0
    0.5034    0.2985   -2.3981 H   0  0  0  0  0  0  0  0  0  0  0  0
   -0.6226    1.7450   -1.2676 C   0  0  0  0  0  0  0  0  0  0  0  0
   -0.7683    2.1944   -2.2541 H   0  0  0  0  0  0  0  0  0  0  0  0
   -1.5649    1.2577   -1.0051 H   0  0  0  0  0  0  0  0  0  0  0  0
   -0.3525    2.8903   -0.3001 C   0  0  0  0  0  0  0  0  0  0  0  0
    0.5216    3.7403   -0.5868 O   0  5  0  0  0  0  0  0  0  0  0  0
   -1.0578    2.8973    0.7401 O   0  0  0  0  0  0  0  0  0  0  0  0
    0.7517   -0.0894    1.0815 C   0  0  0  0  0  0  0  0  0  0  0  0
    1.8222   -0.4444    1.5659 O   0  0  0  0  0  0  0  0  0  0  0  0
   -0.2049    0.4768    1.9053 N   0  0  0  0  0  0  0  0  0  0  0  0
   -0.8114    1.1541    1.4269 H   0  0  0  0  0  0  0  0  0  0  0  0
    0.0907    0.7964    3.2935 C   0  0  0  0  0  0  0  0  0  0  0  0
    0.9017    1.5296    3.3520 H   0  0  0  0  0  0  0  0  0  0  0  0
   -0.7960    1.2203    3.7738 H   0  0  0  0  0  0  0  0  0  0  0  0
    0.3839   -0.1041    3.8425 H   0  0  0  0  0  0  0  0  0  0  0  0
  1  2  1  0  0  0  0
  2  3  1  0  0  0  0
  2  4  1  0  0  0  0
  2  5  1  0  0  0  0
  5  6  2  0  0  0  0
  5  7  1  0  0  0  0
  7  8  1  0  0  0  0
  7  9  1  0  0  0  0
  9 10  1  0  0  0  0
  9 11  1  0  0  0  0
  9 20  1  0  0  0  0
 11 12  1  0  0  0  0
 11 13  1  0  0  0  0
 11 14  1  0  0  0  0
 14 15  1  0  0  0  0
 14 16  1  0  0  0  0
 14 17  1  0  0  0  0
 17 18  1  0  0  0  0
 17 19  2  0  0  0  0
 20 21  2  0  0  0  0
 20 22  1  0  0  0  0
 22 23  1  0  0  0  0
 22 24  1  0  0  0  0
 24 25  1  0  0  0  0
 24 26  1  0  0  0  0
 24 27  1  0  0  0  0
M  CHG  1  18  -1
M  END
$$$$

  -OEChem-04042215583D

 27 26  0     1  0  0  0  0  0999 V2000
   -2.6809   -3.7888    0.4692 H   0  0  0  0  0  0  0  0  0  0  0  0
   -2.5817   -2.8282   -0.0439 C   0  0  0  0  0  0  0  0  0  0  0  0
   -3.1935   -2.0870    0.4766 H   0  0  0  0  0  0  0  0  0  0  0  0
   -2.9451   -2.9359   -1.0687 H   0  0  0  0  0  0  0  0  0  0  0  0
   -1.1297   -2.3845   -0.0524 C   0  0  0  0  0  0  0  0  0  0  0  0
   -0.2718   -3.1131    0.4180 O   0  0  0  0  0  0  0  0  0  0  0  0
   -0.7970   -1.1869   -0.6486 N   0  0  0  0  0  0  0  0  0  0  0  0
   -1.5791   -0.6045   -0.9320 H   0  0  0  0  0  0  0  0  0  0  0  0
    0.4741   -0.4861   -0.3990 C   0  0  1  0  0  0  0  0  0  0  0  0
    1.2906   -1.1655   -0.6661 H   0  0  0  0  0  0  0  0  0  0  0  0
    0.5210    0.7019   -1.3811 C   0  0  0  0  0  0  0  0  0  0  0  0
    1.4757    1.2288   -1.2731 H   0  0  0  0  0  0  0  0  0  0  0  0
    0.4904    0.3043   -2.4005 H   0  0  0  0  0  0  0  0  0  0  0  0
   -0.6519    1.6982   -1.2095 C   0  0  0  0  0  0  0  0  0  0  0  0
   -1.0187    1.9630   -2.2055 H   0  0  0  0  0  0  0  0  0  0  0  0
   -1.4935    1.2472   -0.6771 H   0  0  0  0  0  0  0  0  0  0  0  0
   -0.2559    2.9958   -0.5178 C   0  0  0  0  0  0  0  0  0  0  0  0
    0.4302    3.8386   -1.1418 O   0  5  0  0  0  0  0  0  0  0  0  0
   -0.6784    3.1280    0.6577 O   0  0  0  0  0  0  0  0  0  0  0  0
    0.7599   -0.0610    1.0632 C   0  0  0  0  0  0  0  0  0  0  0  0
    1.8096   -0.4280    1.5823 O   0  0  0  0  0  0  0  0  0  0  0  0
   -0.2066    0.5437    1.8482 N   0  0  0  0  0  0  0  0  0  0  0  0
   -0.7393    1.2598    1.3413 H   0  0  0  0  0  0  0  0  0  0  0  0
    0.0576    0.8645    3.2429 C   0  0  0  0  0  0  0  0  0  0  0  0
    0.8990    1.5606    3.3219 H   0  0  0  0  0  0  0  0  0  0  0  0
   -0.8237    1.3335    3.6899 H   0  0  0  0  0  0  0  0  0  0  0  0
    0.2910   -0.0427    3.8095 H   0  0  0  0  0  0  0  0  0  0  0  0
  1  2  1  0  0  0  0
  2  3  1  0  0  0  0
  2  4  1  0  0  0  0
  2  5  1  0  0  0  0
  5  6  2  0  0  0  0
  5  7  1  0  0  0  0
  7  8  1  0  0  0  0
  7  9  1  0  0  0  0
  9 10  1  0  0  0  0
  9 11  1  0  0  0  0
  9 20  1  0  0  0  0
 11 12  1  0  0  0  0
 11 13  1  0  0  0  0
 11 14  1  0  0  0  0
 14 15  1  0  0  0  0
 14 16  1  0  0  0  0
 14 17  1  0  0  0  0
 17 18  1  0  0  0  0
 17 19  2  0  0  0  0
 20 21  2  0  0  0  0
 20 22  1  0  0  0  0
 22 23  1  0  0  0  0
 22 24  1  0  0  0  0
 24 25  1  0  0  0  0
 24 26  1  0  0  0  0
 24 27  1  0  0  0  0
M  CHG  1  18  -1
M  END
$$$$

  -OEChem-04042215583D

 27 26  0     1  0  0  0  0  0999 V2000
   -2.7230   -3.8127    0.3712 H   0  0  0  0  0  0  0  0  0  0  0  0
   -2.5995   -2.8545   -0.1413 C   0  0  0  0  0  0  0  0  0  0  0  0
   -3.2496   -2.1155    0.3339 H   0  0  0  0  0  0  0  0  0  0  0  0
   -2.8964   -2.9722   -1.1863 H   0  0  0  0  0  0  0  0  0  0  0  0
   -1.1533   -2.3982   -0.0614 C   0  0  0  0  0  0  0  0  0  0  0  0
   -0.3242   -3.1069    0.4842 O   0  0  0  0  0  0  0  0  0  0  0  0
   -0.7910   -1.2073   -0.6532 N   0  0  0  0  0  0  0  0  0  0  0  0
   -1.5495   -0.6371   -1.0153 H   0  0  0  0  0  0  0  0  0  0  0  0
    0.4793   -0.5134   -0.3831 C   0  0  1  0  0  0  0  0  0  0  0  0
    1.2996   -1.1884   -0.6499 H   0  0  0  0  0  0  0  0  0  0  0  0
    0.5148    0.6861   -1.3489 C   0  0  0  0  0  0  0  0  0  0  0  0
    1.4610    1.2233   -1.2167 H   0  0  0  0  0  0  0  0  0  0  0  0
    0.4989    0.3174   -2.3796 H   0  0  0  0  0  0  0  0  0  0  0  0
   -0.6759    1.6559   -1.1438 C   0  0  0  0  0  0  0  0  0  0  0  0
   -1.2303    1.7193   -2.0847 H   0  0  0  0  0  0  0  0  0  0  0  0
   -1.3825    1.2874   -0.3969 H   0  0  0  0  0  0  0  0  0  0  0  0
   -0.2425    3.0657   -0.7675 C   0  0  0  0  0  0  0  0  0  0  0  0
    0.2432    3.8113   -1.6507 O   0  5  0  0  0  0  0  0  0  0  0  0
   -0.4355    3.3862    0.4312 O   0  0  0  0  0  0  0  0  0  0  0  0
    0.7637   -0.0695    1.0747 C   0  0  0  0  0  0  0  0  0  0  0  0
    1.8263   -0.3999    1.5916 O   0  0  0  0  0  0  0  0  0  0  0  0
   -0.1979    0.5568    1.8490 N   0  0  0  0  0  0  0  0  0  0  0  0
   -0.7903    1.1913    1.3116 H   0  0  0  0  0  0  0  0  0  0  0  0
    0.0948    0.9873    3.2084 C   0  0  0  0  0  0  0  0  0  0  0  0
    0.9045    1.7246    3.2091 H   0  0  0  0  0  0  0  0  0  0  0  0
   -0.7931    1.4461    3.6533 H   0  0  0  0  0  0  0  0  0  0  0  0
    0.3893    0.1345    3.8284 H   0  0  0  0  0  0  0  0  0  0  0  0
  1  2  1  0  0  0  0
  2  3  1  0  0  0  0
  2  4  1  0  0  0  0
  2  5  1  0  0  0  0
  5  6  2  0  0  0  0
  5  7  1  0  0  0  0
  7  8  1  0  0  0  0
  7  9  1  0  0  0  0
  9 10  1  0  0  0  0
  9 11  1  0  0  0  0
  9 20  1  0  0  0  0
 11 12  1  0  0  0  0
 11 13  1  0  0  0  0
 11 14  1  0  0  0  0
 14 15  1  0  0  0  0
 14 16  1  0  0  0  0
 14 17  1  0  0  0  0
 17 18  1  0  0  0  0
 17 19  2  0  0  0  0
 20 21  2  0  0  0  0
 20 22  1  0  0  0  0
 22 23  1  0  0  0  0
 22 24  1  0  0  0  0
 24 25  1  0  0  0  0
 24 26  1  0  0  0  0
 24 27  1  0  0  0  0
M  CHG  1  18  -1
M  END
$$$$

  -OEChem-04042215583D

 27 26  0     1  0  0  0  0  0999 V2000
   -2.6991   -3.8767    0.3151 H   0  0  0  0  0  0  0  0  0  0  0  0
   -2.5880   -2.9177   -0.1989 C   0  0  0  0  0  0  0  0  0  0  0  0
   -3.2911   -2.2027    0.2357 H   0  0  0  0  0  0  0  0  0  0  0  0
   -2.8252   -3.0548   -1.2568 H   0  0  0  0  0  0  0  0  0  0  0  0
   -1.1672   -2.4037   -0.0489 C   0  0  0  0  0  0  0  0  0  0  0  0
   -0.3387   -3.0785    0.5385 O   0  0  0  0  0  0  0  0  0  0  0  0
   -0.8238   -1.1925   -0.6105 N   0  0  0  0  0  0  0  0  0  0  0  0
   -1.5705   -0.6556   -1.0423 H   0  0  0  0  0  0  0  0  0  0  0  0
    0.4480   -0.4929   -0.3660 C   0  0  1  0  0  0  0  0  0  0  0  0
    1.2615   -1.1665   -0.6567 H   0  0  0  0  0  0  0  0  0  0  0  0
    0.4766    0.7053   -1.3341 C   0  0  0  0  0  0  0  0  0  0  0  0
    1.4250    1.2350   -1.1871 H   0  0  0  0  0  0  0  0  0  0  0  0
    0.4693    0.3473   -2.3686 H   0  0  0  0  0  0  0  0  0  0  0  0
   -0.6980    1.6934   -1.1340 C   0  0  0  0  0  0  0  0  0  0  0  0
   -1.4197    1.5484   -1.9429 H   0  0  0  0  0  0  0  0  0  0  0  0
   -1.2312    1.4987   -0.2031 H   0  0  0  0  0  0  0  0  0  0  0  0
   -0.2515    3.1527   -1.1424 C   0  0  0  0  0  0  0  0  0  0  0  0
    0.2082    3.6216   -2.2116 O   0  5  0  0  0  0  0  0  0  0  0  0
   -0.4193    3.8020   -0.0816 O   0  0  0  0  0  0  0  0  0  0  0  0
    0.7606   -0.0978    1.0985 C   0  0  0  0  0  0  0  0  0  0  0  0
    1.8757   -0.3243    1.5555 O   0  0  0  0  0  0  0  0  0  0  0  0
   -0.1949    0.4839    1.9129 N   0  0  0  0  0  0  0  0  0  0  0  0
   -0.9676    0.9162    1.4154 H   0  0  0  0  0  0  0  0  0  0  0  0
    0.1358    1.0270    3.2221 C   0  0  0  0  0  0  0  0  0  0  0  0
    0.8654    1.8377    3.1254 H   0  0  0  0  0  0  0  0  0  0  0  0
   -0.7639    1.4245    3.7006 H   0  0  0  0  0  0  0  0  0  0  0  0
    0.5532    0.2478    3.8681 H   0  0  0  0  0  0  0  0  0  0  0  0
  1  2  1  0  0  0  0
  2  3  1  0  0  0  0
  2  4  1  0  0  0  0
  2  5  1  0  0  0  0
  5  6  2  0  0  0  0
  5  7  1  0  0  0  0
  7  8  1  0  0  0  0
  7  9  1  0  0  0  0
  9 10  1  0  0  0  0
  9 11  1  0  0  0  0
  9 20  1  0  0  0  0
 11 12  1  0  0  0  0
 11 13  1  0  0  0  0
 11 14  1  0  0  0  0
 14 15  1  0  0  0  0
 14 16  1  0  0  0  0
 14 17  1  0  0  0  0
 17 18  1  0  0  0  0
 17 19  2  0  0  0  0
 20 21  2  0  0  0  0
 20 22  1  0  0  0  0
 22 23  1  0  0  0  0
 22 24  1  0  0  0  0
 24 25  1  0  0  0  0
 24 26  1  0  0  0  0
 24 27  1  0  0  0  0
M  CHG  1  18  -1
M  END
$$$$

  -OEChem-04042215583D

 27 26  0     1  0  0  0  0  0999 V2000
   -2.6686   -3.9036    0.3034 H   0  0  0  0  0  0  0  0  0  0  0  0
   -2.5674   -2.9421   -0.2077 C   0  0  0  0  0  0  0  0  0  0  0  0
   -3.2947   -2.2427    0.2118 H   0  0  0  0  0  0  0  0  0  0  0  0
   -2.7794   -3.0834   -1.2703 H   0  0  0  0  0  0  0  0  0  0  0  0
   -1.1616   -2.3974   -0.0284 C   0  0  0  0  0  0  0  0  0  0  0  0
   -0.3324   -3.0486    0.5841 O   0  0  0  0  0  0  0  0  0  0  0  0
   -0.8354   -1.1781   -0.5824 N   0  0  0  0  0  0  0  0  0  0  0  0
   -1.5752   -0.6695   -1.0586 H   0  0  0  0  0  0  0  0  0  0  0  0
    0.4363   -0.4697   -0.3664 C   0  0  1  0  0  0  0  0  0  0  0  0
    1.2473   -1.1385   -0.6742 H   0  0  0  0  0  0  0  0  0  0  0  0
    0.4422    0.7254   -1.3395 C   0  0  0  0  0  0  0  0  0  0  0  0
    1.3891    1.2597   -1.2012 H   0  0  0  0  0  0  0  0  0  0  0  0
    0.4248    0.3669   -2.3740 H   0  0  0  0  0  0  0  0  0  0  0  0
   -0.7260    1.7167   -1.1308 C   0  0  0  0  0  0  0  0  0  0  0  0
   -1.5816    1.3969   -1.7321 H   0  0  0  0  0  0  0  0  0  0  0  0
   -1.0480    1.7283   -0.0897 H   0  0  0  0  0  0  0  0  0  0  0  0
   -0.3510    3.1456   -1.5213 C   0  0  0  0  0  0  0  0  0  0  0  0
    0.0298    3.3454   -2.7007 O   0  5  0  0  0  0  0  0  0  0  0  0
   -0.5057    4.0389   -0.6535 O   0  0  0  0  0  0  0  0  0  0  0  0
    0.7689   -0.0949    1.0980 C   0  0  0  0  0  0  0  0  0  0  0  0
    1.9050   -0.2673    1.5247 O   0  0  0  0  0  0  0  0  0  0  0  0
   -0.1838    0.4616    1.9326 N   0  0  0  0  0  0  0  0  0  0  0  0
   -1.0200    0.8019    1.4689 H   0  0  0  0  0  0  0  0  0  0  0  0
    0.1434    1.0102    3.2404 C   0  0  0  0  0  0  0  0  0  0  0  0
    0.8505    1.8401    3.1401 H   0  0  0  0  0  0  0  0  0  0  0  0
   -0.7625    1.3820    3.7281 H   0  0  0  0  0  0  0  0  0  0  0  0
    0.5876    0.2399    3.8791 H   0  0  0  0  0  0  0  0  0  0  0  0
  1  2  1  0  0  0  0
  2  3  1  0  0  0  0
  2  4  1  0  0  0  0
  2  5  1  0  0  0  0
  5  6  2  0  0  0  0
  5  7  1  0  0  0  0
  7  8  1  0  0  0  0
  7  9  1  0  0  0  0
  9 10  1  0  0  0  0
  9 11  1  0  0  0  0
  9 20  1  0  0  0  0
 11 12  1  0  0  0  0
 11 13  1  0  0  0  0
 11 14  1  0  0  0  0
 14 15  1  0  0  0  0
 14 16  1  0  0  0  0
 14 17  1  0  0  0  0
 17 18  1  0  0  0  0
 17 19  2  0  0  0  0
 20 21  2  0  0  0  0
 20 22  1  0  0  0  0
 22 23  1  0  0  0  0
 22 24  1  0  0  0  0
 24 25  1  0  0  0  0
 24 26  1  0  0  0  0
 24 27  1  0  0  0  0
M  CHG  1  18  -1
M  END
$$$$

  -OEChem-04042215583D

 27 26  0     1  0  0  0  0  0999 V2000
   -2.6486   -3.9337    0.2704 H   0  0  0  0  0  0  0  0  0  0  0  0
   -2.5565   -2.9618   -0.2225 C   0  0  0  0  0  0  0  0  0  0  0  0
   -3.3057   -2.2839    0.1939 H   0  0  0  0  0  0  0  0  0  0  0  0
   -2.7455   -3.0897   -1.2913 H   0  0  0  0  0  0  0  0  0  0  0  0
   -1.1654   -2.3924   -0.0063 C   0  0  0  0  0  0  0  0  0  0  0  0
   -0.3462   -3.0219    0.6412 O   0  0  0  0  0  0  0  0  0  0  0  0
   -0.8408   -1.1747   -0.5648 N   0  0  0  0  0  0  0  0  0  0  0  0
   -1.5639   -0.6958   -1.0952 H   0  0  0  0  0  0  0  0  0  0  0  0
    0.4345   -0.4652   -0.3718 C   0  0  1  0  0  0  0  0  0  0  0  0
    1.2431   -1.1305   -0.6928 H   0  0  0  0  0  0  0  0  0  0  0  0
    0.4196    0.7359   -1.3383 C   0  0  0  0  0  0  0  0  0  0  0  0
    1.3677    1.2736   -1.2269 H   0  0  0  0  0  0  0  0  0  0  0  0
    0.3723    0.3750   -2.3714 H   0  0  0  0  0  0  0  0  0  0  0  0
   -0.7426    1.7256   -1.0991 C   0  0  0  0  0  0  0  0  0  0  0  0
   -1.6809    1.2890   -1.4516 H   0  0  0  0  0  0  0  0  0  0  0  0
   -0.8511    1.9380   -0.0350 H   0  0  0  0  0  0  0  0  0  0  0  0
   -0.5143    3.0553   -1.8180 C   0  0  0  0  0  0  0  0  0  0  0  0
   -0.3423    3.0173   -3.0613 O   0  5  0  0  0  0  0  0  0  0  0  0
   -0.5822    4.1049   -1.1337 O   0  0  0  0  0  0  0  0  0  0  0  0
    0.7787   -0.0930    1.0898 C   0  0  0  0  0  0  0  0  0  0  0  0
    1.9246   -0.2326    1.5020 O   0  0  0  0  0  0  0  0  0  0  0  0
   -0.1740    0.4594    1.9267 N   0  0  0  0  0  0  0  0  0  0  0  0
   -1.0321    0.7560    1.4729 H   0  0  0  0  0  0  0  0  0  0  0  0
    0.1468    1.0168    3.2323 C   0  0  0  0  0  0  0  0  0  0  0  0
    0.8210    1.8731    3.1266 H   0  0  0  0  0  0  0  0  0  0  0  0
   -0.7674    1.3520    3.7309 H   0  0  0  0  0  0  0  0  0  0  0  0
    0.6269    0.2630    3.8647 H   0  0  0  0  0  0  0  0  0  0  0  0
  1  2  1  0  0  0  0
  2  3  1  0  0  0  0
  2  4  1  0  0  0  0
  2  5  1  0  0  0  0
  5  6  2  0  0  0  0
  5  7  1  0  0  0  0
  7  8  1  0  0  0  0
  7  9  1  0  0  0  0
  9 10  1  0  0  0  0
  9 11  1  0  0  0  0
  9 20  1  0  0  0  0
 11 12  1  0  0  0  0
 11 13  1  0  0  0  0
 11 14  1  0  0  0  0
 14 15  1  0  0  0  0
 14 16  1  0  0  0  0
 14 17  1  0  0  0  0
 17 18  1  0  0  0  0
 17 19  2  0  0  0  0
 20 21  2  0  0  0  0
 20 22  1  0  0  0  0
 22 23  1  0  0  0  0
 22 24  1  0  0  0  0
 24 25  1  0  0  0  0
 24 26  1  0  0  0  0
 24 27  1  0  0  0  0
M  CHG  1  18  -1
M  END
$$$$

  -OEChem-04042215583D

 27 26  0     1  0  0  0  0  0999 V2000
   -2.6141   -3.9371    0.2304 H   0  0  0  0  0  0  0  0  0  0  0  0
   -2.5290   -2.9534   -0.2395 C   0  0  0  0  0  0  0  0  0  0  0  0
   -3.2829   -2.2902    0.1918 H   0  0  0  0  0  0  0  0  0  0  0  0
   -2.7166   -3.0572   -1.3111 H   0  0  0  0  0  0  0  0  0  0  0  0
   -1.1425   -2.3790   -0.0104 C   0  0  0  0  0  0  0  0  0  0  0  0
   -0.3240   -3.0083    0.6384 O   0  0  0  0  0  0  0  0  0  0  0  0
   -0.8205   -1.1574   -0.5613 N   0  0  0  0  0  0  0  0  0  0  0  0
   -1.5412   -0.6829   -1.1001 H   0  0  0  0  0  0  0  0  0  0  0  0
    0.4535   -0.4466   -0.3652 C   0  0  1  0  0  0  0  0  0  0  0  0
    1.2610   -1.1092   -0.6939 H   0  0  0  0  0  0  0  0  0  0  0  0
    0.4143    0.7487   -1.3375 C   0  0  0  0  0  0  0  0  0  0  0  0
    1.4300    1.1481   -1.4318 H   0  0  0  0  0  0  0  0  0  0  0  0
    0.1097    0.4036   -2.3317 H   0  0  0  0  0  0  0  0  0  0  0  0
   -0.5102    1.8960   -0.8871 C   0  0  0  0  0  0  0  0  0  0  0  0
   -1.5352    1.5331   -0.7694 H   0  0  0  0  0  0  0  0  0  0  0  0
   -0.1790    2.2970    0.0739 H   0  0  0  0  0  0  0  0  0  0  0  0
   -0.4938    3.0331   -1.9061 C   0  0  0  0  0  0  0  0  0  0  0  0
   -1.1693    2.8591   -2.9508 O   0  5  0  0  0  0  0  0  0  0  0  0
    0.1664    4.0657   -1.6397 O   0  0  0  0  0  0  0  0  0  0  0  0
    0.7924   -0.0857    1.0998 C   0  0  0  0  0  0  0  0  0  0  0  0
    1.9342   -0.2298    1.5214 O   0  0  0  0  0  0  0  0  0  0  0  0
   -0.1715    0.4572    1.9308 N   0  0  0  0  0  0  0  0  0  0  0  0
   -1.0283    0.7486    1.4713 H   0  0  0  0  0  0  0  0  0  0  0  0
    0.1310    0.9974    3.2474 C   0  0  0  0  0  0  0  0  0  0  0  0
    0.8239    1.8409    3.1646 H   0  0  0  0  0  0  0  0  0  0  0  0
   -0.7867    1.3470    3.7292 H   0  0  0  0  0  0  0  0  0  0  0  0
    0.5822    0.2281    3.8824 H   0  0  0  0  0  0  0  0  0  0  0  0
  1  2  1  0  0  0  0
  2  3  1  0  0  0  0
  2  4  1  0  0  0  0
  2  5  1  0  0  0  0
  5  6  2  0  0  0  0
  5  7  1  0  0  0  0
  7  8  1  0  0  0  0
  7  9  1  0  0  0  0
  9 10  1  0  0  0  0
  9 11  1  0  0  0  0
  9 20  1  0  0  0  0
 11 12  1  0  0  0  0
 11 13  1  0  0  0  0
 11 14  1  0  0  0  0
 14 15  1  0  0  0  0
 14 16  1  0  0  0  0
 14 17  1  0  0  0  0
 17 18  1  0  0  0  0
 17 19  2  0  0  0  0
 20 21  2  0  0  0  0
 20 22  1  0  0  0  0
 22 23  1  0  0  0  0
 22 24  1  0  0  0  0
 24 25  1  0  0  0  0
 24 26  1  0  0  0  0
 24 27  1  0  0  0  0
M  CHG  1  18  -1
M  END
$$$$

  -OEChem-04042215583D

 27 26  0     1  0  0  0  0  0999 V2000
   -2.7689   -3.8465    0.3393 H   0  0  0  0  0  0  0  0  0  0  0  0
   -2.6593   -2.8774   -0.1557 C   0  0  0  0  0  0  0  0  0  0  0  0
   -3.3740   -2.1754    0.2812 H   0  0  0  0  0  0  0  0  0  0  0  0
   -2.8825   -2.9975   -1.2188 H   0  0  0  0  0  0  0  0  0  0  0  0
   -1.2452   -2.3538    0.0215 C   0  0  0  0  0  0  0  0  0  0  0  0
   -0.4316   -3.0045    0.6558 O   0  0  0  0  0  0  0  0  0  0  0  0
   -0.8935   -1.1509   -0.5515 N   0  0  0  0  0  0  0  0  0  0  0  0
   -1.6086   -0.6568   -1.0819 H   0  0  0  0  0  0  0  0  0  0  0  0
    0.4158   -0.4924   -0.4109 C   0  0  1  0  0  0  0  0  0  0  0  0
    1.1822   -1.1850   -0.7742 H   0  0  0  0  0  0  0  0  0  0  0  0
    0.3783    0.7105   -1.3713 C   0  0  0  0  0  0  0  0  0  0  0  0
    1.3989    1.0763   -1.5264 H   0  0  0  0  0  0  0  0  0  0  0  0
    0.0035    0.3782   -2.3459 H   0  0  0  0  0  0  0  0  0  0  0  0
   -0.4820    1.8803   -0.8545 C   0  0  0  0  0  0  0  0  0  0  0  0
   -1.4316    1.5121   -0.4567 H   0  0  0  0  0  0  0  0  0  0  0  0
    0.0413    2.4009   -0.0469 H   0  0  0  0  0  0  0  0  0  0  0  0
   -0.7872    2.8688   -1.9768 C   0  0  0  0  0  0  0  0  0  0  0  0
   -0.1778    3.9647   -1.9948 O   0  5  0  0  0  0  0  0  0  0  0  0
   -1.6482    2.5079   -2.8182 O   0  0  0  0  0  0  0  0  0  0  0  0
    0.8313   -0.1337    1.0345 C   0  0  0  0  0  0  0  0  0  0  0  0
    1.9894   -0.2981    1.4014 O   0  0  0  0  0  0  0  0  0  0  0  0
   -0.0733    0.4563    1.8989 N   0  0  0  0  0  0  0  0  0  0  0  0
   -0.9472    0.7553    1.4779 H   0  0  0  0  0  0  0  0  0  0  0  0
    0.3027    1.0036    3.1934 C   0  0  0  0  0  0  0  0  0  0  0  0
    1.0056    1.8333    3.0671 H   0  0  0  0  0  0  0  0  0  0  0  0
   -0.5843    1.3745    3.7151 H   0  0  0  0  0  0  0  0  0  0  0  0
    0.7711    0.2330    3.8143 H   0  0  0  0  0  0  0  0  0  0  0  0
  1  2  1  0  0  0  0
  2  3  1  0  0  0  0
  2  4  1  0  0  0  0
  2  5  1  0  0  0  0
  5  6  2  0  0  0  0
  5  7  1  0  0  0  0
  7  8  1  0  0  0  0
  7  9  1  0  0  0  0
  9 10  1  0  0  0  0
  9 11  1  0  0  0  0
  9 20  1  0  0  0  0
 11 12  1  0  0  0  0
 11 13  1  0  0  0  0
 11 14  1  0  0  0  0
 14 15  1  0  0  0  0
 14 16  1  0  0  0  0
 14 17  1  0  0  0  0
 17 18  1  0  0  0  0
 17 19  2  0  0  0  0
 20 21  2  0  0  0  0
 20 22  1  0  0  0  0
 22 23  1  0  0  0  0
 22 24  1  0  0  0  0
 24 25  1  0  0  0  0
 24 26  1  0  0  0  0
 24 27  1  0  0  0  0
M  CHG  1  18  -1
M  END
$$$$

  -OEChem-04042215583D

 27 26  0     1  0  0  0  0  0999 V2000
   -2.8000   -3.8256    0.3380 H   0  0  0  0  0  0  0  0  0  0  0  0
   -2.6736   -2.8656   -0.1701 C   0  0  0  0  0  0  0  0  0  0  0  0
   -3.3939   -2.1525    0.2387 H   0  0  0  0  0  0  0  0  0  0  0  0
   -2.8735   -3.0013   -1.2360 H   0  0  0  0  0  0  0  0  0  0  0  0
   -1.2610   -2.3462    0.0291 C   0  0  0  0  0  0  0  0  0  0  0  0
   -0.4598   -2.9954    0.6812 O   0  0  0  0  0  0  0  0  0  0  0  0
   -0.8956   -1.1480   -0.5441 N   0  0  0  0  0  0  0  0  0  0  0  0
   -1.6014   -0.6519   -1.0886 H   0  0  0  0  0  0  0  0  0  0  0  0
    0.4156   -0.4962   -0.3946 C   0  0  1  0  0  0  0  0  0  0  0  0
    1.1793   -1.1956   -0.7502 H   0  0  0  0  0  0  0  0  0  0  0  0
    0.3870    0.6972   -1.3647 C   0  0  0  0  0  0  0  0  0  0  0  0
    1.4075    1.0620   -1.5215 H   0  0  0  0  0  0  0  0  0  0  0  0
    0.0193    0.3501   -2.3371 H   0  0  0  0  0  0  0  0  0  0  0  0
   -0.4777    1.8709   -0.8595 C   0  0  0  0  0  0  0  0  0  0  0  0
   -1.3090    1.5073   -0.2500 H   0  0  0  0  0  0  0  0  0  0  0  0
    0.1257    2.5379   -0.2361 H   0  0  0  0  0  0  0  0  0  0  0  0
   -1.0805    2.6433   -2.0288 C   0  0  0  0  0  0  0  0  0  0  0  0
   -0.6199    3.7751   -2.3100 O   0  5  0  0  0  0  0  0  0  0  0  0
   -2.0194    2.0720   -2.6401 O   0  0  0  0  0  0  0  0  0  0  0  0
    0.8320   -0.1291    1.0483 C   0  0  0  0  0  0  0  0  0  0  0  0
    1.9946   -0.2778    1.4079 O   0  0  0  0  0  0  0  0  0  0  0  0
   -0.0660    0.4726    1.9112 N   0  0  0  0  0  0  0  0  0  0  0  0
   -0.9561    0.7410    1.5033 H   0  0  0  0  0  0  0  0  0  0  0  0
    0.3120    1.0266    3.2020 C   0  0  0  0  0  0  0  0  0  0  0  0
    1.0132    1.8569    3.0706 H   0  0  0  0  0  0  0  0  0  0  0  0
   -0.5742    1.3981    3.7246 H   0  0  0  0  0  0  0  0  0  0  0  0
    0.7829    0.2591    3.8246 H   0  0  0  0  0  0  0  0  0  0  0  0
  1  2  1  0  0  0  0
  2  3  1  0  0  0  0
  2  4  1  0  0  0  0
  2  5  1  0  0  0  0
  5  6  2  0  0  0  0
  5  7  1  0  0  0  0
  7  8  1  0  0  0  0
  7  9  1  0  0  0  0
  9 10  1  0  0  0  0
  9 11  1  0  0  0  0
  9 20  1  0  0  0  0
 11 12  1  0  0  0  0
 11 13  1  0  0  0  0
 11 14  1  0  0  0  0
 14 15  1  0  0  0  0
 14 16  1  0  0  0  0
 14 17  1  0  0  0  0
 17 18  1  0  0  0  0
 17 19  2  0  0  0  0
 20 21  2  0  0  0  0
 20 22  1  0  0  0  0
 22 23  1  0  0  0  0
 22 24  1  0  0  0  0
 24 25  1  0  0  0  0
 24 26  1  0  0  0  0
 24 27  1  0  0  0  0
M  CHG  1  18  -1
M  END
$$$$

  -OEChem-04042215583D

 27 26  0     1  0  0  0  0  0999 V2000
   -2.8148   -3.8113    0.3032 H   0  0  0  0  0  0  0  0  0  0  0  0
   -2.6812   -2.8468   -0.1944 C   0  0  0  0  0  0  0  0  0  0  0  0
   -3.4069   -2.1367    0.2101 H   0  0  0  0  0  0  0  0  0  0  0  0
   -2.8662   -2.9721   -1.2644 H   0  0  0  0  0  0  0  0  0  0  0  0
   -1.2717   -2.3292    0.0290 C   0  0  0  0  0  0  0  0  0  0  0  0
   -0.4806   -2.9803    0.6925 O   0  0  0  0  0  0  0  0  0  0  0  0
   -0.8970   -1.1283   -0.5305 N   0  0  0  0  0  0  0  0  0  0  0  0
   -1.5973   -0.6251   -1.0811 H   0  0  0  0  0  0  0  0  0  0  0  0
    0.4134   -0.4795   -0.3665 C   0  0  1  0  0  0  0  0  0  0  0  0
    1.1749   -1.1849   -0.7147 H   0  0  0  0  0  0  0  0  0  0  0  0
    0.3874    0.6925   -1.3593 C   0  0  0  0  0  0  0  0  0  0  0  0
    1.4086    1.0610   -1.5011 H   0  0  0  0  0  0  0  0  0  0  0  0
    0.0493    0.3236   -2.3347 H   0  0  0  0  0  0  0  0  0  0  0  0
   -0.4909    1.8724   -0.8890 C   0  0  0  0  0  0  0  0  0  0  0  0
   -1.1657    1.5761   -0.0842 H   0  0  0  0  0  0  0  0  0  0  0  0
    0.1418    2.6814   -0.5117 H   0  0  0  0  0  0  0  0  0  0  0  0
   -1.3645    2.3703   -2.0348 C   0  0  0  0  0  0  0  0  0  0  0  0
   -1.1253    3.4875   -2.5508 O   0  5  0  0  0  0  0  0  0  0  0  0
   -2.2869    1.5896   -2.3886 O   0  0  0  0  0  0  0  0  0  0  0  0
    0.8351   -0.1170    1.0766 C   0  0  0  0  0  0  0  0  0  0  0  0
    2.0041   -0.2512    1.4221 O   0  0  0  0  0  0  0  0  0  0  0  0
   -0.0523    0.4841    1.9505 N   0  0  0  0  0  0  0  0  0  0  0  0
   -0.9632    0.7177    1.5670 H   0  0  0  0  0  0  0  0  0  0  0  0
    0.3308    1.0236    3.2460 C   0  0  0  0  0  0  0  0  0  0  0  0
    1.0320    1.8550    3.1209 H   0  0  0  0  0  0  0  0  0  0  0  0
   -0.5531    1.3903    3.7761 H   0  0  0  0  0  0  0  0  0  0  0  0
    0.8037    0.2493    3.8587 H   0  0  0  0  0  0  0  0  0  0  0  0
  1  2  1  0  0  0  0
  2  3  1  0  0  0  0
  2  4  1  0  0  0  0
  2  5  1  0  0  0  0
  5  6  2  0  0  0  0
  5  7  1  0  0  0  0
  7  8  1  0  0  0  0
  7  9  1  0  0  0  0
  9 10  1  0  0  0  0
  9 11  1  0  0  0  0
  9 20  1  0  0  0  0
 11 12  1  0  0  0  0
 11 13  1  0  0  0  0
 11 14  1  0  0  0  0
 14 15  1  0  0  0  0
 14 16  1  0  0  0  0
 14 17  1  0  0  0  0
 17 18  1  0  0  0  0
 17 19  2  0  0  0  0
 20 21  2  0  0  0  0
 20 22  1  0  0  0  0
 22 23  1  0  0  0  0
 22 24  1  0  0  0  0
 24 25  1  0  0  0  0
 24 26  1  0  0  0  0
 24 27  1  0  0  0  0
M  CHG  1  18  -1
M  END
$$$$

  -OEChem-04042215583D

 27 26  0     1  0  0  0  0  0999 V2000
   -2.7097   -3.8224    0.2103 H   0  0  0  0  0  0  0  0  0  0  0  0
   -2.5811   -2.8632   -0.2982 C   0  0  0  0  0  0  0  0  0  0  0  0
   -3.3238   -2.1577    0.0833 H   0  0  0  0  0  0  0  0  0  0  0  0
   -2.7453   -3.0040   -1.3695 H   0  0  0  0  0  0  0  0  0  0  0  0
   -1.1834   -2.3215   -0.0585 C   0  0  0  0  0  0  0  0  0  0  0  0
   -0.3702   -2.9812    0.5703 O   0  0  0  0  0  0  0  0  0  0  0  0
   -0.8443   -1.0862   -0.5599 N   0  0  0  0  0  0  0  0  0  0  0  0
   -1.5743   -0.5649   -1.0638 H   0  0  0  0  0  0  0  0  0  0  0  0
    0.4404   -0.3981   -0.3586 C   0  0  1  0  0  0  0  0  0  0  0  0
    1.2275   -1.0673   -0.7208 H   0  0  0  0  0  0  0  0  0  0  0  0
    0.3686    0.7817   -1.3386 C   0  0  0  0  0  0  0  0  0  0  0  0
    1.3759    1.1985   -1.4378 H   0  0  0  0  0  0  0  0  0  0  0  0
    0.0842    0.4198   -2.3340 H   0  0  0  0  0  0  0  0  0  0  0  0
   -0.5675    1.9171   -0.8688 C   0  0  0  0  0  0  0  0  0  0  0  0
   -1.0377    1.7079    0.0905 H   0  0  0  0  0  0  0  0  0  0  0  0
    0.0022    2.8456   -0.7650 H   0  0  0  0  0  0  0  0  0  0  0  0
   -1.6774    2.1031   -1.8961 C   0  0  0  0  0  0  0  0  0  0  0  0
   -2.4730    1.1289   -1.9944 O   0  5  0  0  0  0  0  0  0  0  0  0
   -1.7510    3.1678   -2.5533 O   0  0  0  0  0  0  0  0  0  0  0  0
    0.8438   -0.0813    1.1010 C   0  0  0  0  0  0  0  0  0  0  0  0
    2.0180   -0.1751    1.4429 O   0  0  0  0  0  0  0  0  0  0  0  0
   -0.0649    0.4488    1.9981 N   0  0  0  0  0  0  0  0  0  0  0  0
   -0.9999    0.6192    1.6389 H   0  0  0  0  0  0  0  0  0  0  0  0
    0.2828    0.9084    3.3334 C   0  0  0  0  0  0  0  0  0  0  0  0
    1.0120    1.7232    3.2796 H   0  0  0  0  0  0  0  0  0  0  0  0
   -0.6103    1.2750    3.8480 H   0  0  0  0  0  0  0  0  0  0  0  0
    0.7086    0.0880    3.9202 H   0  0  0  0  0  0  0  0  0  0  0  0
  1  2  1  0  0  0  0
  2  3  1  0  0  0  0
  2  4  1  0  0  0  0
  2  5  1  0  0  0  0
  5  6  2  0  0  0  0
  5  7  1  0  0  0  0
  7  8  1  0  0  0  0
  7  9  1  0  0  0  0
  9 10  1  0  0  0  0
  9 11  1  0  0  0  0
  9 20  1  0  0  0  0
 11 12  1  0  0  0  0
 11 13  1  0  0  0  0
 11 14  1  0  0  0  0
 14 15  1  0  0  0  0
 14 16  1  0  0  0  0
 14 17  1  0  0  0  0
 17 18  1  0  0  0  0
 17 19  2  0  0  0  0
 20 21  2  0  0  0  0
 20 22  1  0  0  0  0
 22 23  1  0  0  0  0
 22 24  1  0  0  0  0
 24 25  1  0  0  0  0
 24 26  1  0  0  0  0
 24 27  1  0  0  0  0
M  CHG  1  18  -1
M  END
$$$$

  -OEChem-04042215583D

 27 26  0     1  0  0  0  0  0999 V2000
   -2.6879   -3.8083    0.3453 H   0  0  0  0  0  0  0  0  0  0  0  0
   -2.5746   -2.8651   -0.1957 C   0  0  0  0  0  0  0  0  0  0  0  0
   -3.2782   -2.1350    0.2131 H   0  0  0  0  0  0  0  0  0  0  0  0
   -2.8093   -3.0285   -1.2506 H   0  0  0  0  0  0  0  0  0  0  0  0
   -1.1556   -2.3443   -0.0589 C   0  0  0  0  0  0  0  0  0  0  0  0
   -0.3024   -3.0248    0.4910 O   0  0  0  0  0  0  0  0  0  0  0  0
   -0.8443   -1.1030   -0.5622 N   0  0  0  0  0  0  0  0  0  0  0  0
   -1.6227   -0.5543   -0.9570 H   0  0  0  0  0  0  0  0  0  0  0  0
    0.4342   -0.4003   -0.3875 C   0  0  1  0  0  0  0  0  0  0  0  0
    1.2211   -1.0657   -0.7569 H   0  0  0  0  0  0  0  0  0  0  0  0
    0.3736    0.7962   -1.3576 C   0  0  0  0  0  0  0  0  0  0  0  0
    1.3903    1.1932   -1.4410 H   0  0  0  0  0  0  0  0  0  0  0  0
    0.0882    0.4539   -2.3591 H   0  0  0  0  0  0  0  0  0  0  0  0
   -0.5396    1.9574   -0.9033 C   0  0  0  0  0  0  0  0  0  0  0  0
   -0.7758    1.9272    0.1577 H   0  0  0  0  0  0  0  0  0  0  0  0
   -0.0224    2.9036   -1.0895 H   0  0  0  0  0  0  0  0  0  0  0  0
   -1.8384    1.9466   -1.7073 C   0  0  0  0  0  0  0  0  0  0  0  0
   -2.5848    0.9461   -1.5247 O   0  5  0  0  0  0  0  0  0  0  0  0
   -2.0922    2.9020   -2.4776 O   0  0  0  0  0  0  0  0  0  0  0  0
    0.8347   -0.1017    1.0753 C   0  0  0  0  0  0  0  0  0  0  0  0
    2.0106   -0.1739    1.4171 O   0  0  0  0  0  0  0  0  0  0  0  0
   -0.0888    0.4005    1.9732 N   0  0  0  0  0  0  0  0  0  0  0  0
   -1.0253    0.5568    1.6084 H   0  0  0  0  0  0  0  0  0  0  0  0
    0.2400    0.8493    3.3168 C   0  0  0  0  0  0  0  0  0  0  0  0
    0.9562    1.6764    3.2799 H   0  0  0  0  0  0  0  0  0  0  0  0
   -0.6635    1.1949    3.8277 H   0  0  0  0  0  0  0  0  0  0  0  0
    0.6736    0.0286    3.8973 H   0  0  0  0  0  0  0  0  0  0  0  0
  1  2  1  0  0  0  0
  2  3  1  0  0  0  0
  2  4  1  0  0  0  0
  2  5  1  0  0  0  0
  5  6  2  0  0  0  0
  5  7  1  0  0  0  0
  7  8  1  0  0  0  0
  7  9  1  0  0  0  0
  9 10  1  0  0  0  0
  9 11  1  0  0  0  0
  9 20  1  0  0  0  0
 11 12  1  0  0  0  0
 11 13  1  0  0  0  0
 11 14  1  0  0  0  0
 14 15  1  0  0  0  0
 14 16  1  0  0  0  0
 14 17  1  0  0  0  0
 17 18  1  0  0  0  0
 17 19  2  0  0  0  0
 20 21  2  0  0  0  0
 20 22  1  0  0  0  0
 22 23  1  0  0  0  0
 22 24  1  0  0  0  0
 24 25  1  0  0  0  0
 24 26  1  0  0  0  0
 24 27  1  0  0  0  0
M  CHG  1  18  -1
M  END
$$$$

  -OEChem-04042215583D

 27 26  0     1  0  0  0  0  0999 V2000
   -2.6189   -3.8024    0.4917 H   0  0  0  0  0  0  0  0  0  0  0  0
   -2.5444   -2.8684   -0.0715 C   0  0  0  0  0  0  0  0  0  0  0  0
   -3.1828   -2.1175    0.4020 H   0  0  0  0  0  0  0  0  0  0  0  0
   -2.8967   -3.0377   -1.0920 H   0  0  0  0  0  0  0  0  0  0  0  0
   -1.1074   -2.3804   -0.0977 C   0  0  0  0  0  0  0  0  0  0  0  0
   -0.2090   -3.0975    0.3177 O   0  0  0  0  0  0  0  0  0  0  0  0
   -0.8310   -1.1337   -0.6098 N   0  0  0  0  0  0  0  0  0  0  0  0
   -1.6527   -0.5444   -0.8028 H   0  0  0  0  0  0  0  0  0  0  0  0
    0.4463   -0.4253   -0.4454 C   0  0  1  0  0  0  0  0  0  0  0  0
    1.2384   -1.0791   -0.8243 H   0  0  0  0  0  0  0  0  0  0  0  0
    0.4015    0.8162   -1.3659 C   0  0  0  0  0  0  0  0  0  0  0  0
    1.4268    1.1918   -1.4422 H   0  0  0  0  0  0  0  0  0  0  0  0
    0.0949    0.5207   -2.3755 H   0  0  0  0  0  0  0  0  0  0  0  0
   -0.4799    1.9870   -0.8742 C   0  0  0  0  0  0  0  0  0  0  0  0
   -0.4681    2.1038    0.2077 H   0  0  0  0  0  0  0  0  0  0  0  0
   -0.0709    2.9146   -1.2859 H   0  0  0  0  0  0  0  0  0  0  0  0
   -1.9139    1.8488   -1.3795 C   0  0  0  0  0  0  0  0  0  0  0  0
   -2.6293    1.0063   -0.7731 O   0  5  0  0  0  0  0  0  0  0  0  0
   -2.2828    2.5216   -2.3698 O   0  0  0  0  0  0  0  0  0  0  0  0
    0.8082   -0.1575    1.0316 C   0  0  0  0  0  0  0  0  0  0  0  0
    1.9750   -0.2158    1.4063 O   0  0  0  0  0  0  0  0  0  0  0  0
   -0.1577    0.3188    1.8994 N   0  0  0  0  0  0  0  0  0  0  0  0
   -1.0677    0.5122    1.4805 H   0  0  0  0  0  0  0  0  0  0  0  0
    0.1274    0.8110    3.2371 C   0  0  0  0  0  0  0  0  0  0  0  0
    0.7744    1.6925    3.1890 H   0  0  0  0  0  0  0  0  0  0  0  0
   -0.8036    1.0888    3.7400 H   0  0  0  0  0  0  0  0  0  0  0  0
    0.6235    0.0371    3.8315 H   0  0  0  0  0  0  0  0  0  0  0  0
  1  2  1  0  0  0  0
  2  3  1  0  0  0  0
  2  4  1  0  0  0  0
  2  5  1  0  0  0  0
  5  6  2  0  0  0  0
  5  7  1  0  0  0  0
  7  8  1  0  0  0  0
  7  9  1  0  0  0  0
  9 10  1  0  0  0  0
  9 11  1  0  0  0  0
  9 20  1  0  0  0  0
 11 12  1  0  0  0  0
 11 13  1  0  0  0  0
 11 14  1  0  0  0  0
 14 15  1  0  0  0  0
 14 16  1  0  0  0  0
 14 17  1  0  0  0  0
 17 18  1  0  0  0  0
 17 19  2  0  0  0  0
 20 21  2  0  0  0  0
 20 22  1  0  0  0  0
 22 23  1  0  0  0  0
 22 24  1  0  0  0  0
 24 25  1  0  0  0  0
 24 26  1  0  0  0  0
 24 27  1  0  0  0  0
M  CHG  1  18  -1
M  END
$$$$

  -OEChem-04042215583D

 27 26  0     1  0  0  0  0  0999 V2000
   -2.6027   -3.7400    0.7468 H   0  0  0  0  0  0  0  0  0  0  0  0
   -2.5417   -2.8199    0.1596 C   0  0  0  0  0  0  0  0  0  0  0  0
   -3.0876   -2.0295    0.6823 H   0  0  0  0  0  0  0  0  0  0  0  0
   -3.0083   -2.9864   -0.8144 H   0  0  0  0  0  0  0  0  0  0  0  0
   -1.0934   -2.4054   -0.0262 C   0  0  0  0  0  0  0  0  0  0  0  0
   -0.1909   -3.1487    0.3320 O   0  0  0  0  0  0  0  0  0  0  0  0
   -0.8145   -1.1941   -0.6174 N   0  0  0  0  0  0  0  0  0  0  0  0
   -1.6332   -0.5797   -0.7073 H   0  0  0  0  0  0  0  0  0  0  0  0
    0.4734   -0.4981   -0.4695 C   0  0  1  0  0  0  0  0  0  0  0  0
    1.2691   -1.1715   -0.8039 H   0  0  0  0  0  0  0  0  0  0  0  0
    0.4699    0.7349   -1.4063 C   0  0  0  0  0  0  0  0  0  0  0  0
    1.5050    1.0791   -1.4964 H   0  0  0  0  0  0  0  0  0  0  0  0
    0.1429    0.4307   -2.4066 H   0  0  0  0  0  0  0  0  0  0  0  0
   -0.3786    1.9394   -0.9380 C   0  0  0  0  0  0  0  0  0  0  0  0
   -0.1535    2.2247    0.0908 H   0  0  0  0  0  0  0  0  0  0  0  0
   -0.1088    2.8006   -1.5566 H   0  0  0  0  0  0  0  0  0  0  0  0
   -1.8739    1.6969   -1.1144 C   0  0  0  0  0  0  0  0  0  0  0  0
   -2.4337    2.0540   -2.1757 O   0  5  0  0  0  0  0  0  0  0  0  0
   -2.4294    1.0366   -0.1944 O   0  0  0  0  0  0  0  0  0  0  0  0
    0.7700   -0.1710    1.0102 C   0  0  0  0  0  0  0  0  0  0  0  0
    1.9137   -0.2394    1.4495 O   0  0  0  0  0  0  0  0  0  0  0  0
   -0.2376    0.3568    1.7988 N   0  0  0  0  0  0  0  0  0  0  0  0
   -1.1129    0.5759    1.3065 H   0  0  0  0  0  0  0  0  0  0  0  0
   -0.0204    0.9066    3.1260 C   0  0  0  0  0  0  0  0  0  0  0  0
    0.6192    1.7931    3.0715 H   0  0  0  0  0  0  0  0  0  0  0  0
   -0.9773    1.1928    3.5723 H   0  0  0  0  0  0  0  0  0  0  0  0
    0.4549    0.1643    3.7752 H   0  0  0  0  0  0  0  0  0  0  0  0
  1  2  1  0  0  0  0
  2  3  1  0  0  0  0
  2  4  1  0  0  0  0
  2  5  1  0  0  0  0
  5  6  2  0  0  0  0
  5  7  1  0  0  0  0
  7  8  1  0  0  0  0
  7  9  1  0  0  0  0
  9 10  1  0  0  0  0
  9 11  1  0  0  0  0
  9 20  1  0  0  0  0
 11 12  1  0  0  0  0
 11 13  1  0  0  0  0
 11 14  1  0  0  0  0
 14 15  1  0  0  0  0
 14 16  1  0  0  0  0
 14 17  1  0  0  0  0
 17 18  1  0  0  0  0
 17 19  2  0  0  0  0
 20 21  2  0  0  0  0
 20 22  1  0  0  0  0
 22 23  1  0  0  0  0
 22 24  1  0  0  0  0
 24 25  1  0  0  0  0
 24 26  1  0  0  0  0
 24 27  1  0  0  0  0
M  CHG  1  18  -1
M  END
$$$$

  -OEChem-04042215583D

 27 26  0     1  0  0  0  0  0999 V2000
   -2.6832   -3.8053    0.5361 H   0  0  0  0  0  0  0  0  0  0  0  0
   -2.5813   -2.8792   -0.0357 C   0  0  0  0  0  0  0  0  0  0  0  0
   -3.2337   -2.1189    0.4026 H   0  0  0  0  0  0  0  0  0  0  0  0
   -2.8931   -3.0599   -1.0672 H   0  0  0  0  0  0  0  0  0  0  0  0
   -1.1428   -2.3963   -0.0081 C   0  0  0  0  0  0  0  0  0  0  0  0
   -0.2711   -3.0926    0.4923 O   0  0  0  0  0  0  0  0  0  0  0  0
   -0.8316   -1.1853   -0.5811 N   0  0  0  0  0  0  0  0  0  0  0  0
   -1.6227   -0.6392   -0.9450 H   0  0  0  0  0  0  0  0  0  0  0  0
    0.4481   -0.4776   -0.4162 C   0  0  1  0  0  0  0  0  0  0  0  0
    1.2437   -1.1517   -0.7480 H   0  0  0  0  0  0  0  0  0  0  0  0
    0.4366    0.7392   -1.3723 C   0  0  0  0  0  0  0  0  0  0  0  0
    1.4637    1.1045   -1.4686 H   0  0  0  0  0  0  0  0  0  0  0  0
    0.1159    0.4110   -2.3670 H   0  0  0  0  0  0  0  0  0  0  0  0
   -0.4468    1.9249   -0.9176 C   0  0  0  0  0  0  0  0  0  0  0  0
   -0.0674    2.3455    0.0179 H   0  0  0  0  0  0  0  0  0  0  0  0
   -0.3856    2.7155   -1.6705 H   0  0  0  0  0  0  0  0  0  0  0  0
   -1.9152    1.5285   -0.7620 C   0  0  0  0  0  0  0  0  0  0  0  0
   -2.4800    0.9660   -1.7316 O   0  5  0  0  0  0  0  0  0  0  0  0
   -2.3766    1.5487    0.4050 O   0  0  0  0  0  0  0  0  0  0  0  0
    0.7889   -0.1131    1.0476 C   0  0  0  0  0  0  0  0  0  0  0  0
    1.9511   -0.1946    1.4361 O   0  0  0  0  0  0  0  0  0  0  0  0
   -0.1645    0.4337    1.8882 N   0  0  0  0  0  0  0  0  0  0  0  0
   -1.0566    0.6998    1.4488 H   0  0  0  0  0  0  0  0  0  0  0  0
    0.1406    0.9765    3.2008 C   0  0  0  0  0  0  0  0  0  0  0  0
    0.8390    1.8147    3.1145 H   0  0  0  0  0  0  0  0  0  0  0  0
   -0.7767    1.3348    3.6775 H   0  0  0  0  0  0  0  0  0  0  0  0
    0.5847    0.2066    3.8398 H   0  0  0  0  0  0  0  0  0  0  0  0
  1  2  1  0  0  0  0
  2  3  1  0  0  0  0
  2  4  1  0  0  0  0
  2  5  1  0  0  0  0
  5  6  2  0  0  0  0
  5  7  1  0  0  0  0
  7  8  1  0  0  0  0
  7  9  1  0  0  0  0
  9 10  1  0  0  0  0
  9 11  1  0  0  0  0
  9 20  1  0  0  0  0
 11 12  1  0  0  0  0
 11 13  1  0  0  0  0
 11 14  1  0  0  0  0
 14 15  1  0  0  0  0
 14 16  1  0  0  0  0
 14 17  1  0  0  0  0
 17 18  1  0  0  0  0
 17 19  2  0  0  0  0
 20 21  2  0  0  0  0
 20 22  1  0  0  0  0
 22 23  1  0  0  0  0
 22 24  1  0  0  0  0
 24 25  1  0  0  0  0
 24 26  1  0  0  0  0
 24 27  1  0  0  0  0
M  CHG  1  18  -1
M  END
$$$$

  -OEChem-04042215583D

 27 26  0     1  0  0  0  0  0999 V2000
   -2.6337   -3.8846    0.5062 H   0  0  0  0  0  0  0  0  0  0  0  0
   -2.5557   -2.9481   -0.0519 C   0  0  0  0  0  0  0  0  0  0  0  0
   -3.2222   -2.2089    0.4011 H   0  0  0  0  0  0  0  0  0  0  0  0
   -2.8696   -3.1206   -1.0842 H   0  0  0  0  0  0  0  0  0  0  0  0
   -1.1279   -2.4341   -0.0257 C   0  0  0  0  0  0  0  0  0  0  0  0
   -0.2359   -3.1243    0.4465 O   0  0  0  0  0  0  0  0  0  0  0  0
   -0.8502   -1.2023   -0.5701 N   0  0  0  0  0  0  0  0  0  0  0  0
   -1.6627   -0.6556   -0.8854 H   0  0  0  0  0  0  0  0  0  0  0  0
    0.4072   -0.4653   -0.3805 C   0  0  1  0  0  0  0  0  0  0  0  0
    1.2076   -1.1368   -0.7074 H   0  0  0  0  0  0  0  0  0  0  0  0
    0.4292    0.7425   -1.3477 C   0  0  0  0  0  0  0  0  0  0  0  0
    1.4599    1.1023   -1.4258 H   0  0  0  0  0  0  0  0  0  0  0  0
    0.1356    0.3859   -2.3407 H   0  0  0  0  0  0  0  0  0  0  0  0
   -0.4706    1.9506   -0.9835 C   0  0  0  0  0  0  0  0  0  0  0  0
    0.0061    2.5140   -0.1755 H   0  0  0  0  0  0  0  0  0  0  0  0
   -0.5389    2.6164   -1.8481 H   0  0  0  0  0  0  0  0  0  0  0  0
   -1.8875    1.5680   -0.5455 C   0  0  0  0  0  0  0  0  0  0  0  0
   -2.5784    0.8922   -1.3490 O   0  5  0  0  0  0  0  0  0  0  0  0
   -2.2183    1.8016    0.6412 O   0  0  0  0  0  0  0  0  0  0  0  0
    0.7791   -0.0994    1.0765 C   0  0  0  0  0  0  0  0  0  0  0  0
    1.9521   -0.1899    1.4304 O   0  0  0  0  0  0  0  0  0  0  0  0
   -0.1435    0.4230    1.9637 N   0  0  0  0  0  0  0  0  0  0  0  0
   -1.0320    0.7420    1.5556 H   0  0  0  0  0  0  0  0  0  0  0  0
    0.2157    0.9406    3.2733 C   0  0  0  0  0  0  0  0  0  0  0  0
    0.9079    1.7827    3.1749 H   0  0  0  0  0  0  0  0  0  0  0  0
   -0.6818    1.2866    3.7945 H   0  0  0  0  0  0  0  0  0  0  0  0
    0.6871    0.1592    3.8778 H   0  0  0  0  0  0  0  0  0  0  0  0
  1  2  1  0  0  0  0
  2  3  1  0  0  0  0
  2  4  1  0  0  0  0
  2  5  1  0  0  0  0
  5  6  2  0  0  0  0
  5  7  1  0  0  0  0
  7  8  1  0  0  0  0
  7  9  1  0  0  0  0
  9 10  1  0  0  0  0
  9 11  1  0  0  0  0
  9 20  1  0  0  0  0
 11 12  1  0  0  0  0
 11 13  1  0  0  0  0
 11 14  1  0  0  0  0
 14 15  1  0  0  0  0
 14 16  1  0  0  0  0
 14 17  1  0  0  0  0
 17 18  1  0  0  0  0
 17 19  2  0  0  0  0
 20 21  2  0  0  0  0
 20 22  1  0  0  0  0
 22 23  1  0  0  0  0
 22 24  1  0  0  0  0
 24 25  1  0  0  0  0
 24 26  1  0  0  0  0
 24 27  1  0  0  0  0
M  CHG  1  18  -1
M  END
$$$$

  -OEChem-04042215583D

 27 26  0     1  0  0  0  0  0999 V2000
   -2.5677   -3.9364    0.5018 H   0  0  0  0  0  0  0  0  0  0  0  0
   -2.5225   -2.9866   -0.0376 C   0  0  0  0  0  0  0  0  0  0  0  0
   -3.1795   -2.2669    0.4585 H   0  0  0  0  0  0  0  0  0  0  0  0
   -2.8741   -3.1392   -1.0608 H   0  0  0  0  0  0  0  0  0  0  0  0
   -1.1008   -2.4554   -0.0548 C   0  0  0  0  0  0  0  0  0  0  0  0
   -0.1823   -3.1531    0.3509 O   0  0  0  0  0  0  0  0  0  0  0  0
   -0.8604   -1.2010   -0.5657 N   0  0  0  0  0  0  0  0  0  0  0  0
   -1.6974   -0.6435   -0.7828 H   0  0  0  0  0  0  0  0  0  0  0  0
    0.3796   -0.4434   -0.3524 C   0  0  1  0  0  0  0  0  0  0  0  0
    1.1835   -1.1134   -0.6749 H   0  0  0  0  0  0  0  0  0  0  0  0
    0.4281    0.7487   -1.3384 C   0  0  0  0  0  0  0  0  0  0  0  0
    1.4617    1.1045   -1.3957 H   0  0  0  0  0  0  0  0  0  0  0  0
    0.1687    0.3605   -2.3288 H   0  0  0  0  0  0  0  0  0  0  0  0
   -0.4821    1.9763   -1.0668 C   0  0  0  0  0  0  0  0  0  0  0  0
    0.0797    2.6829   -0.4480 H   0  0  0  0  0  0  0  0  0  0  0  0
   -0.6977    2.4767   -2.0150 H   0  0  0  0  0  0  0  0  0  0  0  0
   -1.8046    1.6801   -0.3531 C   0  0  0  0  0  0  0  0  0  0  0  0
   -2.6186    0.9260   -0.9440 O   0  5  0  0  0  0  0  0  0  0  0  0
   -1.9674    2.1133    0.8115 O   0  0  0  0  0  0  0  0  0  0  0  0
    0.7698   -0.0987    1.1064 C   0  0  0  0  0  0  0  0  0  0  0  0
    1.9468   -0.2108    1.4408 O   0  0  0  0  0  0  0  0  0  0  0  0
   -0.1348    0.3876    2.0313 N   0  0  0  0  0  0  0  0  0  0  0  0
   -0.9993    0.7827    1.6405 H   0  0  0  0  0  0  0  0  0  0  0  0
    0.2635    0.8634    3.3460 C   0  0  0  0  0  0  0  0  0  0  0  0
    0.9350    1.7228    3.2540 H   0  0  0  0  0  0  0  0  0  0  0  0
   -0.6203    1.1713    3.9125 H   0  0  0  0  0  0  0  0  0  0  0  0
    0.7721    0.0711    3.9042 H   0  0  0  0  0  0  0  0  0  0  0  0
  1  2  1  0  0  0  0
  2  3  1  0  0  0  0
  2  4  1  0  0  0  0
  2  5  1  0  0  0  0
  5  6  2  0  0  0  0
  5  7  1  0  0  0  0
  7  8  1  0  0  0  0
  7  9  1  0  0  0  0
  9 10  1  0  0  0  0
  9 11  1  0  0  0  0
  9 20  1  0  0  0  0
 11 12  1  0  0  0  0
 11 13  1  0  0  0  0
 11 14  1  0  0  0  0
 14 15  1  0  0  0  0
 14 16  1  0  0  0  0
 14 17  1  0  0  0  0
 17 18  1  0  0  0  0
 17 19  2  0  0  0  0
 20 21  2  0  0  0  0
 20 22  1  0  0  0  0
 22 23  1  0  0  0  0
 22 24  1  0  0  0  0
 24 25  1  0  0  0  0
 24 26  1  0  0  0  0
 24 27  1  0  0  0  0
M  CHG  1  18  -1
M  END
$$$$

  -OEChem-04042215583D

 27 26  0     1  0  0  0  0  0999 V2000
   -2.3445   -4.0154    0.6188 H   0  0  0  0  0  0  0  0  0  0  0  0
   -2.3499   -3.0759    0.0599 C   0  0  0  0  0  0  0  0  0  0  0  0
   -3.0178   -2.3704    0.5617 H   0  0  0  0  0  0  0  0  0  0  0  0
   -2.7255   -3.2625   -0.9489 H   0  0  0  0  0  0  0  0  0  0  0  0
   -0.9496   -2.4946   -0.0101 C   0  0  0  0  0  0  0  0  0  0  0  0
    0.0057   -3.1551    0.3723 O   0  0  0  0  0  0  0  0  0  0  0  0
   -0.7737   -1.2369   -0.5395 N   0  0  0  0  0  0  0  0  0  0  0  0
   -1.6434   -0.7086   -0.6917 H   0  0  0  0  0  0  0  0  0  0  0  0
    0.4133   -0.4084   -0.2970 C   0  0  1  0  0  0  0  0  0  0  0  0
    1.2599   -1.0514   -0.5612 H   0  0  0  0  0  0  0  0  0  0  0  0
    0.4586    0.7294   -1.3463 C   0  0  0  0  0  0  0  0  0  0  0  0
    1.4763    1.1328   -1.3575 H   0  0  0  0  0  0  0  0  0  0  0  0
    0.2898    0.2718   -2.3265 H   0  0  0  0  0  0  0  0  0  0  0  0
   -0.5191    1.9313   -1.2209 C   0  0  0  0  0  0  0  0  0  0  0  0
    0.0532    2.7956   -0.8699 H   0  0  0  0  0  0  0  0  0  0  0  0
   -0.8980    2.1816   -2.2160 H   0  0  0  0  0  0  0  0  0  0  0  0
   -1.7138    1.7552   -0.2816 C   0  0  0  0  0  0  0  0  0  0  0  0
   -2.5602    0.8774   -0.5881 O   0  5  0  0  0  0  0  0  0  0  0  0
   -1.7483    2.4208    0.7785 O   0  0  0  0  0  0  0  0  0  0  0  0
    0.7379   -0.0177    1.1677 C   0  0  0  0  0  0  0  0  0  0  0  0
    1.9043   -0.0940    1.5466 O   0  0  0  0  0  0  0  0  0  0  0  0
   -0.2168    0.4332    2.0602 N   0  0  0  0  0  0  0  0  0  0  0  0
   -1.0580    0.8356    1.6306 H   0  0  0  0  0  0  0  0  0  0  0  0
    0.1272    0.9296    3.3828 C   0  0  0  0  0  0  0  0  0  0  0  0
    0.7710    1.8113    3.3038 H   0  0  0  0  0  0  0  0  0  0  0  0
   -0.7822    1.2105    3.9220 H   0  0  0  0  0  0  0  0  0  0  0  0
    0.6471    0.1586    3.9603 H   0  0  0  0  0  0  0  0  0  0  0  0
  1  2  1  0  0  0  0
  2  3  1  0  0  0  0
  2  4  1  0  0  0  0
  2  5  1  0  0  0  0
  5  6  2  0  0  0  0
  5  7  1  0  0  0  0
  7  8  1  0  0  0  0
  7  9  1  0  0  0  0
  9 10  1  0  0  0  0
  9 11  1  0  0  0  0
  9 20  1  0  0  0  0
 11 12  1  0  0  0  0
 11 13  1  0  0  0  0
 11 14  1  0  0  0  0
 14 15  1  0  0  0  0
 14 16  1  0  0  0  0
 14 17  1  0  0  0  0
 17 18  1  0  0  0  0
 17 19  2  0  0  0  0
 20 21  2  0  0  0  0
 20 22  1  0  0  0  0
 22 23  1  0  0  0  0
 22 24  1  0  0  0  0
 24 25  1  0  0  0  0
 24 26  1  0  0  0  0
 24 27  1  0  0  0  0
M  CHG  1  18  -1
M  END
$$$$

  -OEChem-04042215583D

 27 26  0     1  0  0  0  0  0999 V2000
   -2.7179   -3.8163    0.5255 H   0  0  0  0  0  0  0  0  0  0  0  0
   -2.5602   -2.8886   -0.0309 C   0  0  0  0  0  0  0  0  0  0  0  0
   -3.1725   -2.1005    0.4159 H   0  0  0  0  0  0  0  0  0  0  0  0
   -2.8734   -3.0367   -1.0670 H   0  0  0  0  0  0  0  0  0  0  0  0
   -1.0969   -2.4879    0.0144 C   0  0  0  0  0  0  0  0  0  0  0  0
   -0.2704   -3.2480    0.4976 O   0  0  0  0  0  0  0  0  0  0  0  0
   -0.7181   -1.2790   -0.5238 N   0  0  0  0  0  0  0  0  0  0  0  0
   -1.5039   -0.6460   -0.7178 H   0  0  0  0  0  0  0  0  0  0  0  0
    0.4998   -0.5703   -0.1153 C   0  0  1  0  0  0  0  0  0  0  0  0
    1.3063   -1.3050   -0.2122 H   0  0  0  0  0  0  0  0  0  0  0  0
    0.8337    0.5005   -1.1835 C   0  0  0  0  0  0  0  0  0  0  0  0
    1.8741    0.7967   -1.0138 H   0  0  0  0  0  0  0  0  0  0  0  0
    0.8033    0.0133   -2.1634 H   0  0  0  0  0  0  0  0  0  0  0  0
    0.0040    1.8137   -1.2848 C   0  0  0  0  0  0  0  0  0  0  0  0
    0.6935    2.6571   -1.1796 H   0  0  0  0  0  0  0  0  0  0  0  0
   -0.4134    1.8698   -2.2941 H   0  0  0  0  0  0  0  0  0  0  0  0
   -1.1545    2.0257   -0.3102 C   0  0  0  0  0  0  0  0  0  0  0  0
   -2.0531    1.1419   -0.2727 O   0  5  0  0  0  0  0  0  0  0  0  0
   -1.1367    3.0387    0.4243 O   0  0  0  0  0  0  0  0  0  0  0  0
    0.5979   -0.1682    1.3770 C   0  0  0  0  0  0  0  0  0  0  0  0
    1.6751   -0.2836    1.9555 O   0  0  0  0  0  0  0  0  0  0  0  0
   -0.4658    0.4022    2.0489 N   0  0  0  0  0  0  0  0  0  0  0  0
   -1.2432    0.7036    1.4491 H   0  0  0  0  0  0  0  0  0  0  0  0
   -0.3216    1.0655    3.3342 C   0  0  0  0  0  0  0  0  0  0  0  0
    0.3538    1.9225    3.2460 H   0  0  0  0  0  0  0  0  0  0  0  0
   -1.2958    1.4253    3.6782 H   0  0  0  0  0  0  0  0  0  0  0  0
    0.0757    0.3727    4.0827 H   0  0  0  0  0  0  0  0  0  0  0  0
  1  2  1  0  0  0  0
  2  3  1  0  0  0  0
  2  4  1  0  0  0  0
  2  5  1  0  0  0  0
  5  6  2  0  0  0  0
  5  7  1  0  0  0  0
  7  8  1  0  0  0  0
  7  9  1  0  0  0  0
  9 10  1  0  0  0  0
  9 11  1  0  0  0  0
  9 20  1  0  0  0  0
 11 12  1  0  0  0  0
 11 13  1  0  0  0  0
 11 14  1  0  0  0  0
 14 15  1  0  0  0  0
 14 16  1  0  0  0  0
 14 17  1  0  0  0  0
 17 18  1  0  0  0  0
 17 19  2  0  0  0  0
 20 21  2  0  0  0  0
 20 22  1  0  0  0  0
 22 23  1  0  0  0  0
 22 24  1  0  0  0  0
 24 25  1  0  0  0  0
 24 26  1  0  0  0  0
 24 27  1  0  0  0  0
M  CHG  1  18  -1
M  END
$$$$

  -OEChem-04042215583D

 27 26  0     1  0  0  0  0  0999 V2000
   -2.4195   -3.9698    0.6635 H   0  0  0  0  0  0  0  0  0  0  0  0
   -2.4246   -3.0057    0.1479 C   0  0  0  0  0  0  0  0  0  0  0  0
   -3.0091   -2.2941    0.7374 H   0  0  0  0  0  0  0  0  0  0  0  0
   -2.8947   -3.1274   -0.8307 H   0  0  0  0  0  0  0  0  0  0  0  0
   -1.0065   -2.4909   -0.0199 C   0  0  0  0  0  0  0  0  0  0  0  0
   -0.0610   -3.2087    0.2700 O   0  0  0  0  0  0  0  0  0  0  0  0
   -0.8100   -1.2255   -0.5263 N   0  0  0  0  0  0  0  0  0  0  0  0
   -1.6574   -0.6509   -0.5561 H   0  0  0  0  0  0  0  0  0  0  0  0
    0.4025   -0.4421   -0.2663 C   0  0  1  0  0  0  0  0  0  0  0  0
    1.2221   -1.1261   -0.5126 H   0  0  0  0  0  0  0  0  0  0  0  0
    0.5303    0.6461   -1.3601 C   0  0  0  0  0  0  0  0  0  0  0  0
    1.5560    1.0240   -1.2955 H   0  0  0  0  0  0  0  0  0  0  0  0
    0.4308    0.1694   -2.3405 H   0  0  0  0  0  0  0  0  0  0  0  0
   -0.4022    1.8866   -1.3290 C   0  0  0  0  0  0  0  0  0  0  0  0
    0.1917    2.7716   -1.5771 H   0  0  0  0  0  0  0  0  0  0  0  0
   -1.1422    1.7714   -2.1263 H   0  0  0  0  0  0  0  0  0  0  0  0
   -1.1759    2.1649   -0.0471 C   0  0  0  0  0  0  0  0  0  0  0  0
   -0.8708    3.1564    0.6526 O   0  5  0  0  0  0  0  0  0  0  0  0
   -2.0736    1.3279    0.2495 O   0  0  0  0  0  0  0  0  0  0  0  0
    0.7456   -0.0984    1.2074 C   0  0  0  0  0  0  0  0  0  0  0  0
    1.9120   -0.1981    1.5801 O   0  0  0  0  0  0  0  0  0  0  0  0
   -0.2021    0.3571    2.1026 N   0  0  0  0  0  0  0  0  0  0  0  0
   -1.0700    0.6877    1.6623 H   0  0  0  0  0  0  0  0  0  0  0  0
    0.1533    0.9518    3.3806 C   0  0  0  0  0  0  0  0  0  0  0  0
    0.7451    1.8596    3.2253 H   0  0  0  0  0  0  0  0  0  0  0  0
   -0.7533    1.2182    3.9317 H   0  0  0  0  0  0  0  0  0  0  0  0
    0.7319    0.2475    3.9866 H   0  0  0  0  0  0  0  0  0  0  0  0
  1  2  1  0  0  0  0
  2  3  1  0  0  0  0
  2  4  1  0  0  0  0
  2  5  1  0  0  0  0
  5  6  2  0  0  0  0
  5  7  1  0  0  0  0
  7  8  1  0  0  0  0
  7  9  1  0  0  0  0
  9 10  1  0  0  0  0
  9 11  1  0  0  0  0
  9 20  1  0  0  0  0
 11 12  1  0  0  0  0
 11 13  1  0  0  0  0
 11 14  1  0  0  0  0
 14 15  1  0  0  0  0
 14 16  1  0  0  0  0
 14 17  1  0  0  0  0
 17 18  1  0  0  0  0
 17 19  2  0  0  0  0
 20 21  2  0  0  0  0
 20 22  1  0  0  0  0
 22 23  1  0  0  0  0
 22 24  1  0  0  0  0
 24 25  1  0  0  0  0
 24 26  1  0  0  0  0
 24 27  1  0  0  0  0
M  CHG  1  18  -1
M  END
$$$$

  -OEChem-04042215583D

 27 26  0     1  0  0  0  0  0999 V2000
   -2.9087   -3.7228    0.3463 H   0  0  0  0  0  0  0  0  0  0  0  0
   -2.7755   -2.7211   -0.0712 C   0  0  0  0  0  0  0  0  0  0  0  0
   -3.3053   -2.0032    0.5604 H   0  0  0  0  0  0  0  0  0  0  0  0
   -3.2039   -2.6955   -1.0760 H   0  0  0  0  0  0  0  0  0  0  0  0
   -1.3006   -2.3659   -0.1273 C   0  0  0  0  0  0  0  0  0  0  0  0
   -0.4641   -3.1996    0.1837 O   0  0  0  0  0  0  0  0  0  0  0  0
   -0.9308   -1.1146   -0.5704 N   0  0  0  0  0  0  0  0  0  0  0  0
   -1.7001   -0.4501   -0.6546 H   0  0  0  0  0  0  0  0  0  0  0  0
    0.3609   -0.4969   -0.2463 C   0  0  1  0  0  0  0  0  0  0  0  0
    1.0931   -1.2744   -0.4921 H   0  0  0  0  0  0  0  0  0  0  0  0
    0.6668    0.5833   -1.3119 C   0  0  0  0  0  0  0  0  0  0  0  0
    1.7269    0.8333   -1.1973 H   0  0  0  0  0  0  0  0  0  0  0  0
    0.5494    0.1434   -2.3072 H   0  0  0  0  0  0  0  0  0  0  0  0
   -0.1093    1.9219   -1.2776 C   0  0  0  0  0  0  0  0  0  0  0  0
    0.5128    2.6948   -1.7384 H   0  0  0  0  0  0  0  0  0  0  0  0
   -0.9931    1.8094   -1.9127 H   0  0  0  0  0  0  0  0  0  0  0  0
   -0.5916    2.4311    0.0705 C   0  0  0  0  0  0  0  0  0  0  0  0
    0.1003    3.2585    0.7047 O   0  5  0  0  0  0  0  0  0  0  0  0
   -1.6751    1.9326    0.4805 O   0  0  0  0  0  0  0  0  0  0  0  0
    0.7087   -0.2528    1.2474 C   0  0  0  0  0  0  0  0  0  0  0  0
    1.8235   -0.5762    1.6502 O   0  0  0  0  0  0  0  0  0  0  0  0
   -0.1923    0.2830    2.1470 N   0  0  0  0  0  0  0  0  0  0  0  0
   -0.9510    0.8182    1.7063 H   0  0  0  0  0  0  0  0  0  0  0  0
    0.2066    0.7067    3.4797 C   0  0  0  0  0  0  0  0  0  0  0  0
    0.9537    1.5047    3.4172 H   0  0  0  0  0  0  0  0  0  0  0  0
   -0.6625    1.0863    4.0248 H   0  0  0  0  0  0  0  0  0  0  0  0
    0.6273   -0.1328    4.0420 H   0  0  0  0  0  0  0  0  0  0  0  0
  1  2  1  0  0  0  0
  2  3  1  0  0  0  0
  2  4  1  0  0  0  0
  2  5  1  0  0  0  0
  5  6  2  0  0  0  0
  5  7  1  0  0  0  0
  7  8  1  0  0  0  0
  7  9  1  0  0  0  0
  9 10  1  0  0  0  0
  9 11  1  0  0  0  0
  9 20  1  0  0  0  0
 11 12  1  0  0  0  0
 11 13  1  0  0  0  0
 11 14  1  0  0  0  0
 14 15  1  0  0  0  0
 14 16  1  0  0  0  0
 14 17  1  0  0  0  0
 17 18  1  0  0  0  0
 17 19  2  0  0  0  0
 20 21  2  0  0  0  0
 20 22  1  0  0  0  0
 22 23  1  0  0  0  0
 22 24  1  0  0  0  0
 24 25  1  0  0  0  0
 24 26  1  0  0  0  0
 24 27  1  0  0  0  0
M  CHG  1  18  -1
M  END
$$$$

  -OEChem-04042215583D

 27 26  0     1  0  0  0  0  0999 V2000
   -2.7665   -3.7968    0.3250 H   0  0  0  0  0  0  0  0  0  0  0  0
   -2.6790   -2.7825   -0.0740 C   0  0  0  0  0  0  0  0  0  0  0  0
   -3.2271   -2.0991    0.5797 H   0  0  0  0  0  0  0  0  0  0  0  0
   -3.1228   -2.7547   -1.0720 H   0  0  0  0  0  0  0  0  0  0  0  0
   -1.2200   -2.3687   -0.1434 C   0  0  0  0  0  0  0  0  0  0  0  0
   -0.3490   -3.1709    0.1526 O   0  0  0  0  0  0  0  0  0  0  0  0
   -0.9041   -1.1024   -0.5878 N   0  0  0  0  0  0  0  0  0  0  0  0
   -1.6974   -0.4744   -0.6933 H   0  0  0  0  0  0  0  0  0  0  0  0
    0.3765   -0.4423   -0.2979 C   0  0  1  0  0  0  0  0  0  0  0  0
    1.1344   -1.1806   -0.5835 H   0  0  0  0  0  0  0  0  0  0  0  0
    0.5781    0.6756   -1.3493 C   0  0  0  0  0  0  0  0  0  0  0  0
    1.6303    0.9735   -1.2891 H   0  0  0  0  0  0  0  0  0  0  0  0
    0.4212    0.2546   -2.3476 H   0  0  0  0  0  0  0  0  0  0  0  0
   -0.2578    1.9704   -1.2323 C   0  0  0  0  0  0  0  0  0  0  0  0
    0.1700    2.7147   -1.9102 H   0  0  0  0  0  0  0  0  0  0  0  0
   -1.2654    1.7519   -1.5990 H   0  0  0  0  0  0  0  0  0  0  0  0
   -0.3944    2.6107    0.1394 C   0  0  0  0  0  0  0  0  0  0  0  0
    0.5351    3.3242    0.5779 O   0  5  0  0  0  0  0  0  0  0  0  0
   -1.4537    2.3392    0.7646 O   0  0  0  0  0  0  0  0  0  0  0  0
    0.7490   -0.2013    1.1898 C   0  0  0  0  0  0  0  0  0  0  0  0
    1.8570   -0.5609    1.5798 O   0  0  0  0  0  0  0  0  0  0  0  0
   -0.1520    0.2958    2.1125 N   0  0  0  0  0  0  0  0  0  0  0  0
   -0.8741    0.9006    1.7020 H   0  0  0  0  0  0  0  0  0  0  0  0
    0.2544    0.6319    3.4681 C   0  0  0  0  0  0  0  0  0  0  0  0
    1.0231    1.4115    3.4523 H   0  0  0  0  0  0  0  0  0  0  0  0
   -0.6057    1.0037    4.0323 H   0  0  0  0  0  0  0  0  0  0  0  0
    0.6502   -0.2495    3.9823 H   0  0  0  0  0  0  0  0  0  0  0  0
  1  2  1  0  0  0  0
  2  3  1  0  0  0  0
  2  4  1  0  0  0  0
  2  5  1  0  0  0  0
  5  6  2  0  0  0  0
  5  7  1  0  0  0  0
  7  8  1  0  0  0  0
  7  9  1  0  0  0  0
  9 10  1  0  0  0  0
  9 11  1  0  0  0  0
  9 20  1  0  0  0  0
 11 12  1  0  0  0  0
 11 13  1  0  0  0  0
 11 14  1  0  0  0  0
 14 15  1  0  0  0  0
 14 16  1  0  0  0  0
 14 17  1  0  0  0  0
 17 18  1  0  0  0  0
 17 19  2  0  0  0  0
 20 21  2  0  0  0  0
 20 22  1  0  0  0  0
 22 23  1  0  0  0  0
 22 24  1  0  0  0  0
 24 25  1  0  0  0  0
 24 26  1  0  0  0  0
 24 27  1  0  0  0  0
M  CHG  1  18  -1
M  END
$$$$

  -OEChem-04042215583D

 27 26  0     1  0  0  0  0  0999 V2000
   -2.6871   -3.7951    0.4345 H   0  0  0  0  0  0  0  0  0  0  0  0
   -2.6118   -2.8054   -0.0243 C   0  0  0  0  0  0  0  0  0  0  0  0
   -3.1820   -2.0946    0.5791 H   0  0  0  0  0  0  0  0  0  0  0  0
   -3.0409   -2.8468   -1.0283 H   0  0  0  0  0  0  0  0  0  0  0  0
   -1.1593   -2.3702   -0.0979 C   0  0  0  0  0  0  0  0  0  0  0  0
   -0.2788   -3.1476    0.2322 O   0  0  0  0  0  0  0  0  0  0  0  0
   -0.8593   -1.1188   -0.5929 N   0  0  0  0  0  0  0  0  0  0  0  0
   -1.6597   -0.5108   -0.7415 H   0  0  0  0  0  0  0  0  0  0  0  0
    0.4147   -0.4323   -0.3284 C   0  0  1  0  0  0  0  0  0  0  0  0
    1.1944   -1.1501   -0.6077 H   0  0  0  0  0  0  0  0  0  0  0  0
    0.5485    0.6864   -1.3884 C   0  0  0  0  0  0  0  0  0  0  0  0
    1.5924    1.0183   -1.3835 H   0  0  0  0  0  0  0  0  0  0  0  0
    0.3532    0.2579   -2.3766 H   0  0  0  0  0  0  0  0  0  0  0  0
   -0.3322    1.9428   -1.2207 C   0  0  0  0  0  0  0  0  0  0  0  0
   -0.1259    2.6125   -2.0605 H   0  0  0  0  0  0  0  0  0  0  0  0
   -1.3806    1.6412   -1.3043 H   0  0  0  0  0  0  0  0  0  0  0  0
   -0.1593    2.7522    0.0557 C   0  0  0  0  0  0  0  0  0  0  0  0
    0.9084    3.3783    0.2386 O   0  5  0  0  0  0  0  0  0  0  0  0
   -1.1233    2.7130    0.8634 O   0  0  0  0  0  0  0  0  0  0  0  0
    0.7648   -0.1369    1.1539 C   0  0  0  0  0  0  0  0  0  0  0  0
    1.8424   -0.5356    1.5873 O   0  0  0  0  0  0  0  0  0  0  0  0
   -0.1598    0.3818    2.0424 N   0  0  0  0  0  0  0  0  0  0  0  0
   -0.8047    1.0581    1.6158 H   0  0  0  0  0  0  0  0  0  0  0  0
    0.2000    0.6627    3.4239 C   0  0  0  0  0  0  0  0  0  0  0  0
    1.0033    1.4056    3.4641 H   0  0  0  0  0  0  0  0  0  0  0  0
   -0.6665    1.0588    3.9613 H   0  0  0  0  0  0  0  0  0  0  0  0
    0.5323   -0.2497    3.9293 H   0  0  0  0  0  0  0  0  0  0  0  0
  1  2  1  0  0  0  0
  2  3  1  0  0  0  0
  2  4  1  0  0  0  0
  2  5  1  0  0  0  0
  5  6  2  0  0  0  0
  5  7  1  0  0  0  0
  7  8  1  0  0  0  0
  7  9  1  0  0  0  0
  9 10  1  0  0  0  0
  9 11  1  0  0  0  0
  9 20  1  0  0  0  0
 11 12  1  0  0  0  0
 11 13  1  0  0  0  0
 11 14  1  0  0  0  0
 14 15  1  0  0  0  0
 14 16  1  0  0  0  0
 14 17  1  0  0  0  0
 17 18  1  0  0  0  0
 17 19  2  0  0  0  0
 20 21  2  0  0  0  0
 20 22  1  0  0  0  0
 22 23  1  0  0  0  0
 22 24  1  0  0  0  0
 24 25  1  0  0  0  0
 24 26  1  0  0  0  0
 24 27  1  0  0  0  0
M  CHG  1  18  -1
M  END
$$$$

  -OEChem-04042215583D

 27 26  0     1  0  0  0  0  0999 V2000
   -2.6780   -3.7655    0.4940 H   0  0  0  0  0  0  0  0  0  0  0  0
   -2.5913   -2.7967   -0.0060 C   0  0  0  0  0  0  0  0  0  0  0  0
   -3.1732   -2.0600    0.5540 H   0  0  0  0  0  0  0  0  0  0  0  0
   -2.9992   -2.8816   -1.0161 H   0  0  0  0  0  0  0  0  0  0  0  0
   -1.1366   -2.3662   -0.0686 C   0  0  0  0  0  0  0  0  0  0  0  0
   -0.2643   -3.1308    0.3088 O   0  0  0  0  0  0  0  0  0  0  0  0
   -0.8239   -1.1364   -0.6083 N   0  0  0  0  0  0  0  0  0  0  0  0
   -1.6183   -0.5365   -0.8089 H   0  0  0  0  0  0  0  0  0  0  0  0
    0.4507   -0.4448   -0.3545 C   0  0  1  0  0  0  0  0  0  0  0  0
    1.2421   -1.1531   -0.6243 H   0  0  0  0  0  0  0  0  0  0  0  0
    0.5441    0.6814   -1.4091 C   0  0  0  0  0  0  0  0  0  0  0  0
    1.5819    1.0298   -1.4499 H   0  0  0  0  0  0  0  0  0  0  0  0
    0.3105    0.2593   -2.3917 H   0  0  0  0  0  0  0  0  0  0  0  0
   -0.3639    1.9064   -1.1750 C   0  0  0  0  0  0  0  0  0  0  0  0
   -0.3942    2.4806   -2.1053 H   0  0  0  0  0  0  0  0  0  0  0  0
   -1.3844    1.5648   -0.9779 H   0  0  0  0  0  0  0  0  0  0  0  0
    0.0668    2.8702   -0.0772 C   0  0  0  0  0  0  0  0  0  0  0  0
    1.1513    3.4841   -0.1970 O   0  5  0  0  0  0  0  0  0  0  0  0
   -0.7300    2.9861    0.8883 O   0  0  0  0  0  0  0  0  0  0  0  0
    0.7744   -0.0971    1.1216 C   0  0  0  0  0  0  0  0  0  0  0  0
    1.8232   -0.5187    1.6002 O   0  0  0  0  0  0  0  0  0  0  0  0
   -0.1701    0.4584    1.9670 N   0  0  0  0  0  0  0  0  0  0  0  0
   -0.7278    1.1937    1.5170 H   0  0  0  0  0  0  0  0  0  0  0  0
    0.1353    0.7069    3.3682 C   0  0  0  0  0  0  0  0  0  0  0  0
    0.9753    1.4033    3.4575 H   0  0  0  0  0  0  0  0  0  0  0  0
   -0.7340    1.1468    3.8656 H   0  0  0  0  0  0  0  0  0  0  0  0
    0.3903   -0.2266    3.8797 H   0  0  0  0  0  0  0  0  0  0  0  0
  1  2  1  0  0  0  0
  2  3  1  0  0  0  0
  2  4  1  0  0  0  0
  2  5  1  0  0  0  0
  5  6  2  0  0  0  0
  5  7  1  0  0  0  0
  7  8  1  0  0  0  0
  7  9  1  0  0  0  0
  9 10  1  0  0  0  0
  9 11  1  0  0  0  0
  9 20  1  0  0  0  0
 11 12  1  0  0  0  0
 11 13  1  0  0  0  0
 11 14  1  0  0  0  0
 14 15  1  0  0  0  0
 14 16  1  0  0  0  0
 14 17  1  0  0  0  0
 17 18  1  0  0  0  0
 17 19  2  0  0  0  0
 20 21  2  0  0  0  0
 20 22  1  0  0  0  0
 22 23  1  0  0  0  0
 22 24  1  0  0  0  0
 24 25  1  0  0  0  0
 24 26  1  0  0  0  0
 24 27  1  0  0  0  0
M  CHG  1  18  -1
M  END
$$$$

  -OEChem-04042215583D

 27 26  0     1  0  0  0  0  0999 V2000
   -2.6803   -3.7576    0.4911 H   0  0  0  0  0  0  0  0  0  0  0  0
   -2.5821   -2.7926   -0.0141 C   0  0  0  0  0  0  0  0  0  0  0  0
   -3.1726   -2.0505    0.5292 H   0  0  0  0  0  0  0  0  0  0  0  0
   -2.9709   -2.8846   -1.0311 H   0  0  0  0  0  0  0  0  0  0  0  0
   -1.1254   -2.3654   -0.0526 C   0  0  0  0  0  0  0  0  0  0  0  0
   -0.2648   -3.1158    0.3762 O   0  0  0  0  0  0  0  0  0  0  0  0
   -0.7968   -1.1560   -0.6278 N   0  0  0  0  0  0  0  0  0  0  0  0
   -1.5830   -0.5634   -0.8755 H   0  0  0  0  0  0  0  0  0  0  0  0
    0.4768   -0.4621   -0.3739 C   0  0  1  0  0  0  0  0  0  0  0  0
    1.2783   -1.1623   -0.6349 H   0  0  0  0  0  0  0  0  0  0  0  0
    0.5432    0.6747   -1.4157 C   0  0  0  0  0  0  0  0  0  0  0  0
    1.5747    1.0383   -1.4812 H   0  0  0  0  0  0  0  0  0  0  0  0
    0.2878    0.2654   -2.3986 H   0  0  0  0  0  0  0  0  0  0  0  0
   -0.3901    1.8664   -1.1152 C   0  0  0  0  0  0  0  0  0  0  0  0
   -0.6627    2.3235   -2.0707 H   0  0  0  0  0  0  0  0  0  0  0  0
   -1.3189    1.5111   -0.6592 H   0  0  0  0  0  0  0  0  0  0  0  0
    0.2152    2.9741   -0.2616 C   0  0  0  0  0  0  0  0  0  0  0  0
    1.1872    3.6274   -0.7066 O   0  5  0  0  0  0  0  0  0  0  0  0
   -0.3486    3.1721    0.8435 O   0  0  0  0  0  0  0  0  0  0  0  0
    0.7820   -0.0633    1.0928 C   0  0  0  0  0  0  0  0  0  0  0  0
    1.8113   -0.4911    1.6064 O   0  0  0  0  0  0  0  0  0  0  0  0
   -0.1745    0.5287    1.8997 N   0  0  0  0  0  0  0  0  0  0  0  0
   -0.6561    1.3017    1.4277 H   0  0  0  0  0  0  0  0  0  0  0  0
    0.0879    0.7658    3.3117 C   0  0  0  0  0  0  0  0  0  0  0  0
    0.9496    1.4302    3.4336 H   0  0  0  0  0  0  0  0  0  0  0  0
   -0.7822    1.2374    3.7777 H   0  0  0  0  0  0  0  0  0  0  0  0
    0.2890   -0.1771    3.8303 H   0  0  0  0  0  0  0  0  0  0  0  0
  1  2  1  0  0  0  0
  2  3  1  0  0  0  0
  2  4  1  0  0  0  0
  2  5  1  0  0  0  0
  5  6  2  0  0  0  0
  5  7  1  0  0  0  0
  7  8  1  0  0  0  0
  7  9  1  0  0  0  0
  9 10  1  0  0  0  0
  9 11  1  0  0  0  0
  9 20  1  0  0  0  0
 11 12  1  0  0  0  0
 11 13  1  0  0  0  0
 11 14  1  0  0  0  0
 14 15  1  0  0  0  0
 14 16  1  0  0  0  0
 14 17  1  0  0  0  0
 17 18  1  0  0  0  0
 17 19  2  0  0  0  0
 20 21  2  0  0  0  0
 20 22  1  0  0  0  0
 22 23  1  0  0  0  0
 22 24  1  0  0  0  0
 24 25  1  0  0  0  0
 24 26  1  0  0  0  0
 24 27  1  0  0  0  0
M  CHG  1  18  -1
M  END
$$$$

  -OEChem-04042215583D

 27 26  0     1  0  0  0  0  0999 V2000
   -2.7120   -3.7885    0.4046 H   0  0  0  0  0  0  0  0  0  0  0  0
   -2.5974   -2.8243   -0.0985 C   0  0  0  0  0  0  0  0  0  0  0  0
   -3.2296   -2.0882    0.4043 H   0  0  0  0  0  0  0  0  0  0  0  0
   -2.9235   -2.9268   -1.1363 H   0  0  0  0  0  0  0  0  0  0  0  0
   -1.1469   -2.3774   -0.0525 C   0  0  0  0  0  0  0  0  0  0  0  0
   -0.3073   -3.1042    0.4515 O   0  0  0  0  0  0  0  0  0  0  0  0
   -0.7951   -1.1781   -0.6346 N   0  0  0  0  0  0  0  0  0  0  0  0
   -1.5645   -0.5978   -0.9538 H   0  0  0  0  0  0  0  0  0  0  0  0
    0.4755   -0.4851   -0.3647 C   0  0  1  0  0  0  0  0  0  0  0  0
    1.2816   -1.1818   -0.6206 H   0  0  0  0  0  0  0  0  0  0  0  0
    0.5355    0.6627   -1.3923 C   0  0  0  0  0  0  0  0  0  0  0  0
    1.5631    1.0386   -1.4504 H   0  0  0  0  0  0  0  0  0  0  0  0
    0.2851    0.2709   -2.3838 H   0  0  0  0  0  0  0  0  0  0  0  0
   -0.4180    1.8290   -1.0516 C   0  0  0  0  0  0  0  0  0  0  0  0
   -0.9044    2.1404   -1.9806 H   0  0  0  0  0  0  0  0  0  0  0  0
   -1.2184    1.5023   -0.3829 H   0  0  0  0  0  0  0  0  0  0  0  0
    0.2709    3.0649   -0.4877 C   0  0  0  0  0  0  0  0  0  0  0  0
    1.0345    3.7304   -1.2264 O   0  5  0  0  0  0  0  0  0  0  0  0
   -0.0223    3.3481    0.6999 O   0  0  0  0  0  0  0  0  0  0  0  0
    0.7815   -0.0526    1.0935 C   0  0  0  0  0  0  0  0  0  0  0  0
    1.8185   -0.4556    1.6111 O   0  0  0  0  0  0  0  0  0  0  0  0
   -0.1676    0.5671    1.8884 N   0  0  0  0  0  0  0  0  0  0  0  0
   -0.6756    1.2961    1.3841 H   0  0  0  0  0  0  0  0  0  0  0  0
    0.1194    0.8846    3.2799 C   0  0  0  0  0  0  0  0  0  0  0  0
    0.9703    1.5706    3.3476 H   0  0  0  0  0  0  0  0  0  0  0  0
   -0.7497    1.3638    3.7400 H   0  0  0  0  0  0  0  0  0  0  0  0
    0.3501   -0.0255    3.8431 H   0  0  0  0  0  0  0  0  0  0  0  0
  1  2  1  0  0  0  0
  2  3  1  0  0  0  0
  2  4  1  0  0  0  0
  2  5  1  0  0  0  0
  5  6  2  0  0  0  0
  5  7  1  0  0  0  0
  7  8  1  0  0  0  0
  7  9  1  0  0  0  0
  9 10  1  0  0  0  0
  9 11  1  0  0  0  0
  9 20  1  0  0  0  0
 11 12  1  0  0  0  0
 11 13  1  0  0  0  0
 11 14  1  0  0  0  0
 14 15  1  0  0  0  0
 14 16  1  0  0  0  0
 14 17  1  0  0  0  0
 17 18  1  0  0  0  0
 17 19  2  0  0  0  0
 20 21  2  0  0  0  0
 20 22  1  0  0  0  0
 22 23  1  0  0  0  0
 22 24  1  0  0  0  0
 24 25  1  0  0  0  0
 24 26  1  0  0  0  0
 24 27  1  0  0  0  0
M  CHG  1  18  -1
M  END
$$$$

  -OEChem-04042215583D

 27 26  0     1  0  0  0  0  0999 V2000
   -2.7192   -3.8623    0.3067 H   0  0  0  0  0  0  0  0  0  0  0  0
   -2.6039   -2.8981   -0.1964 C   0  0  0  0  0  0  0  0  0  0  0  0
   -3.2958   -2.1821    0.2540 H   0  0  0  0  0  0  0  0  0  0  0  0
   -2.8529   -3.0199   -1.2534 H   0  0  0  0  0  0  0  0  0  0  0  0
   -1.1768   -2.3993   -0.0546 C   0  0  0  0  0  0  0  0  0  0  0  0
   -0.3488   -3.0914    0.5126 O   0  0  0  0  0  0  0  0  0  0  0  0
   -0.8305   -1.1827   -0.6032 N   0  0  0  0  0  0  0  0  0  0  0  0
   -1.5827   -0.6311   -1.0044 H   0  0  0  0  0  0  0  0  0  0  0  0
    0.4410   -0.4888   -0.3421 C   0  0  1  0  0  0  0  0  0  0  0  0
    1.2422   -1.1827   -0.6201 H   0  0  0  0  0  0  0  0  0  0  0  0
    0.5050    0.6764   -1.3493 C   0  0  0  0  0  0  0  0  0  0  0  0
    1.5394    1.0369   -1.3832 H   0  0  0  0  0  0  0  0  0  0  0  0
    0.2674    0.3088   -2.3528 H   0  0  0  0  0  0  0  0  0  0  0  0
   -0.4301    1.8591   -1.0050 C   0  0  0  0  0  0  0  0  0  0  0  0
   -1.1110    2.0037   -1.8486 H   0  0  0  0  0  0  0  0  0  0  0  0
   -1.0616    1.6378   -0.1444 H   0  0  0  0  0  0  0  0  0  0  0  0
    0.3006    3.1811   -0.7854 C   0  0  0  0  0  0  0  0  0  0  0  0
    0.9296    3.6788   -1.7505 O   0  5  0  0  0  0  0  0  0  0  0  0
    0.1667    3.7145    0.3428 O   0  0  0  0  0  0  0  0  0  0  0  0
    0.7658   -0.0996    1.1223 C   0  0  0  0  0  0  0  0  0  0  0  0
    1.8661   -0.3840    1.5830 O   0  0  0  0  0  0  0  0  0  0  0  0
   -0.1779    0.4845    1.9487 N   0  0  0  0  0  0  0  0  0  0  0  0
   -0.9175    0.9729    1.4539 H   0  0  0  0  0  0  0  0  0  0  0  0
    0.1770    1.0018    3.2622 C   0  0  0  0  0  0  0  0  0  0  0  0
    0.9277    1.7937    3.1694 H   0  0  0  0  0  0  0  0  0  0  0  0
   -0.7078    1.4184    3.7521 H   0  0  0  0  0  0  0  0  0  0  0  0
    0.5781    0.2036    3.8952 H   0  0  0  0  0  0  0  0  0  0  0  0
  1  2  1  0  0  0  0
  2  3  1  0  0  0  0
  2  4  1  0  0  0  0
  2  5  1  0  0  0  0
  5  6  2  0  0  0  0
  5  7  1  0  0  0  0
  7  8  1  0  0  0  0
  7  9  1  0  0  0  0
  9 10  1  0  0  0  0
  9 11  1  0  0  0  0
  9 20  1  0  0  0  0
 11 12  1  0  0  0  0
 11 13  1  0  0  0  0
 11 14  1  0  0  0  0
 14 15  1  0  0  0  0
 14 16  1  0  0  0  0
 14 17  1  0  0  0  0
 17 18  1  0  0  0  0
 17 19  2  0  0  0  0
 20 21  2  0  0  0  0
 20 22  1  0  0  0  0
 22 23  1  0  0  0  0
 22 24  1  0  0  0  0
 24 25  1  0  0  0  0
 24 26  1  0  0  0  0
 24 27  1  0  0  0  0
M  CHG  1  18  -1
M  END
$$$$

  -OEChem-04042215583D

 27 26  0     1  0  0  0  0  0999 V2000
   -2.6804   -3.9008    0.2785 H   0  0  0  0  0  0  0  0  0  0  0  0
   -2.5785   -2.9314   -0.2176 C   0  0  0  0  0  0  0  0  0  0  0  0
   -3.3033   -2.2372    0.2152 H   0  0  0  0  0  0  0  0  0  0  0  0
   -2.7939   -3.0554   -1.2817 H   0  0  0  0  0  0  0  0  0  0  0  0
   -1.1709   -2.3929   -0.0334 C   0  0  0  0  0  0  0  0  0  0  0  0
   -0.3424   -3.0581    0.5641 O   0  0  0  0  0  0  0  0  0  0  0  0
   -0.8435   -1.1649   -0.5676 N   0  0  0  0  0  0  0  0  0  0  0  0
   -1.5856   -0.6456   -1.0272 H   0  0  0  0  0  0  0  0  0  0  0  0
    0.4271   -0.4604   -0.3338 C   0  0  1  0  0  0  0  0  0  0  0  0
    1.2279   -1.1462   -0.6322 H   0  0  0  0  0  0  0  0  0  0  0  0
    0.4631    0.7047   -1.3439 C   0  0  0  0  0  0  0  0  0  0  0  0
    1.4973    1.0667   -1.3706 H   0  0  0  0  0  0  0  0  0  0  0  0
    0.2321    0.3403   -2.3500 H   0  0  0  0  0  0  0  0  0  0  0  0
   -0.4615    1.8991   -1.0092 C   0  0  0  0  0  0  0  0  0  0  0  0
   -1.3321    1.8612   -1.6698 H   0  0  0  0  0  0  0  0  0  0  0  0
   -0.8404    1.8391    0.0096 H   0  0  0  0  0  0  0  0  0  0  0  0
    0.2221    3.2545   -1.1876 C   0  0  0  0  0  0  0  0  0  0  0  0
    0.7051    3.5193   -2.3159 O   0  5  0  0  0  0  0  0  0  0  0  0
    0.1929    4.0452   -0.2134 O   0  0  0  0  0  0  0  0  0  0  0  0
    0.7697   -0.0998    1.1331 C   0  0  0  0  0  0  0  0  0  0  0  0
    1.8979   -0.3172    1.5602 O   0  0  0  0  0  0  0  0  0  0  0  0
   -0.1740    0.4505    1.9822 N   0  0  0  0  0  0  0  0  0  0  0  0
   -0.9936    0.8318    1.5217 H   0  0  0  0  0  0  0  0  0  0  0  0
    0.1745    0.9818    3.2917 C   0  0  0  0  0  0  0  0  0  0  0  0
    0.8905    1.8041    3.1916 H   0  0  0  0  0  0  0  0  0  0  0  0
   -0.7213    1.3599    3.7928 H   0  0  0  0  0  0  0  0  0  0  0  0
    0.6162    0.2003    3.9183 H   0  0  0  0  0  0  0  0  0  0  0  0
  1  2  1  0  0  0  0
  2  3  1  0  0  0  0
  2  4  1  0  0  0  0
  2  5  1  0  0  0  0
  5  6  2  0  0  0  0
  5  7  1  0  0  0  0
  7  8  1  0  0  0  0
  7  9  1  0  0  0  0
  9 10  1  0  0  0  0
  9 11  1  0  0  0  0
  9 20  1  0  0  0  0
 11 12  1  0  0  0  0
 11 13  1  0  0  0  0
 11 14  1  0  0  0  0
 14 15  1  0  0  0  0
 14 16  1  0  0  0  0
 14 17  1  0  0  0  0
 17 18  1  0  0  0  0
 17 19  2  0  0  0  0
 20 21  2  0  0  0  0
 20 22  1  0  0  0  0
 22 23  1  0  0  0  0
 22 24  1  0  0  0  0
 24 25  1  0  0  0  0
 24 26  1  0  0  0  0
 24 27  1  0  0  0  0
M  CHG  1  18  -1
M  END
$$$$

  -OEChem-04042215583D

 27 26  0     1  0  0  0  0  0999 V2000
   -2.6540   -3.9167    0.2735 H   0  0  0  0  0  0  0  0  0  0  0  0
   -2.5609   -2.9459   -0.2214 C   0  0  0  0  0  0  0  0  0  0  0  0
   -3.3034   -2.2641    0.2007 H   0  0  0  0  0  0  0  0  0  0  0  0
   -2.7590   -3.0737   -1.2885 H   0  0  0  0  0  0  0  0  0  0  0  0
   -1.1648   -2.3842   -0.0171 C   0  0  0  0  0  0  0  0  0  0  0  0
   -0.3363   -3.0327    0.5986 O   0  0  0  0  0  0  0  0  0  0  0  0
   -0.8469   -1.1537   -0.5520 N   0  0  0  0  0  0  0  0  0  0  0  0
   -1.5816   -0.6559   -1.0469 H   0  0  0  0  0  0  0  0  0  0  0  0
    0.4257   -0.4449   -0.3414 C   0  0  1  0  0  0  0  0  0  0  0  0
    1.2260   -1.1242   -0.6552 H   0  0  0  0  0  0  0  0  0  0  0  0
    0.4333    0.7265   -1.3460 C   0  0  0  0  0  0  0  0  0  0  0  0
    1.4635    1.0977   -1.3867 H   0  0  0  0  0  0  0  0  0  0  0  0
    0.1859    0.3687   -2.3510 H   0  0  0  0  0  0  0  0  0  0  0  0
   -0.4854    1.9162   -0.9872 C   0  0  0  0  0  0  0  0  0  0  0  0
   -1.4830    1.7377   -1.3972 H   0  0  0  0  0  0  0  0  0  0  0  0
   -0.5887    2.0200    0.0916 H   0  0  0  0  0  0  0  0  0  0  0  0
    0.0492    3.2471   -1.5191 C   0  0  0  0  0  0  0  0  0  0  0  0
    0.3374    3.3088   -2.7400 O   0  5  0  0  0  0  0  0  0  0  0  0
    0.0929    4.2147   -0.7210 O   0  0  0  0  0  0  0  0  0  0  0  0
    0.7776   -0.0958    1.1253 C   0  0  0  0  0  0  0  0  0  0  0  0
    1.9178   -0.2750    1.5376 O   0  0  0  0  0  0  0  0  0  0  0  0
   -0.1680    0.4413    1.9808 N   0  0  0  0  0  0  0  0  0  0  0  0
   -1.0142    0.7776    1.5336 H   0  0  0  0  0  0  0  0  0  0  0  0
    0.1695    0.9660    3.2957 C   0  0  0  0  0  0  0  0  0  0  0  0
    0.8723    1.8006    3.2049 H   0  0  0  0  0  0  0  0  0  0  0  0
   -0.7331    1.3246    3.7989 H   0  0  0  0  0  0  0  0  0  0  0  0
    0.6229    0.1858    3.9156 H   0  0  0  0  0  0  0  0  0  0  0  0
  1  2  1  0  0  0  0
  2  3  1  0  0  0  0
  2  4  1  0  0  0  0
  2  5  1  0  0  0  0
  5  6  2  0  0  0  0
  5  7  1  0  0  0  0
  7  8  1  0  0  0  0
  7  9  1  0  0  0  0
  9 10  1  0  0  0  0
  9 11  1  0  0  0  0
  9 20  1  0  0  0  0
 11 12  1  0  0  0  0
 11 13  1  0  0  0  0
 11 14  1  0  0  0  0
 14 15  1  0  0  0  0
 14 16  1  0  0  0  0
 14 17  1  0  0  0  0
 17 18  1  0  0  0  0
 17 19  2  0  0  0  0
 20 21  2  0  0  0  0
 20 22  1  0  0  0  0
 22 23  1  0  0  0  0
 22 24  1  0  0  0  0
 24 25  1  0  0  0  0
 24 26  1  0  0  0  0
 24 27  1  0  0  0  0
M  CHG  1  18  -1
M  END
$$$$

  -OEChem-04042215583D

 27 26  0     1  0  0  0  0  0999 V2000
   -2.6406   -3.9299    0.2437 H   0  0  0  0  0  0  0  0  0  0  0  0
   -2.5500   -2.9503   -0.2341 C   0  0  0  0  0  0  0  0  0  0  0  0
   -3.2997   -2.2796    0.1931 H   0  0  0  0  0  0  0  0  0  0  0  0
   -2.7398   -3.0617   -1.3047 H   0  0  0  0  0  0  0  0  0  0  0  0
   -1.1596   -2.3825   -0.0108 C   0  0  0  0  0  0  0  0  0  0  0  0
   -0.3388   -3.0211    0.6255 O   0  0  0  0  0  0  0  0  0  0  0  0
   -0.8383   -1.1558   -0.5515 N   0  0  0  0  0  0  0  0  0  0  0  0
   -1.5616   -0.6730   -1.0776 H   0  0  0  0  0  0  0  0  0  0  0  0
    0.4366   -0.4484   -0.3513 C   0  0  1  0  0  0  0  0  0  0  0  0
    1.2389   -1.1199   -0.6758 H   0  0  0  0  0  0  0  0  0  0  0  0
    0.4185    0.7358   -1.3397 C   0  0  0  0  0  0  0  0  0  0  0  0
    1.4425    1.1198   -1.4076 H   0  0  0  0  0  0  0  0  0  0  0  0
    0.1408    0.3851   -2.3396 H   0  0  0  0  0  0  0  0  0  0  0  0
   -0.4999    1.9085   -0.9348 C   0  0  0  0  0  0  0  0  0  0  0  0
   -1.5466    1.6263   -1.0778 H   0  0  0  0  0  0  0  0  0  0  0  0
   -0.3584    2.1625    0.1164 H   0  0  0  0  0  0  0  0  0  0  0  0
   -0.1965    3.1670   -1.7485 C   0  0  0  0  0  0  0  0  0  0  0  0
   -0.2741    3.0723   -2.9986 O   0  5  0  0  0  0  0  0  0  0  0  0
    0.0409    4.2282   -1.1224 O   0  0  0  0  0  0  0  0  0  0  0  0
    0.7856   -0.0984    1.1145 C   0  0  0  0  0  0  0  0  0  0  0  0
    1.9304   -0.2517    1.5246 O   0  0  0  0  0  0  0  0  0  0  0  0
   -0.1674    0.4400    1.9609 N   0  0  0  0  0  0  0  0  0  0  0  0
   -1.0217    0.7495    1.5094 H   0  0  0  0  0  0  0  0  0  0  0  0
    0.1605    0.9874    3.2688 C   0  0  0  0  0  0  0  0  0  0  0  0
    0.8400    1.8398    3.1663 H   0  0  0  0  0  0  0  0  0  0  0  0
   -0.7496    1.3261    3.7726 H   0  0  0  0  0  0  0  0  0  0  0  0
    0.6378    0.2264    3.8946 H   0  0  0  0  0  0  0  0  0  0  0  0
  1  2  1  0  0  0  0
  2  3  1  0  0  0  0
  2  4  1  0  0  0  0
  2  5  1  0  0  0  0
  5  6  2  0  0  0  0
  5  7  1  0  0  0  0
  7  8  1  0  0  0  0
  7  9  1  0  0  0  0
  9 10  1  0  0  0  0
  9 11  1  0  0  0  0
  9 20  1  0  0  0  0
 11 12  1  0  0  0  0
 11 13  1  0  0  0  0
 11 14  1  0  0  0  0
 14 15  1  0  0  0  0
 14 16  1  0  0  0  0
 14 17  1  0  0  0  0
 17 18  1  0  0  0  0
 17 19  2  0  0  0  0
 20 21  2  0  0  0  0
 20 22  1  0  0  0  0
 22 23  1  0  0  0  0
 22 24  1  0  0  0  0
 24 25  1  0  0  0  0
 24 26  1  0  0  0  0
 24 27  1  0  0  0  0
M  CHG  1  18  -1
M  END
$$$$

  -OEChem-04042215583D

 27 26  0     1  0  0  0  0  0999 V2000
   -2.6897   -3.8876    0.3083 H   0  0  0  0  0  0  0  0  0  0  0  0
   -2.5841   -2.9251   -0.2003 C   0  0  0  0  0  0  0  0  0  0  0  0
   -3.3224   -2.2293    0.2062 H   0  0  0  0  0  0  0  0  0  0  0  0
   -2.7770   -3.0672   -1.2666 H   0  0  0  0  0  0  0  0  0  0  0  0
   -1.1840   -2.3737    0.0038 C   0  0  0  0  0  0  0  0  0  0  0  0
   -0.3643   -3.0195    0.6344 O   0  0  0  0  0  0  0  0  0  0  0  0
   -0.8515   -1.1568   -0.5527 N   0  0  0  0  0  0  0  0  0  0  0  0
   -1.5758   -0.6683   -1.0717 H   0  0  0  0  0  0  0  0  0  0  0  0
    0.4392   -0.4690   -0.3779 C   0  0  1  0  0  0  0  0  0  0  0  0
    1.2241   -1.1543   -0.7158 H   0  0  0  0  0  0  0  0  0  0  0  0
    0.4176    0.7199   -1.3646 C   0  0  0  0  0  0  0  0  0  0  0  0
    1.4513    0.9248   -1.6635 H   0  0  0  0  0  0  0  0  0  0  0  0
   -0.1274    0.4429   -2.2738 H   0  0  0  0  0  0  0  0  0  0  0  0
   -0.1653    2.0268   -0.7858 C   0  0  0  0  0  0  0  0  0  0  0  0
   -1.1896    1.8450   -0.4488 H   0  0  0  0  0  0  0  0  0  0  0  0
    0.4316    2.3455    0.0730 H   0  0  0  0  0  0  0  0  0  0  0  0
   -0.1810    3.1923   -1.7818 C   0  0  0  0  0  0  0  0  0  0  0  0
    0.2212    3.0024   -2.9574 O   0  5  0  0  0  0  0  0  0  0  0  0
   -0.6744    4.2673   -1.3620 O   0  0  0  0  0  0  0  0  0  0  0  0
    0.8099   -0.1162    1.0818 C   0  0  0  0  0  0  0  0  0  0  0  0
    1.9543   -0.2866    1.4865 O   0  0  0  0  0  0  0  0  0  0  0  0
   -0.1308    0.4436    1.9286 N   0  0  0  0  0  0  0  0  0  0  0  0
   -0.9787    0.7724    1.4781 H   0  0  0  0  0  0  0  0  0  0  0  0
    0.2064    0.9741    3.2408 C   0  0  0  0  0  0  0  0  0  0  0  0
    0.9081    1.8091    3.1461 H   0  0  0  0  0  0  0  0  0  0  0  0
   -0.6965    1.3327    3.7438 H   0  0  0  0  0  0  0  0  0  0  0  0
    0.6613    0.1964    3.8628 H   0  0  0  0  0  0  0  0  0  0  0  0
  1  2  1  0  0  0  0
  2  3  1  0  0  0  0
  2  4  1  0  0  0  0
  2  5  1  0  0  0  0
  5  6  2  0  0  0  0
  5  7  1  0  0  0  0
  7  8  1  0  0  0  0
  7  9  1  0  0  0  0
  9 10  1  0  0  0  0
  9 11  1  0  0  0  0
  9 20  1  0  0  0  0
 11 12  1  0  0  0  0
 11 13  1  0  0  0  0
 11 14  1  0  0  0  0
 14 15  1  0  0  0  0
 14 16  1  0  0  0  0
 14 17  1  0  0  0  0
 17 18  1  0  0  0  0
 17 19  2  0  0  0  0
 20 21  2  0  0  0  0
 20 22  1  0  0  0  0
 22 23  1  0  0  0  0
 22 24  1  0  0  0  0
 24 25  1  0  0  0  0
 24 26  1  0  0  0  0
 24 27  1  0  0  0  0
M  CHG  1  18  -1
M  END
$$$$

  -OEChem-04042215583D

 27 26  0     1  0  0  0  0  0999 V2000
   -2.7615   -3.8479    0.3249 H   0  0  0  0  0  0  0  0  0  0  0  0
   -2.6607   -2.8666   -0.1474 C   0  0  0  0  0  0  0  0  0  0  0  0
   -3.3671   -2.1761    0.3201 H   0  0  0  0  0  0  0  0  0  0  0  0
   -2.9029   -2.9598   -1.2091 H   0  0  0  0  0  0  0  0  0  0  0  0
   -1.2435   -2.3472    0.0171 C   0  0  0  0  0  0  0  0  0  0  0  0
   -0.4207   -3.0104    0.6257 O   0  0  0  0  0  0  0  0  0  0  0  0
   -0.9001   -1.1346   -0.5410 N   0  0  0  0  0  0  0  0  0  0  0  0
   -1.6274   -0.6253   -1.0387 H   0  0  0  0  0  0  0  0  0  0  0  0
    0.4075   -0.4741   -0.3967 C   0  0  1  0  0  0  0  0  0  0  0  0
    1.1670   -1.1747   -0.7596 H   0  0  0  0  0  0  0  0  0  0  0  0
    0.3816    0.7171   -1.3770 C   0  0  0  0  0  0  0  0  0  0  0  0
    1.4042    0.9114   -1.7167 H   0  0  0  0  0  0  0  0  0  0  0  0
   -0.2008    0.4477   -2.2655 H   0  0  0  0  0  0  0  0  0  0  0  0
   -0.1625    2.0218   -0.7670 C   0  0  0  0  0  0  0  0  0  0  0  0
   -1.0759    1.8207   -0.2009 H   0  0  0  0  0  0  0  0  0  0  0  0
    0.5739    2.4528   -0.0816 H   0  0  0  0  0  0  0  0  0  0  0  0
   -0.5056    3.0331   -1.8590 C   0  0  0  0  0  0  0  0  0  0  0  0
    0.2018    4.0631   -1.9671 O   0  5  0  0  0  0  0  0  0  0  0  0
   -1.4940    2.7583   -2.5860 O   0  0  0  0  0  0  0  0  0  0  0  0
    0.8320   -0.1327    1.0509 C   0  0  0  0  0  0  0  0  0  0  0  0
    1.9892   -0.3136    1.4123 O   0  0  0  0  0  0  0  0  0  0  0  0
   -0.0669    0.4433    1.9307 N   0  0  0  0  0  0  0  0  0  0  0  0
   -0.9425    0.7528    1.5213 H   0  0  0  0  0  0  0  0  0  0  0  0
    0.3185    0.9628    3.2339 C   0  0  0  0  0  0  0  0  0  0  0  0
    1.0188    1.7966    3.1202 H   0  0  0  0  0  0  0  0  0  0  0  0
   -0.5650    1.3195    3.7715 H   0  0  0  0  0  0  0  0  0  0  0  0
    0.7934    0.1795    3.8335 H   0  0  0  0  0  0  0  0  0  0  0  0
  1  2  1  0  0  0  0
  2  3  1  0  0  0  0
  2  4  1  0  0  0  0
  2  5  1  0  0  0  0
  5  6  2  0  0  0  0
  5  7  1  0  0  0  0
  7  8  1  0  0  0  0
  7  9  1  0  0  0  0
  9 10  1  0  0  0  0
  9 11  1  0  0  0  0
  9 20  1  0  0  0  0
 11 12  1  0  0  0  0
 11 13  1  0  0  0  0
 11 14  1  0  0  0  0
 14 15  1  0  0  0  0
 14 16  1  0  0  0  0
 14 17  1  0  0  0  0
 17 18  1  0  0  0  0
 17 19  2  0  0  0  0
 20 21  2  0  0  0  0
 20 22  1  0  0  0  0
 22 23  1  0  0  0  0
 22 24  1  0  0  0  0
 24 25  1  0  0  0  0
 24 26  1  0  0  0  0
 24 27  1  0  0  0  0
M  CHG  1  18  -1
M  END
$$$$

  -OEChem-04042215583D

 27 26  0     1  0  0  0  0  0999 V2000
   -2.7733   -3.8425    0.3278 H   0  0  0  0  0  0  0  0  0  0  0  0
   -2.6663   -2.8678   -0.1562 C   0  0  0  0  0  0  0  0  0  0  0  0
   -3.3773   -2.1706    0.2941 H   0  0  0  0  0  0  0  0  0  0  0  0
   -2.8971   -2.9746   -1.2192 H   0  0  0  0  0  0  0  0  0  0  0  0
   -1.2509   -2.3465    0.0167 C   0  0  0  0  0  0  0  0  0  0  0  0
   -0.4281   -3.0116    0.6241 O   0  0  0  0  0  0  0  0  0  0  0  0
   -0.9076   -1.1297   -0.5314 N   0  0  0  0  0  0  0  0  0  0  0  0
   -1.6367   -0.6131   -1.0216 H   0  0  0  0  0  0  0  0  0  0  0  0
    0.3973   -0.4668   -0.3774 C   0  0  1  0  0  0  0  0  0  0  0  0
    1.1554   -1.1721   -0.7341 H   0  0  0  0  0  0  0  0  0  0  0  0
    0.3882    0.7144   -1.3684 C   0  0  0  0  0  0  0  0  0  0  0  0
    1.4143    0.9045   -1.6998 H   0  0  0  0  0  0  0  0  0  0  0  0
   -0.1806    0.4301   -2.2612 H   0  0  0  0  0  0  0  0  0  0  0  0
   -0.1631    2.0282   -0.7822 C   0  0  0  0  0  0  0  0  0  0  0  0
   -0.9362    1.8227   -0.0388 H   0  0  0  0  0  0  0  0  0  0  0  0
    0.6384    2.5888   -0.2915 H   0  0  0  0  0  0  0  0  0  0  0  0
   -0.8218    2.8703   -1.8718 C   0  0  0  0  0  0  0  0  0  0  0  0
   -0.2383    3.9064   -2.2703 O   0  5  0  0  0  0  0  0  0  0  0  0
   -1.9222    2.4469   -2.3107 O   0  0  0  0  0  0  0  0  0  0  0  0
    0.8261   -0.1290    1.0703 C   0  0  0  0  0  0  0  0  0  0  0  0
    1.9920   -0.2844    1.4164 O   0  0  0  0  0  0  0  0  0  0  0  0
   -0.0666    0.4418    1.9599 N   0  0  0  0  0  0  0  0  0  0  0  0
   -0.9585    0.7245    1.5661 H   0  0  0  0  0  0  0  0  0  0  0  0
    0.3273    0.9723    3.2561 C   0  0  0  0  0  0  0  0  0  0  0  0
    1.0214    1.8095    3.1305 H   0  0  0  0  0  0  0  0  0  0  0  0
   -0.5530    1.3281    3.7994 H   0  0  0  0  0  0  0  0  0  0  0  0
    0.8121    0.1958    3.8564 H   0  0  0  0  0  0  0  0  0  0  0  0
  1  2  1  0  0  0  0
  2  3  1  0  0  0  0
  2  4  1  0  0  0  0
  2  5  1  0  0  0  0
  5  6  2  0  0  0  0
  5  7  1  0  0  0  0
  7  8  1  0  0  0  0
  7  9  1  0  0  0  0
  9 10  1  0  0  0  0
  9 11  1  0  0  0  0
  9 20  1  0  0  0  0
 11 12  1  0  0  0  0
 11 13  1  0  0  0  0
 11 14  1  0  0  0  0
 14 15  1  0  0  0  0
 14 16  1  0  0  0  0
 14 17  1  0  0  0  0
 17 18  1  0  0  0  0
 17 19  2  0  0  0  0
 20 21  2  0  0  0  0
 20 22  1  0  0  0  0
 22 23  1  0  0  0  0
 22 24  1  0  0  0  0
 24 25  1  0  0  0  0
 24 26  1  0  0  0  0
 24 27  1  0  0  0  0
M  CHG  1  18  -1
M  END
$$$$

  -OEChem-04042215583D

 27 26  0     1  0  0  0  0  0999 V2000
   -2.6531   -3.8928    0.1810 H   0  0  0  0  0  0  0  0  0  0  0  0
   -2.5653   -2.8984   -0.2652 C   0  0  0  0  0  0  0  0  0  0  0  0
   -3.2968   -2.2352    0.2034 H   0  0  0  0  0  0  0  0  0  0  0  0
   -2.7839   -2.9698   -1.3337 H   0  0  0  0  0  0  0  0  0  0  0  0
   -1.1645   -2.3504   -0.0596 C   0  0  0  0  0  0  0  0  0  0  0  0
   -0.3301   -3.0165    0.5316 O   0  0  0  0  0  0  0  0  0  0  0  0
   -0.8473   -1.1052   -0.5556 N   0  0  0  0  0  0  0  0  0  0  0  0
   -1.5920   -0.5799   -1.0175 H   0  0  0  0  0  0  0  0  0  0  0  0
    0.4296   -0.4050   -0.3481 C   0  0  1  0  0  0  0  0  0  0  0  0
    1.2166   -1.0796   -0.7008 H   0  0  0  0  0  0  0  0  0  0  0  0
    0.4019    0.7814   -1.3314 C   0  0  0  0  0  0  0  0  0  0  0  0
    1.4336    1.0118   -1.6161 H   0  0  0  0  0  0  0  0  0  0  0  0
   -0.1079    0.4767   -2.2529 H   0  0  0  0  0  0  0  0  0  0  0  0
   -0.2162    2.0787   -0.7694 C   0  0  0  0  0  0  0  0  0  0  0  0
   -0.8069    1.8877    0.1256 H   0  0  0  0  0  0  0  0  0  0  0  0
    0.5727    2.7905   -0.5075 H   0  0  0  0  0  0  0  0  0  0  0  0
   -1.1711    2.6853   -1.7933 C   0  0  0  0  0  0  0  0  0  0  0  0
   -2.2343    2.0412   -1.9957 O   0  5  0  0  0  0  0  0  0  0  0  0
   -0.8585    3.7581   -2.3620 O   0  0  0  0  0  0  0  0  0  0  0  0
    0.8183   -0.1015    1.1185 C   0  0  0  0  0  0  0  0  0  0  0  0
    1.9848   -0.2169    1.4786 O   0  0  0  0  0  0  0  0  0  0  0  0
   -0.1074    0.4082    2.0110 N   0  0  0  0  0  0  0  0  0  0  0  0
   -1.0128    0.6494    1.6188 H   0  0  0  0  0  0  0  0  0  0  0  0
    0.2362    0.8882    3.3405 C   0  0  0  0  0  0  0  0  0  0  0  0
    0.9065    1.7511    3.2732 H   0  0  0  0  0  0  0  0  0  0  0  0
   -0.6689    1.1905    3.8753 H   0  0  0  0  0  0  0  0  0  0  0  0
    0.7294    0.0990    3.9170 H   0  0  0  0  0  0  0  0  0  0  0  0
  1  2  1  0  0  0  0
  2  3  1  0  0  0  0
  2  4  1  0  0  0  0
  2  5  1  0  0  0  0
  5  6  2  0  0  0  0
  5  7  1  0  0  0  0
  7  8  1  0  0  0  0
  7  9  1  0  0  0  0
  9 10  1  0  0  0  0
  9 11  1  0  0  0  0
  9 20  1  0  0  0  0
 11 12  1  0  0  0  0
 11 13  1  0  0  0  0
 11 14  1  0  0  0  0
 14 15  1  0  0  0  0
 14 16  1  0  0  0  0
 14 17  1  0  0  0  0
 17 18  1  0  0  0  0
 17 19  2  0  0  0  0
 20 21  2  0  0  0  0
 20 22  1  0  0  0  0
 22 23  1  0  0  0  0
 22 24  1  0  0  0  0
 24 25  1  0  0  0  0
 24 26  1  0  0  0  0
 24 27  1  0  0  0  0
M  CHG  1  18  -1
M  END
$$$$

  -OEChem-04042215583D

 27 26  0     1  0  0  0  0  0999 V2000
   -2.7020   -3.8016    0.2541 H   0  0  0  0  0  0  0  0  0  0  0  0
   -2.5828   -2.8387   -0.2499 C   0  0  0  0  0  0  0  0  0  0  0  0
   -3.2886   -2.1243    0.1815 H   0  0  0  0  0  0  0  0  0  0  0  0
   -2.8095   -2.9633   -1.3118 H   0  0  0  0  0  0  0  0  0  0  0  0
   -1.1631   -2.3280   -0.0822 C   0  0  0  0  0  0  0  0  0  0  0  0
   -0.3229   -3.0260    0.4639 O   0  0  0  0  0  0  0  0  0  0  0  0
   -0.8353   -1.0790   -0.5586 N   0  0  0  0  0  0  0  0  0  0  0  0
   -1.5946   -0.5123   -0.9525 H   0  0  0  0  0  0  0  0  0  0  0  0
    0.4477   -0.3931   -0.3477 C   0  0  1  0  0  0  0  0  0  0  0  0
    1.2302   -1.0678   -0.7109 H   0  0  0  0  0  0  0  0  0  0  0  0
    0.3959    0.7871   -1.3361 C   0  0  0  0  0  0  0  0  0  0  0  0
    1.4312    1.0227   -1.6029 H   0  0  0  0  0  0  0  0  0  0  0  0
   -0.0903    0.4798   -2.2701 H   0  0  0  0  0  0  0  0  0  0  0  0
   -0.2232    2.0890   -0.7832 C   0  0  0  0  0  0  0  0  0  0  0  0
   -0.5413    2.0115    0.2529 H   0  0  0  0  0  0  0  0  0  0  0  0
    0.5118    2.8974   -0.8411 H   0  0  0  0  0  0  0  0  0  0  0  0
   -1.4444    2.4452   -1.6251 C   0  0  0  0  0  0  0  0  0  0  0  0
   -2.3829    1.6027   -1.5877 O   0  5  0  0  0  0  0  0  0  0  0  0
   -1.4596    3.5151   -2.2784 O   0  0  0  0  0  0  0  0  0  0  0  0
    0.8374   -0.1208    1.1243 C   0  0  0  0  0  0  0  0  0  0  0  0
    2.0064   -0.2303    1.4787 O   0  0  0  0  0  0  0  0  0  0  0  0
   -0.0872    0.3779    2.0240 N   0  0  0  0  0  0  0  0  0  0  0  0
   -1.0004    0.6055    1.6390 H   0  0  0  0  0  0  0  0  0  0  0  0
    0.2536    0.8391    3.3606 C   0  0  0  0  0  0  0  0  0  0  0  0
    0.9556    1.6774    3.3081 H   0  0  0  0  0  0  0  0  0  0  0  0
   -0.6478    1.1722    3.8832 H   0  0  0  0  0  0  0  0  0  0  0  0
    0.7095    0.0293    3.9392 H   0  0  0  0  0  0  0  0  0  0  0  0
  1  2  1  0  0  0  0
  2  3  1  0  0  0  0
  2  4  1  0  0  0  0
  2  5  1  0  0  0  0
  5  6  2  0  0  0  0
  5  7  1  0  0  0  0
  7  8  1  0  0  0  0
  7  9  1  0  0  0  0
  9 10  1  0  0  0  0
  9 11  1  0  0  0  0
  9 20  1  0  0  0  0
 11 12  1  0  0  0  0
 11 13  1  0  0  0  0
 11 14  1  0  0  0  0
 14 15  1  0  0  0  0
 14 16  1  0  0  0  0
 14 17  1  0  0  0  0
 17 18  1  0  0  0  0
 17 19  2  0  0  0  0
 20 21  2  0  0  0  0
 20 22  1  0  0  0  0
 22 23  1  0  0  0  0
 22 24  1  0  0  0  0
 24 25  1  0  0  0  0
 24 26  1  0  0  0  0
 24 27  1  0  0  0  0
M  CHG  1  18  -1
M  END
$$$$

  -OEChem-04042215583D

 27 26  0     1  0  0  0  0  0999 V2000
   -2.6956   -3.7312    0.3969 H   0  0  0  0  0  0  0  0  0  0  0  0
   -2.5806   -2.7848   -0.1383 C   0  0  0  0  0  0  0  0  0  0  0  0
   -3.2197   -2.0326    0.3321 H   0  0  0  0  0  0  0  0  0  0  0  0
   -2.8991   -2.9205   -1.1749 H   0  0  0  0  0  0  0  0  0  0  0  0
   -1.1335   -2.3284   -0.0991 C   0  0  0  0  0  0  0  0  0  0  0  0
   -0.2709   -3.0653    0.3545 O   0  0  0  0  0  0  0  0  0  0  0  0
   -0.8084   -1.0841   -0.5876 N   0  0  0  0  0  0  0  0  0  0  0  0
   -1.5966   -0.4732   -0.8448 H   0  0  0  0  0  0  0  0  0  0  0  0
    0.4804   -0.4060   -0.3903 C   0  0  1  0  0  0  0  0  0  0  0  0
    1.2644   -1.0757   -0.7585 H   0  0  0  0  0  0  0  0  0  0  0  0
    0.4138    0.7907   -1.3634 C   0  0  0  0  0  0  0  0  0  0  0  0
    1.4494    1.0225   -1.6317 H   0  0  0  0  0  0  0  0  0  0  0  0
   -0.0848    0.5078   -2.2983 H   0  0  0  0  0  0  0  0  0  0  0  0
   -0.1872    2.0906   -0.7881 C   0  0  0  0  0  0  0  0  0  0  0  0
   -0.1951    2.1397    0.2972 H   0  0  0  0  0  0  0  0  0  0  0  0
    0.4167    2.9350   -1.1340 H   0  0  0  0  0  0  0  0  0  0  0  0
   -1.6020    2.2554   -1.3376 C   0  0  0  0  0  0  0  0  0  0  0  0
   -2.4054    1.3277   -1.0386 O   0  5  0  0  0  0  0  0  0  0  0  0
   -1.8886    3.2619   -2.0269 O   0  0  0  0  0  0  0  0  0  0  0  0
    0.8392   -0.1505    1.0911 C   0  0  0  0  0  0  0  0  0  0  0  0
    1.9984   -0.2643    1.4758 O   0  0  0  0  0  0  0  0  0  0  0  0
   -0.1141    0.3444    1.9630 N   0  0  0  0  0  0  0  0  0  0  0  0
   -1.0101    0.5868    1.5428 H   0  0  0  0  0  0  0  0  0  0  0  0
    0.1813    0.7943    3.3139 C   0  0  0  0  0  0  0  0  0  0  0  0
    0.8644    1.6493    3.2910 H   0  0  0  0  0  0  0  0  0  0  0  0
   -0.7412    1.0983    3.8173 H   0  0  0  0  0  0  0  0  0  0  0  0
    0.6413   -0.0123    3.8938 H   0  0  0  0  0  0  0  0  0  0  0  0
  1  2  1  0  0  0  0
  2  3  1  0  0  0  0
  2  4  1  0  0  0  0
  2  5  1  0  0  0  0
  5  6  2  0  0  0  0
  5  7  1  0  0  0  0
  7  8  1  0  0  0  0
  7  9  1  0  0  0  0
  9 10  1  0  0  0  0
  9 11  1  0  0  0  0
  9 20  1  0  0  0  0
 11 12  1  0  0  0  0
 11 13  1  0  0  0  0
 11 14  1  0  0  0  0
 14 15  1  0  0  0  0
 14 16  1  0  0  0  0
 14 17  1  0  0  0  0
 17 18  1  0  0  0  0
 17 19  2  0  0  0  0
 20 21  2  0  0  0  0
 20 22  1  0  0  0  0
 22 23  1  0  0  0  0
 22 24  1  0  0  0  0
 24 25  1  0  0  0  0
 24 26  1  0  0  0  0
 24 27  1  0  0  0  0
M  CHG  1  18  -1
M  END
$$$$

  -OEChem-04042215583D

 27 26  0     1  0  0  0  0  0999 V2000
   -2.6083   -3.6979    0.5770 H   0  0  0  0  0  0  0  0  0  0  0  0
   -2.5375   -2.7591    0.0212 C   0  0  0  0  0  0  0  0  0  0  0  0
   -3.0832   -1.9842    0.5666 H   0  0  0  0  0  0  0  0  0  0  0  0
   -2.9968   -2.8907   -0.9615 H   0  0  0  0  0  0  0  0  0  0  0  0
   -1.0849   -2.3494   -0.1390 C   0  0  0  0  0  0  0  0  0  0  0  0
   -0.1925   -3.1256    0.1696 O   0  0  0  0  0  0  0  0  0  0  0  0
   -0.7886   -1.1093   -0.6583 N   0  0  0  0  0  0  0  0  0  0  0  0
   -1.5923   -0.4705   -0.7197 H   0  0  0  0  0  0  0  0  0  0  0  0
    0.5071   -0.4381   -0.4724 C   0  0  1  0  0  0  0  0  0  0  0  0
    1.2975   -1.0970   -0.8456 H   0  0  0  0  0  0  0  0  0  0  0  0
    0.4482    0.8092   -1.3881 C   0  0  0  0  0  0  0  0  0  0  0  0
    1.4809    1.0317   -1.6744 H   0  0  0  0  0  0  0  0  0  0  0  0
   -0.0919    0.5852   -2.3153 H   0  0  0  0  0  0  0  0  0  0  0  0
   -0.1137    2.0908   -0.7376 C   0  0  0  0  0  0  0  0  0  0  0  0
    0.1644    2.2156    0.3079 H   0  0  0  0  0  0  0  0  0  0  0  0
    0.3123    2.9499   -1.2645 H   0  0  0  0  0  0  0  0  0  0  0  0
   -1.6265    2.1366   -0.9263 C   0  0  0  0  0  0  0  0  0  0  0  0
   -2.2725    1.2825   -0.2562 O   0  5  0  0  0  0  0  0  0  0  0  0
   -2.1327    2.9492   -1.7340 O   0  0  0  0  0  0  0  0  0  0  0  0
    0.8071   -0.2011    1.0243 C   0  0  0  0  0  0  0  0  0  0  0  0
    1.9446   -0.3308    1.4655 O   0  0  0  0  0  0  0  0  0  0  0  0
   -0.1970    0.2917    1.8405 N   0  0  0  0  0  0  0  0  0  0  0  0
   -1.0476    0.5902    1.3490 H   0  0  0  0  0  0  0  0  0  0  0  0
    0.0304    0.7658    3.1951 C   0  0  0  0  0  0  0  0  0  0  0  0
    0.6987    1.6326    3.1886 H   0  0  0  0  0  0  0  0  0  0  0  0
   -0.9193    1.0598    3.6520 H   0  0  0  0  0  0  0  0  0  0  0  0
    0.4782   -0.0239    3.8068 H   0  0  0  0  0  0  0  0  0  0  0  0
  1  2  1  0  0  0  0
  2  3  1  0  0  0  0
  2  4  1  0  0  0  0
  2  5  1  0  0  0  0
  5  6  2  0  0  0  0
  5  7  1  0  0  0  0
  7  8  1  0  0  0  0
  7  9  1  0  0  0  0
  9 10  1  0  0  0  0
  9 11  1  0  0  0  0
  9 20  1  0  0  0  0
 11 12  1  0  0  0  0
 11 13  1  0  0  0  0
 11 14  1  0  0  0  0
 14 15  1  0  0  0  0
 14 16  1  0  0  0  0
 14 17  1  0  0  0  0
 17 18  1  0  0  0  0
 17 19  2  0  0  0  0
 20 21  2  0  0  0  0
 20 22  1  0  0  0  0
 22 23  1  0  0  0  0
 22 24  1  0  0  0  0
 24 25  1  0  0  0  0
 24 26  1  0  0  0  0
 24 27  1  0  0  0  0
M  CHG  1  18  -1
M  END
$$$$

  -OEChem-04042215583D

 27 26  0     1  0  0  0  0  0999 V2000
   -2.5951   -3.8136    0.6192 H   0  0  0  0  0  0  0  0  0  0  0  0
   -2.5421   -2.8288    0.1474 C   0  0  0  0  0  0  0  0  0  0  0  0
   -3.0550   -2.1030    0.7843 H   0  0  0  0  0  0  0  0  0  0  0  0
   -3.0481   -2.8707   -0.8202 H   0  0  0  0  0  0  0  0  0  0  0  0
   -1.0951   -2.4117   -0.0436 C   0  0  0  0  0  0  0  0  0  0  0  0
   -0.1922   -3.1697    0.2804 O   0  0  0  0  0  0  0  0  0  0  0  0
   -0.8177   -1.1884   -0.6106 N   0  0  0  0  0  0  0  0  0  0  0  0
   -1.6282   -0.5580   -0.6530 H   0  0  0  0  0  0  0  0  0  0  0  0
    0.4615   -0.4915   -0.4182 C   0  0  1  0  0  0  0  0  0  0  0  0
    1.2545   -1.1756   -0.7374 H   0  0  0  0  0  0  0  0  0  0  0  0
    0.4806    0.7095   -1.3956 C   0  0  0  0  0  0  0  0  0  0  0  0
    1.5287    0.8981   -1.6476 H   0  0  0  0  0  0  0  0  0  0  0  0
   -0.0267    0.4403   -2.3283 H   0  0  0  0  0  0  0  0  0  0  0  0
   -0.0973    2.0402   -0.8632 C   0  0  0  0  0  0  0  0  0  0  0  0
    0.3168    2.2970    0.1143 H   0  0  0  0  0  0  0  0  0  0  0  0
    0.2071    2.8383   -1.5472 H   0  0  0  0  0  0  0  0  0  0  0  0
   -1.6294    2.0249   -0.7990 C   0  0  0  0  0  0  0  0  0  0  0  0
   -2.2593    2.8099   -1.5442 O   0  5  0  0  0  0  0  0  0  0  0  0
   -2.1712    1.1809   -0.0336 O   0  0  0  0  0  0  0  0  0  0  0  0
    0.7776   -0.1619    1.0584 C   0  0  0  0  0  0  0  0  0  0  0  0
    1.9259   -0.2555    1.4820 O   0  0  0  0  0  0  0  0  0  0  0  0
   -0.2071    0.3685    1.8707 N   0  0  0  0  0  0  0  0  0  0  0  0
   -1.0724    0.6343    1.3815 H   0  0  0  0  0  0  0  0  0  0  0  0
    0.0539    0.9390    3.1813 C   0  0  0  0  0  0  0  0  0  0  0  0
    0.7124    1.8090    3.0938 H   0  0  0  0  0  0  0  0  0  0  0  0
   -0.8854    1.2573    3.6431 H   0  0  0  0  0  0  0  0  0  0  0  0
    0.5264    0.1988    3.8348 H   0  0  0  0  0  0  0  0  0  0  0  0
  1  2  1  0  0  0  0
  2  3  1  0  0  0  0
  2  4  1  0  0  0  0
  2  5  1  0  0  0  0
  5  6  2  0  0  0  0
  5  7  1  0  0  0  0
  7  8  1  0  0  0  0
  7  9  1  0  0  0  0
  9 10  1  0  0  0  0
  9 11  1  0  0  0  0
  9 20  1  0  0  0  0
 11 12  1  0  0  0  0
 11 13  1  0  0  0  0
 11 14  1  0  0  0  0
 14 15  1  0  0  0  0
 14 16  1  0  0  0  0
 14 17  1  0  0  0  0
 17 18  1  0  0  0  0
 17 19  2  0  0  0  0
 20 21  2  0  0  0  0
 20 22  1  0  0  0  0
 22 23  1  0  0  0  0
 22 24  1  0  0  0  0
 24 25  1  0  0  0  0
 24 26  1  0  0  0  0
 24 27  1  0  0  0  0
M  CHG  1  18  -1
M  END
$$$$

  -OEChem-04042215583D

 27 26  0     1  0  0  0  0  0999 V2000
   -2.6943   -3.7941    0.4569 H   0  0  0  0  0  0  0  0  0  0  0  0
   -2.5899   -2.8482   -0.0811 C   0  0  0  0  0  0  0  0  0  0  0  0
   -3.2300   -2.0989    0.3927 H   0  0  0  0  0  0  0  0  0  0  0  0
   -2.9145   -2.9877   -1.1151 H   0  0  0  0  0  0  0  0  0  0  0  0
   -1.1463   -2.3809   -0.0525 C   0  0  0  0  0  0  0  0  0  0  0  0
   -0.2769   -3.1042    0.4116 O   0  0  0  0  0  0  0  0  0  0  0  0
   -0.8311   -1.1520   -0.5831 N   0  0  0  0  0  0  0  0  0  0  0  0
   -1.6261   -0.5649   -0.8701 H   0  0  0  0  0  0  0  0  0  0  0  0
    0.4381   -0.4459   -0.3631 C   0  0  1  0  0  0  0  0  0  0  0  0
    1.2289   -1.1349   -0.6769 H   0  0  0  0  0  0  0  0  0  0  0  0
    0.4534    0.7248   -1.3746 C   0  0  0  0  0  0  0  0  0  0  0  0
    1.4976    0.9393   -1.6217 H   0  0  0  0  0  0  0  0  0  0  0  0
   -0.0367    0.4222   -2.3067 H   0  0  0  0  0  0  0  0  0  0  0  0
   -0.1742    2.0350   -0.8565 C   0  0  0  0  0  0  0  0  0  0  0  0
    0.3883    2.4130    0.0026 H   0  0  0  0  0  0  0  0  0  0  0  0
   -0.1200    2.7929   -1.6426 H   0  0  0  0  0  0  0  0  0  0  0  0
   -1.6471    1.8268   -0.4775 C   0  0  0  0  0  0  0  0  0  0  0  0
   -2.3744    1.1721   -1.2677 O   0  5  0  0  0  0  0  0  0  0  0  0
   -1.9908    2.1526    0.6833 O   0  0  0  0  0  0  0  0  0  0  0  0
    0.7980   -0.0939    1.1018 C   0  0  0  0  0  0  0  0  0  0  0  0
    1.9571   -0.2441    1.4797 O   0  0  0  0  0  0  0  0  0  0  0  0
   -0.1232    0.4473    1.9808 N   0  0  0  0  0  0  0  0  0  0  0  0
   -0.9712    0.8429    1.5551 H   0  0  0  0  0  0  0  0  0  0  0  0
    0.2371    0.9307    3.3034 C   0  0  0  0  0  0  0  0  0  0  0  0
    0.9576    1.7511    3.2277 H   0  0  0  0  0  0  0  0  0  0  0  0
   -0.6549    1.2974    3.8199 H   0  0  0  0  0  0  0  0  0  0  0  0
    0.6751    0.1247    3.9006 H   0  0  0  0  0  0  0  0  0  0  0  0
  1  2  1  0  0  0  0
  2  3  1  0  0  0  0
  2  4  1  0  0  0  0
  2  5  1  0  0  0  0
  5  6  2  0  0  0  0
  5  7  1  0  0  0  0
  7  8  1  0  0  0  0
  7  9  1  0  0  0  0
  9 10  1  0  0  0  0
  9 11  1  0  0  0  0
  9 20  1  0  0  0  0
 11 12  1  0  0  0  0
 11 13  1  0  0  0  0
 11 14  1  0  0  0  0
 14 15  1  0  0  0  0
 14 16  1  0  0  0  0
 14 17  1  0  0  0  0
 17 18  1  0  0  0  0
 17 19  2  0  0  0  0
 20 21  2  0  0  0  0
 20 22  1  0  0  0  0
 22 23  1  0  0  0  0
 22 24  1  0  0  0  0
 24 25  1  0  0  0  0
 24 26  1  0  0  0  0
 24 27  1  0  0  0  0
M  CHG  1  18  -1
M  END
$$$$

  -OEChem-04042215583D

 27 26  0     1  0  0  0  0  0999 V2000
   -2.6247   -3.8656    0.4593 H   0  0  0  0  0  0  0  0  0  0  0  0
   -2.5578   -2.9059   -0.0601 C   0  0  0  0  0  0  0  0  0  0  0  0
   -3.1914   -2.1797    0.4563 H   0  0  0  0  0  0  0  0  0  0  0  0
   -2.9212   -3.0279   -1.0833 H   0  0  0  0  0  0  0  0  0  0  0  0
   -1.1220   -2.4136   -0.0773 C   0  0  0  0  0  0  0  0  0  0  0  0
   -0.2234   -3.1371    0.3270 O   0  0  0  0  0  0  0  0  0  0  0  0
   -0.8491   -1.1615   -0.5775 N   0  0  0  0  0  0  0  0  0  0  0  0
   -1.6685   -0.5730   -0.7814 H   0  0  0  0  0  0  0  0  0  0  0  0
    0.3984   -0.4263   -0.3374 C   0  0  1  0  0  0  0  0  0  0  0  0
    1.1927   -1.1162   -0.6417 H   0  0  0  0  0  0  0  0  0  0  0  0
    0.4660    0.7317   -1.3630 C   0  0  0  0  0  0  0  0  0  0  0  0
    1.5198    0.9289   -1.5826 H   0  0  0  0  0  0  0  0  0  0  0  0
    0.0018    0.4022   -2.2988 H   0  0  0  0  0  0  0  0  0  0  0  0
   -0.1762    2.0718   -0.9401 C   0  0  0  0  0  0  0  0  0  0  0  0
    0.4841    2.5718   -0.2246 H   0  0  0  0  0  0  0  0  0  0  0  0
   -0.2694    2.7208   -1.8152 H   0  0  0  0  0  0  0  0  0  0  0  0
   -1.5583    1.8936   -0.2979 C   0  0  0  0  0  0  0  0  0  0  0  0
   -2.3897    1.1657   -0.8998 O   0  5  0  0  0  0  0  0  0  0  0  0
   -1.7481    2.3773    0.8423 O   0  0  0  0  0  0  0  0  0  0  0  0
    0.7782   -0.0877    1.1267 C   0  0  0  0  0  0  0  0  0  0  0  0
    1.9438   -0.2479    1.4803 O   0  0  0  0  0  0  0  0  0  0  0  0
   -0.1256    0.4149    2.0446 N   0  0  0  0  0  0  0  0  0  0  0  0
   -0.9568    0.8664    1.6438 H   0  0  0  0  0  0  0  0  0  0  0  0
    0.2714    0.8522    3.3734 C   0  0  0  0  0  0  0  0  0  0  0  0
    0.9803    1.6834    3.3065 H   0  0  0  0  0  0  0  0  0  0  0  0
   -0.6073    1.1881    3.9317 H   0  0  0  0  0  0  0  0  0  0  0  0
    0.7375    0.0296    3.9249 H   0  0  0  0  0  0  0  0  0  0  0  0
  1  2  1  0  0  0  0
  2  3  1  0  0  0  0
  2  4  1  0  0  0  0
  2  5  1  0  0  0  0
  5  6  2  0  0  0  0
  5  7  1  0  0  0  0
  7  8  1  0  0  0  0
  7  9  1  0  0  0  0
  9 10  1  0  0  0  0
  9 11  1  0  0  0  0
  9 20  1  0  0  0  0
 11 12  1  0  0  0  0
 11 13  1  0  0  0  0
 11 14  1  0  0  0  0
 14 15  1  0  0  0  0
 14 16  1  0  0  0  0
 14 17  1  0  0  0  0
 17 18  1  0  0  0  0
 17 19  2  0  0  0  0
 20 21  2  0  0  0  0
 20 22  1  0  0  0  0
 22 23  1  0  0  0  0
 22 24  1  0  0  0  0
 24 25  1  0  0  0  0
 24 26  1  0  0  0  0
 24 27  1  0  0  0  0
M  CHG  1  18  -1
M  END
$$$$

  -OEChem-04042215583D

 27 26  0     1  0  0  0  0  0999 V2000
   -2.5423   -3.7271    0.8325 H   0  0  0  0  0  0  0  0  0  0  0  0
   -2.5125   -2.7616    0.3205 C   0  0  0  0  0  0  0  0  0  0  0  0
   -3.0407   -2.0228    0.9292 H   0  0  0  0  0  0  0  0  0  0  0  0
   -3.0193   -2.8536   -0.6432 H   0  0  0  0  0  0  0  0  0  0  0  0
   -1.0754   -2.3212    0.1075 C   0  0  0  0  0  0  0  0  0  0  0  0
   -0.1585   -3.0884    0.3636 O   0  0  0  0  0  0  0  0  0  0  0  0
   -0.8254   -1.0566   -0.3733 N   0  0  0  0  0  0  0  0  0  0  0  0
   -1.6262   -0.4104   -0.3751 H   0  0  0  0  0  0  0  0  0  0  0  0
    0.4753   -0.3844   -0.3018 C   0  0  1  0  0  0  0  0  0  0  0  0
    1.1602   -1.1353   -0.7094 H   0  0  0  0  0  0  0  0  0  0  0  0
    0.5410    0.7438   -1.3595 C   0  0  0  0  0  0  0  0  0  0  0  0
    1.5803    0.8352   -1.6911 H   0  0  0  0  0  0  0  0  0  0  0  0
   -0.0408    0.4190   -2.2284 H   0  0  0  0  0  0  0  0  0  0  0  0
    0.0566    2.1620   -0.9755 C   0  0  0  0  0  0  0  0  0  0  0  0
    0.9142    2.7103   -0.5736 H   0  0  0  0  0  0  0  0  0  0  0  0
   -0.2719    2.6825   -1.8792 H   0  0  0  0  0  0  0  0  0  0  0  0
   -1.0637    2.2302    0.0668 C   0  0  0  0  0  0  0  0  0  0  0  0
   -2.0507    1.4599   -0.0975 O   0  5  0  0  0  0  0  0  0  0  0  0
   -0.9898    3.1072    0.9608 O   0  0  0  0  0  0  0  0  0  0  0  0
    1.1426   -0.1103    1.0736 C   0  0  0  0  0  0  0  0  0  0  0  0
    2.3659   -0.1103    1.1396 O   0  0  0  0  0  0  0  0  0  0  0  0
    0.5845    0.3846    2.2314 N   0  0  0  0  0  0  0  0  0  0  0  0
    1.2748    0.6746    2.9144 H   0  0  0  0  0  0  0  0  0  0  0  0
   -0.8077    0.3149    2.6539 C   0  0  0  0  0  0  0  0  0  0  0  0
   -1.1662    1.3109    2.9301 H   0  0  0  0  0  0  0  0  0  0  0  0
   -1.4603   -0.0767    1.8746 H   0  0  0  0  0  0  0  0  0  0  0  0
   -0.8960   -0.3411    3.5244 H   0  0  0  0  0  0  0  0  0  0  0  0
  1  2  1  0  0  0  0
  2  3  1  0  0  0  0
  2  4  1  0  0  0  0
  2  5  1  0  0  0  0
  5  6  2  0  0  0  0
  5  7  1  0  0  0  0
  7  8  1  0  0  0  0
  7  9  1  0  0  0  0
  9 10  1  0  0  0  0
  9 11  1  0  0  0  0
  9 20  1  0  0  0  0
 11 12  1  0  0  0  0
 11 13  1  0  0  0  0
 11 14  1  0  0  0  0
 14 15  1  0  0  0  0
 14 16  1  0  0  0  0
 14 17  1  0  0  0  0
 17 18  1  0  0  0  0
 17 19  2  0  0  0  0
 20 21  2  0  0  0  0
 20 22  1  0  0  0  0
 22 23  1  0  0  0  0
 22 24  1  0  0  0  0
 24 25  1  0  0  0  0
 24 26  1  0  0  0  0
 24 27  1  0  0  0  0
M  CHG  1  18  -1
M  END
$$$$

  -OEChem-04042215583D

 27 26  0     1  0  0  0  0  0999 V2000
   -2.6243   -3.8852    0.4110 H   0  0  0  0  0  0  0  0  0  0  0  0
   -2.4914   -2.9370   -0.1170 C   0  0  0  0  0  0  0  0  0  0  0  0
   -3.1369   -2.1840    0.3430 H   0  0  0  0  0  0  0  0  0  0  0  0
   -2.7854   -3.0669   -1.1612 H   0  0  0  0  0  0  0  0  0  0  0  0
   -1.0431   -2.4885   -0.0395 C   0  0  0  0  0  0  0  0  0  0  0  0
   -0.1992   -3.2358    0.4330 O   0  0  0  0  0  0  0  0  0  0  0  0
   -0.6968   -1.2537   -0.5404 N   0  0  0  0  0  0  0  0  0  0  0  0
   -1.4929   -0.6357   -0.7322 H   0  0  0  0  0  0  0  0  0  0  0  0
    0.5017   -0.5206   -0.1171 C   0  0  1  0  0  0  0  0  0  0  0  0
    1.3150   -1.2465   -0.2241 H   0  0  0  0  0  0  0  0  0  0  0  0
    0.8308    0.5461   -1.1948 C   0  0  0  0  0  0  0  0  0  0  0  0
    1.9182    0.6733   -1.1999 H   0  0  0  0  0  0  0  0  0  0  0  0
    0.5627    0.1269   -2.1702 H   0  0  0  0  0  0  0  0  0  0  0  0
    0.2161    1.9705   -1.1124 C   0  0  0  0  0  0  0  0  0  0  0  0
    1.0065    2.6561   -0.7913 H   0  0  0  0  0  0  0  0  0  0  0  0
   -0.0883    2.2764   -2.1172 H   0  0  0  0  0  0  0  0  0  0  0  0
   -0.9757    2.1718   -0.1748 C   0  0  0  0  0  0  0  0  0  0  0  0
   -1.8970    1.3094   -0.2144 O   0  5  0  0  0  0  0  0  0  0  0  0
   -0.9742    3.1629    0.5897 O   0  0  0  0  0  0  0  0  0  0  0  0
    0.6124   -0.1496    1.3832 C   0  0  0  0  0  0  0  0  0  0  0  0
    1.6967   -0.2670    1.9480 O   0  0  0  0  0  0  0  0  0  0  0  0
   -0.4559    0.3759    2.0836 N   0  0  0  0  0  0  0  0  0  0  0  0
   -1.2261    0.7064    1.4896 H   0  0  0  0  0  0  0  0  0  0  0  0
   -0.3024    1.0145    3.3806 C   0  0  0  0  0  0  0  0  0  0  0  0
    0.3512    1.8890    3.2985 H   0  0  0  0  0  0  0  0  0  0  0  0
   -1.2776    1.3439    3.7508 H   0  0  0  0  0  0  0  0  0  0  0  0
    0.1255    0.3159    4.1064 H   0  0  0  0  0  0  0  0  0  0  0  0
  1  2  1  0  0  0  0
  2  3  1  0  0  0  0
  2  4  1  0  0  0  0
  2  5  1  0  0  0  0
  5  6  2  0  0  0  0
  5  7  1  0  0  0  0
  7  8  1  0  0  0  0
  7  9  1  0  0  0  0
  9 10  1  0  0  0  0
  9 11  1  0  0  0  0
  9 20  1  0  0  0  0
 11 12  1  0  0  0  0
 11 13  1  0  0  0  0
 11 14  1  0  0  0  0
 14 15  1  0  0  0  0
 14 16  1  0  0  0  0
 14 17  1  0  0  0  0
 17 18  1  0  0  0  0
 17 19  2  0  0  0  0
 20 21  2  0  0  0  0
 20 22  1  0  0  0  0
 22 23  1  0  0  0  0
 22 24  1  0  0  0  0
 24 25  1  0  0  0  0
 24 26  1  0  0  0  0
 24 27  1  0  0  0  0
M  CHG  1  18  -1
M  END
$$$$

  -OEChem-04042215583D

 27 26  0     1  0  0  0  0  0999 V2000
   -3.0253   -3.6566    0.4466 H   0  0  0  0  0  0  0  0  0  0  0  0
   -2.8610   -2.6700    0.0046 C   0  0  0  0  0  0  0  0  0  0  0  0
   -3.3775   -1.9222    0.6120 H   0  0  0  0  0  0  0  0  0  0  0  0
   -3.2785   -2.6597   -1.0050 H   0  0  0  0  0  0  0  0  0  0  0  0
   -1.3765   -2.3557   -0.0452 C   0  0  0  0  0  0  0  0  0  0  0  0
   -0.5668   -3.2044    0.2941 O   0  0  0  0  0  0  0  0  0  0  0  0
   -0.9701   -1.1256   -0.5167 N   0  0  0  0  0  0  0  0  0  0  0  0
   -1.7192   -0.4456   -0.6368 H   0  0  0  0  0  0  0  0  0  0  0  0
    0.3400   -0.5345   -0.2124 C   0  0  1  0  0  0  0  0  0  0  0  0
    1.0357   -1.3544   -0.4250 H   0  0  0  0  0  0  0  0  0  0  0  0
    0.7034    0.4721   -1.3368 C   0  0  0  0  0  0  0  0  0  0  0  0
    1.7978    0.4806   -1.3780 H   0  0  0  0  0  0  0  0  0  0  0  0
    0.3601    0.0707   -2.2958 H   0  0  0  0  0  0  0  0  0  0  0  0
    0.2780    1.9606   -1.2545 C   0  0  0  0  0  0  0  0  0  0  0  0
    1.1144    2.5777   -1.5967 H   0  0  0  0  0  0  0  0  0  0  0  0
   -0.5366    2.1153   -1.9683 H   0  0  0  0  0  0  0  0  0  0  0  0
   -0.2014    2.5004    0.0839 C   0  0  0  0  0  0  0  0  0  0  0  0
    0.5471    3.2444    0.7564 O   0  5  0  0  0  0  0  0  0  0  0  0
   -1.3554    2.1318    0.4360 O   0  0  0  0  0  0  0  0  0  0  0  0
    0.7008   -0.2649    1.2740 C   0  0  0  0  0  0  0  0  0  0  0  0
    1.7925   -0.6439    1.6912 O   0  0  0  0  0  0  0  0  0  0  0  0
   -0.1866    0.3164    2.1594 N   0  0  0  0  0  0  0  0  0  0  0  0
   -0.8830    0.9146    1.6976 H   0  0  0  0  0  0  0  0  0  0  0  0
    0.2221    0.7259    3.4939 C   0  0  0  0  0  0  0  0  0  0  0  0
    1.0090    1.4849    3.4340 H   0  0  0  0  0  0  0  0  0  0  0  0
   -0.6309    1.1514    4.0306 H   0  0  0  0  0  0  0  0  0  0  0  0
    0.5953   -0.1311    4.0634 H   0  0  0  0  0  0  0  0  0  0  0  0
  1  2  1  0  0  0  0
  2  3  1  0  0  0  0
  2  4  1  0  0  0  0
  2  5  1  0  0  0  0
  5  6  2  0  0  0  0
  5  7  1  0  0  0  0
  7  8  1  0  0  0  0
  7  9  1  0  0  0  0
  9 10  1  0  0  0  0
  9 11  1  0  0  0  0
  9 20  1  0  0  0  0
 11 12  1  0  0  0  0
 11 13  1  0  0  0  0
 11 14  1  0  0  0  0
 14 15  1  0  0  0  0
 14 16  1  0  0  0  0
 14 17  1  0  0  0  0
 17 18  1  0  0  0  0
 17 19  2  0  0  0  0
 20 21  2  0  0  0  0
 20 22  1  0  0  0  0
 22 23  1  0  0  0  0
 22 24  1  0  0  0  0
 24 25  1  0  0  0  0
 24 26  1  0  0  0  0
 24 27  1  0  0  0  0
M  CHG  1  18  -1
M  END
$$$$

  -OEChem-04042215583D

 27 26  0     1  0  0  0  0  0999 V2000
   -3.0277   -3.6139    0.2336 H   0  0  0  0  0  0  0  0  0  0  0  0
   -2.8685   -2.6014   -0.1479 C   0  0  0  0  0  0  0  0  0  0  0  0
   -3.3760   -1.8935    0.5124 H   0  0  0  0  0  0  0  0  0  0  0  0
   -3.3000   -2.5287   -1.1491 H   0  0  0  0  0  0  0  0  0  0  0  0
   -1.3840   -2.2857   -0.1981 C   0  0  0  0  0  0  0  0  0  0  0  0
   -0.5727   -3.1591    0.0631 O   0  0  0  0  0  0  0  0  0  0  0  0
   -0.9804   -1.0279   -0.5946 N   0  0  0  0  0  0  0  0  0  0  0  0
   -1.7282   -0.3443   -0.6776 H   0  0  0  0  0  0  0  0  0  0  0  0
    0.3446   -0.4678   -0.2877 C   0  0  1  0  0  0  0  0  0  0  0  0
    1.0376   -1.2620   -0.5892 H   0  0  0  0  0  0  0  0  0  0  0  0
    0.6449    0.6347   -1.3390 C   0  0  0  0  0  0  0  0  0  0  0  0
    1.7366    0.6598   -1.4245 H   0  0  0  0  0  0  0  0  0  0  0  0
    0.2633    0.3146   -2.3138 H   0  0  0  0  0  0  0  0  0  0  0  0
    0.2207    2.1056   -1.1098 C   0  0  0  0  0  0  0  0  0  0  0  0
    0.8966    2.7505   -1.6793 H   0  0  0  0  0  0  0  0  0  0  0  0
   -0.7737    2.2300   -1.5493 H   0  0  0  0  0  0  0  0  0  0  0  0
    0.1461    2.6353    0.3129 C   0  0  0  0  0  0  0  0  0  0  0  0
    1.1710    3.1217    0.8401 O   0  5  0  0  0  0  0  0  0  0  0  0
   -0.9732    2.5206    0.8802 O   0  0  0  0  0  0  0  0  0  0  0  0
    0.7347   -0.3112    1.2071 C   0  0  0  0  0  0  0  0  0  0  0  0
    1.7875   -0.8138    1.5921 O   0  0  0  0  0  0  0  0  0  0  0  0
   -0.1364    0.2116    2.1447 N   0  0  0  0  0  0  0  0  0  0  0  0
   -0.7486    0.9414    1.7594 H   0  0  0  0  0  0  0  0  0  0  0  0
    0.2748    0.4100    3.5258 C   0  0  0  0  0  0  0  0  0  0  0  0
    1.1284    1.0942    3.5734 H   0  0  0  0  0  0  0  0  0  0  0  0
   -0.5493    0.8419    4.1009 H   0  0  0  0  0  0  0  0  0  0  0  0
    0.5547   -0.5428    3.9861 H   0  0  0  0  0  0  0  0  0  0  0  0
  1  2  1  0  0  0  0
  2  3  1  0  0  0  0
  2  4  1  0  0  0  0
  2  5  1  0  0  0  0
  5  6  2  0  0  0  0
  5  7  1  0  0  0  0
  7  8  1  0  0  0  0
  7  9  1  0  0  0  0
  9 10  1  0  0  0  0
  9 11  1  0  0  0  0
  9 20  1  0  0  0  0
 11 12  1  0  0  0  0
 11 13  1  0  0  0  0
 11 14  1  0  0  0  0
 14 15  1  0  0  0  0
 14 16  1  0  0  0  0
 14 17  1  0  0  0  0
 17 18  1  0  0  0  0
 17 19  2  0  0  0  0
 20 21  2  0  0  0  0
 20 22  1  0  0  0  0
 22 23  1  0  0  0  0
 22 24  1  0  0  0  0
 24 25  1  0  0  0  0
 24 26  1  0  0  0  0
 24 27  1  0  0  0  0
M  CHG  1  18  -1
M  END
$$$$

  -OEChem-04042215583D

 27 26  0     1  0  0  0  0  0999 V2000
   -2.7001   -3.7859    0.4213 H   0  0  0  0  0  0  0  0  0  0  0  0
   -2.6218   -2.7832   -0.0082 C   0  0  0  0  0  0  0  0  0  0  0  0
   -3.1692   -2.0845    0.6297 H   0  0  0  0  0  0  0  0  0  0  0  0
   -3.0735   -2.7882   -1.0032 H   0  0  0  0  0  0  0  0  0  0  0  0
   -1.1656   -2.3637   -0.1011 C   0  0  0  0  0  0  0  0  0  0  0  0
   -0.2895   -3.1611    0.1900 O   0  0  0  0  0  0  0  0  0  0  0  0
   -0.8613   -1.1060   -0.5784 N   0  0  0  0  0  0  0  0  0  0  0  0
   -1.6601   -0.4906   -0.7005 H   0  0  0  0  0  0  0  0  0  0  0  0
    0.4190   -0.4304   -0.3113 C   0  0  1  0  0  0  0  0  0  0  0  0
    1.1849   -1.1635   -0.5902 H   0  0  0  0  0  0  0  0  0  0  0  0
    0.5709    0.6665   -1.3991 C   0  0  0  0  0  0  0  0  0  0  0  0
    1.6494    0.7978   -1.5391 H   0  0  0  0  0  0  0  0  0  0  0  0
    0.1758    0.2900   -2.3483 H   0  0  0  0  0  0  0  0  0  0  0  0
    0.0080    2.0865   -1.1661 C   0  0  0  0  0  0  0  0  0  0  0  0
    0.4106    2.7419   -1.9438 H   0  0  0  0  0  0  0  0  0  0  0  0
   -1.0742    2.0395   -1.3211 H   0  0  0  0  0  0  0  0  0  0  0  0
    0.2539    2.7586    0.1756 C   0  0  0  0  0  0  0  0  0  0  0  0
    1.3984    3.1911    0.4364 O   0  5  0  0  0  0  0  0  0  0  0  0
   -0.7370    2.8179    0.9496 O   0  0  0  0  0  0  0  0  0  0  0  0
    0.7744   -0.1629    1.1758 C   0  0  0  0  0  0  0  0  0  0  0  0
    1.8152   -0.6409    1.6189 O   0  0  0  0  0  0  0  0  0  0  0  0
   -0.1550    0.3463    2.0654 N   0  0  0  0  0  0  0  0  0  0  0  0
   -0.7169    1.1031    1.6573 H   0  0  0  0  0  0  0  0  0  0  0  0
    0.1798    0.5298    3.4696 C   0  0  0  0  0  0  0  0  0  0  0  0
    1.0231    1.2206    3.5728 H   0  0  0  0  0  0  0  0  0  0  0  0
   -0.6780    0.9465    4.0051 H   0  0  0  0  0  0  0  0  0  0  0  0
    0.4441   -0.4267    3.9318 H   0  0  0  0  0  0  0  0  0  0  0  0
  1  2  1  0  0  0  0
  2  3  1  0  0  0  0
  2  4  1  0  0  0  0
  2  5  1  0  0  0  0
  5  6  2  0  0  0  0
  5  7  1  0  0  0  0
  7  8  1  0  0  0  0
  7  9  1  0  0  0  0
  9 10  1  0  0  0  0
  9 11  1  0  0  0  0
  9 20  1  0  0  0  0
 11 12  1  0  0  0  0
 11 13  1  0  0  0  0
 11 14  1  0  0  0  0
 14 15  1  0  0  0  0
 14 16  1  0  0  0  0
 14 17  1  0  0  0  0
 17 18  1  0  0  0  0
 17 19  2  0  0  0  0
 20 21  2  0  0  0  0
 20 22  1  0  0  0  0
 22 23  1  0  0  0  0
 22 24  1  0  0  0  0
 24 25  1  0  0  0  0
 24 26  1  0  0  0  0
 24 27  1  0  0  0  0
M  CHG  1  18  -1
M  END
$$$$

  -OEChem-04042215583D

 27 26  0     1  0  0  0  0  0999 V2000
   -2.6690   -3.7464    0.5317 H   0  0  0  0  0  0  0  0  0  0  0  0
   -2.5864   -2.7677    0.0507 C   0  0  0  0  0  0  0  0  0  0  0  0
   -3.1359   -2.0358    0.6482 H   0  0  0  0  0  0  0  0  0  0  0  0
   -3.0323   -2.8239   -0.9453 H   0  0  0  0  0  0  0  0  0  0  0  0
   -1.1286   -2.3567   -0.0561 C   0  0  0  0  0  0  0  0  0  0  0  0
   -0.2562   -3.1431    0.2724 O   0  0  0  0  0  0  0  0  0  0  0  0
   -0.8179   -1.1237   -0.5910 N   0  0  0  0  0  0  0  0  0  0  0  0
   -1.6138   -0.5151   -0.7539 H   0  0  0  0  0  0  0  0  0  0  0  0
    0.4630   -0.4405   -0.3430 C   0  0  1  0  0  0  0  0  0  0  0  0
    1.2437   -1.1623   -0.6093 H   0  0  0  0  0  0  0  0  0  0  0  0
    0.5624    0.6577   -1.4343 C   0  0  0  0  0  0  0  0  0  0  0  0
    1.6293    0.8111   -1.6298 H   0  0  0  0  0  0  0  0  0  0  0  0
    0.1240    0.2833   -2.3652 H   0  0  0  0  0  0  0  0  0  0  0  0
   -0.0293    2.0520   -1.1403 C   0  0  0  0  0  0  0  0  0  0  0  0
    0.1160    2.6723   -2.0291 H   0  0  0  0  0  0  0  0  0  0  0  0
   -1.1090    1.9392   -1.0022 H   0  0  0  0  0  0  0  0  0  0  0  0
    0.5337    2.8258    0.0437 C   0  0  0  0  0  0  0  0  0  0  0  0
    1.7311    3.1885    0.0146 O   0  5  0  0  0  0  0  0  0  0  0  0
   -0.2714    3.0529    0.9828 O   0  0  0  0  0  0  0  0  0  0  0  0
    0.7896   -0.1113    1.1374 C   0  0  0  0  0  0  0  0  0  0  0  0
    1.7891   -0.6213    1.6352 O   0  0  0  0  0  0  0  0  0  0  0  0
   -0.1636    0.4393    1.9770 N   0  0  0  0  0  0  0  0  0  0  0  0
   -0.6158    1.2592    1.5563 H   0  0  0  0  0  0  0  0  0  0  0  0
    0.0932    0.5710    3.4038 C   0  0  0  0  0  0  0  0  0  0  0  0
    0.9690    1.2053    3.5769 H   0  0  0  0  0  0  0  0  0  0  0  0
   -0.7696    1.0284    3.8964 H   0  0  0  0  0  0  0  0  0  0  0  0
    0.2690   -0.4101    3.8563 H   0  0  0  0  0  0  0  0  0  0  0  0
  1  2  1  0  0  0  0
  2  3  1  0  0  0  0
  2  4  1  0  0  0  0
  2  5  1  0  0  0  0
  5  6  2  0  0  0  0
  5  7  1  0  0  0  0
  7  8  1  0  0  0  0
  7  9  1  0  0  0  0
  9 10  1  0  0  0  0
  9 11  1  0  0  0  0
  9 20  1  0  0  0  0
 11 12  1  0  0  0  0
 11 13  1  0  0  0  0
 11 14  1  0  0  0  0
 14 15  1  0  0  0  0
 14 16  1  0  0  0  0
 14 17  1  0  0  0  0
 17 18  1  0  0  0  0
 17 19  2  0  0  0  0
 20 21  2  0  0  0  0
 20 22  1  0  0  0  0
 22 23  1  0  0  0  0
 22 24  1  0  0  0  0
 24 25  1  0  0  0  0
 24 26  1  0  0  0  0
 24 27  1  0  0  0  0
M  CHG  1  18  -1
M  END
$$$$

  -OEChem-04042215583D

 27 26  0     1  0  0  0  0  0999 V2000
   -2.6672   -3.7328    0.5489 H   0  0  0  0  0  0  0  0  0  0  0  0
   -2.5728   -2.7666    0.0452 C   0  0  0  0  0  0  0  0  0  0  0  0
   -3.1379   -2.0201    0.6090 H   0  0  0  0  0  0  0  0  0  0  0  0
   -2.9928   -2.8491   -0.9601 H   0  0  0  0  0  0  0  0  0  0  0  0
   -1.1130   -2.3568   -0.0343 C   0  0  0  0  0  0  0  0  0  0  0  0
   -0.2494   -3.1272    0.3500 O   0  0  0  0  0  0  0  0  0  0  0  0
   -0.7892   -1.1448   -0.6073 N   0  0  0  0  0  0  0  0  0  0  0  0
   -1.5795   -0.5436   -0.8162 H   0  0  0  0  0  0  0  0  0  0  0  0
    0.4893   -0.4557   -0.3627 C   0  0  1  0  0  0  0  0  0  0  0  0
    1.2813   -1.1686   -0.6190 H   0  0  0  0  0  0  0  0  0  0  0  0
    0.5570    0.6478   -1.4478 C   0  0  0  0  0  0  0  0  0  0  0  0
    1.6127    0.8222   -1.6829 H   0  0  0  0  0  0  0  0  0  0  0  0
    0.0882    0.2831   -2.3678 H   0  0  0  0  0  0  0  0  0  0  0  0
   -0.0648    2.0091   -1.0794 C   0  0  0  0  0  0  0  0  0  0  0  0
   -0.1837    2.5816   -2.0037 H   0  0  0  0  0  0  0  0  0  0  0  0
   -1.0681    1.8409   -0.6761 H   0  0  0  0  0  0  0  0  0  0  0  0
    0.7286    2.8864   -0.1188 C   0  0  0  0  0  0  0  0  0  0  0  0
    1.8698    3.2783   -0.4544 O   0  5  0  0  0  0  0  0  0  0  0  0
    0.1435    3.1836    0.9526 O   0  0  0  0  0  0  0  0  0  0  0  0
    0.8000   -0.0703    1.1070 C   0  0  0  0  0  0  0  0  0  0  0  0
    1.7840   -0.5757    1.6383 O   0  0  0  0  0  0  0  0  0  0  0  0
   -0.1633    0.5165    1.9101 N   0  0  0  0  0  0  0  0  0  0  0  0
   -0.5484    1.3582    1.4702 H   0  0  0  0  0  0  0  0  0  0  0  0
    0.0547    0.6522    3.3433 C   0  0  0  0  0  0  0  0  0  0  0  0
    0.9438    1.2608    3.5386 H   0  0  0  0  0  0  0  0  0  0  0  0
   -0.8078    1.1398    3.8063 H   0  0  0  0  0  0  0  0  0  0  0  0
    0.1866   -0.3298    3.8086 H   0  0  0  0  0  0  0  0  0  0  0  0
  1  2  1  0  0  0  0
  2  3  1  0  0  0  0
  2  4  1  0  0  0  0
  2  5  1  0  0  0  0
  5  6  2  0  0  0  0
  5  7  1  0  0  0  0
  7  8  1  0  0  0  0
  7  9  1  0  0  0  0
  9 10  1  0  0  0  0
  9 11  1  0  0  0  0
  9 20  1  0  0  0  0
 11 12  1  0  0  0  0
 11 13  1  0  0  0  0
 11 14  1  0  0  0  0
 14 15  1  0  0  0  0
 14 16  1  0  0  0  0
 14 17  1  0  0  0  0
 17 18  1  0  0  0  0
 17 19  2  0  0  0  0
 20 21  2  0  0  0  0
 20 22  1  0  0  0  0
 22 23  1  0  0  0  0
 22 24  1  0  0  0  0
 24 25  1  0  0  0  0
 24 26  1  0  0  0  0
 24 27  1  0  0  0  0
M  CHG  1  18  -1
M  END
$$$$

  -OEChem-04042215583D

 27 26  0     1  0  0  0  0  0999 V2000
   -2.7107   -3.7782    0.4394 H   0  0  0  0  0  0  0  0  0  0  0  0
   -2.5981   -2.8135   -0.0635 C   0  0  0  0  0  0  0  0  0  0  0  0
   -3.2129   -2.0734    0.4547 H   0  0  0  0  0  0  0  0  0  0  0  0
   -2.9469   -2.9100   -1.0946 H   0  0  0  0  0  0  0  0  0  0  0  0
   -1.1432   -2.3797   -0.0463 C   0  0  0  0  0  0  0  0  0  0  0  0
   -0.2984   -3.1224    0.4239 O   0  0  0  0  0  0  0  0  0  0  0  0
   -0.7981   -1.1729   -0.6174 N   0  0  0  0  0  0  0  0  0  0  0  0
   -1.5737   -0.5873   -0.9094 H   0  0  0  0  0  0  0  0  0  0  0  0
    0.4772   -0.4837   -0.3568 C   0  0  1  0  0  0  0  0  0  0  0  0
    1.2723   -1.1937   -0.6116 H   0  0  0  0  0  0  0  0  0  0  0  0
    0.5486    0.6380   -1.4194 C   0  0  0  0  0  0  0  0  0  0  0  0
    1.6014    0.8213   -1.6603 H   0  0  0  0  0  0  0  0  0  0  0  0
    0.0731    0.2971   -2.3449 H   0  0  0  0  0  0  0  0  0  0  0  0
   -0.0899    1.9728   -0.9865 C   0  0  0  0  0  0  0  0  0  0  0  0
   -0.4381    2.4777   -1.8920 H   0  0  0  0  0  0  0  0  0  0  0  0
   -0.9771    1.7821   -0.3763 H   0  0  0  0  0  0  0  0  0  0  0  0
    0.8395    2.9554   -0.2817 C   0  0  0  0  0  0  0  0  0  0  0  0
    1.8472    3.3827   -0.8929 O   0  5  0  0  0  0  0  0  0  0  0  0
    0.4756    3.3199    0.8633 O   0  0  0  0  0  0  0  0  0  0  0  0
    0.7905   -0.0764    1.1065 C   0  0  0  0  0  0  0  0  0  0  0  0
    1.8073   -0.5225    1.6280 O   0  0  0  0  0  0  0  0  0  0  0  0
   -0.1636    0.5275    1.9072 N   0  0  0  0  0  0  0  0  0  0  0  0
   -0.6683    1.2603    1.4110 H   0  0  0  0  0  0  0  0  0  0  0  0
    0.1259    0.8293    3.3023 C   0  0  0  0  0  0  0  0  0  0  0  0
    0.9705    1.5228    3.3745 H   0  0  0  0  0  0  0  0  0  0  0  0
   -0.7454    1.2937    3.7729 H   0  0  0  0  0  0  0  0  0  0  0  0
    0.3688   -0.0848    3.8537 H   0  0  0  0  0  0  0  0  0  0  0  0
  1  2  1  0  0  0  0
  2  3  1  0  0  0  0
  2  4  1  0  0  0  0
  2  5  1  0  0  0  0
  5  6  2  0  0  0  0
  5  7  1  0  0  0  0
  7  8  1  0  0  0  0
  7  9  1  0  0  0  0
  9 10  1  0  0  0  0
  9 11  1  0  0  0  0
  9 20  1  0  0  0  0
 11 12  1  0  0  0  0
 11 13  1  0  0  0  0
 11 14  1  0  0  0  0
 14 15  1  0  0  0  0
 14 16  1  0  0  0  0
 14 17  1  0  0  0  0
 17 18  1  0  0  0  0
 17 19  2  0  0  0  0
 20 21  2  0  0  0  0
 20 22  1  0  0  0  0
 22 23  1  0  0  0  0
 22 24  1  0  0  0  0
 24 25  1  0  0  0  0
 24 26  1  0  0  0  0
 24 27  1  0  0  0  0
M  CHG  1  18  -1
M  END
$$$$

  -OEChem-04042215583D

 27 26  0     1  0  0  0  0  0999 V2000
   -2.7258   -3.8420    0.3576 H   0  0  0  0  0  0  0  0  0  0  0  0
   -2.6080   -2.8863   -0.1610 C   0  0  0  0  0  0  0  0  0  0  0  0
   -3.2855   -2.1568    0.2897 H   0  0  0  0  0  0  0  0  0  0  0  0
   -2.8744   -3.0202   -1.2123 H   0  0  0  0  0  0  0  0  0  0  0  0
   -1.1737   -2.4006   -0.0473 C   0  0  0  0  0  0  0  0  0  0  0  0
   -0.3392   -3.1074    0.4908 O   0  0  0  0  0  0  0  0  0  0  0  0
   -0.8314   -1.1817   -0.5946 N   0  0  0  0  0  0  0  0  0  0  0  0
   -1.5924   -0.6231   -0.9673 H   0  0  0  0  0  0  0  0  0  0  0  0
    0.4436   -0.4894   -0.3400 C   0  0  1  0  0  0  0  0  0  0  0  0
    1.2356   -1.1964   -0.6119 H   0  0  0  0  0  0  0  0  0  0  0  0
    0.5237    0.6534   -1.3782 C   0  0  0  0  0  0  0  0  0  0  0  0
    1.5801    0.8245   -1.6131 H   0  0  0  0  0  0  0  0  0  0  0  0
    0.0480    0.3342   -2.3113 H   0  0  0  0  0  0  0  0  0  0  0  0
   -0.1017    1.9913   -0.9252 C   0  0  0  0  0  0  0  0  0  0  0  0
   -0.6675    2.3899   -1.7722 H   0  0  0  0  0  0  0  0  0  0  0  0
   -0.8272    1.8394   -0.1247 H   0  0  0  0  0  0  0  0  0  0  0  0
    0.9067    3.0714   -0.5389 C   0  0  0  0  0  0  0  0  0  0  0  0
    1.7210    3.4639   -1.4098 O   0  5  0  0  0  0  0  0  0  0  0  0
    0.7916    3.5552    0.6134 O   0  0  0  0  0  0  0  0  0  0  0  0
    0.7736   -0.1086    1.1256 C   0  0  0  0  0  0  0  0  0  0  0  0
    1.8517   -0.4482    1.6004 O   0  0  0  0  0  0  0  0  0  0  0  0
   -0.1734    0.4712    1.9514 N   0  0  0  0  0  0  0  0  0  0  0  0
   -0.8846    0.9947    1.4528 H   0  0  0  0  0  0  0  0  0  0  0  0
    0.1838    0.9644    3.2737 C   0  0  0  0  0  0  0  0  0  0  0  0
    0.9584    1.7349    3.1959 H   0  0  0  0  0  0  0  0  0  0  0  0
   -0.6932    1.4015    3.7598 H   0  0  0  0  0  0  0  0  0  0  0  0
    0.5554    0.1486    3.9021 H   0  0  0  0  0  0  0  0  0  0  0  0
  1  2  1  0  0  0  0
  2  3  1  0  0  0  0
  2  4  1  0  0  0  0
  2  5  1  0  0  0  0
  5  6  2  0  0  0  0
  5  7  1  0  0  0  0
  7  8  1  0  0  0  0
  7  9  1  0  0  0  0
  9 10  1  0  0  0  0
  9 11  1  0  0  0  0
  9 20  1  0  0  0  0
 11 12  1  0  0  0  0
 11 13  1  0  0  0  0
 11 14  1  0  0  0  0
 14 15  1  0  0  0  0
 14 16  1  0  0  0  0
 14 17  1  0  0  0  0
 17 18  1  0  0  0  0
 17 19  2  0  0  0  0
 20 21  2  0  0  0  0
 20 22  1  0  0  0  0
 22 23  1  0  0  0  0
 22 24  1  0  0  0  0
 24 25  1  0  0  0  0
 24 26  1  0  0  0  0
 24 27  1  0  0  0  0
M  CHG  1  18  -1
M  END
$$$$

  -OEChem-04042215583D

 27 26  0     1  0  0  0  0  0999 V2000
   -2.6929   -3.8943    0.2952 H   0  0  0  0  0  0  0  0  0  0  0  0
   -2.5893   -2.9238   -0.1984 C   0  0  0  0  0  0  0  0  0  0  0  0
   -3.3038   -2.2261    0.2454 H   0  0  0  0  0  0  0  0  0  0  0  0
   -2.8173   -3.0421   -1.2606 H   0  0  0  0  0  0  0  0  0  0  0  0
   -1.1757   -2.3965   -0.0279 C   0  0  0  0  0  0  0  0  0  0  0  0
   -0.3451   -3.0742    0.5518 O   0  0  0  0  0  0  0  0  0  0  0  0
   -0.8466   -1.1676   -0.5604 N   0  0  0  0  0  0  0  0  0  0  0  0
   -1.5951   -0.6402   -0.9985 H   0  0  0  0  0  0  0  0  0  0  0  0
    0.4269   -0.4665   -0.3245 C   0  0  1  0  0  0  0  0  0  0  0  0
    1.2181   -1.1687   -0.6109 H   0  0  0  0  0  0  0  0  0  0  0  0
    0.4915    0.6796   -1.3612 C   0  0  0  0  0  0  0  0  0  0  0  0
    1.5516    0.8445   -1.5847 H   0  0  0  0  0  0  0  0  0  0  0  0
    0.0273    0.3605   -2.3003 H   0  0  0  0  0  0  0  0  0  0  0  0
   -0.1239    2.0316   -0.9267 C   0  0  0  0  0  0  0  0  0  0  0  0
   -0.9154    2.2835   -1.6381 H   0  0  0  0  0  0  0  0  0  0  0  0
   -0.6042    1.9636    0.0479 H   0  0  0  0  0  0  0  0  0  0  0  0
    0.8691    3.1942   -0.9237 C   0  0  0  0  0  0  0  0  0  0  0  0
    1.4630    3.4584   -1.9983 O   0  5  0  0  0  0  0  0  0  0  0  0
    0.9598    3.8654    0.1327 O   0  0  0  0  0  0  0  0  0  0  0  0
    0.7697   -0.1103    1.1437 C   0  0  0  0  0  0  0  0  0  0  0  0
    1.8817   -0.3752    1.5858 O   0  0  0  0  0  0  0  0  0  0  0  0
   -0.1762    0.4411    1.9902 N   0  0  0  0  0  0  0  0  0  0  0  0
   -0.9743    0.8546    1.5215 H   0  0  0  0  0  0  0  0  0  0  0  0
    0.1800    0.9665    3.3001 C   0  0  0  0  0  0  0  0  0  0  0  0
    0.9062    1.7800    3.1993 H   0  0  0  0  0  0  0  0  0  0  0  0
   -0.7102    1.3551    3.8032 H   0  0  0  0  0  0  0  0  0  0  0  0
    0.6131    0.1792    3.9252 H   0  0  0  0  0  0  0  0  0  0  0  0
  1  2  1  0  0  0  0
  2  3  1  0  0  0  0
  2  4  1  0  0  0  0
  2  5  1  0  0  0  0
  5  6  2  0  0  0  0
  5  7  1  0  0  0  0
  7  8  1  0  0  0  0
  7  9  1  0  0  0  0
  9 10  1  0  0  0  0
  9 11  1  0  0  0  0
  9 20  1  0  0  0  0
 11 12  1  0  0  0  0
 11 13  1  0  0  0  0
 11 14  1  0  0  0  0
 14 15  1  0  0  0  0
 14 16  1  0  0  0  0
 14 17  1  0  0  0  0
 17 18  1  0  0  0  0
 17 19  2  0  0  0  0
 20 21  2  0  0  0  0
 20 22  1  0  0  0  0
 22 23  1  0  0  0  0
 22 24  1  0  0  0  0
 24 25  1  0  0  0  0
 24 26  1  0  0  0  0
 24 27  1  0  0  0  0
M  CHG  1  18  -1
M  END
$$$$

  -OEChem-04042215583D

 27 26  0     1  0  0  0  0  0999 V2000
   -2.6601   -3.9084    0.2862 H   0  0  0  0  0  0  0  0  0  0  0  0
   -2.5642   -2.9376   -0.2083 C   0  0  0  0  0  0  0  0  0  0  0  0
   -3.3013   -2.2523    0.2171 H   0  0  0  0  0  0  0  0  0  0  0  0
   -2.7668   -3.0638   -1.2747 H   0  0  0  0  0  0  0  0  0  0  0  0
   -1.1649   -2.3831   -0.0087 C   0  0  0  0  0  0  0  0  0  0  0  0
   -0.3352   -3.0409    0.5947 O   0  0  0  0  0  0  0  0  0  0  0  0
   -0.8471   -1.1498   -0.5379 N   0  0  0  0  0  0  0  0  0  0  0  0
   -1.5867   -0.6464   -1.0182 H   0  0  0  0  0  0  0  0  0  0  0  0
    0.4271   -0.4428   -0.3247 C   0  0  1  0  0  0  0  0  0  0  0  0
    1.2204   -1.1347   -0.6299 H   0  0  0  0  0  0  0  0  0  0  0  0
    0.4550    0.7116   -1.3552 C   0  0  0  0  0  0  0  0  0  0  0  0
    1.5143    0.8850   -1.5761 H   0  0  0  0  0  0  0  0  0  0  0  0
   -0.0067    0.3975   -2.2972 H   0  0  0  0  0  0  0  0  0  0  0  0
   -0.1535    2.0661   -0.9167 C   0  0  0  0  0  0  0  0  0  0  0  0
   -1.1328    2.1809   -1.3892 H   0  0  0  0  0  0  0  0  0  0  0  0
   -0.3135    2.1051    0.1587 H   0  0  0  0  0  0  0  0  0  0  0  0
    0.7190    3.2647   -1.2965 C   0  0  0  0  0  0  0  0  0  0  0  0
    1.0713    3.3651   -2.4982 O   0  5  0  0  0  0  0  0  0  0  0  0
    0.9555    4.1164   -0.4056 O   0  0  0  0  0  0  0  0  0  0  0  0
    0.7770   -0.1035    1.1451 C   0  0  0  0  0  0  0  0  0  0  0  0
    1.9041   -0.3248    1.5717 O   0  0  0  0  0  0  0  0  0  0  0  0
   -0.1731    0.4286    1.9995 N   0  0  0  0  0  0  0  0  0  0  0  0
   -1.0040    0.7928    1.5468 H   0  0  0  0  0  0  0  0  0  0  0  0
    0.1619    0.9299    3.3241 C   0  0  0  0  0  0  0  0  0  0  0  0
    0.8800    1.7532    3.2503 H   0  0  0  0  0  0  0  0  0  0  0  0
   -0.7385    1.2973    3.8250 H   0  0  0  0  0  0  0  0  0  0  0  0
    0.5963    0.1335    3.9369 H   0  0  0  0  0  0  0  0  0  0  0  0
  1  2  1  0  0  0  0
  2  3  1  0  0  0  0
  2  4  1  0  0  0  0
  2  5  1  0  0  0  0
  5  6  2  0  0  0  0
  5  7  1  0  0  0  0
  7  8  1  0  0  0  0
  7  9  1  0  0  0  0
  9 10  1  0  0  0  0
  9 11  1  0  0  0  0
  9 20  1  0  0  0  0
 11 12  1  0  0  0  0
 11 13  1  0  0  0  0
 11 14  1  0  0  0  0
 14 15  1  0  0  0  0
 14 16  1  0  0  0  0
 14 17  1  0  0  0  0
 17 18  1  0  0  0  0
 17 19  2  0  0  0  0
 20 21  2  0  0  0  0
 20 22  1  0  0  0  0
 22 23  1  0  0  0  0
 22 24  1  0  0  0  0
 24 25  1  0  0  0  0
 24 26  1  0  0  0  0
 24 27  1  0  0  0  0
M  CHG  1  18  -1
M  END
$$$$

  -OEChem-04042215583D

 27 26  0     1  0  0  0  0  0999 V2000
   -2.6471   -3.9107    0.2777 H   0  0  0  0  0  0  0  0  0  0  0  0
   -2.5520   -2.9393   -0.2154 C   0  0  0  0  0  0  0  0  0  0  0  0
   -3.2972   -2.2582    0.2028 H   0  0  0  0  0  0  0  0  0  0  0  0
   -2.7437   -3.0663   -1.2837 H   0  0  0  0  0  0  0  0  0  0  0  0
   -1.1578   -2.3765   -0.0026 C   0  0  0  0  0  0  0  0  0  0  0  0
   -0.3318   -3.0244    0.6168 O   0  0  0  0  0  0  0  0  0  0  0  0
   -0.8406   -1.1448   -0.5353 N   0  0  0  0  0  0  0  0  0  0  0  0
   -1.5718   -0.6542   -1.0417 H   0  0  0  0  0  0  0  0  0  0  0  0
    0.4361   -0.4389   -0.3351 C   0  0  1  0  0  0  0  0  0  0  0  0
    1.2307   -1.1221   -0.6543 H   0  0  0  0  0  0  0  0  0  0  0  0
    0.4319    0.7288   -1.3501 C   0  0  0  0  0  0  0  0  0  0  0  0
    1.4846    0.9207   -1.5868 H   0  0  0  0  0  0  0  0  0  0  0  0
   -0.0468    0.4271   -2.2878 H   0  0  0  0  0  0  0  0  0  0  0  0
   -0.1740    2.0687   -0.8727 C   0  0  0  0  0  0  0  0  0  0  0  0
   -1.2505    2.0700   -1.0636 H   0  0  0  0  0  0  0  0  0  0  0  0
   -0.0256    2.2061    0.1980 H   0  0  0  0  0  0  0  0  0  0  0  0
    0.4713    3.2740   -1.5619 C   0  0  0  0  0  0  0  0  0  0  0  0
    0.5649    3.2390   -2.8145 O   0  5  0  0  0  0  0  0  0  0  0  0
    0.7888    4.2552   -0.8470 O   0  0  0  0  0  0  0  0  0  0  0  0
    0.7867   -0.1042    1.1346 C   0  0  0  0  0  0  0  0  0  0  0  0
    1.9219   -0.2945    1.5546 O   0  0  0  0  0  0  0  0  0  0  0  0
   -0.1678    0.4253    1.9856 N   0  0  0  0  0  0  0  0  0  0  0  0
   -1.0114    0.7622    1.5349 H   0  0  0  0  0  0  0  0  0  0  0  0
    0.1567    0.9301    3.3115 C   0  0  0  0  0  0  0  0  0  0  0  0
    0.8636    1.7633    3.2404 H   0  0  0  0  0  0  0  0  0  0  0  0
   -0.7499    1.2846    3.8103 H   0  0  0  0  0  0  0  0  0  0  0  0
    0.6006    0.1393    3.9248 H   0  0  0  0  0  0  0  0  0  0  0  0
  1  2  1  0  0  0  0
  2  3  1  0  0  0  0
  2  4  1  0  0  0  0
  2  5  1  0  0  0  0
  5  6  2  0  0  0  0
  5  7  1  0  0  0  0
  7  8  1  0  0  0  0
  7  9  1  0  0  0  0
  9 10  1  0  0  0  0
  9 11  1  0  0  0  0
  9 20  1  0  0  0  0
 11 12  1  0  0  0  0
 11 13  1  0  0  0  0
 11 14  1  0  0  0  0
 14 15  1  0  0  0  0
 14 16  1  0  0  0  0
 14 17  1  0  0  0  0
 17 18  1  0  0  0  0
 17 19  2  0  0  0  0
 20 21  2  0  0  0  0
 20 22  1  0  0  0  0
 22 23  1  0  0  0  0
 22 24  1  0  0  0  0
 24 25  1  0  0  0  0
 24 26  1  0  0  0  0
 24 27  1  0  0  0  0
M  CHG  1  18  -1
M  END
$$$$

  -OEChem-04042215583D

 27 26  0     1  0  0  0  0  0999 V2000
   -2.6387   -3.9230    0.2471 H   0  0  0  0  0  0  0  0  0  0  0  0
   -2.5468   -2.9431   -0.2300 C   0  0  0  0  0  0  0  0  0  0  0  0
   -3.2950   -2.2715    0.1985 H   0  0  0  0  0  0  0  0  0  0  0  0
   -2.7373   -3.0533   -1.3005 H   0  0  0  0  0  0  0  0  0  0  0  0
   -1.1549   -2.3785   -0.0066 C   0  0  0  0  0  0  0  0  0  0  0  0
   -0.3348   -3.0215    0.6257 O   0  0  0  0  0  0  0  0  0  0  0  0
   -0.8310   -1.1513   -0.5454 N   0  0  0  0  0  0  0  0  0  0  0  0
   -1.5523   -0.6689   -1.0743 H   0  0  0  0  0  0  0  0  0  0  0  0
    0.4478   -0.4484   -0.3471 C   0  0  1  0  0  0  0  0  0  0  0  0
    1.2454   -1.1239   -0.6749 H   0  0  0  0  0  0  0  0  0  0  0  0
    0.4232    0.7348   -1.3419 C   0  0  0  0  0  0  0  0  0  0  0  0
    1.4654    0.9466   -1.6056 H   0  0  0  0  0  0  0  0  0  0  0  0
   -0.0832    0.4464   -2.2697 H   0  0  0  0  0  0  0  0  0  0  0  0
   -0.1842    2.0491   -0.8087 C   0  0  0  0  0  0  0  0  0  0  0  0
   -1.2702    1.9507   -0.7296 H   0  0  0  0  0  0  0  0  0  0  0  0
    0.2114    2.2804    0.1825 H   0  0  0  0  0  0  0  0  0  0  0  0
    0.1611    3.2314   -1.7164 C   0  0  0  0  0  0  0  0  0  0  0  0
   -0.1498    3.1270   -2.9295 O   0  5  0  0  0  0  0  0  0  0  0  0
    0.6670    4.2526   -1.1916 O   0  0  0  0  0  0  0  0  0  0  0  0
    0.7936   -0.1073    1.1216 C   0  0  0  0  0  0  0  0  0  0  0  0
    1.9319   -0.2774    1.5425 O   0  0  0  0  0  0  0  0  0  0  0  0
   -0.1662    0.4297    1.9619 N   0  0  0  0  0  0  0  0  0  0  0  0
   -1.0118    0.7503    1.5024 H   0  0  0  0  0  0  0  0  0  0  0  0
    0.1540    0.9681    3.2755 C   0  0  0  0  0  0  0  0  0  0  0  0
    0.8362    1.8194    3.1823 H   0  0  0  0  0  0  0  0  0  0  0  0
   -0.7583    1.3058    3.7756 H   0  0  0  0  0  0  0  0  0  0  0  0
    0.6257    0.2026    3.9001 H   0  0  0  0  0  0  0  0  0  0  0  0
  1  2  1  0  0  0  0
  2  3  1  0  0  0  0
  2  4  1  0  0  0  0
  2  5  1  0  0  0  0
  5  6  2  0  0  0  0
  5  7  1  0  0  0  0
  7  8  1  0  0  0  0
  7  9  1  0  0  0  0
  9 10  1  0  0  0  0
  9 11  1  0  0  0  0
  9 20  1  0  0  0  0
 11 12  1  0  0  0  0
 11 13  1  0  0  0  0
 11 14  1  0  0  0  0
 14 15  1  0  0  0  0
 14 16  1  0  0  0  0
 14 17  1  0  0  0  0
 17 18  1  0  0  0  0
 17 19  2  0  0  0  0
 20 21  2  0  0  0  0
 20 22  1  0  0  0  0
 22 23  1  0  0  0  0
 22 24  1  0  0  0  0
 24 25  1  0  0  0  0
 24 26  1  0  0  0  0
 24 27  1  0  0  0  0
M  CHG  1  18  -1
M  END
$$$$

  -OEChem-04042215583D

 27 26  0     1  0  0  0  0  0999 V2000
   -2.6876   -3.8914    0.3052 H   0  0  0  0  0  0  0  0  0  0  0  0
   -2.5834   -2.9266   -0.1991 C   0  0  0  0  0  0  0  0  0  0  0  0
   -3.3197   -2.2324    0.2133 H   0  0  0  0  0  0  0  0  0  0  0  0
   -2.7798   -3.0628   -1.2655 H   0  0  0  0  0  0  0  0  0  0  0  0
   -1.1827   -2.3769    0.0038 C   0  0  0  0  0  0  0  0  0  0  0  0
   -0.3635   -3.0231    0.6342 O   0  0  0  0  0  0  0  0  0  0  0  0
   -0.8519   -1.1579   -0.5492 N   0  0  0  0  0  0  0  0  0  0  0  0
   -1.5743   -0.6744   -1.0751 H   0  0  0  0  0  0  0  0  0  0  0  0
    0.4391   -0.4691   -0.3754 C   0  0  1  0  0  0  0  0  0  0  0  0
    1.2227   -1.1567   -0.7111 H   0  0  0  0  0  0  0  0  0  0  0  0
    0.4228    0.7218   -1.3663 C   0  0  0  0  0  0  0  0  0  0  0  0
    1.3988    0.7502   -1.8629 H   0  0  0  0  0  0  0  0  0  0  0  0
   -0.3229    0.5540   -2.1512 H   0  0  0  0  0  0  0  0  0  0  0  0
    0.1934    2.1093   -0.7312 C   0  0  0  0  0  0  0  0  0  0  0  0
   -0.7669    2.1088   -0.2085 H   0  0  0  0  0  0  0  0  0  0  0  0
    0.9849    2.3171   -0.0053 H   0  0  0  0  0  0  0  0  0  0  0  0
    0.1824    3.2568   -1.7491 C   0  0  0  0  0  0  0  0  0  0  0  0
    0.2982    2.9920   -2.9727 O   0  5  0  0  0  0  0  0  0  0  0  0
   -0.0162    4.4058   -1.2854 O   0  0  0  0  0  0  0  0  0  0  0  0
    0.8078   -0.1232    1.0869 C   0  0  0  0  0  0  0  0  0  0  0  0
    1.9503   -0.2994    1.4944 O   0  0  0  0  0  0  0  0  0  0  0  0
   -0.1349    0.4311    1.9350 N   0  0  0  0  0  0  0  0  0  0  0  0
   -0.9853    0.7546    1.4869 H   0  0  0  0  0  0  0  0  0  0  0  0
    0.2032    0.9641    3.2460 C   0  0  0  0  0  0  0  0  0  0  0  0
    0.9019    1.8013    3.1483 H   0  0  0  0  0  0  0  0  0  0  0  0
   -0.6997    1.3204    3.7507 H   0  0  0  0  0  0  0  0  0  0  0  0
    0.6623    0.1892    3.8683 H   0  0  0  0  0  0  0  0  0  0  0  0
  1  2  1  0  0  0  0
  2  3  1  0  0  0  0
  2  4  1  0  0  0  0
  2  5  1  0  0  0  0
  5  6  2  0  0  0  0
  5  7  1  0  0  0  0
  7  8  1  0  0  0  0
  7  9  1  0  0  0  0
  9 10  1  0  0  0  0
  9 11  1  0  0  0  0
  9 20  1  0  0  0  0
 11 12  1  0  0  0  0
 11 13  1  0  0  0  0
 11 14  1  0  0  0  0
 14 15  1  0  0  0  0
 14 16  1  0  0  0  0
 14 17  1  0  0  0  0
 17 18  1  0  0  0  0
 17 19  2  0  0  0  0
 20 21  2  0  0  0  0
 20 22  1  0  0  0  0
 22 23  1  0  0  0  0
 22 24  1  0  0  0  0
 24 25  1  0  0  0  0
 24 26  1  0  0  0  0
 24 27  1  0  0  0  0
M  CHG  1  18  -1
M  END
$$$$

  -OEChem-04042215583D

 27 26  0     1  0  0  0  0  0999 V2000
   -2.7493   -3.8470    0.3303 H   0  0  0  0  0  0  0  0  0  0  0  0
   -2.6527   -2.8632   -0.1374 C   0  0  0  0  0  0  0  0  0  0  0  0
   -3.3505   -2.1738    0.3445 H   0  0  0  0  0  0  0  0  0  0  0  0
   -2.9107   -2.9493   -1.1959 H   0  0  0  0  0  0  0  0  0  0  0  0
   -1.2320   -2.3483    0.0096 C   0  0  0  0  0  0  0  0  0  0  0  0
   -0.3991   -3.0230    0.5910 O   0  0  0  0  0  0  0  0  0  0  0  0
   -0.8984   -1.1273   -0.5365 N   0  0  0  0  0  0  0  0  0  0  0  0
   -1.6387   -0.6072   -1.0019 H   0  0  0  0  0  0  0  0  0  0  0  0
    0.4072   -0.4610   -0.3912 C   0  0  1  0  0  0  0  0  0  0  0  0
    1.1671   -1.1615   -0.7535 H   0  0  0  0  0  0  0  0  0  0  0  0
    0.3924    0.7329   -1.3761 C   0  0  0  0  0  0  0  0  0  0  0  0
    1.3504    0.7516   -1.9064 H   0  0  0  0  0  0  0  0  0  0  0  0
   -0.3806    0.5755   -2.1367 H   0  0  0  0  0  0  0  0  0  0  0  0
    0.2030    2.1170   -0.7306 C   0  0  0  0  0  0  0  0  0  0  0  0
   -0.6140    2.0892   -0.0058 H   0  0  0  0  0  0  0  0  0  0  0  0
    1.1149    2.4182   -0.2055 H   0  0  0  0  0  0  0  0  0  0  0  0
   -0.1643    3.1564   -1.7884 C   0  0  0  0  0  0  0  0  0  0  0  0
    0.6906    4.0174   -2.1060 O   0  5  0  0  0  0  0  0  0  0  0  0
   -1.3133    3.0631   -2.2913 O   0  0  0  0  0  0  0  0  0  0  0  0
    0.8274   -0.1386    1.0628 C   0  0  0  0  0  0  0  0  0  0  0  0
    1.9813   -0.3302    1.4292 O   0  0  0  0  0  0  0  0  0  0  0  0
   -0.0771    0.4190    1.9491 N   0  0  0  0  0  0  0  0  0  0  0  0
   -0.9467    0.7434    1.5389 H   0  0  0  0  0  0  0  0  0  0  0  0
    0.3049    0.9210    3.2602 C   0  0  0  0  0  0  0  0  0  0  0  0
    1.0089    1.7533    3.1594 H   0  0  0  0  0  0  0  0  0  0  0  0
   -0.5790    1.2751    3.7986 H   0  0  0  0  0  0  0  0  0  0  0  0
    0.7743    0.1290    3.8527 H   0  0  0  0  0  0  0  0  0  0  0  0
  1  2  1  0  0  0  0
  2  3  1  0  0  0  0
  2  4  1  0  0  0  0
  2  5  1  0  0  0  0
  5  6  2  0  0  0  0
  5  7  1  0  0  0  0
  7  8  1  0  0  0  0
  7  9  1  0  0  0  0
  9 10  1  0  0  0  0
  9 11  1  0  0  0  0
  9 20  1  0  0  0  0
 11 12  1  0  0  0  0
 11 13  1  0  0  0  0
 11 14  1  0  0  0  0
 14 15  1  0  0  0  0
 14 16  1  0  0  0  0
 14 17  1  0  0  0  0
 17 18  1  0  0  0  0
 17 19  2  0  0  0  0
 20 21  2  0  0  0  0
 20 22  1  0  0  0  0
 22 23  1  0  0  0  0
 22 24  1  0  0  0  0
 24 25  1  0  0  0  0
 24 26  1  0  0  0  0
 24 27  1  0  0  0  0
M  CHG  1  18  -1
M  END
$$$$

  -OEChem-04042215583D

 27 26  0     1  0  0  0  0  0999 V2000
   -2.7536   -3.8373    0.3431 H   0  0  0  0  0  0  0  0  0  0  0  0
   -2.6542   -2.8574   -0.1320 C   0  0  0  0  0  0  0  0  0  0  0  0
   -3.3511   -2.1629    0.3437 H   0  0  0  0  0  0  0  0  0  0  0  0
   -2.9111   -2.9511   -1.1900 H   0  0  0  0  0  0  0  0  0  0  0  0
   -1.2326   -2.3440    0.0120 C   0  0  0  0  0  0  0  0  0  0  0  0
   -0.3959   -3.0243    0.5820 O   0  0  0  0  0  0  0  0  0  0  0  0
   -0.9015   -1.1177   -0.5230 N   0  0  0  0  0  0  0  0  0  0  0  0
   -1.6481   -0.5859   -0.9667 H   0  0  0  0  0  0  0  0  0  0  0  0
    0.4017   -0.4489   -0.3729 C   0  0  1  0  0  0  0  0  0  0  0  0
    1.1593   -1.1547   -0.7303 H   0  0  0  0  0  0  0  0  0  0  0  0
    0.3992    0.7327   -1.3729 C   0  0  0  0  0  0  0  0  0  0  0  0
    1.3616    0.7429   -1.8946 H   0  0  0  0  0  0  0  0  0  0  0  0
   -0.3617    0.5547   -2.1415 H   0  0  0  0  0  0  0  0  0  0  0  0
    0.2030    2.1339   -0.7605 C   0  0  0  0  0  0  0  0  0  0  0  0
   -0.4397    2.0900    0.1194 H   0  0  0  0  0  0  0  0  0  0  0  0
    1.1672    2.5516   -0.4547 H   0  0  0  0  0  0  0  0  0  0  0  0
   -0.4981    3.0582   -1.7544 C   0  0  0  0  0  0  0  0  0  0  0  0
    0.1650    3.9740   -2.2972 O   0  5  0  0  0  0  0  0  0  0  0  0
   -1.7112    2.8137   -1.9829 O   0  0  0  0  0  0  0  0  0  0  0  0
    0.8260   -0.1360    1.0821 C   0  0  0  0  0  0  0  0  0  0  0  0
    1.9866   -0.3106    1.4360 O   0  0  0  0  0  0  0  0  0  0  0  0
   -0.0746    0.4117    1.9787 N   0  0  0  0  0  0  0  0  0  0  0  0
   -0.9561    0.7203    1.5806 H   0  0  0  0  0  0  0  0  0  0  0  0
    0.3099    0.9043    3.2928 C   0  0  0  0  0  0  0  0  0  0  0  0
    1.0001    1.7486    3.1964 H   0  0  0  0  0  0  0  0  0  0  0  0
   -0.5753    1.2380    3.8422 H   0  0  0  0  0  0  0  0  0  0  0  0
    0.7958    0.1125    3.8721 H   0  0  0  0  0  0  0  0  0  0  0  0
  1  2  1  0  0  0  0
  2  3  1  0  0  0  0
  2  4  1  0  0  0  0
  2  5  1  0  0  0  0
  5  6  2  0  0  0  0
  5  7  1  0  0  0  0
  7  8  1  0  0  0  0
  7  9  1  0  0  0  0
  9 10  1  0  0  0  0
  9 11  1  0  0  0  0
  9 20  1  0  0  0  0
 11 12  1  0  0  0  0
 11 13  1  0  0  0  0
 11 14  1  0  0  0  0
 14 15  1  0  0  0  0
 14 16  1  0  0  0  0
 14 17  1  0  0  0  0
 17 18  1  0  0  0  0
 17 19  2  0  0  0  0
 20 21  2  0  0  0  0
 20 22  1  0  0  0  0
 22 23  1  0  0  0  0
 22 24  1  0  0  0  0
 24 25  1  0  0  0  0
 24 26  1  0  0  0  0
 24 27  1  0  0  0  0
M  CHG  1  18  -1
M  END
$$$$

  -OEChem-04042215583D

 27 26  0     1  0  0  0  0  0999 V2000
   -2.7427   -3.8265    0.3587 H   0  0  0  0  0  0  0  0  0  0  0  0
   -2.6491   -2.8347   -0.0925 C   0  0  0  0  0  0  0  0  0  0  0  0
   -3.3179   -2.1452    0.4288 H   0  0  0  0  0  0  0  0  0  0  0  0
   -2.9478   -2.8949   -1.1421 H   0  0  0  0  0  0  0  0  0  0  0  0
   -1.2167   -2.3422    0.0108 C   0  0  0  0  0  0  0  0  0  0  0  0
   -0.3705   -3.0397    0.5459 O   0  0  0  0  0  0  0  0  0  0  0  0
   -0.8861   -1.1135   -0.5182 N   0  0  0  0  0  0  0  0  0  0  0  0
   -1.6448   -0.5562   -0.9106 H   0  0  0  0  0  0  0  0  0  0  0  0
    0.4161   -0.4452   -0.3616 C   0  0  1  0  0  0  0  0  0  0  0  0
    1.1753   -1.1516   -0.7143 H   0  0  0  0  0  0  0  0  0  0  0  0
    0.4107    0.7277   -1.3721 C   0  0  0  0  0  0  0  0  0  0  0  0
    1.3833    0.7337   -1.8747 H   0  0  0  0  0  0  0  0  0  0  0  0
   -0.3270    0.5286   -2.1582 H   0  0  0  0  0  0  0  0  0  0  0  0
    0.2069    2.1468   -0.7951 C   0  0  0  0  0  0  0  0  0  0  0  0
   -0.1883    2.1327    0.2182 H   0  0  0  0  0  0  0  0  0  0  0  0
    1.1638    2.6769   -0.7674 H   0  0  0  0  0  0  0  0  0  0  0  0
   -0.8034    2.9170   -1.6425 C   0  0  0  0  0  0  0  0  0  0  0  0
   -0.4114    3.9054   -2.3074 O   0  5  0  0  0  0  0  0  0  0  0  0
   -1.9830    2.4760   -1.6304 O   0  0  0  0  0  0  0  0  0  0  0  0
    0.8269   -0.1435    1.0991 C   0  0  0  0  0  0  0  0  0  0  0  0
    1.9874   -0.3066    1.4598 O   0  0  0  0  0  0  0  0  0  0  0  0
   -0.0848    0.3959    1.9895 N   0  0  0  0  0  0  0  0  0  0  0  0
   -0.9637    0.7037    1.5825 H   0  0  0  0  0  0  0  0  0  0  0  0
    0.2848    0.8865    3.3082 C   0  0  0  0  0  0  0  0  0  0  0  0
    0.9775    1.7298    3.2212 H   0  0  0  0  0  0  0  0  0  0  0  0
   -0.6067    1.2210    3.8467 H   0  0  0  0  0  0  0  0  0  0  0  0
    0.7626    0.0933    3.8921 H   0  0  0  0  0  0  0  0  0  0  0  0
  1  2  1  0  0  0  0
  2  3  1  0  0  0  0
  2  4  1  0  0  0  0
  2  5  1  0  0  0  0
  5  6  2  0  0  0  0
  5  7  1  0  0  0  0
  7  8  1  0  0  0  0
  7  9  1  0  0  0  0
  9 10  1  0  0  0  0
  9 11  1  0  0  0  0
  9 20  1  0  0  0  0
 11 12  1  0  0  0  0
 11 13  1  0  0  0  0
 11 14  1  0  0  0  0
 14 15  1  0  0  0  0
 14 16  1  0  0  0  0
 14 17  1  0  0  0  0
 17 18  1  0  0  0  0
 17 19  2  0  0  0  0
 20 21  2  0  0  0  0
 20 22  1  0  0  0  0
 22 23  1  0  0  0  0
 22 24  1  0  0  0  0
 24 25  1  0  0  0  0
 24 26  1  0  0  0  0
 24 27  1  0  0  0  0
M  CHG  1  18  -1
M  END
$$$$

  -OEChem-04042215583D

 27 26  0     1  0  0  0  0  0999 V2000
   -2.6772   -3.7803    0.3441 H   0  0  0  0  0  0  0  0  0  0  0  0
   -2.5719   -2.8158   -0.1603 C   0  0  0  0  0  0  0  0  0  0  0  0
   -3.2260   -2.0894    0.3290 H   0  0  0  0  0  0  0  0  0  0  0  0
   -2.8797   -2.9254   -1.2032 H   0  0  0  0  0  0  0  0  0  0  0  0
   -1.1310   -2.3419   -0.0940 C   0  0  0  0  0  0  0  0  0  0  0  0
   -0.2705   -3.0730    0.3700 O   0  0  0  0  0  0  0  0  0  0  0  0
   -0.8064   -1.0959   -0.5842 N   0  0  0  0  0  0  0  0  0  0  0  0
   -1.5844   -0.4996   -0.8750 H   0  0  0  0  0  0  0  0  0  0  0  0
    0.4844   -0.4202   -0.3756 C   0  0  1  0  0  0  0  0  0  0  0  0
    1.2698   -1.0933   -0.7357 H   0  0  0  0  0  0  0  0  0  0  0  0
    0.4412    0.7888   -1.3412 C   0  0  0  0  0  0  0  0  0  0  0  0
    1.4291    0.8397   -1.8100 H   0  0  0  0  0  0  0  0  0  0  0  0
   -0.2602    0.6004   -2.1630 H   0  0  0  0  0  0  0  0  0  0  0  0
    0.1948    2.1840   -0.7214 C   0  0  0  0  0  0  0  0  0  0  0  0
    0.1103    2.1839    0.3617 H   0  0  0  0  0  0  0  0  0  0  0  0
    1.0344    2.8394   -0.9722 H   0  0  0  0  0  0  0  0  0  0  0  0
   -1.0861    2.7644   -1.3134 C   0  0  0  0  0  0  0  0  0  0  0  0
   -2.1370    2.1149   -1.0596 O   0  5  0  0  0  0  0  0  0  0  0  0
   -1.0331    3.8093   -2.0042 O   0  0  0  0  0  0  0  0  0  0  0  0
    0.8244   -0.1689    1.1115 C   0  0  0  0  0  0  0  0  0  0  0  0
    1.9695   -0.3259    1.5216 O   0  0  0  0  0  0  0  0  0  0  0  0
   -0.1421    0.3285    1.9687 N   0  0  0  0  0  0  0  0  0  0  0  0
   -0.9942    0.6557    1.5170 H   0  0  0  0  0  0  0  0  0  0  0  0
    0.1542    0.7927    3.3147 C   0  0  0  0  0  0  0  0  0  0  0  0
    0.8452    1.6412    3.2825 H   0  0  0  0  0  0  0  0  0  0  0  0
   -0.7664    1.1114    3.8122 H   0  0  0  0  0  0  0  0  0  0  0  0
    0.6055   -0.0109    3.9053 H   0  0  0  0  0  0  0  0  0  0  0  0
  1  2  1  0  0  0  0
  2  3  1  0  0  0  0
  2  4  1  0  0  0  0
  2  5  1  0  0  0  0
  5  6  2  0  0  0  0
  5  7  1  0  0  0  0
  7  8  1  0  0  0  0
  7  9  1  0  0  0  0
  9 10  1  0  0  0  0
  9 11  1  0  0  0  0
  9 20  1  0  0  0  0
 11 12  1  0  0  0  0
 11 13  1  0  0  0  0
 11 14  1  0  0  0  0
 14 15  1  0  0  0  0
 14 16  1  0  0  0  0
 14 17  1  0  0  0  0
 17 18  1  0  0  0  0
 17 19  2  0  0  0  0
 20 21  2  0  0  0  0
 20 22  1  0  0  0  0
 22 23  1  0  0  0  0
 22 24  1  0  0  0  0
 24 25  1  0  0  0  0
 24 26  1  0  0  0  0
 24 27  1  0  0  0  0
M  CHG  1  18  -1
M  END
$$$$

  -OEChem-04042215583D

 27 26  0     1  0  0  0  0  0999 V2000
   -2.6569   -3.6559    0.5227 H   0  0  0  0  0  0  0  0  0  0  0  0
   -2.5537   -2.7115   -0.0184 C   0  0  0  0  0  0  0  0  0  0  0  0
   -3.1014   -1.9345    0.5218 H   0  0  0  0  0  0  0  0  0  0  0  0
   -2.9866   -2.8232   -1.0154 H   0  0  0  0  0  0  0  0  0  0  0  0
   -1.0897   -2.3266   -0.1308 C   0  0  0  0  0  0  0  0  0  0  0  0
   -0.2227   -3.1153    0.2133 O   0  0  0  0  0  0  0  0  0  0  0  0
   -0.7552   -1.0957   -0.6502 N   0  0  0  0  0  0  0  0  0  0  0  0
   -1.5386   -0.4462   -0.7744 H   0  0  0  0  0  0  0  0  0  0  0  0
    0.5507   -0.4485   -0.4460 C   0  0  1  0  0  0  0  0  0  0  0  0
    1.3414   -1.1118   -0.8109 H   0  0  0  0  0  0  0  0  0  0  0  0
    0.4673    0.7877   -1.3751 C   0  0  0  0  0  0  0  0  0  0  0  0
    1.4447    0.8570   -1.8626 H   0  0  0  0  0  0  0  0  0  0  0  0
   -0.2551    0.6376   -2.1870 H   0  0  0  0  0  0  0  0  0  0  0  0
    0.2431    2.1500   -0.6844 C   0  0  0  0  0  0  0  0  0  0  0  0
    0.5124    2.1905    0.3690 H   0  0  0  0  0  0  0  0  0  0  0  0
    0.8701    2.8948   -1.1839 H   0  0  0  0  0  0  0  0  0  0  0  0
   -1.2135    2.5401   -0.9047 C   0  0  0  0  0  0  0  0  0  0  0  0
   -2.0474    1.7416   -0.3896 O   0  5  0  0  0  0  0  0  0  0  0  0
   -1.5052    3.5628   -1.5674 O   0  0  0  0  0  0  0  0  0  0  0  0
    0.8257   -0.2098    1.0562 C   0  0  0  0  0  0  0  0  0  0  0  0
    1.9409   -0.4012    1.5302 O   0  0  0  0  0  0  0  0  0  0  0  0
   -0.1852    0.3082    1.8497 N   0  0  0  0  0  0  0  0  0  0  0  0
   -0.9826    0.6896    1.3306 H   0  0  0  0  0  0  0  0  0  0  0  0
    0.0326    0.7661    3.2120 C   0  0  0  0  0  0  0  0  0  0  0  0
    0.7291    1.6104    3.2240 H   0  0  0  0  0  0  0  0  0  0  0  0
   -0.9149    1.0891    3.6532 H   0  0  0  0  0  0  0  0  0  0  0  0
    0.4424   -0.0417    3.8269 H   0  0  0  0  0  0  0  0  0  0  0  0
  1  2  1  0  0  0  0
  2  3  1  0  0  0  0
  2  4  1  0  0  0  0
  2  5  1  0  0  0  0
  5  6  2  0  0  0  0
  5  7  1  0  0  0  0
  7  8  1  0  0  0  0
  7  9  1  0  0  0  0
  9 10  1  0  0  0  0
  9 11  1  0  0  0  0
  9 20  1  0  0  0  0
 11 12  1  0  0  0  0
 11 13  1  0  0  0  0
 11 14  1  0  0  0  0
 14 15  1  0  0  0  0
 14 16  1  0  0  0  0
 14 17  1  0  0  0  0
 17 18  1  0  0  0  0
 17 19  2  0  0  0  0
 20 21  2  0  0  0  0
 20 22  1  0  0  0  0
 22 23  1  0  0  0  0
 22 24  1  0  0  0  0
 24 25  1  0  0  0  0
 24 26  1  0  0  0  0
 24 27  1  0  0  0  0
M  CHG  1  18  -1
M  END
$$$$

  -OEChem-04042215583D

 27 26  0     1  0  0  0  0  0999 V2000
   -2.6321   -3.6901    0.5414 H   0  0  0  0  0  0  0  0  0  0  0  0
   -2.5514   -2.7303    0.0242 C   0  0  0  0  0  0  0  0  0  0  0  0
   -3.0631   -1.9668    0.6163 H   0  0  0  0  0  0  0  0  0  0  0  0
   -3.0384   -2.8091   -0.9508 H   0  0  0  0  0  0  0  0  0  0  0  0
   -1.0932   -2.3493   -0.1551 C   0  0  0  0  0  0  0  0  0  0  0  0
   -0.2134   -3.1463    0.1348 O   0  0  0  0  0  0  0  0  0  0  0  0
   -0.7799   -1.1119   -0.6710 N   0  0  0  0  0  0  0  0  0  0  0  0
   -1.5690   -0.4574   -0.7126 H   0  0  0  0  0  0  0  0  0  0  0  0
    0.5165   -0.4559   -0.4480 C   0  0  1  0  0  0  0  0  0  0  0  0
    1.3068   -1.1265   -0.8006 H   0  0  0  0  0  0  0  0  0  0  0  0
    0.4842    0.7805   -1.3844 C   0  0  0  0  0  0  0  0  0  0  0  0
    1.4734    0.8369   -1.8492 H   0  0  0  0  0  0  0  0  0  0  0  0
   -0.2307    0.6439   -2.2045 H   0  0  0  0  0  0  0  0  0  0  0  0
    0.2512    2.1413   -0.6971 C   0  0  0  0  0  0  0  0  0  0  0  0
    0.7130    2.2175    0.2884 H   0  0  0  0  0  0  0  0  0  0  0  0
    0.7089    2.9200   -1.3145 H   0  0  0  0  0  0  0  0  0  0  0  0
   -1.2545    2.4115   -0.6305 C   0  0  0  0  0  0  0  0  0  0  0  0
   -1.9590    1.5153   -0.0834 O   0  5  0  0  0  0  0  0  0  0  0  0
   -1.7039    3.4747   -1.1170 O   0  0  0  0  0  0  0  0  0  0  0  0
    0.8049   -0.2084    1.0507 C   0  0  0  0  0  0  0  0  0  0  0  0
    1.9289   -0.3909    1.5083 O   0  0  0  0  0  0  0  0  0  0  0  0
   -0.1924    0.3059    1.8600 N   0  0  0  0  0  0  0  0  0  0  0  0
   -1.0058    0.6764    1.3503 H   0  0  0  0  0  0  0  0  0  0  0  0
    0.0468    0.7814    3.2122 C   0  0  0  0  0  0  0  0  0  0  0  0
    0.7325    1.6344    3.2011 H   0  0  0  0  0  0  0  0  0  0  0  0
   -0.8959    1.0974    3.6688 H   0  0  0  0  0  0  0  0  0  0  0  0
    0.4787   -0.0141    3.8277 H   0  0  0  0  0  0  0  0  0  0  0  0
  1  2  1  0  0  0  0
  2  3  1  0  0  0  0
  2  4  1  0  0  0  0
  2  5  1  0  0  0  0
  5  6  2  0  0  0  0
  5  7  1  0  0  0  0
  7  8  1  0  0  0  0
  7  9  1  0  0  0  0
  9 10  1  0  0  0  0
  9 11  1  0  0  0  0
  9 20  1  0  0  0  0
 11 12  1  0  0  0  0
 11 13  1  0  0  0  0
 11 14  1  0  0  0  0
 14 15  1  0  0  0  0
 14 16  1  0  0  0  0
 14 17  1  0  0  0  0
 17 18  1  0  0  0  0
 17 19  2  0  0  0  0
 20 21  2  0  0  0  0
 20 22  1  0  0  0  0
 22 23  1  0  0  0  0
 22 24  1  0  0  0  0
 24 25  1  0  0  0  0
 24 26  1  0  0  0  0
 24 27  1  0  0  0  0
M  CHG  1  18  -1
M  END
$$$$

  -OEChem-04042215583D

 27 26  0     1  0  0  0  0  0999 V2000
   -2.6162   -3.7719    0.5189 H   0  0  0  0  0  0  0  0  0  0  0  0
   -2.5511   -2.8025    0.0174 C   0  0  0  0  0  0  0  0  0  0  0  0
   -3.0769   -2.0571    0.6203 H   0  0  0  0  0  0  0  0  0  0  0  0
   -3.0345   -2.8738   -0.9599 H   0  0  0  0  0  0  0  0  0  0  0  0
   -1.0991   -2.3939   -0.1528 C   0  0  0  0  0  0  0  0  0  0  0  0
   -0.2066   -3.1776    0.1355 O   0  0  0  0  0  0  0  0  0  0  0  0
   -0.8068   -1.1486   -0.6614 N   0  0  0  0  0  0  0  0  0  0  0  0
   -1.6047   -0.5027   -0.6860 H   0  0  0  0  0  0  0  0  0  0  0  0
    0.4743   -0.4709   -0.4270 C   0  0  1  0  0  0  0  0  0  0  0  0
    1.2649   -1.1483   -0.7656 H   0  0  0  0  0  0  0  0  0  0  0  0
    0.4933    0.7556   -1.3785 C   0  0  0  0  0  0  0  0  0  0  0  0
    1.4928    0.7935   -1.8229 H   0  0  0  0  0  0  0  0  0  0  0  0
   -0.2112    0.6126   -2.2054 H   0  0  0  0  0  0  0  0  0  0  0  0
    0.2466    2.1364   -0.7322 C   0  0  0  0  0  0  0  0  0  0  0  0
    0.8743    2.2709    0.1523 H   0  0  0  0  0  0  0  0  0  0  0  0
    0.5402    2.9050   -1.4534 H   0  0  0  0  0  0  0  0  0  0  0  0
   -1.2287    2.3695   -0.3635 C   0  0  0  0  0  0  0  0  0  0  0  0
   -1.9401    1.3734   -0.0495 O   0  5  0  0  0  0  0  0  0  0  0  0
   -1.6377    3.5530   -0.3658 O   0  0  0  0  0  0  0  0  0  0  0  0
    0.7891   -0.2054    1.0634 C   0  0  0  0  0  0  0  0  0  0  0  0
    1.9299   -0.3567    1.4903 O   0  0  0  0  0  0  0  0  0  0  0  0
   -0.1898    0.2986    1.8981 N   0  0  0  0  0  0  0  0  0  0  0  0
   -1.0300    0.6343    1.4095 H   0  0  0  0  0  0  0  0  0  0  0  0
    0.0862    0.8191    3.2264 C   0  0  0  0  0  0  0  0  0  0  0  0
    0.7530    1.6849    3.1651 H   0  0  0  0  0  0  0  0  0  0  0  0
   -0.8466    1.1303    3.7058 H   0  0  0  0  0  0  0  0  0  0  0  0
    0.5556    0.0512    3.8495 H   0  0  0  0  0  0  0  0  0  0  0  0
  1  2  1  0  0  0  0
  2  3  1  0  0  0  0
  2  4  1  0  0  0  0
  2  5  1  0  0  0  0
  5  6  2  0  0  0  0
  5  7  1  0  0  0  0
  7  8  1  0  0  0  0
  7  9  1  0  0  0  0
  9 10  1  0  0  0  0
  9 11  1  0  0  0  0
  9 20  1  0  0  0  0
 11 12  1  0  0  0  0
 11 13  1  0  0  0  0
 11 14  1  0  0  0  0
 14 15  1  0  0  0  0
 14 16  1  0  0  0  0
 14 17  1  0  0  0  0
 17 18  1  0  0  0  0
 17 19  2  0  0  0  0
 20 21  2  0  0  0  0
 20 22  1  0  0  0  0
 22 23  1  0  0  0  0
 22 24  1  0  0  0  0
 24 25  1  0  0  0  0
 24 26  1  0  0  0  0
 24 27  1  0  0  0  0
M  CHG  1  18  -1
M  END
$$$$

  -OEChem-04042215583D

 27 26  0     1  0  0  0  0  0999 V2000
   -2.6038   -3.8295    0.4863 H   0  0  0  0  0  0  0  0  0  0  0  0
   -2.5454   -2.8466    0.0112 C   0  0  0  0  0  0  0  0  0  0  0  0
   -3.0778   -2.1218    0.6330 H   0  0  0  0  0  0  0  0  0  0  0  0
   -3.0274   -2.8956   -0.9682 H   0  0  0  0  0  0  0  0  0  0  0  0
   -1.0969   -2.4217   -0.1467 C   0  0  0  0  0  0  0  0  0  0  0  0
   -0.1978   -3.1985    0.1398 O   0  0  0  0  0  0  0  0  0  0  0  0
   -0.8161   -1.1701   -0.6458 N   0  0  0  0  0  0  0  0  0  0  0  0
   -1.6199   -0.5316   -0.6741 H   0  0  0  0  0  0  0  0  0  0  0  0
    0.4551   -0.4770   -0.4049 C   0  0  1  0  0  0  0  0  0  0  0  0
    1.2463   -1.1589   -0.7334 H   0  0  0  0  0  0  0  0  0  0  0  0
    0.5015    0.7359   -1.3732 C   0  0  0  0  0  0  0  0  0  0  0  0
    1.5036    0.7609   -1.8123 H   0  0  0  0  0  0  0  0  0  0  0  0
   -0.1994    0.5760   -2.1998 H   0  0  0  0  0  0  0  0  0  0  0  0
    0.2438    2.1372   -0.7731 C   0  0  0  0  0  0  0  0  0  0  0  0
    1.0186    2.3557   -0.0325 H   0  0  0  0  0  0  0  0  0  0  0  0
    0.3350    2.8760   -1.5742 H   0  0  0  0  0  0  0  0  0  0  0  0
   -1.1315    2.3211   -0.1082 C   0  0  0  0  0  0  0  0  0  0  0  0
   -1.9338    1.3459   -0.0699 O   0  5  0  0  0  0  0  0  0  0  0  0
   -1.3629    3.4382    0.4071 O   0  0  0  0  0  0  0  0  0  0  0  0
    0.7812   -0.2066    1.0825 C   0  0  0  0  0  0  0  0  0  0  0  0
    1.9310   -0.3421    1.4904 O   0  0  0  0  0  0  0  0  0  0  0  0
   -0.1888    0.2850    1.9349 N   0  0  0  0  0  0  0  0  0  0  0  0
   -1.0430    0.6071    1.4635 H   0  0  0  0  0  0  0  0  0  0  0  0
    0.1141    0.8393    3.2440 C   0  0  0  0  0  0  0  0  0  0  0  0
    0.7430    1.7297    3.1438 H   0  0  0  0  0  0  0  0  0  0  0  0
   -0.8123    1.1227    3.7520 H   0  0  0  0  0  0  0  0  0  0  0  0
    0.6359    0.1024    3.8627 H   0  0  0  0  0  0  0  0  0  0  0  0
  1  2  1  0  0  0  0
  2  3  1  0  0  0  0
  2  4  1  0  0  0  0
  2  5  1  0  0  0  0
  5  6  2  0  0  0  0
  5  7  1  0  0  0  0
  7  8  1  0  0  0  0
  7  9  1  0  0  0  0
  9 10  1  0  0  0  0
  9 11  1  0  0  0  0
  9 20  1  0  0  0  0
 11 12  1  0  0  0  0
 11 13  1  0  0  0  0
 11 14  1  0  0  0  0
 14 15  1  0  0  0  0
 14 16  1  0  0  0  0
 14 17  1  0  0  0  0
 17 18  1  0  0  0  0
 17 19  2  0  0  0  0
 20 21  2  0  0  0  0
 20 22  1  0  0  0  0
 22 23  1  0  0  0  0
 22 24  1  0  0  0  0
 24 25  1  0  0  0  0
 24 26  1  0  0  0  0
 24 27  1  0  0  0  0
M  CHG  1  18  -1
M  END
$$$$

  -OEChem-04042215583D

 27 26  0     1  0  0  0  0  0999 V2000
   -2.5524   -3.8943    0.4697 H   0  0  0  0  0  0  0  0  0  0  0  0
   -2.5185   -2.9024    0.0108 C   0  0  0  0  0  0  0  0  0  0  0  0
   -3.0655   -2.2009    0.6463 H   0  0  0  0  0  0  0  0  0  0  0  0
   -3.0022   -2.9464   -0.9680 H   0  0  0  0  0  0  0  0  0  0  0  0
   -1.0801   -2.4417   -0.1429 C   0  0  0  0  0  0  0  0  0  0  0  0
   -0.1643   -3.2052    0.1252 O   0  0  0  0  0  0  0  0  0  0  0  0
   -0.8280   -1.1739   -0.6169 N   0  0  0  0  0  0  0  0  0  0  0  0
   -1.6447   -0.5536   -0.6368 H   0  0  0  0  0  0  0  0  0  0  0  0
    0.4272   -0.4556   -0.3656 C   0  0  1  0  0  0  0  0  0  0  0  0
    1.2197   -1.1413   -0.6838 H   0  0  0  0  0  0  0  0  0  0  0  0
    0.5052    0.7278   -1.3693 C   0  0  0  0  0  0  0  0  0  0  0  0
    1.5161    0.7381   -1.7885 H   0  0  0  0  0  0  0  0  0  0  0  0
   -0.1773    0.5297   -2.2027 H   0  0  0  0  0  0  0  0  0  0  0  0
    0.2222    2.1582   -0.8532 C   0  0  0  0  0  0  0  0  0  0  0  0
    1.0947    2.4941   -0.2845 H   0  0  0  0  0  0  0  0  0  0  0  0
    0.1063    2.8265   -1.7107 H   0  0  0  0  0  0  0  0  0  0  0  0
   -1.0108    2.3021    0.0512 C   0  0  0  0  0  0  0  0  0  0  0  0
   -1.8995    1.4048    0.0076 O   0  5  0  0  0  0  0  0  0  0  0  0
   -1.0524    3.2915    0.8167 O   0  0  0  0  0  0  0  0  0  0  0  0
    0.7779   -0.1923    1.1189 C   0  0  0  0  0  0  0  0  0  0  0  0
    1.9384   -0.3247    1.4977 O   0  0  0  0  0  0  0  0  0  0  0  0
   -0.1755    0.2680    2.0067 N   0  0  0  0  0  0  0  0  0  0  0  0
   -1.0317    0.6152    1.5582 H   0  0  0  0  0  0  0  0  0  0  0  0
    0.1677    0.8271    3.3041 C   0  0  0  0  0  0  0  0  0  0  0  0
    0.7792    1.7266    3.1807 H   0  0  0  0  0  0  0  0  0  0  0  0
   -0.7436    1.0986    3.8449 H   0  0  0  0  0  0  0  0  0  0  0  0
    0.7220    0.0983    3.9040 H   0  0  0  0  0  0  0  0  0  0  0  0
  1  2  1  0  0  0  0
  2  3  1  0  0  0  0
  2  4  1  0  0  0  0
  2  5  1  0  0  0  0
  5  6  2  0  0  0  0
  5  7  1  0  0  0  0
  7  8  1  0  0  0  0
  7  9  1  0  0  0  0
  9 10  1  0  0  0  0
  9 11  1  0  0  0  0
  9 20  1  0  0  0  0
 11 12  1  0  0  0  0
 11 13  1  0  0  0  0
 11 14  1  0  0  0  0
 14 15  1  0  0  0  0
 14 16  1  0  0  0  0
 14 17  1  0  0  0  0
 17 18  1  0  0  0  0
 17 19  2  0  0  0  0
 20 21  2  0  0  0  0
 20 22  1  0  0  0  0
 22 23  1  0  0  0  0
 22 24  1  0  0  0  0
 24 25  1  0  0  0  0
 24 26  1  0  0  0  0
 24 27  1  0  0  0  0
M  CHG  1  18  -1
M  END
$$$$

  -OEChem-04042215583D

 27 26  0     1  0  0  0  0  0999 V2000
   -2.7413   -3.8072    0.5742 H   0  0  0  0  0  0  0  0  0  0  0  0
   -2.6408   -2.8498    0.0561 C   0  0  0  0  0  0  0  0  0  0  0  0
   -3.2082   -2.0923    0.6032 H   0  0  0  0  0  0  0  0  0  0  0  0
   -3.0534   -2.9451   -0.9511 H   0  0  0  0  0  0  0  0  0  0  0  0
   -1.1802   -2.4429   -0.0209 C   0  0  0  0  0  0  0  0  0  0  0  0
   -0.3123   -3.2260    0.3343 O   0  0  0  0  0  0  0  0  0  0  0  0
   -0.8561   -1.2057   -0.5320 N   0  0  0  0  0  0  0  0  0  0  0  0
   -1.6463   -0.5635   -0.6340 H   0  0  0  0  0  0  0  0  0  0  0  0
    0.4090   -0.5192   -0.2449 C   0  0  1  0  0  0  0  0  0  0  0  0
    1.1728   -1.2750   -0.4575 H   0  0  0  0  0  0  0  0  0  0  0  0
    0.6540    0.5443   -1.3532 C   0  0  0  0  0  0  0  0  0  0  0  0
    1.6958    0.4497   -1.6755 H   0  0  0  0  0  0  0  0  0  0  0  0
    0.0369    0.2821   -2.2189 H   0  0  0  0  0  0  0  0  0  0  0  0
    0.4168    2.0455   -1.0554 C   0  0  0  0  0  0  0  0  0  0  0  0
    1.3549    2.4580   -0.6712 H   0  0  0  0  0  0  0  0  0  0  0  0
    0.1896    2.5695   -1.9878 H   0  0  0  0  0  0  0  0  0  0  0  0
   -0.6736    2.3662   -0.0284 C   0  0  0  0  0  0  0  0  0  0  0  0
   -0.5087    3.3521    0.7253 O   0  5  0  0  0  0  0  0  0  0  0  0
   -1.6816    1.6047    0.0094 O   0  0  0  0  0  0  0  0  0  0  0  0
    0.7202   -0.1895    1.2374 C   0  0  0  0  0  0  0  0  0  0  0  0
    1.8532   -0.3870    1.6688 O   0  0  0  0  0  0  0  0  0  0  0  0
   -0.2345    0.3503    2.0773 N   0  0  0  0  0  0  0  0  0  0  0  0
   -1.0263    0.7732    1.5770 H   0  0  0  0  0  0  0  0  0  0  0  0
    0.1038    0.9205    3.3715 C   0  0  0  0  0  0  0  0  0  0  0  0
    0.7811    1.7714    3.2460 H   0  0  0  0  0  0  0  0  0  0  0  0
   -0.8033    1.2694    3.8735 H   0  0  0  0  0  0  0  0  0  0  0  0
    0.5852    0.1723    4.0090 H   0  0  0  0  0  0  0  0  0  0  0  0
  1  2  1  0  0  0  0
  2  3  1  0  0  0  0
  2  4  1  0  0  0  0
  2  5  1  0  0  0  0
  5  6  2  0  0  0  0
  5  7  1  0  0  0  0
  7  8  1  0  0  0  0
  7  9  1  0  0  0  0
  9 10  1  0  0  0  0
  9 11  1  0  0  0  0
  9 20  1  0  0  0  0
 11 12  1  0  0  0  0
 11 13  1  0  0  0  0
 11 14  1  0  0  0  0
 14 15  1  0  0  0  0
 14 16  1  0  0  0  0
 14 17  1  0  0  0  0
 17 18  1  0  0  0  0
 17 19  2  0  0  0  0
 20 21  2  0  0  0  0
 20 22  1  0  0  0  0
 22 23  1  0  0  0  0
 22 24  1  0  0  0  0
 24 25  1  0  0  0  0
 24 26  1  0  0  0  0
 24 27  1  0  0  0  0
M  CHG  1  18  -1
M  END
$$$$

  -OEChem-04042215583D

 27 26  0     1  0  0  0  0  0999 V2000
   -2.3957   -4.0237    0.5250 H   0  0  0  0  0  0  0  0  0  0  0  0
   -2.4099   -3.0393    0.0491 C   0  0  0  0  0  0  0  0  0  0  0  0
   -3.0272   -2.3669    0.6507 H   0  0  0  0  0  0  0  0  0  0  0  0
   -2.8500   -3.1323   -0.9466 H   0  0  0  0  0  0  0  0  0  0  0  0
   -0.9998   -2.4867   -0.0581 C   0  0  0  0  0  0  0  0  0  0  0  0
   -0.0488   -3.1978    0.2274 O   0  0  0  0  0  0  0  0  0  0  0  0
   -0.8175   -1.2019   -0.5223 N   0  0  0  0  0  0  0  0  0  0  0  0
   -1.6690   -0.6432   -0.5836 H   0  0  0  0  0  0  0  0  0  0  0  0
    0.3939   -0.4109   -0.2665 C   0  0  1  0  0  0  0  0  0  0  0  0
    1.2015   -1.1034   -0.5291 H   0  0  0  0  0  0  0  0  0  0  0  0
    0.5304    0.6708   -1.3786 C   0  0  0  0  0  0  0  0  0  0  0  0
    1.5730    0.6544   -1.7125 H   0  0  0  0  0  0  0  0  0  0  0  0
   -0.0695    0.3501   -2.2367 H   0  0  0  0  0  0  0  0  0  0  0  0
    0.1869    2.1589   -1.1081 C   0  0  0  0  0  0  0  0  0  0  0  0
    1.1276    2.7135   -1.0336 H   0  0  0  0  0  0  0  0  0  0  0  0
   -0.3558    2.5569   -1.9701 H   0  0  0  0  0  0  0  0  0  0  0  0
   -0.6256    2.4580    0.1484 C   0  0  0  0  0  0  0  0  0  0  0  0
   -1.6800    1.7807    0.3056 O   0  5  0  0  0  0  0  0  0  0  0  0
   -0.2321    3.3494    0.9346 O   0  0  0  0  0  0  0  0  0  0  0  0
    0.7651   -0.1127    1.2106 C   0  0  0  0  0  0  0  0  0  0  0  0
    1.9257   -0.2797    1.5773 O   0  0  0  0  0  0  0  0  0  0  0  0
   -0.1785    0.3010    2.1312 N   0  0  0  0  0  0  0  0  0  0  0  0
   -0.9928    0.7499    1.6933 H   0  0  0  0  0  0  0  0  0  0  0  0
    0.1977    0.7926    3.4472 C   0  0  0  0  0  0  0  0  0  0  0  0
    0.8302    1.6816    3.3548 H   0  0  0  0  0  0  0  0  0  0  0  0
   -0.6983    1.0619    4.0139 H   0  0  0  0  0  0  0  0  0  0  0  0
    0.7417    0.0242    4.0054 H   0  0  0  0  0  0  0  0  0  0  0  0
  1  2  1  0  0  0  0
  2  3  1  0  0  0  0
  2  4  1  0  0  0  0
  2  5  1  0  0  0  0
  5  6  2  0  0  0  0
  5  7  1  0  0  0  0
  7  8  1  0  0  0  0
  7  9  1  0  0  0  0
  9 10  1  0  0  0  0
  9 11  1  0  0  0  0
  9 20  1  0  0  0  0
 11 12  1  0  0  0  0
 11 13  1  0  0  0  0
 11 14  1  0  0  0  0
 14 15  1  0  0  0  0
 14 16  1  0  0  0  0
 14 17  1  0  0  0  0
 17 18  1  0  0  0  0
 17 19  2  0  0  0  0
 20 21  2  0  0  0  0
 20 22  1  0  0  0  0
 22 23  1  0  0  0  0
 22 24  1  0  0  0  0
 24 25  1  0  0  0  0
 24 26  1  0  0  0  0
 24 27  1  0  0  0  0
M  CHG  1  18  -1
M  END
$$$$

  -OEChem-04042215583D

 27 26  0     1  0  0  0  0  0999 V2000
   -2.8007   -3.7660    0.1203 H   0  0  0  0  0  0  0  0  0  0  0  0
   -2.7174   -2.7157   -0.1725 C   0  0  0  0  0  0  0  0  0  0  0  0
   -3.2213   -2.1010    0.5778 H   0  0  0  0  0  0  0  0  0  0  0  0
   -3.2102   -2.5775   -1.1378 H   0  0  0  0  0  0  0  0  0  0  0  0
   -1.2570   -2.3118   -0.2731 C   0  0  0  0  0  0  0  0  0  0  0  0
   -0.3875   -3.1508   -0.1041 O   0  0  0  0  0  0  0  0  0  0  0  0
   -0.9449   -1.0132   -0.6186 N   0  0  0  0  0  0  0  0  0  0  0  0
   -1.7353   -0.3748   -0.6333 H   0  0  0  0  0  0  0  0  0  0  0  0
    0.3562   -0.3876   -0.3301 C   0  0  1  0  0  0  0  0  0  0  0  0
    1.0810   -1.1279   -0.6889 H   0  0  0  0  0  0  0  0  0  0  0  0
    0.5540    0.7747   -1.3501 C   0  0  0  0  0  0  0  0  0  0  0  0
    1.5978    0.6879   -1.6703 H   0  0  0  0  0  0  0  0  0  0  0  0
   -0.0517    0.5769   -2.2405 H   0  0  0  0  0  0  0  0  0  0  0  0
    0.3844    2.2720   -0.9830 C   0  0  0  0  0  0  0  0  0  0  0  0
    1.1853    2.8367   -1.4698 H   0  0  0  0  0  0  0  0  0  0  0  0
   -0.5525    2.6152   -1.4323 H   0  0  0  0  0  0  0  0  0  0  0  0
    0.3424    2.6806    0.4810 C   0  0  0  0  0  0  0  0  0  0  0  0
    1.3856    3.0918    1.0359 O   0  5  0  0  0  0  0  0  0  0  0  0
   -0.7792    2.5674    1.0445 O   0  0  0  0  0  0  0  0  0  0  0  0
    0.7791   -0.2880    1.1607 C   0  0  0  0  0  0  0  0  0  0  0  0
    1.8428   -0.7988    1.5023 O   0  0  0  0  0  0  0  0  0  0  0  0
   -0.1042    0.1322    2.1382 N   0  0  0  0  0  0  0  0  0  0  0  0
   -0.6997    0.9042    1.8138 H   0  0  0  0  0  0  0  0  0  0  0  0
    0.3087    0.2178    3.5307 C   0  0  0  0  0  0  0  0  0  0  0  0
    1.1507    0.9100    3.6360 H   0  0  0  0  0  0  0  0  0  0  0  0
   -0.5205    0.5841    4.1427 H   0  0  0  0  0  0  0  0  0  0  0  0
    0.6069   -0.7663    3.9059 H   0  0  0  0  0  0  0  0  0  0  0  0
  1  2  1  0  0  0  0
  2  3  1  0  0  0  0
  2  4  1  0  0  0  0
  2  5  1  0  0  0  0
  5  6  2  0  0  0  0
  5  7  1  0  0  0  0
  7  8  1  0  0  0  0
  7  9  1  0  0  0  0
  9 10  1  0  0  0  0
  9 11  1  0  0  0  0
  9 20  1  0  0  0  0
 11 12  1  0  0  0  0
 11 13  1  0  0  0  0
 11 14  1  0  0  0  0
 14 15  1  0  0  0  0
 14 16  1  0  0  0  0
 14 17  1  0  0  0  0
 17 18  1  0  0  0  0
 17 19  2  0  0  0  0
 20 21  2  0  0  0  0
 20 22  1  0  0  0  0
 22 23  1  0  0  0  0
 22 24  1  0  0  0  0
 24 25  1  0  0  0  0
 24 26  1  0  0  0  0
 24 27  1  0  0  0  0
M  CHG  1  18  -1
M  END
$$$$

  -OEChem-04042215583D

 27 26  0     1  0  0  0  0  0999 V2000
   -3.0168   -3.5453    0.2312 H   0  0  0  0  0  0  0  0  0  0  0  0
   -2.8460   -2.5171   -0.1000 C   0  0  0  0  0  0  0  0  0  0  0  0
   -3.2935   -1.8350    0.6276 H   0  0  0  0  0  0  0  0  0  0  0  0
   -3.3285   -2.3728   -1.0697 H   0  0  0  0  0  0  0  0  0  0  0  0
   -1.3571   -2.2426   -0.2146 C   0  0  0  0  0  0  0  0  0  0  0  0
   -0.5610   -3.1418   -0.0009 O   0  0  0  0  0  0  0  0  0  0  0  0
   -0.9381   -0.9958   -0.6303 N   0  0  0  0  0  0  0  0  0  0  0  0
   -1.6766   -0.3026   -0.6986 H   0  0  0  0  0  0  0  0  0  0  0  0
    0.4013   -0.4578   -0.3356 C   0  0  1  0  0  0  0  0  0  0  0  0
    1.0958   -1.2456   -0.6502 H   0  0  0  0  0  0  0  0  0  0  0  0
    0.6460    0.6722   -1.3814 C   0  0  0  0  0  0  0  0  0  0  0  0
    1.6843    0.5301   -1.7002 H   0  0  0  0  0  0  0  0  0  0  0  0
    0.0300    0.4916   -2.2686 H   0  0  0  0  0  0  0  0  0  0  0  0
    0.5560    2.1783   -1.0350 C   0  0  0  0  0  0  0  0  0  0  0  0
    1.1922    2.7274   -1.7355 H   0  0  0  0  0  0  0  0  0  0  0  0
   -0.4728    2.4924   -1.2364 H   0  0  0  0  0  0  0  0  0  0  0  0
    0.8966    2.6482    0.3706 C   0  0  0  0  0  0  0  0  0  0  0  0
    2.0976    2.8050    0.6831 O   0  5  0  0  0  0  0  0  0  0  0  0
   -0.0834    2.8452    1.1362 O   0  0  0  0  0  0  0  0  0  0  0  0
    0.7613   -0.3083    1.1672 C   0  0  0  0  0  0  0  0  0  0  0  0
    1.7028   -0.9642    1.6044 O   0  0  0  0  0  0  0  0  0  0  0  0
   -0.1384    0.2390    2.0654 N   0  0  0  0  0  0  0  0  0  0  0  0
   -0.5277    1.1233    1.7166 H   0  0  0  0  0  0  0  0  0  0  0  0
    0.1414    0.2305    3.4938 C   0  0  0  0  0  0  0  0  0  0  0  0
    1.0761    0.7615    3.7025 H   0  0  0  0  0  0  0  0  0  0  0  0
   -0.6686    0.7281    4.0350 H   0  0  0  0  0  0  0  0  0  0  0  0
    0.2250   -0.7963    3.8642 H   0  0  0  0  0  0  0  0  0  0  0  0
  1  2  1  0  0  0  0
  2  3  1  0  0  0  0
  2  4  1  0  0  0  0
  2  5  1  0  0  0  0
  5  6  2  0  0  0  0
  5  7  1  0  0  0  0
  7  8  1  0  0  0  0
  7  9  1  0  0  0  0
  9 10  1  0  0  0  0
  9 11  1  0  0  0  0
  9 20  1  0  0  0  0
 11 12  1  0  0  0  0
 11 13  1  0  0  0  0
 11 14  1  0  0  0  0
 14 15  1  0  0  0  0
 14 16  1  0  0  0  0
 14 17  1  0  0  0  0
 17 18  1  0  0  0  0
 17 19  2  0  0  0  0
 20 21  2  0  0  0  0
 20 22  1  0  0  0  0
 22 23  1  0  0  0  0
 22 24  1  0  0  0  0
 24 25  1  0  0  0  0
 24 26  1  0  0  0  0
 24 27  1  0  0  0  0
M  CHG  1  18  -1
M  END
$$$$

  -OEChem-04042215583D

 27 26  0     1  0  0  0  0  0999 V2000
   -2.6569   -3.7200    0.5835 H   0  0  0  0  0  0  0  0  0  0  0  0
   -2.5745   -2.7432    0.0985 C   0  0  0  0  0  0  0  0  0  0  0  0
   -3.0953   -2.0029    0.7110 H   0  0  0  0  0  0  0  0  0  0  0  0
   -3.0503   -2.7942   -0.8837 H   0  0  0  0  0  0  0  0  0  0  0  0
   -1.1147   -2.3535   -0.0521 C   0  0  0  0  0  0  0  0  0  0  0  0
   -0.2450   -3.1601    0.2312 O   0  0  0  0  0  0  0  0  0  0  0  0
   -0.8037   -1.1204   -0.5870 N   0  0  0  0  0  0  0  0  0  0  0  0
   -1.5990   -0.5033   -0.7143 H   0  0  0  0  0  0  0  0  0  0  0  0
    0.4850   -0.4459   -0.3481 C   0  0  1  0  0  0  0  0  0  0  0  0
    1.2616   -1.1705   -0.6193 H   0  0  0  0  0  0  0  0  0  0  0  0
    0.5678    0.6524   -1.4507 C   0  0  0  0  0  0  0  0  0  0  0  0
    1.5983    0.6113   -1.8202 H   0  0  0  0  0  0  0  0  0  0  0  0
   -0.0701    0.3789   -2.2977 H   0  0  0  0  0  0  0  0  0  0  0  0
    0.3225    2.1428   -1.1267 C   0  0  0  0  0  0  0  0  0  0  0  0
    0.6461    2.7334   -1.9888 H   0  0  0  0  0  0  0  0  0  0  0  0
   -0.7591    2.2822   -1.0350 H   0  0  0  0  0  0  0  0  0  0  0  0
    0.9740    2.7440    0.1101 C   0  0  0  0  0  0  0  0  0  0  0  0
    2.2133    2.9164    0.1142 O   0  5  0  0  0  0  0  0  0  0  0  0
    0.1958    3.0379    1.0539 O   0  0  0  0  0  0  0  0  0  0  0  0
    0.8065   -0.1332    1.1374 C   0  0  0  0  0  0  0  0  0  0  0  0
    1.7559   -0.7155    1.6533 O   0  0  0  0  0  0  0  0  0  0  0  0
   -0.1598    0.4154    1.9638 N   0  0  0  0  0  0  0  0  0  0  0  0
   -0.5009    1.3038    1.5796 H   0  0  0  0  0  0  0  0  0  0  0  0
    0.0306    0.4371    3.4073 C   0  0  0  0  0  0  0  0  0  0  0  0
    0.9237    1.0157    3.6658 H   0  0  0  0  0  0  0  0  0  0  0  0
   -0.8349    0.8997    3.8902 H   0  0  0  0  0  0  0  0  0  0  0  0
    0.1407   -0.5797    3.7976 H   0  0  0  0  0  0  0  0  0  0  0  0
  1  2  1  0  0  0  0
  2  3  1  0  0  0  0
  2  4  1  0  0  0  0
  2  5  1  0  0  0  0
  5  6  2  0  0  0  0
  5  7  1  0  0  0  0
  7  8  1  0  0  0  0
  7  9  1  0  0  0  0
  9 10  1  0  0  0  0
  9 11  1  0  0  0  0
  9 20  1  0  0  0  0
 11 12  1  0  0  0  0
 11 13  1  0  0  0  0
 11 14  1  0  0  0  0
 14 15  1  0  0  0  0
 14 16  1  0  0  0  0
 14 17  1  0  0  0  0
 17 18  1  0  0  0  0
 17 19  2  0  0  0  0
 20 21  2  0  0  0  0
 20 22  1  0  0  0  0
 22 23  1  0  0  0  0
 22 24  1  0  0  0  0
 24 25  1  0  0  0  0
 24 26  1  0  0  0  0
 24 27  1  0  0  0  0
M  CHG  1  18  -1
M  END
$$$$

  -OEChem-04042215583D

 27 26  0     1  0  0  0  0  0999 V2000
   -2.6728   -3.7078    0.5989 H   0  0  0  0  0  0  0  0  0  0  0  0
   -2.5734   -2.7398    0.0995 C   0  0  0  0  0  0  0  0  0  0  0  0
   -3.1072   -1.9866    0.6845 H   0  0  0  0  0  0  0  0  0  0  0  0
   -3.0227   -2.8066   -0.8943 H   0  0  0  0  0  0  0  0  0  0  0  0
   -1.1085   -2.3584   -0.0179 C   0  0  0  0  0  0  0  0  0  0  0  0
   -0.2515   -3.1504    0.3352 O   0  0  0  0  0  0  0  0  0  0  0  0
   -0.7770   -1.1518   -0.5988 N   0  0  0  0  0  0  0  0  0  0  0  0
   -1.5645   -0.5398   -0.7847 H   0  0  0  0  0  0  0  0  0  0  0  0
    0.5118   -0.4759   -0.3631 C   0  0  1  0  0  0  0  0  0  0  0  0
    1.2994   -1.1947   -0.6173 H   0  0  0  0  0  0  0  0  0  0  0  0
    0.5681    0.6229   -1.4640 C   0  0  0  0  0  0  0  0  0  0  0  0
    1.5838    0.5980   -1.8737 H   0  0  0  0  0  0  0  0  0  0  0  0
   -0.1012    0.3628   -2.2910 H   0  0  0  0  0  0  0  0  0  0  0  0
    0.3042    2.0907   -1.0718 C   0  0  0  0  0  0  0  0  0  0  0  0
    0.3664    2.6966   -1.9803 H   0  0  0  0  0  0  0  0  0  0  0  0
   -0.7257    2.1632   -0.7088 H   0  0  0  0  0  0  0  0  0  0  0  0
    1.2307    2.7277   -0.0440 C   0  0  0  0  0  0  0  0  0  0  0  0
    2.4451    2.8534   -0.3221 O   0  5  0  0  0  0  0  0  0  0  0  0
    0.6818    3.1180    1.0171 O   0  0  0  0  0  0  0  0  0  0  0  0
    0.8118   -0.0987    1.1108 C   0  0  0  0  0  0  0  0  0  0  0  0
    1.7417   -0.6713    1.6701 O   0  0  0  0  0  0  0  0  0  0  0  0
   -0.1655    0.4954    1.8920 N   0  0  0  0  0  0  0  0  0  0  0  0
   -0.4755    1.3722    1.4662 H   0  0  0  0  0  0  0  0  0  0  0  0
   -0.0013    0.5751    3.3370 C   0  0  0  0  0  0  0  0  0  0  0  0
    0.9051    1.1364    3.5879 H   0  0  0  0  0  0  0  0  0  0  0  0
   -0.8599    1.0857    3.7822 H   0  0  0  0  0  0  0  0  0  0  0  0
    0.0688   -0.4264    3.7733 H   0  0  0  0  0  0  0  0  0  0  0  0
  1  2  1  0  0  0  0
  2  3  1  0  0  0  0
  2  4  1  0  0  0  0
  2  5  1  0  0  0  0
  5  6  2  0  0  0  0
  5  7  1  0  0  0  0
  7  8  1  0  0  0  0
  7  9  1  0  0  0  0
  9 10  1  0  0  0  0
  9 11  1  0  0  0  0
  9 20  1  0  0  0  0
 11 12  1  0  0  0  0
 11 13  1  0  0  0  0
 11 14  1  0  0  0  0
 14 15  1  0  0  0  0
 14 16  1  0  0  0  0
 14 17  1  0  0  0  0
 17 18  1  0  0  0  0
 17 19  2  0  0  0  0
 20 21  2  0  0  0  0
 20 22  1  0  0  0  0
 22 23  1  0  0  0  0
 22 24  1  0  0  0  0
 24 25  1  0  0  0  0
 24 26  1  0  0  0  0
 24 27  1  0  0  0  0
M  CHG  1  18  -1
M  END
$$$$

  -OEChem-04042215583D

 27 26  0     1  0  0  0  0  0999 V2000
   -2.7079   -3.7665    0.5005 H   0  0  0  0  0  0  0  0  0  0  0  0
   -2.5969   -2.8077   -0.0136 C   0  0  0  0  0  0  0  0  0  0  0  0
   -3.1913   -2.0567    0.5126 H   0  0  0  0  0  0  0  0  0  0  0  0
   -2.9711   -2.9096   -1.0351 H   0  0  0  0  0  0  0  0  0  0  0  0
   -1.1373   -2.3901   -0.0354 C   0  0  0  0  0  0  0  0  0  0  0  0
   -0.2889   -3.1488    0.4001 O   0  0  0  0  0  0  0  0  0  0  0  0
   -0.7945   -1.1828   -0.6083 N   0  0  0  0  0  0  0  0  0  0  0  0
   -1.5722   -0.5916   -0.8809 H   0  0  0  0  0  0  0  0  0  0  0  0
    0.4937   -0.5050   -0.3711 C   0  0  1  0  0  0  0  0  0  0  0  0
    1.2858   -1.2141   -0.6379 H   0  0  0  0  0  0  0  0  0  0  0  0
    0.5456    0.6294   -1.4319 C   0  0  0  0  0  0  0  0  0  0  0  0
    1.5458    0.6170   -1.8789 H   0  0  0  0  0  0  0  0  0  0  0  0
   -0.1546    0.4122   -2.2452 H   0  0  0  0  0  0  0  0  0  0  0  0
    0.2829    2.0661   -0.9381 C   0  0  0  0  0  0  0  0  0  0  0  0
    0.0997    2.6904   -1.8173 H   0  0  0  0  0  0  0  0  0  0  0  0
   -0.6338    2.0795   -0.3420 H   0  0  0  0  0  0  0  0  0  0  0  0
    1.4162    2.7313   -0.1597 C   0  0  0  0  0  0  0  0  0  0  0  0
    2.5444    2.8108   -0.7010 O   0  5  0  0  0  0  0  0  0  0  0  0
    1.1058    3.2353    0.9474 O   0  0  0  0  0  0  0  0  0  0  0  0
    0.7940   -0.1288    1.1017 C   0  0  0  0  0  0  0  0  0  0  0  0
    1.7853   -0.6044    1.6439 O   0  0  0  0  0  0  0  0  0  0  0  0
   -0.1815    0.4618    1.8867 N   0  0  0  0  0  0  0  0  0  0  0  0
   -0.7502    1.1257    1.3712 H   0  0  0  0  0  0  0  0  0  0  0  0
    0.0975    0.8158    3.2715 C   0  0  0  0  0  0  0  0  0  0  0  0
    0.9318    1.5236    3.3233 H   0  0  0  0  0  0  0  0  0  0  0  0
   -0.7825    1.2826    3.7229 H   0  0  0  0  0  0  0  0  0  0  0  0
    0.3518   -0.0755    3.8540 H   0  0  0  0  0  0  0  0  0  0  0  0
  1  2  1  0  0  0  0
  2  3  1  0  0  0  0
  2  4  1  0  0  0  0
  2  5  1  0  0  0  0
  5  6  2  0  0  0  0
  5  7  1  0  0  0  0
  7  8  1  0  0  0  0
  7  9  1  0  0  0  0
  9 10  1  0  0  0  0
  9 11  1  0  0  0  0
  9 20  1  0  0  0  0
 11 12  1  0  0  0  0
 11 13  1  0  0  0  0
 11 14  1  0  0  0  0
 14 15  1  0  0  0  0
 14 16  1  0  0  0  0
 14 17  1  0  0  0  0
 17 18  1  0  0  0  0
 17 19  2  0  0  0  0
 20 21  2  0  0  0  0
 20 22  1  0  0  0  0
 22 23  1  0  0  0  0
 22 24  1  0  0  0  0
 24 25  1  0  0  0  0
 24 26  1  0  0  0  0
 24 27  1  0  0  0  0
M  CHG  1  18  -1
M  END
$$$$

  -OEChem-04042215583D

 27 26  0     1  0  0  0  0  0999 V2000
   -2.7297   -3.8206    0.4176 H   0  0  0  0  0  0  0  0  0  0  0  0
   -2.6086   -2.8724   -0.1140 C   0  0  0  0  0  0  0  0  0  0  0  0
   -3.2702   -2.1292    0.3379 H   0  0  0  0  0  0  0  0  0  0  0  0
   -2.8922   -3.0156   -1.1594 H   0  0  0  0  0  0  0  0  0  0  0  0
   -1.1670   -2.4028   -0.0273 C   0  0  0  0  0  0  0  0  0  0  0  0
   -0.3315   -3.1200    0.4945 O   0  0  0  0  0  0  0  0  0  0  0  0
   -0.8223   -1.1897   -0.5866 N   0  0  0  0  0  0  0  0  0  0  0  0
   -1.5854   -0.6303   -0.9521 H   0  0  0  0  0  0  0  0  0  0  0  0
    0.4618   -0.5030   -0.3541 C   0  0  1  0  0  0  0  0  0  0  0  0
    1.2514   -1.2126   -0.6267 H   0  0  0  0  0  0  0  0  0  0  0  0
    0.5251    0.6373   -1.4059 C   0  0  0  0  0  0  0  0  0  0  0  0
    1.5205    0.6189   -1.8628 H   0  0  0  0  0  0  0  0  0  0  0  0
   -0.1825    0.4314   -2.2155 H   0  0  0  0  0  0  0  0  0  0  0  0
    0.2618    2.0665   -0.8854 C   0  0  0  0  0  0  0  0  0  0  0  0
   -0.1485    2.6457   -1.7176 H   0  0  0  0  0  0  0  0  0  0  0  0
   -0.5063    2.0576   -0.1094 H   0  0  0  0  0  0  0  0  0  0  0  0
    1.4983    2.8289   -0.4094 C   0  0  0  0  0  0  0  0  0  0  0  0
    2.4554    2.9646   -1.2101 O   0  5  0  0  0  0  0  0  0  0  0  0
    1.4238    3.3631    0.7238 O   0  0  0  0  0  0  0  0  0  0  0  0
    0.7856   -0.1270    1.1136 C   0  0  0  0  0  0  0  0  0  0  0  0
    1.8340   -0.5161    1.6148 O   0  0  0  0  0  0  0  0  0  0  0  0
   -0.1733    0.4546    1.9248 N   0  0  0  0  0  0  0  0  0  0  0  0
   -0.8732    0.9829    1.4171 H   0  0  0  0  0  0  0  0  0  0  0  0
    0.1657    0.9330    3.2576 C   0  0  0  0  0  0  0  0  0  0  0  0
    0.9610    1.6842    3.2019 H   0  0  0  0  0  0  0  0  0  0  0  0
   -0.7111    1.3888    3.7264 H   0  0  0  0  0  0  0  0  0  0  0  0
    0.5031    0.1053    3.8894 H   0  0  0  0  0  0  0  0  0  0  0  0
  1  2  1  0  0  0  0
  2  3  1  0  0  0  0
  2  4  1  0  0  0  0
  2  5  1  0  0  0  0
  5  6  2  0  0  0  0
  5  7  1  0  0  0  0
  7  8  1  0  0  0  0
  7  9  1  0  0  0  0
  9 10  1  0  0  0  0
  9 11  1  0  0  0  0
  9 20  1  0  0  0  0
 11 12  1  0  0  0  0
 11 13  1  0  0  0  0
 11 14  1  0  0  0  0
 14 15  1  0  0  0  0
 14 16  1  0  0  0  0
 14 17  1  0  0  0  0
 17 18  1  0  0  0  0
 17 19  2  0  0  0  0
 20 21  2  0  0  0  0
 20 22  1  0  0  0  0
 22 23  1  0  0  0  0
 22 24  1  0  0  0  0
 24 25  1  0  0  0  0
 24 26  1  0  0  0  0
 24 27  1  0  0  0  0
M  CHG  1  18  -1
M  END
$$$$

  -OEChem-04042215583D

 27 26  0     1  0  0  0  0  0999 V2000
   -2.7081   -3.8686    0.3537 H   0  0  0  0  0  0  0  0  0  0  0  0
   -2.5973   -2.9053   -0.1524 C   0  0  0  0  0  0  0  0  0  0  0  0
   -3.2917   -2.1909    0.2969 H   0  0  0  0  0  0  0  0  0  0  0  0
   -2.8469   -3.0312   -1.2089 H   0  0  0  0  0  0  0  0  0  0  0  0
   -1.1719   -2.4004   -0.0132 C   0  0  0  0  0  0  0  0  0  0  0  0
   -0.3420   -3.0887    0.5540 O   0  0  0  0  0  0  0  0  0  0  0  0
   -0.8358   -1.1798   -0.5610 N   0  0  0  0  0  0  0  0  0  0  0  0
   -1.5872   -0.6487   -0.9882 H   0  0  0  0  0  0  0  0  0  0  0  0
    0.4452   -0.4843   -0.3396 C   0  0  1  0  0  0  0  0  0  0  0  0
    1.2335   -1.1924   -0.6191 H   0  0  0  0  0  0  0  0  0  0  0  0
    0.5096    0.6563   -1.3911 C   0  0  0  0  0  0  0  0  0  0  0  0
    1.5063    0.6263   -1.8444 H   0  0  0  0  0  0  0  0  0  0  0  0
   -0.1940    0.4466   -2.2035 H   0  0  0  0  0  0  0  0  0  0  0  0
    0.2503    2.0957   -0.8859 C   0  0  0  0  0  0  0  0  0  0  0  0
   -0.3934    2.5874   -1.6209 H   0  0  0  0  0  0  0  0  0  0  0  0
   -0.3064    2.0996    0.0509 H   0  0  0  0  0  0  0  0  0  0  0  0
    1.5005    2.9688   -0.7628 C   0  0  0  0  0  0  0  0  0  0  0  0
    2.2347    3.0927   -1.7744 O   0  5  0  0  0  0  0  0  0  0  0  0
    1.6490    3.5952    0.3143 O   0  0  0  0  0  0  0  0  0  0  0  0
    0.7795   -0.1225    1.1292 C   0  0  0  0  0  0  0  0  0  0  0  0
    1.8644   -0.4405    1.6012 O   0  0  0  0  0  0  0  0  0  0  0  0
   -0.1763    0.4390    1.9584 N   0  0  0  0  0  0  0  0  0  0  0  0
   -0.9496    0.8786    1.4735 H   0  0  0  0  0  0  0  0  0  0  0  0
    0.1647    0.9475    3.2792 C   0  0  0  0  0  0  0  0  0  0  0  0
    0.9191    1.7374    3.2001 H   0  0  0  0  0  0  0  0  0  0  0  0
   -0.7242    1.3627    3.7623 H   0  0  0  0  0  0  0  0  0  0  0  0
    0.5570    0.1443    3.9110 H   0  0  0  0  0  0  0  0  0  0  0  0
  1  2  1  0  0  0  0
  2  3  1  0  0  0  0
  2  4  1  0  0  0  0
  2  5  1  0  0  0  0
  5  6  2  0  0  0  0
  5  7  1  0  0  0  0
  7  8  1  0  0  0  0
  7  9  1  0  0  0  0
  9 10  1  0  0  0  0
  9 11  1  0  0  0  0
  9 20  1  0  0  0  0
 11 12  1  0  0  0  0
 11 13  1  0  0  0  0
 11 14  1  0  0  0  0
 14 15  1  0  0  0  0
 14 16  1  0  0  0  0
 14 17  1  0  0  0  0
 17 18  1  0  0  0  0
 17 19  2  0  0  0  0
 20 21  2  0  0  0  0
 20 22  1  0  0  0  0
 22 23  1  0  0  0  0
 22 24  1  0  0  0  0
 24 25  1  0  0  0  0
 24 26  1  0  0  0  0
 24 27  1  0  0  0  0
M  CHG  1  18  -1
M  END
$$$$

  -OEChem-04042215583D

 27 26  0     1  0  0  0  0  0999 V2000
   -2.6745   -3.8910    0.3260 H   0  0  0  0  0  0  0  0  0  0  0  0
   -2.5731   -2.9239   -0.1748 C   0  0  0  0  0  0  0  0  0  0  0  0
   -3.2985   -2.2282    0.2545 H   0  0  0  0  0  0  0  0  0  0  0  0
   -2.7878   -3.0535   -1.2385 H   0  0  0  0  0  0  0  0  0  0  0  0
   -1.1654   -2.3851    0.0082 C   0  0  0  0  0  0  0  0  0  0  0  0
   -0.3400   -3.0498    0.6092 O   0  0  0  0  0  0  0  0  0  0  0  0
   -0.8384   -1.1597   -0.5345 N   0  0  0  0  0  0  0  0  0  0  0  0
   -1.5772   -0.6557   -1.0141 H   0  0  0  0  0  0  0  0  0  0  0  0
    0.4425   -0.4592   -0.3286 C   0  0  1  0  0  0  0  0  0  0  0  0
    1.2320   -1.1611   -0.6205 H   0  0  0  0  0  0  0  0  0  0  0  0
    0.4833    0.6871   -1.3767 C   0  0  0  0  0  0  0  0  0  0  0  0
    1.4858    0.6570   -1.8178 H   0  0  0  0  0  0  0  0  0  0  0  0
   -0.2081    0.4726   -2.1982 H   0  0  0  0  0  0  0  0  0  0  0  0
    0.2291    2.1363   -0.8880 C   0  0  0  0  0  0  0  0  0  0  0  0
   -0.6406    2.5264   -1.4240 H   0  0  0  0  0  0  0  0  0  0  0  0
   -0.0211    2.1728    0.1707 H   0  0  0  0  0  0  0  0  0  0  0  0
    1.3966    3.0922   -1.1482 C   0  0  0  0  0  0  0  0  0  0  0  0
    1.8347    3.1676   -2.3236 O   0  5  0  0  0  0  0  0  0  0  0  0
    1.7748    3.8147   -0.1946 O   0  0  0  0  0  0  0  0  0  0  0  0
    0.7795   -0.1137    1.1429 C   0  0  0  0  0  0  0  0  0  0  0  0
    1.8836   -0.3837    1.5995 O   0  0  0  0  0  0  0  0  0  0  0  0
   -0.1804    0.4301    1.9795 N   0  0  0  0  0  0  0  0  0  0  0  0
   -0.9898    0.8194    1.5105 H   0  0  0  0  0  0  0  0  0  0  0  0
    0.1416    0.9186    3.3123 C   0  0  0  0  0  0  0  0  0  0  0  0
    0.8788    1.7262    3.2541 H   0  0  0  0  0  0  0  0  0  0  0  0
   -0.7591    1.3034    3.7993 H   0  0  0  0  0  0  0  0  0  0  0  0
    0.5484    0.1107    3.9291 H   0  0  0  0  0  0  0  0  0  0  0  0
  1  2  1  0  0  0  0
  2  3  1  0  0  0  0
  2  4  1  0  0  0  0
  2  5  1  0  0  0  0
  5  6  2  0  0  0  0
  5  7  1  0  0  0  0
  7  8  1  0  0  0  0
  7  9  1  0  0  0  0
  9 10  1  0  0  0  0
  9 11  1  0  0  0  0
  9 20  1  0  0  0  0
 11 12  1  0  0  0  0
 11 13  1  0  0  0  0
 11 14  1  0  0  0  0
 14 15  1  0  0  0  0
 14 16  1  0  0  0  0
 14 17  1  0  0  0  0
 17 18  1  0  0  0  0
 17 19  2  0  0  0  0
 20 21  2  0  0  0  0
 20 22  1  0  0  0  0
 22 23  1  0  0  0  0
 22 24  1  0  0  0  0
 24 25  1  0  0  0  0
 24 26  1  0  0  0  0
 24 27  1  0  0  0  0
M  CHG  1  18  -1
M  END
$$$$

  -OEChem-04042215583D

 27 26  0     1  0  0  0  0  0999 V2000
   -2.6564   -3.8912    0.3170 H   0  0  0  0  0  0  0  0  0  0  0  0
   -2.5534   -2.9270   -0.1888 C   0  0  0  0  0  0  0  0  0  0  0  0
   -3.2948   -2.2354    0.2190 H   0  0  0  0  0  0  0  0  0  0  0  0
   -2.7440   -3.0670   -1.2558 H   0  0  0  0  0  0  0  0  0  0  0  0
   -1.1557   -2.3714    0.0204 C   0  0  0  0  0  0  0  0  0  0  0  0
   -0.3359   -3.0207    0.6458 O   0  0  0  0  0  0  0  0  0  0  0  0
   -0.8303   -1.1461   -0.5234 N   0  0  0  0  0  0  0  0  0  0  0  0
   -1.5566   -0.6614   -1.0412 H   0  0  0  0  0  0  0  0  0  0  0  0
    0.4530   -0.4467   -0.3315 C   0  0  1  0  0  0  0  0  0  0  0  0
    1.2448   -1.1379   -0.6415 H   0  0  0  0  0  0  0  0  0  0  0  0
    0.4541    0.7153   -1.3628 C   0  0  0  0  0  0  0  0  0  0  0  0
    1.4578    0.7032   -1.8027 H   0  0  0  0  0  0  0  0  0  0  0  0
   -0.2352    0.5081   -2.1881 H   0  0  0  0  0  0  0  0  0  0  0  0
    0.2037    2.1582   -0.8546 C   0  0  0  0  0  0  0  0  0  0  0  0
   -0.8208    2.4497   -1.1015 H   0  0  0  0  0  0  0  0  0  0  0  0
    0.3072    2.2280    0.2275 H   0  0  0  0  0  0  0  0  0  0  0  0
    1.1742    3.1763   -1.4616 C   0  0  0  0  0  0  0  0  0  0  0  0
    1.2956    3.1790   -2.7127 O   0  5  0  0  0  0  0  0  0  0  0  0
    1.7182    4.0009   -0.6879 O   0  0  0  0  0  0  0  0  0  0  0  0
    0.7908   -0.1105    1.1410 C   0  0  0  0  0  0  0  0  0  0  0  0
    1.9052   -0.3484    1.5903 O   0  0  0  0  0  0  0  0  0  0  0  0
   -0.1739    0.4271    1.9759 N   0  0  0  0  0  0  0  0  0  0  0  0
   -1.0011    0.7846    1.5120 H   0  0  0  0  0  0  0  0  0  0  0  0
    0.1266    0.8982    3.3197 C   0  0  0  0  0  0  0  0  0  0  0  0
    0.8566    1.7135    3.2840 H   0  0  0  0  0  0  0  0  0  0  0  0
   -0.7842    1.2663    3.8009 H   0  0  0  0  0  0  0  0  0  0  0  0
    0.5336    0.0847    3.9291 H   0  0  0  0  0  0  0  0  0  0  0  0
  1  2  1  0  0  0  0
  2  3  1  0  0  0  0
  2  4  1  0  0  0  0
  2  5  1  0  0  0  0
  5  6  2  0  0  0  0
  5  7  1  0  0  0  0
  7  8  1  0  0  0  0
  7  9  1  0  0  0  0
  9 10  1  0  0  0  0
  9 11  1  0  0  0  0
  9 20  1  0  0  0  0
 11 12  1  0  0  0  0
 11 13  1  0  0  0  0
 11 14  1  0  0  0  0
 14 15  1  0  0  0  0
 14 16  1  0  0  0  0
 14 17  1  0  0  0  0
 17 18  1  0  0  0  0
 17 19  2  0  0  0  0
 20 21  2  0  0  0  0
 20 22  1  0  0  0  0
 22 23  1  0  0  0  0
 22 24  1  0  0  0  0
 24 25  1  0  0  0  0
 24 26  1  0  0  0  0
 24 27  1  0  0  0  0
M  CHG  1  18  -1
M  END
$$$$

  -OEChem-04042215583D

 27 26  0     1  0  0  0  0  0999 V2000
   -2.6451   -3.9029    0.2930 H   0  0  0  0  0  0  0  0  0  0  0  0
   -2.5462   -2.9337   -0.2039 C   0  0  0  0  0  0  0  0  0  0  0  0
   -3.2944   -2.2507    0.2057 H   0  0  0  0  0  0  0  0  0  0  0  0
   -2.7303   -3.0659   -1.2730 H   0  0  0  0  0  0  0  0  0  0  0  0
   -1.1534   -2.3703    0.0171 C   0  0  0  0  0  0  0  0  0  0  0  0
   -0.3358   -3.0143    0.6511 O   0  0  0  0  0  0  0  0  0  0  0  0
   -0.8264   -1.1469   -0.5299 N   0  0  0  0  0  0  0  0  0  0  0  0
   -1.5471   -0.6687   -1.0621 H   0  0  0  0  0  0  0  0  0  0  0  0
    0.4589   -0.4495   -0.3428 C   0  0  1  0  0  0  0  0  0  0  0  0
    1.2526   -1.1326   -0.6649 H   0  0  0  0  0  0  0  0  0  0  0  0
    0.4369    0.7298   -1.3520 C   0  0  0  0  0  0  0  0  0  0  0  0
    1.4343    0.7415   -1.8060 H   0  0  0  0  0  0  0  0  0  0  0  0
   -0.2668    0.5389   -2.1693 H   0  0  0  0  0  0  0  0  0  0  0  0
    0.1892    2.1518   -0.7964 C   0  0  0  0  0  0  0  0  0  0  0  0
   -0.8856    2.3464   -0.7518 H   0  0  0  0  0  0  0  0  0  0  0  0
    0.5921    2.2546    0.2123 H   0  0  0  0  0  0  0  0  0  0  0  0
    0.8755    3.2234   -1.6491 C   0  0  0  0  0  0  0  0  0  0  0  0
    0.6834    3.1756   -2.8907 O   0  5  0  0  0  0  0  0  0  0  0  0
    1.5202    4.1239   -1.0593 O   0  0  0  0  0  0  0  0  0  0  0  0
    0.7971   -0.1123    1.1287 C   0  0  0  0  0  0  0  0  0  0  0  0
    1.9203   -0.3214    1.5710 O   0  0  0  0  0  0  0  0  0  0  0  0
   -0.1691    0.4280    1.9598 N   0  0  0  0  0  0  0  0  0  0  0  0
   -1.0048    0.7646    1.4950 H   0  0  0  0  0  0  0  0  0  0  0  0
    0.1303    0.9206    3.2962 C   0  0  0  0  0  0  0  0  0  0  0  0
    0.8332    1.7586    3.2452 H   0  0  0  0  0  0  0  0  0  0  0  0
   -0.7866    1.2632    3.7844 H   0  0  0  0  0  0  0  0  0  0  0  0
    0.5696    0.1261    3.9082 H   0  0  0  0  0  0  0  0  0  0  0  0
  1  2  1  0  0  0  0
  2  3  1  0  0  0  0
  2  4  1  0  0  0  0
  2  5  1  0  0  0  0
  5  6  2  0  0  0  0
  5  7  1  0  0  0  0
  7  8  1  0  0  0  0
  7  9  1  0  0  0  0
  9 10  1  0  0  0  0
  9 11  1  0  0  0  0
  9 20  1  0  0  0  0
 11 12  1  0  0  0  0
 11 13  1  0  0  0  0
 11 14  1  0  0  0  0
 14 15  1  0  0  0  0
 14 16  1  0  0  0  0
 14 17  1  0  0  0  0
 17 18  1  0  0  0  0
 17 19  2  0  0  0  0
 20 21  2  0  0  0  0
 20 22  1  0  0  0  0
 22 23  1  0  0  0  0
 22 24  1  0  0  0  0
 24 25  1  0  0  0  0
 24 26  1  0  0  0  0
 24 27  1  0  0  0  0
M  CHG  1  18  -1
M  END
$$$$

  -OEChem-04042215583D

 27 26  0     1  0  0  0  0  0999 V2000
   -2.6347   -3.9127    0.2666 H   0  0  0  0  0  0  0  0  0  0  0  0
   -2.5386   -2.9357   -0.2155 C   0  0  0  0  0  0  0  0  0  0  0  0
   -3.2829   -2.2583    0.2105 H   0  0  0  0  0  0  0  0  0  0  0  0
   -2.7310   -3.0506   -1.2851 H   0  0  0  0  0  0  0  0  0  0  0  0
   -1.1439   -2.3766    0.0032 C   0  0  0  0  0  0  0  0  0  0  0  0
   -0.3271   -3.0199    0.6394 O   0  0  0  0  0  0  0  0  0  0  0  0
   -0.8146   -1.1554   -0.5464 N   0  0  0  0  0  0  0  0  0  0  0  0
   -1.5347   -0.6760   -1.0792 H   0  0  0  0  0  0  0  0  0  0  0  0
    0.4691   -0.4568   -0.3559 C   0  0  1  0  0  0  0  0  0  0  0  0
    1.2676   -1.1313   -0.6836 H   0  0  0  0  0  0  0  0  0  0  0  0
    0.4332    0.7369   -1.3451 C   0  0  0  0  0  0  0  0  0  0  0  0
    1.4190    0.7744   -1.8216 H   0  0  0  0  0  0  0  0  0  0  0  0
   -0.2911    0.5596   -2.1477 H   0  0  0  0  0  0  0  0  0  0  0  0
    0.1815    2.1313   -0.7354 C   0  0  0  0  0  0  0  0  0  0  0  0
   -0.8652    2.2219   -0.4325 H   0  0  0  0  0  0  0  0  0  0  0  0
    0.8081    2.2841    0.1473 H   0  0  0  0  0  0  0  0  0  0  0  0
    0.5264    3.2359   -1.7364 C   0  0  0  0  0  0  0  0  0  0  0  0
   -0.1026    3.2269   -2.8248 O   0  5  0  0  0  0  0  0  0  0  0  0
    1.3700    4.1028   -1.4040 O   0  0  0  0  0  0  0  0  0  0  0  0
    0.7999   -0.1145    1.1159 C   0  0  0  0  0  0  0  0  0  0  0  0
    1.9256   -0.3067    1.5603 O   0  0  0  0  0  0  0  0  0  0  0  0
   -0.1717    0.4284    1.9387 N   0  0  0  0  0  0  0  0  0  0  0  0
   -1.0078    0.7532    1.4657 H   0  0  0  0  0  0  0  0  0  0  0  0
    0.1266    0.9557    3.2618 C   0  0  0  0  0  0  0  0  0  0  0  0
    0.8257    1.7951    3.1881 H   0  0  0  0  0  0  0  0  0  0  0  0
   -0.7914    1.3072    3.7416 H   0  0  0  0  0  0  0  0  0  0  0  0
    0.5699    0.1792    3.8935 H   0  0  0  0  0  0  0  0  0  0  0  0
  1  2  1  0  0  0  0
  2  3  1  0  0  0  0
  2  4  1  0  0  0  0
  2  5  1  0  0  0  0
  5  6  2  0  0  0  0
  5  7  1  0  0  0  0
  7  8  1  0  0  0  0
  7  9  1  0  0  0  0
  9 10  1  0  0  0  0
  9 11  1  0  0  0  0
  9 20  1  0  0  0  0
 11 12  1  0  0  0  0
 11 13  1  0  0  0  0
 11 14  1  0  0  0  0
 14 15  1  0  0  0  0
 14 16  1  0  0  0  0
 14 17  1  0  0  0  0
 17 18  1  0  0  0  0
 17 19  2  0  0  0  0
 20 21  2  0  0  0  0
 20 22  1  0  0  0  0
 22 23  1  0  0  0  0
 22 24  1  0  0  0  0
 24 25  1  0  0  0  0
 24 26  1  0  0  0  0
 24 27  1  0  0  0  0
M  CHG  1  18  -1
M  END
$$$$

  -OEChem-04042215583D

 27 26  0     1  0  0  0  0  0999 V2000
   -2.6029   -3.9252    0.2419 H   0  0  0  0  0  0  0  0  0  0  0  0
   -2.5223   -2.9314   -0.2078 C   0  0  0  0  0  0  0  0  0  0  0  0
   -3.2572   -2.2719    0.2603 H   0  0  0  0  0  0  0  0  0  0  0  0
   -2.7416   -3.0096   -1.2757 H   0  0  0  0  0  0  0  0  0  0  0  0
   -1.1241   -2.3749   -0.0055 C   0  0  0  0  0  0  0  0  0  0  0  0
   -0.3017   -3.0190    0.6224 O   0  0  0  0  0  0  0  0  0  0  0  0
   -0.7974   -1.1560   -0.5623 N   0  0  0  0  0  0  0  0  0  0  0  0
   -1.5284   -0.6698   -1.0740 H   0  0  0  0  0  0  0  0  0  0  0  0
    0.4844   -0.4520   -0.3717 C   0  0  1  0  0  0  0  0  0  0  0  0
    1.2920   -1.1209   -0.6888 H   0  0  0  0  0  0  0  0  0  0  0  0
    0.4588    0.7511   -1.3521 C   0  0  0  0  0  0  0  0  0  0  0  0
    1.3019    0.6343   -2.0419 H   0  0  0  0  0  0  0  0  0  0  0  0
   -0.4498    0.7274   -1.9638 H   0  0  0  0  0  0  0  0  0  0  0  0
    0.5724    2.1468   -0.7166 C   0  0  0  0  0  0  0  0  0  0  0  0
   -0.2567    2.3182   -0.0249 H   0  0  0  0  0  0  0  0  0  0  0  0
    1.5090    2.2358   -0.1574 H   0  0  0  0  0  0  0  0  0  0  0  0
    0.5293    3.2196   -1.8034 C   0  0  0  0  0  0  0  0  0  0  0  0
   -0.6065    3.5128   -2.2558 O   0  5  0  0  0  0  0  0  0  0  0  0
    1.6112    3.7099   -2.2069 O   0  0  0  0  0  0  0  0  0  0  0  0
    0.7959   -0.1055    1.1047 C   0  0  0  0  0  0  0  0  0  0  0  0
    1.9166   -0.2905    1.5650 O   0  0  0  0  0  0  0  0  0  0  0  0
   -0.1868    0.4347    1.9162 N   0  0  0  0  0  0  0  0  0  0  0  0
   -1.0247    0.7482    1.4384 H   0  0  0  0  0  0  0  0  0  0  0  0
    0.0833    0.9395    3.2540 C   0  0  0  0  0  0  0  0  0  0  0  0
    0.7787    1.7840    3.2098 H   0  0  0  0  0  0  0  0  0  0  0  0
   -0.8459    1.2763    3.7226 H   0  0  0  0  0  0  0  0  0  0  0  0
    0.5187    0.1535    3.8796 H   0  0  0  0  0  0  0  0  0  0  0  0
  1  2  1  0  0  0  0
  2  3  1  0  0  0  0
  2  4  1  0  0  0  0
  2  5  1  0  0  0  0
  5  6  2  0  0  0  0
  5  7  1  0  0  0  0
  7  8  1  0  0  0  0
  7  9  1  0  0  0  0
  9 10  1  0  0  0  0
  9 11  1  0  0  0  0
  9 20  1  0  0  0  0
 11 12  1  0  0  0  0
 11 13  1  0  0  0  0
 11 14  1  0  0  0  0
 14 15  1  0  0  0  0
 14 16  1  0  0  0  0
 14 17  1  0  0  0  0
 17 18  1  0  0  0  0
 17 19  2  0  0  0  0
 20 21  2  0  0  0  0
 20 22  1  0  0  0  0
 22 23  1  0  0  0  0
 22 24  1  0  0  0  0
 24 25  1  0  0  0  0
 24 26  1  0  0  0  0
 24 27  1  0  0  0  0
M  CHG  1  18  -1
M  END
$$$$

  -OEChem-04042215583D

 27 26  0     1  0  0  0  0  0999 V2000
   -2.7314   -3.8248    0.3803 H   0  0  0  0  0  0  0  0  0  0  0  0
   -2.6369   -2.8466   -0.0996 C   0  0  0  0  0  0  0  0  0  0  0  0
   -3.3191   -2.1471    0.3898 H   0  0  0  0  0  0  0  0  0  0  0  0
   -2.9172   -2.9414   -1.1515 H   0  0  0  0  0  0  0  0  0  0  0  0
   -1.2093   -2.3421    0.0126 C   0  0  0  0  0  0  0  0  0  0  0  0
   -0.3684   -3.0250    0.5722 O   0  0  0  0  0  0  0  0  0  0  0  0
   -0.8789   -1.1237   -0.5427 N   0  0  0  0  0  0  0  0  0  0  0  0
   -1.6274   -0.5976   -0.9864 H   0  0  0  0  0  0  0  0  0  0  0  0
    0.4300   -0.4591   -0.4062 C   0  0  1  0  0  0  0  0  0  0  0  0
    1.1971   -1.1546   -0.7636 H   0  0  0  0  0  0  0  0  0  0  0  0
    0.4147    0.7455   -1.3849 C   0  0  0  0  0  0  0  0  0  0  0  0
    1.2166    0.6030   -2.1167 H   0  0  0  0  0  0  0  0  0  0  0  0
   -0.5233    0.7448   -1.9513 H   0  0  0  0  0  0  0  0  0  0  0  0
    0.6012    2.1404   -0.7599 C   0  0  0  0  0  0  0  0  0  0  0  0
   -0.0373    2.2625    0.1172 H   0  0  0  0  0  0  0  0  0  0  0  0
    1.6407    2.2769   -0.4457 H   0  0  0  0  0  0  0  0  0  0  0  0
    0.1996    3.2246   -1.7589 C   0  0  0  0  0  0  0  0  0  0  0  0
    1.1048    3.8818   -2.3267 O   0  5  0  0  0  0  0  0  0  0  0  0
   -1.0317    3.3570   -1.9791 O   0  0  0  0  0  0  0  0  0  0  0  0
    0.8265   -0.1450    1.0568 C   0  0  0  0  0  0  0  0  0  0  0  0
    1.9657   -0.3634    1.4527 O   0  0  0  0  0  0  0  0  0  0  0  0
   -0.0961    0.4088    1.9274 N   0  0  0  0  0  0  0  0  0  0  0  0
   -0.9485    0.7556    1.4996 H   0  0  0  0  0  0  0  0  0  0  0  0
    0.2549    0.8739    3.2607 C   0  0  0  0  0  0  0  0  0  0  0  0
    1.0045    1.6697    3.2027 H   0  0  0  0  0  0  0  0  0  0  0  0
   -0.6319    1.2671    3.7664 H   0  0  0  0  0  0  0  0  0  0  0  0
    0.6569    0.0503    3.8597 H   0  0  0  0  0  0  0  0  0  0  0  0
  1  2  1  0  0  0  0
  2  3  1  0  0  0  0
  2  4  1  0  0  0  0
  2  5  1  0  0  0  0
  5  6  2  0  0  0  0
  5  7  1  0  0  0  0
  7  8  1  0  0  0  0
  7  9  1  0  0  0  0
  9 10  1  0  0  0  0
  9 11  1  0  0  0  0
  9 20  1  0  0  0  0
 11 12  1  0  0  0  0
 11 13  1  0  0  0  0
 11 14  1  0  0  0  0
 14 15  1  0  0  0  0
 14 16  1  0  0  0  0
 14 17  1  0  0  0  0
 17 18  1  0  0  0  0
 17 19  2  0  0  0  0
 20 21  2  0  0  0  0
 20 22  1  0  0  0  0
 22 23  1  0  0  0  0
 22 24  1  0  0  0  0
 24 25  1  0  0  0  0
 24 26  1  0  0  0  0
 24 27  1  0  0  0  0
M  CHG  1  18  -1
M  END
$$$$

  -OEChem-04042215583D

 27 26  0     1  0  0  0  0  0999 V2000
   -2.7327   -3.8154    0.4031 H   0  0  0  0  0  0  0  0  0  0  0  0
   -2.6381   -2.8362   -0.0747 C   0  0  0  0  0  0  0  0  0  0  0  0
   -3.2997   -2.1310    0.4344 H   0  0  0  0  0  0  0  0  0  0  0  0
   -2.9453   -2.9227   -1.1199 H   0  0  0  0  0  0  0  0  0  0  0  0
   -1.2023   -2.3491    0.0048 C   0  0  0  0  0  0  0  0  0  0  0  0
   -0.3522   -3.0505    0.5270 O   0  0  0  0  0  0  0  0  0  0  0  0
   -0.8736   -1.1262   -0.5405 N   0  0  0  0  0  0  0  0  0  0  0  0
   -1.6341   -0.5753   -0.9318 H   0  0  0  0  0  0  0  0  0  0  0  0
    0.4342   -0.4616   -0.3956 C   0  0  1  0  0  0  0  0  0  0  0  0
    1.2010   -1.1590   -0.7496 H   0  0  0  0  0  0  0  0  0  0  0  0
    0.4270    0.7401   -1.3796 C   0  0  0  0  0  0  0  0  0  0  0  0
    1.2311    0.5914   -2.1075 H   0  0  0  0  0  0  0  0  0  0  0  0
   -0.5061    0.7235   -1.9538 H   0  0  0  0  0  0  0  0  0  0  0  0
    0.6071    2.1512   -0.7783 C   0  0  0  0  0  0  0  0  0  0  0  0
    0.1780    2.2258    0.2204 H   0  0  0  0  0  0  0  0  0  0  0  0
    1.6718    2.3917   -0.7012 H   0  0  0  0  0  0  0  0  0  0  0  0
   -0.1214    3.1882   -1.6318 C   0  0  0  0  0  0  0  0  0  0  0  0
    0.5579    3.9557   -2.3548 O   0  5  0  0  0  0  0  0  0  0  0  0
   -1.3789    3.1696   -1.5832 O   0  0  0  0  0  0  0  0  0  0  0  0
    0.8238   -0.1601    1.0712 C   0  0  0  0  0  0  0  0  0  0  0  0
    1.9666   -0.3640    1.4652 O   0  0  0  0  0  0  0  0  0  0  0  0
   -0.1054    0.3849    1.9408 N   0  0  0  0  0  0  0  0  0  0  0  0
   -0.9514    0.7395    1.5045 H   0  0  0  0  0  0  0  0  0  0  0  0
    0.2469    0.8719    3.2657 C   0  0  0  0  0  0  0  0  0  0  0  0
    0.9613    1.6982    3.1912 H   0  0  0  0  0  0  0  0  0  0  0  0
   -0.6476    1.2299    3.7836 H   0  0  0  0  0  0  0  0  0  0  0  0
    0.6930    0.0699    3.8625 H   0  0  0  0  0  0  0  0  0  0  0  0
  1  2  1  0  0  0  0
  2  3  1  0  0  0  0
  2  4  1  0  0  0  0
  2  5  1  0  0  0  0
  5  6  2  0  0  0  0
  5  7  1  0  0  0  0
  7  8  1  0  0  0  0
  7  9  1  0  0  0  0
  9 10  1  0  0  0  0
  9 11  1  0  0  0  0
  9 20  1  0  0  0  0
 11 12  1  0  0  0  0
 11 13  1  0  0  0  0
 11 14  1  0  0  0  0
 14 15  1  0  0  0  0
 14 16  1  0  0  0  0
 14 17  1  0  0  0  0
 17 18  1  0  0  0  0
 17 19  2  0  0  0  0
 20 21  2  0  0  0  0
 20 22  1  0  0  0  0
 22 23  1  0  0  0  0
 22 24  1  0  0  0  0
 24 25  1  0  0  0  0
 24 26  1  0  0  0  0
 24 27  1  0  0  0  0
M  CHG  1  18  -1
M  END
$$$$

  -OEChem-04042215583D

 27 26  0     1  0  0  0  0  0999 V2000
   -2.7172   -3.7848    0.4638 H   0  0  0  0  0  0  0  0  0  0  0  0
   -2.6218   -2.8059   -0.0144 C   0  0  0  0  0  0  0  0  0  0  0  0
   -3.2426   -2.0875    0.5267 H   0  0  0  0  0  0  0  0  0  0  0  0
   -2.9787   -2.8802   -1.0447 H   0  0  0  0  0  0  0  0  0  0  0  0
   -1.1731   -2.3517    0.0011 C   0  0  0  0  0  0  0  0  0  0  0  0
   -0.3147   -3.0757    0.4776 O   0  0  0  0  0  0  0  0  0  0  0  0
   -0.8427   -1.1327   -0.5514 N   0  0  0  0  0  0  0  0  0  0  0  0
   -1.6149   -0.5524   -0.8737 H   0  0  0  0  0  0  0  0  0  0  0  0
    0.4669   -0.4729   -0.4025 C   0  0  1  0  0  0  0  0  0  0  0  0
    1.2393   -1.1653   -0.7542 H   0  0  0  0  0  0  0  0  0  0  0  0
    0.4400    0.7322   -1.3836 C   0  0  0  0  0  0  0  0  0  0  0  0
    1.2503    0.5860   -2.1049 H   0  0  0  0  0  0  0  0  0  0  0  0
   -0.4835    0.6993   -1.9730 H   0  0  0  0  0  0  0  0  0  0  0  0
    0.6140    2.1555   -0.7973 C   0  0  0  0  0  0  0  0  0  0  0  0
    0.4817    2.2008    0.2817 H   0  0  0  0  0  0  0  0  0  0  0  0
    1.6262    2.5131   -1.0094 H   0  0  0  0  0  0  0  0  0  0  0  0
   -0.4148    3.1041   -1.4093 C   0  0  0  0  0  0  0  0  0  0  0  0
   -0.0238    4.0039   -2.1907 O   0  5  0  0  0  0  0  0  0  0  0  0
   -1.6175    2.8794   -1.1104 O   0  0  0  0  0  0  0  0  0  0  0  0
    0.8278   -0.1756    1.0719 C   0  0  0  0  0  0  0  0  0  0  0  0
    1.9611   -0.3845    1.4906 O   0  0  0  0  0  0  0  0  0  0  0  0
   -0.1228    0.3713    1.9174 N   0  0  0  0  0  0  0  0  0  0  0  0
   -0.9395    0.7584    1.4502 H   0  0  0  0  0  0  0  0  0  0  0  0
    0.1987    0.8559    3.2508 C   0  0  0  0  0  0  0  0  0  0  0  0
    0.9215    1.6763    3.1944 H   0  0  0  0  0  0  0  0  0  0  0  0
   -0.7066    1.2220    3.7440 H   0  0  0  0  0  0  0  0  0  0  0  0
    0.6217    0.0506    3.8600 H   0  0  0  0  0  0  0  0  0  0  0  0
  1  2  1  0  0  0  0
  2  3  1  0  0  0  0
  2  4  1  0  0  0  0
  2  5  1  0  0  0  0
  5  6  2  0  0  0  0
  5  7  1  0  0  0  0
  7  8  1  0  0  0  0
  7  9  1  0  0  0  0
  9 10  1  0  0  0  0
  9 11  1  0  0  0  0
  9 20  1  0  0  0  0
 11 12  1  0  0  0  0
 11 13  1  0  0  0  0
 11 14  1  0  0  0  0
 14 15  1  0  0  0  0
 14 16  1  0  0  0  0
 14 17  1  0  0  0  0
 17 18  1  0  0  0  0
 17 19  2  0  0  0  0
 20 21  2  0  0  0  0
 20 22  1  0  0  0  0
 22 23  1  0  0  0  0
 22 24  1  0  0  0  0
 24 25  1  0  0  0  0
 24 26  1  0  0  0  0
 24 27  1  0  0  0  0
M  CHG  1  18  -1
M  END
$$$$

  -OEChem-04042215583D

 27 26  0     1  0  0  0  0  0999 V2000
   -2.6596   -3.7131    0.4710 H   0  0  0  0  0  0  0  0  0  0  0  0
   -2.5503   -2.7577   -0.0497 C   0  0  0  0  0  0  0  0  0  0  0  0
   -3.1281   -1.9985    0.4840 H   0  0  0  0  0  0  0  0  0  0  0  0
   -2.9454   -2.8592   -1.0635 H   0  0  0  0  0  0  0  0  0  0  0  0
   -1.0885   -2.3510   -0.1022 C   0  0  0  0  0  0  0  0  0  0  0  0
   -0.2290   -3.1186    0.3002 O   0  0  0  0  0  0  0  0  0  0  0  0
   -0.7478   -1.1295   -0.6429 N   0  0  0  0  0  0  0  0  0  0  0  0
   -1.5270   -0.5089   -0.8586 H   0  0  0  0  0  0  0  0  0  0  0  0
    0.5559   -0.4743   -0.4330 C   0  0  1  0  0  0  0  0  0  0  0  0
    1.3590   -1.1349   -0.7765 H   0  0  0  0  0  0  0  0  0  0  0  0
    0.4949    0.7741   -1.3567 C   0  0  0  0  0  0  0  0  0  0  0  0
    1.3339    0.6785   -2.0529 H   0  0  0  0  0  0  0  0  0  0  0  0
   -0.4027    0.7496   -1.9865 H   0  0  0  0  0  0  0  0  0  0  0  0
    0.6329    2.1710   -0.6989 C   0  0  0  0  0  0  0  0  0  0  0  0
    0.8287    2.1635    0.3715 H   0  0  0  0  0  0  0  0  0  0  0  0
    1.4795    2.6902   -1.1585 H   0  0  0  0  0  0  0  0  0  0  0  0
   -0.6364    2.9677   -0.9772 C   0  0  0  0  0  0  0  0  0  0  0  0
   -1.6759    2.5105   -0.4280 O   0  5  0  0  0  0  0  0  0  0  0  0
   -0.5981    3.9666   -1.7341 O   0  0  0  0  0  0  0  0  0  0  0  0
    0.8120   -0.2014    1.0669 C   0  0  0  0  0  0  0  0  0  0  0  0
    1.9030   -0.4461    1.5712 O   0  0  0  0  0  0  0  0  0  0  0  0
   -0.2052    0.3357    1.8399 N   0  0  0  0  0  0  0  0  0  0  0  0
   -0.9381    0.8049    1.3027 H   0  0  0  0  0  0  0  0  0  0  0  0
    0.0134    0.7794    3.2074 C   0  0  0  0  0  0  0  0  0  0  0  0
    0.7420    1.5962    3.2315 H   0  0  0  0  0  0  0  0  0  0  0  0
   -0.9261    1.1366    3.6393 H   0  0  0  0  0  0  0  0  0  0  0  0
    0.3844   -0.0457    3.8237 H   0  0  0  0  0  0  0  0  0  0  0  0
  1  2  1  0  0  0  0
  2  3  1  0  0  0  0
  2  4  1  0  0  0  0
  2  5  1  0  0  0  0
  5  6  2  0  0  0  0
  5  7  1  0  0  0  0
  7  8  1  0  0  0  0
  7  9  1  0  0  0  0
  9 10  1  0  0  0  0
  9 11  1  0  0  0  0
  9 20  1  0  0  0  0
 11 12  1  0  0  0  0
 11 13  1  0  0  0  0
 11 14  1  0  0  0  0
 14 15  1  0  0  0  0
 14 16  1  0  0  0  0
 14 17  1  0  0  0  0
 17 18  1  0  0  0  0
 17 19  2  0  0  0  0
 20 21  2  0  0  0  0
 20 22  1  0  0  0  0
 22 23  1  0  0  0  0
 22 24  1  0  0  0  0
 24 25  1  0  0  0  0
 24 26  1  0  0  0  0
 24 27  1  0  0  0  0
M  CHG  1  18  -1
M  END
$$$$

  -OEChem-04042215583D

 27 26  0     1  0  0  0  0  0999 V2000
   -2.6510   -3.6574    0.5536 H   0  0  0  0  0  0  0  0  0  0  0  0
   -2.5492   -2.7107    0.0160 C   0  0  0  0  0  0  0  0  0  0  0  0
   -3.0758   -1.9318    0.5738 H   0  0  0  0  0  0  0  0  0  0  0  0
   -3.0057   -2.8123   -0.9716 H   0  0  0  0  0  0  0  0  0  0  0  0
   -1.0833   -2.3414   -0.1261 C   0  0  0  0  0  0  0  0  0  0  0  0
   -0.2199   -3.1392    0.2048 O   0  0  0  0  0  0  0  0  0  0  0  0
   -0.7453   -1.1226   -0.6738 N   0  0  0  0  0  0  0  0  0  0  0  0
   -1.5256   -0.4759   -0.7915 H   0  0  0  0  0  0  0  0  0  0  0  0
    0.5606   -0.4781   -0.4539 C   0  0  1  0  0  0  0  0  0  0  0  0
    1.3624   -1.1426   -0.7923 H   0  0  0  0  0  0  0  0  0  0  0  0
    0.5054    0.7676   -1.3806 C   0  0  0  0  0  0  0  0  0  0  0  0
    1.3588    0.6729   -2.0593 H   0  0  0  0  0  0  0  0  0  0  0  0
   -0.3822    0.7551   -2.0251 H   0  0  0  0  0  0  0  0  0  0  0  0
    0.6436    2.1492   -0.7011 C   0  0  0  0  0  0  0  0  0  0  0  0
    1.1051    2.1300    0.2865 H   0  0  0  0  0  0  0  0  0  0  0  0
    1.2869    2.7768   -1.3254 H   0  0  0  0  0  0  0  0  0  0  0  0
   -0.7417    2.7908   -0.6522 C   0  0  0  0  0  0  0  0  0  0  0  0
   -1.6167    2.1284   -0.0254 O   0  5  0  0  0  0  0  0  0  0  0  0
   -0.9462    3.8790   -1.2391 O   0  0  0  0  0  0  0  0  0  0  0  0
    0.8075   -0.2038    1.0481 C   0  0  0  0  0  0  0  0  0  0  0  0
    1.8885   -0.4744    1.5621 O   0  0  0  0  0  0  0  0  0  0  0  0
   -0.2079    0.3432    1.8146 N   0  0  0  0  0  0  0  0  0  0  0  0
   -0.9167    0.8515    1.2678 H   0  0  0  0  0  0  0  0  0  0  0  0
   -0.0029    0.7641    3.1905 C   0  0  0  0  0  0  0  0  0  0  0  0
    0.7347    1.5715    3.2368 H   0  0  0  0  0  0  0  0  0  0  0  0
   -0.9445    1.1267    3.6132 H   0  0  0  0  0  0  0  0  0  0  0  0
    0.3489   -0.0744    3.8000 H   0  0  0  0  0  0  0  0  0  0  0  0
  1  2  1  0  0  0  0
  2  3  1  0  0  0  0
  2  4  1  0  0  0  0
  2  5  1  0  0  0  0
  5  6  2  0  0  0  0
  5  7  1  0  0  0  0
  7  8  1  0  0  0  0
  7  9  1  0  0  0  0
  9 10  1  0  0  0  0
  9 11  1  0  0  0  0
  9 20  1  0  0  0  0
 11 12  1  0  0  0  0
 11 13  1  0  0  0  0
 11 14  1  0  0  0  0
 14 15  1  0  0  0  0
 14 16  1  0  0  0  0
 14 17  1  0  0  0  0
 17 18  1  0  0  0  0
 17 19  2  0  0  0  0
 20 21  2  0  0  0  0
 20 22  1  0  0  0  0
 22 23  1  0  0  0  0
 22 24  1  0  0  0  0
 24 25  1  0  0  0  0
 24 26  1  0  0  0  0
 24 27  1  0  0  0  0
M  CHG  1  18  -1
M  END
$$$$

  -OEChem-04042215583D

 27 26  0     1  0  0  0  0  0999 V2000
   -2.6446   -3.7228    0.5059 H   0  0  0  0  0  0  0  0  0  0  0  0
   -2.5595   -2.7535    0.0069 C   0  0  0  0  0  0  0  0  0  0  0  0
   -3.0862   -2.0035    0.6028 H   0  0  0  0  0  0  0  0  0  0  0  0
   -3.0279   -2.8186   -0.9782 H   0  0  0  0  0  0  0  0  0  0  0  0
   -1.0997   -2.3636   -0.1389 C   0  0  0  0  0  0  0  0  0  0  0  0
   -0.2241   -3.1559    0.1736 O   0  0  0  0  0  0  0  0  0  0  0  0
   -0.7813   -1.1307   -0.6647 N   0  0  0  0  0  0  0  0  0  0  0  0
   -1.5685   -0.4840   -0.7445 H   0  0  0  0  0  0  0  0  0  0  0  0
    0.5109   -0.4716   -0.4261 C   0  0  1  0  0  0  0  0  0  0  0  0
    1.3060   -1.1510   -0.7504 H   0  0  0  0  0  0  0  0  0  0  0  0
    0.5110    0.7469   -1.3906 C   0  0  0  0  0  0  0  0  0  0  0  0
    1.3906    0.6301   -2.0311 H   0  0  0  0  0  0  0  0  0  0  0  0
   -0.3548    0.7298   -2.0628 H   0  0  0  0  0  0  0  0  0  0  0  0
    0.6271    2.1378   -0.7357 C   0  0  0  0  0  0  0  0  0  0  0  0
    1.2591    2.1338    0.1547 H   0  0  0  0  0  0  0  0  0  0  0  0
    1.0958    2.8170   -1.4542 H   0  0  0  0  0  0  0  0  0  0  0  0
   -0.7731    2.6808   -0.4134 C   0  0  0  0  0  0  0  0  0  0  0  0
   -1.6380    1.8557   -0.0003 O   0  5  0  0  0  0  0  0  0  0  0  0
   -0.9782    3.9074   -0.5641 O   0  0  0  0  0  0  0  0  0  0  0  0
    0.7943   -0.1971    1.0707 C   0  0  0  0  0  0  0  0  0  0  0  0
    1.9025   -0.4353    1.5419 O   0  0  0  0  0  0  0  0  0  0  0  0
   -0.1933    0.3333    1.8796 N   0  0  0  0  0  0  0  0  0  0  0  0
   -0.9527    0.7922    1.3584 H   0  0  0  0  0  0  0  0  0  0  0  0
    0.0671    0.7989    3.2317 C   0  0  0  0  0  0  0  0  0  0  0  0
    0.7818    1.6279    3.2181 H   0  0  0  0  0  0  0  0  0  0  0  0
   -0.8626    1.1472    3.6913 H   0  0  0  0  0  0  0  0  0  0  0  0
    0.4731   -0.0112    3.8458 H   0  0  0  0  0  0  0  0  0  0  0  0
  1  2  1  0  0  0  0
  2  3  1  0  0  0  0
  2  4  1  0  0  0  0
  2  5  1  0  0  0  0
  5  6  2  0  0  0  0
  5  7  1  0  0  0  0
  7  8  1  0  0  0  0
  7  9  1  0  0  0  0
  9 10  1  0  0  0  0
  9 11  1  0  0  0  0
  9 20  1  0  0  0  0
 11 12  1  0  0  0  0
 11 13  1  0  0  0  0
 11 14  1  0  0  0  0
 14 15  1  0  0  0  0
 14 16  1  0  0  0  0
 14 17  1  0  0  0  0
 17 18  1  0  0  0  0
 17 19  2  0  0  0  0
 20 21  2  0  0  0  0
 20 22  1  0  0  0  0
 22 23  1  0  0  0  0
 22 24  1  0  0  0  0
 24 25  1  0  0  0  0
 24 26  1  0  0  0  0
 24 27  1  0  0  0  0
M  CHG  1  18  -1
M  END
$$$$

  -OEChem-04042215583D

 27 26  0     1  0  0  0  0  0999 V2000
   -2.6368   -3.7405    0.5453 H   0  0  0  0  0  0  0  0  0  0  0  0
   -2.5604   -2.7949    0.0016 C   0  0  0  0  0  0  0  0  0  0  0  0
   -3.1076   -2.0267    0.5543 H   0  0  0  0  0  0  0  0  0  0  0  0
   -3.0133   -2.9140   -0.9855 H   0  0  0  0  0  0  0  0  0  0  0  0
   -1.1054   -2.3873   -0.1431 C   0  0  0  0  0  0  0  0  0  0  0  0
   -0.2207   -3.1731    0.1602 O   0  0  0  0  0  0  0  0  0  0  0  0
   -0.8027   -1.1446   -0.6540 N   0  0  0  0  0  0  0  0  0  0  0  0
   -1.5965   -0.5034   -0.7204 H   0  0  0  0  0  0  0  0  0  0  0  0
    0.4782   -0.4693   -0.4073 C   0  0  1  0  0  0  0  0  0  0  0  0
    1.2705   -1.1570   -0.7214 H   0  0  0  0  0  0  0  0  0  0  0  0
    0.5173    0.7294   -1.3965 C   0  0  0  0  0  0  0  0  0  0  0  0
    1.4081    0.5976   -2.0181 H   0  0  0  0  0  0  0  0  0  0  0  0
   -0.3394    0.7043   -2.0797 H   0  0  0  0  0  0  0  0  0  0  0  0
    0.6177    2.1336   -0.7695 C   0  0  0  0  0  0  0  0  0  0  0  0
    1.4050    2.1626   -0.0113 H   0  0  0  0  0  0  0  0  0  0  0  0
    0.8903    2.8453   -1.5541 H   0  0  0  0  0  0  0  0  0  0  0  0
   -0.7184    2.5904   -0.1561 C   0  0  0  0  0  0  0  0  0  0  0  0
   -1.6434    1.7395   -0.0103 O   0  5  0  0  0  0  0  0  0  0  0  0
   -0.8036    3.7893    0.1952 O   0  0  0  0  0  0  0  0  0  0  0  0
    0.7859   -0.1929    1.0848 C   0  0  0  0  0  0  0  0  0  0  0  0
    1.9109   -0.4079    1.5267 O   0  0  0  0  0  0  0  0  0  0  0  0
   -0.1857    0.3218    1.9214 N   0  0  0  0  0  0  0  0  0  0  0  0
   -0.9744    0.7524    1.4216 H   0  0  0  0  0  0  0  0  0  0  0  0
    0.1117    0.8170    3.2555 C   0  0  0  0  0  0  0  0  0  0  0  0
    0.8021    1.6648    3.2017 H   0  0  0  0  0  0  0  0  0  0  0  0
   -0.8095    1.1484    3.7437 H   0  0  0  0  0  0  0  0  0  0  0  0
    0.5623    0.0287    3.8670 H   0  0  0  0  0  0  0  0  0  0  0  0
  1  2  1  0  0  0  0
  2  3  1  0  0  0  0
  2  4  1  0  0  0  0
  2  5  1  0  0  0  0
  5  6  2  0  0  0  0
  5  7  1  0  0  0  0
  7  8  1  0  0  0  0
  7  9  1  0  0  0  0
  9 10  1  0  0  0  0
  9 11  1  0  0  0  0
  9 20  1  0  0  0  0
 11 12  1  0  0  0  0
 11 13  1  0  0  0  0
 11 14  1  0  0  0  0
 14 15  1  0  0  0  0
 14 16  1  0  0  0  0
 14 17  1  0  0  0  0
 17 18  1  0  0  0  0
 17 19  2  0  0  0  0
 20 21  2  0  0  0  0
 20 22  1  0  0  0  0
 22 23  1  0  0  0  0
 22 24  1  0  0  0  0
 24 25  1  0  0  0  0
 24 26  1  0  0  0  0
 24 27  1  0  0  0  0
M  CHG  1  18  -1
M  END
$$$$

  -OEChem-04042215583D

 27 26  0     1  0  0  0  0  0999 V2000
   -2.6190   -3.8454    0.4077 H   0  0  0  0  0  0  0  0  0  0  0  0
   -2.5571   -2.8383   -0.0137 C   0  0  0  0  0  0  0  0  0  0  0  0
   -3.0909   -2.1477    0.6445 H   0  0  0  0  0  0  0  0  0  0  0  0
   -3.0351   -2.8346   -0.9962 H   0  0  0  0  0  0  0  0  0  0  0  0
   -1.1068   -2.4085   -0.1421 C   0  0  0  0  0  0  0  0  0  0  0  0
   -0.2129   -3.1868    0.1536 O   0  0  0  0  0  0  0  0  0  0  0  0
   -0.8211   -1.1527   -0.6299 N   0  0  0  0  0  0  0  0  0  0  0  0
   -1.6237   -0.5238   -0.6949 H   0  0  0  0  0  0  0  0  0  0  0  0
    0.4485   -0.4601   -0.3741 C   0  0  1  0  0  0  0  0  0  0  0  0
    1.2378   -1.1567   -0.6767 H   0  0  0  0  0  0  0  0  0  0  0  0
    0.5316    0.7145   -1.3913 C   0  0  0  0  0  0  0  0  0  0  0  0
    1.4290    0.5574   -1.9977 H   0  0  0  0  0  0  0  0  0  0  0  0
   -0.3188    0.6728   -2.0807 H   0  0  0  0  0  0  0  0  0  0  0  0
    0.6169    2.1463   -0.8248 C   0  0  0  0  0  0  0  0  0  0  0  0
    1.5249    2.2423   -0.2220 H   0  0  0  0  0  0  0  0  0  0  0  0
    0.6898    2.8525   -1.6563 H   0  0  0  0  0  0  0  0  0  0  0  0
   -0.5964    2.5321    0.0373 C   0  0  0  0  0  0  0  0  0  0  0  0
   -1.6022    1.7651    0.0407 O   0  5  0  0  0  0  0  0  0  0  0  0
   -0.5116    3.5819    0.7141 O   0  0  0  0  0  0  0  0  0  0  0  0
    0.7772   -0.1920    1.1160 C   0  0  0  0  0  0  0  0  0  0  0  0
    1.9133   -0.4014    1.5319 O   0  0  0  0  0  0  0  0  0  0  0  0
   -0.1822    0.2986    1.9810 N   0  0  0  0  0  0  0  0  0  0  0  0
   -0.9764    0.7394    1.5003 H   0  0  0  0  0  0  0  0  0  0  0  0
    0.1523    0.8095    3.3005 C   0  0  0  0  0  0  0  0  0  0  0  0
    0.8152    1.6766    3.2152 H   0  0  0  0  0  0  0  0  0  0  0  0
   -0.7583    1.1181    3.8221 H   0  0  0  0  0  0  0  0  0  0  0  0
    0.6484    0.0386    3.8987 H   0  0  0  0  0  0  0  0  0  0  0  0
  1  2  1  0  0  0  0
  2  3  1  0  0  0  0
  2  4  1  0  0  0  0
  2  5  1  0  0  0  0
  5  6  2  0  0  0  0
  5  7  1  0  0  0  0
  7  8  1  0  0  0  0
  7  9  1  0  0  0  0
  9 10  1  0  0  0  0
  9 11  1  0  0  0  0
  9 20  1  0  0  0  0
 11 12  1  0  0  0  0
 11 13  1  0  0  0  0
 11 14  1  0  0  0  0
 14 15  1  0  0  0  0
 14 16  1  0  0  0  0
 14 17  1  0  0  0  0
 17 18  1  0  0  0  0
 17 19  2  0  0  0  0
 20 21  2  0  0  0  0
 20 22  1  0  0  0  0
 22 23  1  0  0  0  0
 22 24  1  0  0  0  0
 24 25  1  0  0  0  0
 24 26  1  0  0  0  0
 24 27  1  0  0  0  0
M  CHG  1  18  -1
M  END
$$$$

  -OEChem-04042215583D

 27 26  0     1  0  0  0  0  0999 V2000
   -2.5871   -3.8919    0.3821 H   0  0  0  0  0  0  0  0  0  0  0  0
   -2.5449   -2.8804   -0.0313 C   0  0  0  0  0  0  0  0  0  0  0  0
   -3.0959   -2.2065    0.6299 H   0  0  0  0  0  0  0  0  0  0  0  0
   -3.0181   -2.8794   -1.0162 H   0  0  0  0  0  0  0  0  0  0  0  0
   -1.1031   -2.4199   -0.1488 C   0  0  0  0  0  0  0  0  0  0  0  0
   -0.1964   -3.1910    0.1247 O   0  0  0  0  0  0  0  0  0  0  0  0
   -0.8410   -1.1468   -0.6061 N   0  0  0  0  0  0  0  0  0  0  0  0
   -1.6550   -0.5346   -0.6655 H   0  0  0  0  0  0  0  0  0  0  0  0
    0.4180   -0.4378   -0.3391 C   0  0  1  0  0  0  0  0  0  0  0  0
    1.2034   -1.1427   -0.6329 H   0  0  0  0  0  0  0  0  0  0  0  0
    0.5464    0.7107   -1.3847 C   0  0  0  0  0  0  0  0  0  0  0  0
    1.4504    0.5236   -1.9725 H   0  0  0  0  0  0  0  0  0  0  0  0
   -0.2950    0.6459   -2.0828 H   0  0  0  0  0  0  0  0  0  0  0  0
    0.6195    2.1767   -0.9035 C   0  0  0  0  0  0  0  0  0  0  0  0
    1.6175    2.3555   -0.4919 H   0  0  0  0  0  0  0  0  0  0  0  0
    0.4861    2.8422   -1.7606 H   0  0  0  0  0  0  0  0  0  0  0  0
   -0.4110    2.5415    0.1707 C   0  0  0  0  0  0  0  0  0  0  0  0
   -1.4969    1.8944    0.1812 O   0  5  0  0  0  0  0  0  0  0  0  0
   -0.1289    3.4579    0.9758 O   0  0  0  0  0  0  0  0  0  0  0  0
    0.7680   -0.1910    1.1509 C   0  0  0  0  0  0  0  0  0  0  0  0
    1.9066   -0.4262    1.5463 O   0  0  0  0  0  0  0  0  0  0  0  0
   -0.1790    0.2669    2.0471 N   0  0  0  0  0  0  0  0  0  0  0  0
   -0.9553    0.7605    1.5888 H   0  0  0  0  0  0  0  0  0  0  0  0
    0.1868    0.7327    3.3756 C   0  0  0  0  0  0  0  0  0  0  0  0
    0.8612    1.5924    3.3047 H   0  0  0  0  0  0  0  0  0  0  0  0
   -0.7093    1.0389    3.9229 H   0  0  0  0  0  0  0  0  0  0  0  0
    0.6823   -0.0631    3.9405 H   0  0  0  0  0  0  0  0  0  0  0  0
  1  2  1  0  0  0  0
  2  3  1  0  0  0  0
  2  4  1  0  0  0  0
  2  5  1  0  0  0  0
  5  6  2  0  0  0  0
  5  7  1  0  0  0  0
  7  8  1  0  0  0  0
  7  9  1  0  0  0  0
  9 10  1  0  0  0  0
  9 11  1  0  0  0  0
  9 20  1  0  0  0  0
 11 12  1  0  0  0  0
 11 13  1  0  0  0  0
 11 14  1  0  0  0  0
 14 15  1  0  0  0  0
 14 16  1  0  0  0  0
 14 17  1  0  0  0  0
 17 18  1  0  0  0  0
 17 19  2  0  0  0  0
 20 21  2  0  0  0  0
 20 22  1  0  0  0  0
 22 23  1  0  0  0  0
 22 24  1  0  0  0  0
 24 25  1  0  0  0  0
 24 26  1  0  0  0  0
 24 27  1  0  0  0  0
M  CHG  1  18  -1
M  END
$$$$

  -OEChem-04042215583D

 27 26  0     1  0  0  0  0  0999 V2000
   -2.4476   -4.0092    0.3967 H   0  0  0  0  0  0  0  0  0  0  0  0
   -2.4573   -2.9804    0.0260 C   0  0  0  0  0  0  0  0  0  0  0  0
   -3.0216   -2.3590    0.7260 H   0  0  0  0  0  0  0  0  0  0  0  0
   -2.9517   -2.9595   -0.9481 H   0  0  0  0  0  0  0  0  0  0  0  0
   -1.0390   -2.4538   -0.1011 C   0  0  0  0  0  0  0  0  0  0  0  0
   -0.0975   -3.1871    0.1566 O   0  0  0  0  0  0  0  0  0  0  0  0
   -0.8402   -1.1677   -0.5563 N   0  0  0  0  0  0  0  0  0  0  0  0
   -1.6819   -0.5974   -0.6138 H   0  0  0  0  0  0  0  0  0  0  0  0
    0.3952   -0.4057   -0.3178 C   0  0  1  0  0  0  0  0  0  0  0  0
    1.1923   -1.0983   -0.6109 H   0  0  0  0  0  0  0  0  0  0  0  0
    0.5041    0.7086   -1.4063 C   0  0  0  0  0  0  0  0  0  0  0  0
    1.4091    0.5112   -1.9896 H   0  0  0  0  0  0  0  0  0  0  0  0
   -0.3369    0.5844   -2.0966 H   0  0  0  0  0  0  0  0  0  0  0  0
    0.5373    2.2110   -1.0337 C   0  0  0  0  0  0  0  0  0  0  0  0
    1.5834    2.4960   -0.8848 H   0  0  0  0  0  0  0  0  0  0  0  0
    0.1537    2.7961   -1.8741 H   0  0  0  0  0  0  0  0  0  0  0  0
   -0.2300    2.6019    0.2282 C   0  0  0  0  0  0  0  0  0  0  0  0
   -1.3722    2.0825    0.3733 O   0  5  0  0  0  0  0  0  0  0  0  0
    0.2810    3.4238    1.0225 O   0  0  0  0  0  0  0  0  0  0  0  0
    0.7815   -0.1459    1.1624 C   0  0  0  0  0  0  0  0  0  0  0  0
    1.9254   -0.3971    1.5325 O   0  0  0  0  0  0  0  0  0  0  0  0
   -0.1538    0.2705    2.0909 N   0  0  0  0  0  0  0  0  0  0  0  0
   -0.9112    0.8177    1.6624 H   0  0  0  0  0  0  0  0  0  0  0  0
    0.2367    0.6694    3.4341 C   0  0  0  0  0  0  0  0  0  0  0  0
    0.9239    1.5211    3.3933 H   0  0  0  0  0  0  0  0  0  0  0  0
   -0.6475    0.9640    4.0064 H   0  0  0  0  0  0  0  0  0  0  0  0
    0.7259   -0.1592    3.9558 H   0  0  0  0  0  0  0  0  0  0  0  0
  1  2  1  0  0  0  0
  2  3  1  0  0  0  0
  2  4  1  0  0  0  0
  2  5  1  0  0  0  0
  5  6  2  0  0  0  0
  5  7  1  0  0  0  0
  7  8  1  0  0  0  0
  7  9  1  0  0  0  0
  9 10  1  0  0  0  0
  9 11  1  0  0  0  0
  9 20  1  0  0  0  0
 11 12  1  0  0  0  0
 11 13  1  0  0  0  0
 11 14  1  0  0  0  0
 14 15  1  0  0  0  0
 14 16  1  0  0  0  0
 14 17  1  0  0  0  0
 17 18  1  0  0  0  0
 17 19  2  0  0  0  0
 20 21  2  0  0  0  0
 20 22  1  0  0  0  0
 22 23  1  0  0  0  0
 22 24  1  0  0  0  0
 24 25  1  0  0  0  0
 24 26  1  0  0  0  0
 24 27  1  0  0  0  0
M  CHG  1  18  -1
M  END
$$$$

  -OEChem-04042215583D

 27 26  0     1  0  0  0  0  0999 V2000
   -2.7827   -3.7933    0.5100 H   0  0  0  0  0  0  0  0  0  0  0  0
   -2.6858   -2.8002    0.0622 C   0  0  0  0  0  0  0  0  0  0  0  0
   -3.2336   -2.0821    0.6779 H   0  0  0  0  0  0  0  0  0  0  0  0
   -3.1230   -2.8192   -0.9391 H   0  0  0  0  0  0  0  0  0  0  0  0
   -1.2231   -2.4007   -0.0180 C   0  0  0  0  0  0  0  0  0  0  0  0
   -0.3617   -3.2009    0.3088 O   0  0  0  0  0  0  0  0  0  0  0  0
   -0.8950   -1.1577   -0.5177 N   0  0  0  0  0  0  0  0  0  0  0  0
   -1.6835   -0.5297   -0.6514 H   0  0  0  0  0  0  0  0  0  0  0  0
    0.3887   -0.4891   -0.2476 C   0  0  1  0  0  0  0  0  0  0  0  0
    1.1313   -1.2680   -0.4555 H   0  0  0  0  0  0  0  0  0  0  0  0
    0.6653    0.5290   -1.4020 C   0  0  0  0  0  0  0  0  0  0  0  0
    1.5856    0.2032   -1.8979 H   0  0  0  0  0  0  0  0  0  0  0  0
   -0.1316    0.4124   -2.1437 H   0  0  0  0  0  0  0  0  0  0  0  0
    0.8175    2.0565   -1.1758 C   0  0  0  0  0  0  0  0  0  0  0  0
    1.8815    2.2975   -1.2630 H   0  0  0  0  0  0  0  0  0  0  0  0
    0.3062    2.5889   -1.9831 H   0  0  0  0  0  0  0  0  0  0  0  0
    0.3366    2.6273    0.1527 C   0  0  0  0  0  0  0  0  0  0  0  0
    1.1295    3.2708    0.8768 O   0  5  0  0  0  0  0  0  0  0  0  0
   -0.8791    2.4232    0.4221 O   0  0  0  0  0  0  0  0  0  0  0  0
    0.7246   -0.1916    1.2386 C   0  0  0  0  0  0  0  0  0  0  0  0
    1.7893   -0.5988    1.6962 O   0  0  0  0  0  0  0  0  0  0  0  0
   -0.2155    0.3455    2.0979 N   0  0  0  0  0  0  0  0  0  0  0  0
   -0.8247    1.0205    1.6187 H   0  0  0  0  0  0  0  0  0  0  0  0
    0.1318    0.6841    3.4696 C   0  0  0  0  0  0  0  0  0  0  0  0
    0.9330    1.4305    3.4856 H   0  0  0  0  0  0  0  0  0  0  0  0
   -0.7402    1.0993    3.9830 H   0  0  0  0  0  0  0  0  0  0  0  0
    0.4629   -0.2052    4.0153 H   0  0  0  0  0  0  0  0  0  0  0  0
  1  2  1  0  0  0  0
  2  3  1  0  0  0  0
  2  4  1  0  0  0  0
  2  5  1  0  0  0  0
  5  6  2  0  0  0  0
  5  7  1  0  0  0  0
  7  8  1  0  0  0  0
  7  9  1  0  0  0  0
  9 10  1  0  0  0  0
  9 11  1  0  0  0  0
  9 20  1  0  0  0  0
 11 12  1  0  0  0  0
 11 13  1  0  0  0  0
 11 14  1  0  0  0  0
 14 15  1  0  0  0  0
 14 16  1  0  0  0  0
 14 17  1  0  0  0  0
 17 18  1  0  0  0  0
 17 19  2  0  0  0  0
 20 21  2  0  0  0  0
 20 22  1  0  0  0  0
 22 23  1  0  0  0  0
 22 24  1  0  0  0  0
 24 25  1  0  0  0  0
 24 26  1  0  0  0  0
 24 27  1  0  0  0  0
M  CHG  1  18  -1
M  END
$$$$

  -OEChem-04042215583D

 27 26  0     1  0  0  0  0  0999 V2000
   -2.8436   -3.7007    0.1077 H   0  0  0  0  0  0  0  0  0  0  0  0
   -2.7278   -2.6566   -0.1961 C   0  0  0  0  0  0  0  0  0  0  0  0
   -3.2267   -2.0194    0.5388 H   0  0  0  0  0  0  0  0  0  0  0  0
   -3.2016   -2.5171   -1.1709 H   0  0  0  0  0  0  0  0  0  0  0  0
   -1.2559   -2.2934   -0.2786 C   0  0  0  0  0  0  0  0  0  0  0  0
   -0.4121   -3.1536   -0.0877 O   0  0  0  0  0  0  0  0  0  0  0  0
   -0.9047   -1.0099   -0.6434 N   0  0  0  0  0  0  0  0  0  0  0  0
   -1.6796   -0.3548   -0.6843 H   0  0  0  0  0  0  0  0  0  0  0  0
    0.4045   -0.4102   -0.3294 C   0  0  1  0  0  0  0  0  0  0  0  0
    1.1343   -1.1606   -0.6559 H   0  0  0  0  0  0  0  0  0  0  0  0
    0.6287    0.7532   -1.3525 C   0  0  0  0  0  0  0  0  0  0  0  0
    1.5392    0.4866   -1.8997 H   0  0  0  0  0  0  0  0  0  0  0  0
   -0.1776    0.7233   -2.0926 H   0  0  0  0  0  0  0  0  0  0  0  0
    0.8133    2.2462   -0.9660 C   0  0  0  0  0  0  0  0  0  0  0  0
    1.7718    2.5838   -1.3720 H   0  0  0  0  0  0  0  0  0  0  0  0
    0.0385    2.8235   -1.4795 H   0  0  0  0  0  0  0  0  0  0  0  0
    0.7704    2.6465    0.5011 C   0  0  0  0  0  0  0  0  0  0  0  0
   -0.3787    2.6773    1.0181 O   0  5  0  0  0  0  0  0  0  0  0  0
    1.8317    2.9448    1.0931 O   0  0  0  0  0  0  0  0  0  0  0  0
    0.7557   -0.3035    1.1792 C   0  0  0  0  0  0  0  0  0  0  0  0
    1.7530   -0.8913    1.5891 O   0  0  0  0  0  0  0  0  0  0  0  0
   -0.1727    0.1546    2.0965 N   0  0  0  0  0  0  0  0  0  0  0  0
   -0.6537    0.9941    1.7503 H   0  0  0  0  0  0  0  0  0  0  0  0
    0.1374    0.1759    3.5181 C   0  0  0  0  0  0  0  0  0  0  0  0
    1.0143    0.8040    3.7071 H   0  0  0  0  0  0  0  0  0  0  0  0
   -0.7091    0.5836    4.0780 H   0  0  0  0  0  0  0  0  0  0  0  0
    0.3387   -0.8359    3.8844 H   0  0  0  0  0  0  0  0  0  0  0  0
  1  2  1  0  0  0  0
  2  3  1  0  0  0  0
  2  4  1  0  0  0  0
  2  5  1  0  0  0  0
  5  6  2  0  0  0  0
  5  7  1  0  0  0  0
  7  8  1  0  0  0  0
  7  9  1  0  0  0  0
  9 10  1  0  0  0  0
  9 11  1  0  0  0  0
  9 20  1  0  0  0  0
 11 12  1  0  0  0  0
 11 13  1  0  0  0  0
 11 14  1  0  0  0  0
 14 15  1  0  0  0  0
 14 16  1  0  0  0  0
 14 17  1  0  0  0  0
 17 18  1  0  0  0  0
 17 19  2  0  0  0  0
 20 21  2  0  0  0  0
 20 22  1  0  0  0  0
 22 23  1  0  0  0  0
 22 24  1  0  0  0  0
 24 25  1  0  0  0  0
 24 26  1  0  0  0  0
 24 27  1  0  0  0  0
M  CHG  1  18  -1
M  END
$$$$

  -OEChem-04042215583D

 27 26  0     1  0  0  0  0  0999 V2000
   -3.0020   -3.5113    0.3562 H   0  0  0  0  0  0  0  0  0  0  0  0
   -2.8383   -2.4829    0.0222 C   0  0  0  0  0  0  0  0  0  0  0  0
   -3.2271   -1.8009    0.7828 H   0  0  0  0  0  0  0  0  0  0  0  0
   -3.3811   -2.3240   -0.9127 H   0  0  0  0  0  0  0  0  0  0  0  0
   -1.3563   -2.2282   -0.1873 C   0  0  0  0  0  0  0  0  0  0  0  0
   -0.5625   -3.1428   -0.0416 O   0  0  0  0  0  0  0  0  0  0  0  0
   -0.9470   -0.9850   -0.6244 N   0  0  0  0  0  0  0  0  0  0  0  0
   -1.6820   -0.2855   -0.6396 H   0  0  0  0  0  0  0  0  0  0  0  0
    0.4093   -0.4599   -0.3798 C   0  0  1  0  0  0  0  0  0  0  0  0
    1.0996   -1.2397   -0.7227 H   0  0  0  0  0  0  0  0  0  0  0  0
    0.5953    0.6970   -1.4186 C   0  0  0  0  0  0  0  0  0  0  0  0
    1.4734    0.3993   -2.0014 H   0  0  0  0  0  0  0  0  0  0  0  0
   -0.2415    0.6906   -2.1253 H   0  0  0  0  0  0  0  0  0  0  0  0
    0.8625    2.1807   -1.0527 C   0  0  0  0  0  0  0  0  0  0  0  0
    1.6137    2.5716   -1.7458 H   0  0  0  0  0  0  0  0  0  0  0  0
   -0.0597    2.7343   -1.2546 H   0  0  0  0  0  0  0  0  0  0  0  0
    1.2947    2.5523    0.3572 C   0  0  0  0  0  0  0  0  0  0  0  0
    2.5144    2.5792    0.6336 O   0  5  0  0  0  0  0  0  0  0  0  0
    0.3628    2.8209    1.1604 O   0  0  0  0  0  0  0  0  0  0  0  0
    0.7909   -0.3239    1.1189 C   0  0  0  0  0  0  0  0  0  0  0  0
    1.6853   -1.0446    1.5521 O   0  0  0  0  0  0  0  0  0  0  0  0
   -0.1025    0.2313    2.0191 N   0  0  0  0  0  0  0  0  0  0  0  0
   -0.3880    1.1673    1.7070 H   0  0  0  0  0  0  0  0  0  0  0  0
    0.1369    0.1341    3.4519 C   0  0  0  0  0  0  0  0  0  0  0  0
    1.1004    0.5864    3.7101 H   0  0  0  0  0  0  0  0  0  0  0  0
   -0.6512    0.6611    3.9974 H   0  0  0  0  0  0  0  0  0  0  0  0
    0.1382   -0.9127    3.7718 H   0  0  0  0  0  0  0  0  0  0  0  0
  1  2  1  0  0  0  0
  2  3  1  0  0  0  0
  2  4  1  0  0  0  0
  2  5  1  0  0  0  0
  5  6  2  0  0  0  0
  5  7  1  0  0  0  0
  7  8  1  0  0  0  0
  7  9  1  0  0  0  0
  9 10  1  0  0  0  0
  9 11  1  0  0  0  0
  9 20  1  0  0  0  0
 11 12  1  0  0  0  0
 11 13  1  0  0  0  0
 11 14  1  0  0  0  0
 14 15  1  0  0  0  0
 14 16  1  0  0  0  0
 14 17  1  0  0  0  0
 17 18  1  0  0  0  0
 17 19  2  0  0  0  0
 20 21  2  0  0  0  0
 20 22  1  0  0  0  0
 22 23  1  0  0  0  0
 22 24  1  0  0  0  0
 24 25  1  0  0  0  0
 24 26  1  0  0  0  0
 24 27  1  0  0  0  0
M  CHG  1  18  -1
M  END
$$$$

  -OEChem-04042215583D

 27 26  0     1  0  0  0  0  0999 V2000
   -2.6189   -3.7149    0.6756 H   0  0  0  0  0  0  0  0  0  0  0  0
   -2.5265   -2.7454    0.1779 C   0  0  0  0  0  0  0  0  0  0  0  0
   -3.0303   -1.9897    0.7857 H   0  0  0  0  0  0  0  0  0  0  0  0
   -3.0126   -2.8017   -0.7991 H   0  0  0  0  0  0  0  0  0  0  0  0
   -1.0621   -2.3803    0.0098 C   0  0  0  0  0  0  0  0  0  0  0  0
   -0.2028   -3.1906    0.3127 O   0  0  0  0  0  0  0  0  0  0  0  0
   -0.7365   -1.1735   -0.5747 N   0  0  0  0  0  0  0  0  0  0  0  0
   -1.5286   -0.5572   -0.7223 H   0  0  0  0  0  0  0  0  0  0  0  0
    0.5479   -0.4906   -0.3264 C   0  0  1  0  0  0  0  0  0  0  0  0
    1.3453   -1.2102   -0.5466 H   0  0  0  0  0  0  0  0  0  0  0  0
    0.6251    0.5836   -1.4623 C   0  0  0  0  0  0  0  0  0  0  0  0
    1.5525    0.3494   -1.9958 H   0  0  0  0  0  0  0  0  0  0  0  0
   -0.1809    0.4270   -2.1872 H   0  0  0  0  0  0  0  0  0  0  0  0
    0.7050    2.1062   -1.1964 C   0  0  0  0  0  0  0  0  0  0  0  0
    1.1991    2.5786   -2.0506 H   0  0  0  0  0  0  0  0  0  0  0  0
   -0.3230    2.4815   -1.1866 H   0  0  0  0  0  0  0  0  0  0  0  0
    1.3757    2.6166    0.0699 C   0  0  0  0  0  0  0  0  0  0  0  0
    0.6009    2.9981    0.9852 O   0  5  0  0  0  0  0  0  0  0  0  0
    2.6254    2.6222    0.1296 O   0  0  0  0  0  0  0  0  0  0  0  0
    0.7958   -0.1224    1.1603 C   0  0  0  0  0  0  0  0  0  0  0  0
    1.6744   -0.7351    1.7593 O   0  0  0  0  0  0  0  0  0  0  0  0
   -0.2194    0.4581    1.9024 N   0  0  0  0  0  0  0  0  0  0  0  0
   -0.4587    1.3695    1.4980 H   0  0  0  0  0  0  0  0  0  0  0  0
   -0.1515    0.4700    3.3572 C   0  0  0  0  0  0  0  0  0  0  0  0
    0.7429    1.0050    3.6937 H   0  0  0  0  0  0  0  0  0  0  0  0
   -1.0318    0.9729    3.7673 H   0  0  0  0  0  0  0  0  0  0  0  0
   -0.1232   -0.5513    3.7503 H   0  0  0  0  0  0  0  0  0  0  0  0
  1  2  1  0  0  0  0
  2  3  1  0  0  0  0
  2  4  1  0  0  0  0
  2  5  1  0  0  0  0
  5  6  2  0  0  0  0
  5  7  1  0  0  0  0
  7  8  1  0  0  0  0
  7  9  1  0  0  0  0
  9 10  1  0  0  0  0
  9 11  1  0  0  0  0
  9 20  1  0  0  0  0
 11 12  1  0  0  0  0
 11 13  1  0  0  0  0
 11 14  1  0  0  0  0
 14 15  1  0  0  0  0
 14 16  1  0  0  0  0
 14 17  1  0  0  0  0
 17 18  1  0  0  0  0
 17 19  2  0  0  0  0
 20 21  2  0  0  0  0
 20 22  1  0  0  0  0
 22 23  1  0  0  0  0
 22 24  1  0  0  0  0
 24 25  1  0  0  0  0
 24 26  1  0  0  0  0
 24 27  1  0  0  0  0
M  CHG  1  18  -1
M  END
$$$$

  -OEChem-04042215583D

 27 26  0     1  0  0  0  0  0999 V2000
   -2.6889   -3.6948    0.6358 H   0  0  0  0  0  0  0  0  0  0  0  0
   -2.5815   -2.7309    0.1302 C   0  0  0  0  0  0  0  0  0  0  0  0
   -3.0890   -1.9657    0.7230 H   0  0  0  0  0  0  0  0  0  0  0  0
   -3.0528   -2.7933   -0.8536 H   0  0  0  0  0  0  0  0  0  0  0  0
   -1.1120   -2.3780   -0.0187 C   0  0  0  0  0  0  0  0  0  0  0  0
   -0.2638   -3.1927    0.3018 O   0  0  0  0  0  0  0  0  0  0  0  0
   -0.7684   -1.1756   -0.6024 N   0  0  0  0  0  0  0  0  0  0  0  0
   -1.5495   -0.5533   -0.7773 H   0  0  0  0  0  0  0  0  0  0  0  0
    0.5352   -0.5185   -0.3793 C   0  0  1  0  0  0  0  0  0  0  0  0
    1.3271   -1.2282   -0.6459 H   0  0  0  0  0  0  0  0  0  0  0  0
    0.5584    0.6134   -1.4569 C   0  0  0  0  0  0  0  0  0  0  0  0
    1.4443    0.4110   -2.0683 H   0  0  0  0  0  0  0  0  0  0  0  0
   -0.2996    0.5195   -2.1312 H   0  0  0  0  0  0  0  0  0  0  0  0
    0.6673    2.1029   -1.0641 C   0  0  0  0  0  0  0  0  0  0  0  0
    0.8849    2.6777   -1.9690 H   0  0  0  0  0  0  0  0  0  0  0  0
   -0.3186    2.4226   -0.7134 H   0  0  0  0  0  0  0  0  0  0  0  0
    1.6905    2.5027   -0.0080 C   0  0  0  0  0  0  0  0  0  0  0  0
    2.9060    2.3853   -0.2861 O   0  5  0  0  0  0  0  0  0  0  0  0
    1.2298    2.9795    1.0592 O   0  0  0  0  0  0  0  0  0  0  0  0
    0.8108   -0.1664    1.1049 C   0  0  0  0  0  0  0  0  0  0  0  0
    1.7075   -0.7670    1.6871 O   0  0  0  0  0  0  0  0  0  0  0  0
   -0.1848    0.4276    1.8633 N   0  0  0  0  0  0  0  0  0  0  0  0
   -0.5682    1.2421    1.3896 H   0  0  0  0  0  0  0  0  0  0  0  0
   -0.0127    0.5904    3.3005 C   0  0  0  0  0  0  0  0  0  0  0  0
    0.8855    1.1803    3.5126 H   0  0  0  0  0  0  0  0  0  0  0  0
   -0.8770    1.1099    3.7238 H   0  0  0  0  0  0  0  0  0  0  0  0
    0.0787   -0.3840    3.7910 H   0  0  0  0  0  0  0  0  0  0  0  0
  1  2  1  0  0  0  0
  2  3  1  0  0  0  0
  2  4  1  0  0  0  0
  2  5  1  0  0  0  0
  5  6  2  0  0  0  0
  5  7  1  0  0  0  0
  7  8  1  0  0  0  0
  7  9  1  0  0  0  0
  9 10  1  0  0  0  0
  9 11  1  0  0  0  0
  9 20  1  0  0  0  0
 11 12  1  0  0  0  0
 11 13  1  0  0  0  0
 11 14  1  0  0  0  0
 14 15  1  0  0  0  0
 14 16  1  0  0  0  0
 14 17  1  0  0  0  0
 17 18  1  0  0  0  0
 17 19  2  0  0  0  0
 20 21  2  0  0  0  0
 20 22  1  0  0  0  0
 22 23  1  0  0  0  0
 22 24  1  0  0  0  0
 24 25  1  0  0  0  0
 24 26  1  0  0  0  0
 24 27  1  0  0  0  0
M  CHG  1  18  -1
M  END
$$$$

  -OEChem-04042215583D

 27 26  0     1  0  0  0  0  0999 V2000
   -2.7214   -3.7436    0.5446 H   0  0  0  0  0  0  0  0  0  0  0  0
   -2.5992   -2.7874    0.0279 C   0  0  0  0  0  0  0  0  0  0  0  0
   -3.1740   -2.0254    0.5601 H   0  0  0  0  0  0  0  0  0  0  0  0
   -2.9870   -2.8840   -0.9891 H   0  0  0  0  0  0  0  0  0  0  0  0
   -1.1325   -2.3957   -0.0110 C   0  0  0  0  0  0  0  0  0  0  0  0
   -0.2942   -3.1679    0.4194 O   0  0  0  0  0  0  0  0  0  0  0  0
   -0.7753   -1.2002   -0.6007 N   0  0  0  0  0  0  0  0  0  0  0  0
   -1.5461   -0.6054   -0.8833 H   0  0  0  0  0  0  0  0  0  0  0  0
    0.5277   -0.5377   -0.3875 C   0  0  1  0  0  0  0  0  0  0  0  0
    1.3271   -1.2352   -0.6630 H   0  0  0  0  0  0  0  0  0  0  0  0
    0.5351    0.6203   -1.4332 C   0  0  0  0  0  0  0  0  0  0  0  0
    1.3920    0.4412   -2.0915 H   0  0  0  0  0  0  0  0  0  0  0  0
   -0.3533    0.5645   -2.0706 H   0  0  0  0  0  0  0  0  0  0  0  0
    0.6528    2.0783   -0.9440 C   0  0  0  0  0  0  0  0  0  0  0  0
    0.6235    2.7324   -1.8199 H   0  0  0  0  0  0  0  0  0  0  0  0
   -0.2260    2.3129   -0.3363 H   0  0  0  0  0  0  0  0  0  0  0  0
    1.9108    2.4352   -0.1549 C   0  0  0  0  0  0  0  0  0  0  0  0
    3.0213    2.1951   -0.6854 O   0  5  0  0  0  0  0  0  0  0  0  0
    1.7412    3.0372    0.9335 O   0  0  0  0  0  0  0  0  0  0  0  0
    0.8020   -0.1698    1.0924 C   0  0  0  0  0  0  0  0  0  0  0  0
    1.7525   -0.6823    1.6709 O   0  0  0  0  0  0  0  0  0  0  0  0
   -0.1919    0.4284    1.8493 N   0  0  0  0  0  0  0  0  0  0  0  0
   -0.7816    1.0547    1.3140 H   0  0  0  0  0  0  0  0  0  0  0  0
    0.0559    0.8018    3.2351 C   0  0  0  0  0  0  0  0  0  0  0  0
    0.9020    1.4947    3.2977 H   0  0  0  0  0  0  0  0  0  0  0  0
   -0.8267    1.2923    3.6552 H   0  0  0  0  0  0  0  0  0  0  0  0
    0.2778   -0.0838    3.8393 H   0  0  0  0  0  0  0  0  0  0  0  0
  1  2  1  0  0  0  0
  2  3  1  0  0  0  0
  2  4  1  0  0  0  0
  2  5  1  0  0  0  0
  5  6  2  0  0  0  0
  5  7  1  0  0  0  0
  7  8  1  0  0  0  0
  7  9  1  0  0  0  0
  9 10  1  0  0  0  0
  9 11  1  0  0  0  0
  9 20  1  0  0  0  0
 11 12  1  0  0  0  0
 11 13  1  0  0  0  0
 11 14  1  0  0  0  0
 14 15  1  0  0  0  0
 14 16  1  0  0  0  0
 14 17  1  0  0  0  0
 17 18  1  0  0  0  0
 17 19  2  0  0  0  0
 20 21  2  0  0  0  0
 20 22  1  0  0  0  0
 22 23  1  0  0  0  0
 22 24  1  0  0  0  0
 24 25  1  0  0  0  0
 24 26  1  0  0  0  0
 24 27  1  0  0  0  0
M  CHG  1  18  -1
M  END
$$$$

  -OEChem-04042215583D

 27 26  0     1  0  0  0  0  0999 V2000
   -2.7325   -3.7902    0.4889 H   0  0  0  0  0  0  0  0  0  0  0  0
   -2.6043   -2.8540   -0.0619 C   0  0  0  0  0  0  0  0  0  0  0  0
   -3.2508   -2.0941    0.3836 H   0  0  0  0  0  0  0  0  0  0  0  0
   -2.9012   -3.0127   -1.1015 H   0  0  0  0  0  0  0  0  0  0  0  0
   -1.1553   -2.4036    0.0005 C   0  0  0  0  0  0  0  0  0  0  0  0
   -0.3245   -3.1279    0.5190 O   0  0  0  0  0  0  0  0  0  0  0  0
   -0.8011   -1.2042   -0.5826 N   0  0  0  0  0  0  0  0  0  0  0  0
   -1.5599   -0.6475   -0.9599 H   0  0  0  0  0  0  0  0  0  0  0  0
    0.4968   -0.5290   -0.3815 C   0  0  1  0  0  0  0  0  0  0  0  0
    1.2954   -1.2240   -0.6657 H   0  0  0  0  0  0  0  0  0  0  0  0
    0.5084    0.6340   -1.4183 C   0  0  0  0  0  0  0  0  0  0  0  0
    1.3436    0.4582   -2.1047 H   0  0  0  0  0  0  0  0  0  0  0  0
   -0.3983    0.5966   -2.0308 H   0  0  0  0  0  0  0  0  0  0  0  0
    0.6298    2.0758   -0.8827 C   0  0  0  0  0  0  0  0  0  0  0  0
    0.3738    2.7551   -1.7007 H   0  0  0  0  0  0  0  0  0  0  0  0
   -0.1057    2.2431   -0.0919 H   0  0  0  0  0  0  0  0  0  0  0  0
    2.0215    2.4835   -0.3973 C   0  0  0  0  0  0  0  0  0  0  0  0
    3.0001    2.2449   -1.1464 O   0  5  0  0  0  0  0  0  0  0  0  0
    2.0730    3.1405    0.6709 O   0  0  0  0  0  0  0  0  0  0  0  0
    0.7994   -0.1547    1.0911 C   0  0  0  0  0  0  0  0  0  0  0  0
    1.8122   -0.5810    1.6313 O   0  0  0  0  0  0  0  0  0  0  0  0
   -0.1775    0.4357    1.8753 N   0  0  0  0  0  0  0  0  0  0  0  0
   -0.8769    0.9474    1.3516 H   0  0  0  0  0  0  0  0  0  0  0  0
    0.1273    0.9111    3.2176 C   0  0  0  0  0  0  0  0  0  0  0  0
    0.9382    1.6468    3.1855 H   0  0  0  0  0  0  0  0  0  0  0  0
   -0.7547    1.3847    3.6579 H   0  0  0  0  0  0  0  0  0  0  0  0
    0.4293    0.0788    3.8615 H   0  0  0  0  0  0  0  0  0  0  0  0
  1  2  1  0  0  0  0
  2  3  1  0  0  0  0
  2  4  1  0  0  0  0
  2  5  1  0  0  0  0
  5  6  2  0  0  0  0
  5  7  1  0  0  0  0
  7  8  1  0  0  0  0
  7  9  1  0  0  0  0
  9 10  1  0  0  0  0
  9 11  1  0  0  0  0
  9 20  1  0  0  0  0
 11 12  1  0  0  0  0
 11 13  1  0  0  0  0
 11 14  1  0  0  0  0
 14 15  1  0  0  0  0
 14 16  1  0  0  0  0
 14 17  1  0  0  0  0
 17 18  1  0  0  0  0
 17 19  2  0  0  0  0
 20 21  2  0  0  0  0
 20 22  1  0  0  0  0
 22 23  1  0  0  0  0
 22 24  1  0  0  0  0
 24 25  1  0  0  0  0
 24 26  1  0  0  0  0
 24 27  1  0  0  0  0
M  CHG  1  18  -1
M  END
$$$$

  -OEChem-04042215583D

 27 26  0     1  0  0  0  0  0999 V2000
   -2.7166   -3.8284    0.4421 H   0  0  0  0  0  0  0  0  0  0  0  0
   -2.5927   -2.8875   -0.1016 C   0  0  0  0  0  0  0  0  0  0  0  0
   -3.2824   -2.1488    0.3137 H   0  0  0  0  0  0  0  0  0  0  0  0
   -2.8363   -3.0536   -1.1538 H   0  0  0  0  0  0  0  0  0  0  0  0
   -1.1632   -2.3923    0.0270 C   0  0  0  0  0  0  0  0  0  0  0  0
   -0.3401   -3.0791    0.6050 O   0  0  0  0  0  0  0  0  0  0  0  0
   -0.8163   -1.1896   -0.5536 N   0  0  0  0  0  0  0  0  0  0  0  0
   -1.5622   -0.6680   -1.0007 H   0  0  0  0  0  0  0  0  0  0  0  0
    0.4795   -0.5062   -0.3690 C   0  0  1  0  0  0  0  0  0  0  0  0
    1.2736   -1.2054   -0.6547 H   0  0  0  0  0  0  0  0  0  0  0  0
    0.4996    0.6492   -1.4135 C   0  0  0  0  0  0  0  0  0  0  0  0
    1.3170    0.4531   -2.1153 H   0  0  0  0  0  0  0  0  0  0  0  0
   -0.4176    0.6131   -2.0102 H   0  0  0  0  0  0  0  0  0  0  0  0
    0.6282    2.0984   -0.8898 C   0  0  0  0  0  0  0  0  0  0  0  0
    0.1464    2.7528   -1.6219 H   0  0  0  0  0  0  0  0  0  0  0  0
    0.0818    2.2300    0.0454 H   0  0  0  0  0  0  0  0  0  0  0  0
    2.0631    2.6122   -0.7451 C   0  0  0  0  0  0  0  0  0  0  0  0
    2.8583    2.4233   -1.6992 O   0  5  0  0  0  0  0  0  0  0  0  0
    2.3123    3.3058    0.2703 O   0  0  0  0  0  0  0  0  0  0  0  0
    0.7976   -0.1348    1.1010 C   0  0  0  0  0  0  0  0  0  0  0  0
    1.8475   -0.5009    1.6133 O   0  0  0  0  0  0  0  0  0  0  0  0
   -0.1724    0.4443    1.9021 N   0  0  0  0  0  0  0  0  0  0  0  0
   -0.9228    0.9011    1.3984 H   0  0  0  0  0  0  0  0  0  0  0  0
    0.1277    0.9140    3.2470 C   0  0  0  0  0  0  0  0  0  0  0  0
    0.9200    1.6696    3.2186 H   0  0  0  0  0  0  0  0  0  0  0  0
   -0.7638    1.3608    3.6964 H   0  0  0  0  0  0  0  0  0  0  0  0
    0.4531    0.0824    3.8805 H   0  0  0  0  0  0  0  0  0  0  0  0
  1  2  1  0  0  0  0
  2  3  1  0  0  0  0
  2  4  1  0  0  0  0
  2  5  1  0  0  0  0
  5  6  2  0  0  0  0
  5  7  1  0  0  0  0
  7  8  1  0  0  0  0
  7  9  1  0  0  0  0
  9 10  1  0  0  0  0
  9 11  1  0  0  0  0
  9 20  1  0  0  0  0
 11 12  1  0  0  0  0
 11 13  1  0  0  0  0
 11 14  1  0  0  0  0
 14 15  1  0  0  0  0
 14 16  1  0  0  0  0
 14 17  1  0  0  0  0
 17 18  1  0  0  0  0
 17 19  2  0  0  0  0
 20 21  2  0  0  0  0
 20 22  1  0  0  0  0
 22 23  1  0  0  0  0
 22 24  1  0  0  0  0
 24 25  1  0  0  0  0
 24 26  1  0  0  0  0
 24 27  1  0  0  0  0
M  CHG  1  18  -1
M  END
$$$$

  -OEChem-04042215583D

 27 26  0     1  0  0  0  0  0999 V2000
   -2.6895   -3.8683    0.3839 H   0  0  0  0  0  0  0  0  0  0  0  0
   -2.5794   -2.9073   -0.1268 C   0  0  0  0  0  0  0  0  0  0  0  0
   -3.2905   -2.1977    0.3033 H   0  0  0  0  0  0  0  0  0  0  0  0
   -2.8066   -3.0440   -1.1870 H   0  0  0  0  0  0  0  0  0  0  0  0
   -1.1626   -2.3858    0.0372 C   0  0  0  0  0  0  0  0  0  0  0  0
   -0.3437   -3.0529    0.6438 O   0  0  0  0  0  0  0  0  0  0  0  0
   -0.8211   -1.1779   -0.5359 N   0  0  0  0  0  0  0  0  0  0  0  0
   -1.5555   -0.6788   -1.0263 H   0  0  0  0  0  0  0  0  0  0  0  0
    0.4729   -0.4900   -0.3550 C   0  0  1  0  0  0  0  0  0  0  0  0
    1.2667   -1.1883   -0.6437 H   0  0  0  0  0  0  0  0  0  0  0  0
    0.4932    0.6662   -1.3995 C   0  0  0  0  0  0  0  0  0  0  0  0
    1.3144    0.4591   -2.0937 H   0  0  0  0  0  0  0  0  0  0  0  0
   -0.4180    0.6236   -2.0045 H   0  0  0  0  0  0  0  0  0  0  0  0
    0.6217    2.1262   -0.8923 C   0  0  0  0  0  0  0  0  0  0  0  0
   -0.0804    2.7363   -1.4677 H   0  0  0  0  0  0  0  0  0  0  0  0
    0.3245    2.2253    0.1515 H   0  0  0  0  0  0  0  0  0  0  0  0
    2.0045    2.7531   -1.0985 C   0  0  0  0  0  0  0  0  0  0  0  0
    2.5319    2.6514   -2.2349 O   0  5  0  0  0  0  0  0  0  0  0  0
    2.4671    3.4378   -0.1545 O   0  0  0  0  0  0  0  0  0  0  0  0
    0.7930   -0.1298    1.1168 C   0  0  0  0  0  0  0  0  0  0  0  0
    1.8699   -0.4401    1.6098 O   0  0  0  0  0  0  0  0  0  0  0  0
   -0.1785    0.4365    1.9253 N   0  0  0  0  0  0  0  0  0  0  0  0
   -0.9691    0.8370    1.4351 H   0  0  0  0  0  0  0  0  0  0  0  0
    0.1161    0.9180    3.2670 C   0  0  0  0  0  0  0  0  0  0  0  0
    0.8681    1.7132    3.2298 H   0  0  0  0  0  0  0  0  0  0  0  0
   -0.7906    1.3166    3.7310 H   0  0  0  0  0  0  0  0  0  0  0  0
    0.4934    0.1030    3.8930 H   0  0  0  0  0  0  0  0  0  0  0  0
  1  2  1  0  0  0  0
  2  3  1  0  0  0  0
  2  4  1  0  0  0  0
  2  5  1  0  0  0  0
  5  6  2  0  0  0  0
  5  7  1  0  0  0  0
  7  8  1  0  0  0  0
  7  9  1  0  0  0  0
  9 10  1  0  0  0  0
  9 11  1  0  0  0  0
  9 20  1  0  0  0  0
 11 12  1  0  0  0  0
 11 13  1  0  0  0  0
 11 14  1  0  0  0  0
 14 15  1  0  0  0  0
 14 16  1  0  0  0  0
 14 17  1  0  0  0  0
 17 18  1  0  0  0  0
 17 19  2  0  0  0  0
 20 21  2  0  0  0  0
 20 22  1  0  0  0  0
 22 23  1  0  0  0  0
 22 24  1  0  0  0  0
 24 25  1  0  0  0  0
 24 26  1  0  0  0  0
 24 27  1  0  0  0  0
M  CHG  1  18  -1
M  END
$$$$

  -OEChem-04042215583D

 27 26  0     1  0  0  0  0  0999 V2000
   -2.6697   -3.8797    0.3442 H   0  0  0  0  0  0  0  0  0  0  0  0
   -2.5589   -2.9128   -0.1551 C   0  0  0  0  0  0  0  0  0  0  0  0
   -3.2888   -2.2153    0.2633 H   0  0  0  0  0  0  0  0  0  0  0  0
   -2.7589   -3.0429   -1.2216 H   0  0  0  0  0  0  0  0  0  0  0  0
   -1.1530   -2.3755    0.0466 C   0  0  0  0  0  0  0  0  0  0  0  0
   -0.3437   -3.0296    0.6799 O   0  0  0  0  0  0  0  0  0  0  0  0
   -0.8096   -1.1658   -0.5214 N   0  0  0  0  0  0  0  0  0  0  0  0
   -1.5287   -0.6863   -1.0530 H   0  0  0  0  0  0  0  0  0  0  0  0
    0.4843   -0.4777   -0.3434 C   0  0  1  0  0  0  0  0  0  0  0  0
    1.2815   -1.1675   -0.6428 H   0  0  0  0  0  0  0  0  0  0  0  0
    0.4762    0.6905   -1.3756 C   0  0  0  0  0  0  0  0  0  0  0  0
    1.3126    0.4937   -2.0550 H   0  0  0  0  0  0  0  0  0  0  0  0
   -0.4232    0.6395   -1.9980 H   0  0  0  0  0  0  0  0  0  0  0  0
    0.6003    2.1538   -0.8723 C   0  0  0  0  0  0  0  0  0  0  0  0
   -0.2919    2.7033   -1.1858 H   0  0  0  0  0  0  0  0  0  0  0  0
    0.6391    2.2155    0.2147 H   0  0  0  0  0  0  0  0  0  0  0  0
    1.8245    2.8845   -1.4343 C   0  0  0  0  0  0  0  0  0  0  0  0
    1.9682    2.8892   -2.6834 O   0  5  0  0  0  0  0  0  0  0  0  0
    2.5511    3.5149   -0.6292 O   0  0  0  0  0  0  0  0  0  0  0  0
    0.7982   -0.1279    1.1314 C   0  0  0  0  0  0  0  0  0  0  0  0
    1.8885   -0.3993    1.6181 O   0  0  0  0  0  0  0  0  0  0  0  0
   -0.1802    0.4304    1.9369 N   0  0  0  0  0  0  0  0  0  0  0  0
   -0.9924    0.7908    1.4506 H   0  0  0  0  0  0  0  0  0  0  0  0
    0.0970    0.9131    3.2816 C   0  0  0  0  0  0  0  0  0  0  0  0
    0.8299    1.7261    3.2511 H   0  0  0  0  0  0  0  0  0  0  0  0
   -0.8210    1.2886    3.7423 H   0  0  0  0  0  0  0  0  0  0  0  0
    0.4903    0.1045    3.9061 H   0  0  0  0  0  0  0  0  0  0  0  0
  1  2  1  0  0  0  0
  2  3  1  0  0  0  0
  2  4  1  0  0  0  0
  2  5  1  0  0  0  0
  5  6  2  0  0  0  0
  5  7  1  0  0  0  0
  7  8  1  0  0  0  0
  7  9  1  0  0  0  0
  9 10  1  0  0  0  0
  9 11  1  0  0  0  0
  9 20  1  0  0  0  0
 11 12  1  0  0  0  0
 11 13  1  0  0  0  0
 11 14  1  0  0  0  0
 14 15  1  0  0  0  0
 14 16  1  0  0  0  0
 14 17  1  0  0  0  0
 17 18  1  0  0  0  0
 17 19  2  0  0  0  0
 20 21  2  0  0  0  0
 20 22  1  0  0  0  0
 22 23  1  0  0  0  0
 22 24  1  0  0  0  0
 24 25  1  0  0  0  0
 24 26  1  0  0  0  0
 24 27  1  0  0  0  0
M  CHG  1  18  -1
M  END
$$$$

  -OEChem-04042215583D

 27 26  0     1  0  0  0  0  0999 V2000
   -2.6584   -3.8792    0.3361 H   0  0  0  0  0  0  0  0  0  0  0  0
   -2.5461   -2.9182   -0.1741 C   0  0  0  0  0  0  0  0  0  0  0  0
   -3.2886   -2.2210    0.2218 H   0  0  0  0  0  0  0  0  0  0  0  0
   -2.7254   -3.0636   -1.2422 H   0  0  0  0  0  0  0  0  0  0  0  0
   -1.1484   -2.3672    0.0461 C   0  0  0  0  0  0  0  0  0  0  0  0
   -0.3437   -3.0097    0.6971 O   0  0  0  0  0  0  0  0  0  0  0  0
   -0.8052   -1.1579   -0.5225 N   0  0  0  0  0  0  0  0  0  0  0  0
   -1.5151   -0.6913   -1.0780 H   0  0  0  0  0  0  0  0  0  0  0  0
    0.4899   -0.4714   -0.3492 C   0  0  1  0  0  0  0  0  0  0  0  0
    1.2883   -1.1536   -0.6617 H   0  0  0  0  0  0  0  0  0  0  0  0
    0.4585    0.7135   -1.3602 C   0  0  0  0  0  0  0  0  0  0  0  0
    1.3063    0.5371   -2.0318 H   0  0  0  0  0  0  0  0  0  0  0  0
   -0.4340    0.6686   -1.9930 H   0  0  0  0  0  0  0  0  0  0  0  0
    0.5851    2.1652   -0.8288 C   0  0  0  0  0  0  0  0  0  0  0  0
   -0.4006    2.6385   -0.8323 H   0  0  0  0  0  0  0  0  0  0  0  0
    0.9553    2.1892    0.1969 H   0  0  0  0  0  0  0  0  0  0  0  0
    1.5550    3.0052   -1.6670 C   0  0  0  0  0  0  0  0  0  0  0  0
    1.3678    3.0196   -2.9104 O   0  5  0  0  0  0  0  0  0  0  0  0
    2.4217    3.6855   -1.0673 O   0  0  0  0  0  0  0  0  0  0  0  0
    0.8034   -0.1254    1.1261 C   0  0  0  0  0  0  0  0  0  0  0  0
    1.9041   -0.3690    1.6046 O   0  0  0  0  0  0  0  0  0  0  0  0
   -0.1764    0.4316    1.9303 N   0  0  0  0  0  0  0  0  0  0  0  0
   -0.9980    0.7739    1.4461 H   0  0  0  0  0  0  0  0  0  0  0  0
    0.0920    0.9124    3.2774 C   0  0  0  0  0  0  0  0  0  0  0  0
    0.8143    1.7348    3.2519 H   0  0  0  0  0  0  0  0  0  0  0  0
   -0.8319    1.2733    3.7385 H   0  0  0  0  0  0  0  0  0  0  0  0
    0.4948    0.1062    3.8992 H   0  0  0  0  0  0  0  0  0  0  0  0
  1  2  1  0  0  0  0
  2  3  1  0  0  0  0
  2  4  1  0  0  0  0
  2  5  1  0  0  0  0
  5  6  2  0  0  0  0
  5  7  1  0  0  0  0
  7  8  1  0  0  0  0
  7  9  1  0  0  0  0
  9 10  1  0  0  0  0
  9 11  1  0  0  0  0
  9 20  1  0  0  0  0
 11 12  1  0  0  0  0
 11 13  1  0  0  0  0
 11 14  1  0  0  0  0
 14 15  1  0  0  0  0
 14 16  1  0  0  0  0
 14 17  1  0  0  0  0
 17 18  1  0  0  0  0
 17 19  2  0  0  0  0
 20 21  2  0  0  0  0
 20 22  1  0  0  0  0
 22 23  1  0  0  0  0
 22 24  1  0  0  0  0
 24 25  1  0  0  0  0
 24 26  1  0  0  0  0
 24 27  1  0  0  0  0
M  CHG  1  18  -1
M  END
$$$$

  -OEChem-04042215583D

 27 26  0     1  0  0  0  0  0999 V2000
   -2.6512   -3.8901    0.3064 H   0  0  0  0  0  0  0  0  0  0  0  0
   -2.5415   -2.9251   -0.1964 C   0  0  0  0  0  0  0  0  0  0  0  0
   -3.2922   -2.2359    0.1978 H   0  0  0  0  0  0  0  0  0  0  0  0
   -2.7119   -3.0648   -1.2668 H   0  0  0  0  0  0  0  0  0  0  0  0
   -1.1494   -2.3659    0.0384 C   0  0  0  0  0  0  0  0  0  0  0  0
   -0.3478   -3.0018    0.7001 O   0  0  0  0  0  0  0  0  0  0  0  0
   -0.8054   -1.1575   -0.5310 N   0  0  0  0  0  0  0  0  0  0  0  0
   -1.5095   -0.6967   -1.0992 H   0  0  0  0  0  0  0  0  0  0  0  0
    0.4898   -0.4721   -0.3587 C   0  0  1  0  0  0  0  0  0  0  0  0
    1.2890   -1.1488   -0.6804 H   0  0  0  0  0  0  0  0  0  0  0  0
    0.4462    0.7258   -1.3501 C   0  0  0  0  0  0  0  0  0  0  0  0
    1.2918    0.5743   -2.0308 H   0  0  0  0  0  0  0  0  0  0  0  0
   -0.4535    0.6947   -1.9743 H   0  0  0  0  0  0  0  0  0  0  0  0
    0.5771    2.1549   -0.7742 C   0  0  0  0  0  0  0  0  0  0  0  0
   -0.4087    2.5330   -0.4900 H   0  0  0  0  0  0  0  0  0  0  0  0
    1.2108    2.1618    0.1157 H   0  0  0  0  0  0  0  0  0  0  0  0
    1.2294    3.1023   -1.7858 C   0  0  0  0  0  0  0  0  0  0  0  0
    0.7235    3.1374   -2.9365 O   0  5  0  0  0  0  0  0  0  0  0  0
    2.1815    3.8232   -1.4015 O   0  0  0  0  0  0  0  0  0  0  0  0
    0.8060   -0.1245    1.1157 C   0  0  0  0  0  0  0  0  0  0  0  0
    1.9155   -0.3465    1.5854 O   0  0  0  0  0  0  0  0  0  0  0  0
   -0.1719    0.4343    1.9205 N   0  0  0  0  0  0  0  0  0  0  0  0
   -0.9997    0.7640    1.4375 H   0  0  0  0  0  0  0  0  0  0  0  0
    0.1024    0.9369    3.2583 C   0  0  0  0  0  0  0  0  0  0  0  0
    0.7939    1.7845    3.2120 H   0  0  0  0  0  0  0  0  0  0  0  0
   -0.8258    1.2688    3.7323 H   0  0  0  0  0  0  0  0  0  0  0  0
    0.5445    0.1520    3.8806 H   0  0  0  0  0  0  0  0  0  0  0  0
  1  2  1  0  0  0  0
  2  3  1  0  0  0  0
  2  4  1  0  0  0  0
  2  5  1  0  0  0  0
  5  6  2  0  0  0  0
  5  7  1  0  0  0  0
  7  8  1  0  0  0  0
  7  9  1  0  0  0  0
  9 10  1  0  0  0  0
  9 11  1  0  0  0  0
  9 20  1  0  0  0  0
 11 12  1  0  0  0  0
 11 13  1  0  0  0  0
 11 14  1  0  0  0  0
 14 15  1  0  0  0  0
 14 16  1  0  0  0  0
 14 17  1  0  0  0  0
 17 18  1  0  0  0  0
 17 19  2  0  0  0  0
 20 21  2  0  0  0  0
 20 22  1  0  0  0  0
 22 23  1  0  0  0  0
 22 24  1  0  0  0  0
 24 25  1  0  0  0  0
 24 26  1  0  0  0  0
 24 27  1  0  0  0  0
M  CHG  1  18  -1
M  END
$$$$

  -OEChem-04042215583D

 27 26  0     1  0  0  0  0  0999 V2000
   -2.6294   -3.8994    0.2941 H   0  0  0  0  0  0  0  0  0  0  0  0
   -2.5268   -2.9298   -0.2013 C   0  0  0  0  0  0  0  0  0  0  0  0
   -3.2706   -2.2434    0.2107 H   0  0  0  0  0  0  0  0  0  0  0  0
   -2.7131   -3.0593   -1.2702 H   0  0  0  0  0  0  0  0  0  0  0  0
   -1.1310   -2.3735    0.0169 C   0  0  0  0  0  0  0  0  0  0  0  0
   -0.3197   -3.0136    0.6628 O   0  0  0  0  0  0  0  0  0  0  0  0
   -0.7935   -1.1623   -0.5502 N   0  0  0  0  0  0  0  0  0  0  0  0
   -1.5102   -0.6899   -1.0934 H   0  0  0  0  0  0  0  0  0  0  0  0
    0.4951   -0.4675   -0.3697 C   0  0  1  0  0  0  0  0  0  0  0  0
    1.3016   -1.1355   -0.6911 H   0  0  0  0  0  0  0  0  0  0  0  0
    0.4484    0.7378   -1.3491 C   0  0  0  0  0  0  0  0  0  0  0  0
    1.2898    0.6132   -2.0397 H   0  0  0  0  0  0  0  0  0  0  0  0
   -0.4594    0.7134   -1.9620 H   0  0  0  0  0  0  0  0  0  0  0  0
    0.5700    2.1435   -0.7301 C   0  0  0  0  0  0  0  0  0  0  0  0
   -0.3567    2.4104   -0.2148 H   0  0  0  0  0  0  0  0  0  0  0  0
    1.3865    2.1733   -0.0026 H   0  0  0  0  0  0  0  0  0  0  0  0
    0.8718    3.1764   -1.8168 C   0  0  0  0  0  0  0  0  0  0  0  0
   -0.0429    3.3933   -2.6516 O   0  5  0  0  0  0  0  0  0  0  0  0
    1.9918    3.7413   -1.8180 O   0  0  0  0  0  0  0  0  0  0  0  0
    0.8044   -0.1158    1.1054 C   0  0  0  0  0  0  0  0  0  0  0  0
    1.9169   -0.3202    1.5763 O   0  0  0  0  0  0  0  0  0  0  0  0
   -0.1799    0.4368    1.9065 N   0  0  0  0  0  0  0  0  0  0  0  0
   -1.0089    0.7579    1.4191 H   0  0  0  0  0  0  0  0  0  0  0  0
    0.0886    0.9529    3.2402 C   0  0  0  0  0  0  0  0  0  0  0  0
    0.7974    1.7858    3.1908 H   0  0  0  0  0  0  0  0  0  0  0  0
   -0.8383    1.3102    3.6981 H   0  0  0  0  0  0  0  0  0  0  0  0
    0.5078    0.1679    3.8780 H   0  0  0  0  0  0  0  0  0  0  0  0
  1  2  1  0  0  0  0
  2  3  1  0  0  0  0
  2  4  1  0  0  0  0
  2  5  1  0  0  0  0
  5  6  2  0  0  0  0
  5  7  1  0  0  0  0
  7  8  1  0  0  0  0
  7  9  1  0  0  0  0
  9 10  1  0  0  0  0
  9 11  1  0  0  0  0
  9 20  1  0  0  0  0
 11 12  1  0  0  0  0
 11 13  1  0  0  0  0
 11 14  1  0  0  0  0
 14 15  1  0  0  0  0
 14 16  1  0  0  0  0
 14 17  1  0  0  0  0
 17 18  1  0  0  0  0
 17 19  2  0  0  0  0
 20 21  2  0  0  0  0
 20 22  1  0  0  0  0
 22 23  1  0  0  0  0
 22 24  1  0  0  0  0
 24 25  1  0  0  0  0
 24 26  1  0  0  0  0
 24 27  1  0  0  0  0
M  CHG  1  18  -1
M  END
$$$$

  -OEChem-04042215583D

 27 26  0     1  0  0  0  0  0999 V2000
   -2.6270   -3.8831    0.3108 H   0  0  0  0  0  0  0  0  0  0  0  0
   -2.5224   -2.9171   -0.1913 C   0  0  0  0  0  0  0  0  0  0  0  0
   -3.2532   -2.2216    0.2291 H   0  0  0  0  0  0  0  0  0  0  0  0
   -2.7272   -3.0503   -1.2565 H   0  0  0  0  0  0  0  0  0  0  0  0
   -1.1178   -2.3734    0.0023 C   0  0  0  0  0  0  0  0  0  0  0  0
   -0.3031   -3.0188    0.6388 O   0  0  0  0  0  0  0  0  0  0  0  0
   -0.7765   -1.1670   -0.5730 N   0  0  0  0  0  0  0  0  0  0  0  0
   -1.4974   -0.6877   -1.1045 H   0  0  0  0  0  0  0  0  0  0  0  0
    0.5136   -0.4746   -0.3908 C   0  0  1  0  0  0  0  0  0  0  0  0
    1.3291   -1.1352   -0.7042 H   0  0  0  0  0  0  0  0  0  0  0  0
    0.4752    0.7410   -1.3547 C   0  0  0  0  0  0  0  0  0  0  0  0
    1.0885    0.4988   -2.2294 H   0  0  0  0  0  0  0  0  0  0  0  0
   -0.5468    0.8975   -1.7178 H   0  0  0  0  0  0  0  0  0  0  0  0
    0.9579    2.0845   -0.7827 C   0  0  0  0  0  0  0  0  0  0  0  0
    0.3452    2.3846    0.0715 H   0  0  0  0  0  0  0  0  0  0  0  0
    1.9956    2.0005   -0.4454 H   0  0  0  0  0  0  0  0  0  0  0  0
    0.8524    3.1665   -1.8561 C   0  0  0  0  0  0  0  0  0  0  0  0
   -0.2916    3.6466   -2.0602 O   0  5  0  0  0  0  0  0  0  0  0  0
    1.8829    3.4669   -2.5062 O   0  0  0  0  0  0  0  0  0  0  0  0
    0.8034   -0.1198    1.0881 C   0  0  0  0  0  0  0  0  0  0  0  0
    1.9098   -0.3215    1.5748 O   0  0  0  0  0  0  0  0  0  0  0  0
   -0.1908    0.4365    1.8746 N   0  0  0  0  0  0  0  0  0  0  0  0
   -1.0104    0.7644    1.3751 H   0  0  0  0  0  0  0  0  0  0  0  0
    0.0572    0.9441    3.2156 C   0  0  0  0  0  0  0  0  0  0  0  0
    0.7722    1.7725    3.1834 H   0  0  0  0  0  0  0  0  0  0  0  0
   -0.8753    1.3053    3.6589 H   0  0  0  0  0  0  0  0  0  0  0  0
    0.4594    0.1526    3.8561 H   0  0  0  0  0  0  0  0  0  0  0  0
  1  2  1  0  0  0  0
  2  3  1  0  0  0  0
  2  4  1  0  0  0  0
  2  5  1  0  0  0  0
  5  6  2  0  0  0  0
  5  7  1  0  0  0  0
  7  8  1  0  0  0  0
  7  9  1  0  0  0  0
  9 10  1  0  0  0  0
  9 11  1  0  0  0  0
  9 20  1  0  0  0  0
 11 12  1  0  0  0  0
 11 13  1  0  0  0  0
 11 14  1  0  0  0  0
 14 15  1  0  0  0  0
 14 16  1  0  0  0  0
 14 17  1  0  0  0  0
 17 18  1  0  0  0  0
 17 19  2  0  0  0  0
 20 21  2  0  0  0  0
 20 22  1  0  0  0  0
 22 23  1  0  0  0  0
 22 24  1  0  0  0  0
 24 25  1  0  0  0  0
 24 26  1  0  0  0  0
 24 27  1  0  0  0  0
M  CHG  1  18  -1
M  END
$$$$

  -OEChem-04042215583D

 27 26  0     1  0  0  0  0  0999 V2000
   -2.7366   -3.7859    0.4376 H   0  0  0  0  0  0  0  0  0  0  0  0
   -2.6294   -2.8205   -0.0648 C   0  0  0  0  0  0  0  0  0  0  0  0
   -3.2891   -2.0969    0.4203 H   0  0  0  0  0  0  0  0  0  0  0  0
   -2.9281   -2.9317   -1.1102 H   0  0  0  0  0  0  0  0  0  0  0  0
   -1.1901   -2.3443    0.0161 C   0  0  0  0  0  0  0  0  0  0  0  0
   -0.3531   -3.0404    0.5650 O   0  0  0  0  0  0  0  0  0  0  0  0
   -0.8451   -1.1394   -0.5598 N   0  0  0  0  0  0  0  0  0  0  0  0
   -1.5933   -0.6033   -0.9907 H   0  0  0  0  0  0  0  0  0  0  0  0
    0.4716   -0.4867   -0.4274 C   0  0  1  0  0  0  0  0  0  0  0  0
    1.2505   -1.1717   -0.7792 H   0  0  0  0  0  0  0  0  0  0  0  0
    0.4383    0.7336   -1.3871 C   0  0  0  0  0  0  0  0  0  0  0  0
    0.9947    0.4783   -2.2951 H   0  0  0  0  0  0  0  0  0  0  0  0
   -0.5977    0.9127   -1.6958 H   0  0  0  0  0  0  0  0  0  0  0  0
    0.9835    2.0692   -0.8434 C   0  0  0  0  0  0  0  0  0  0  0  0
    0.5956    2.2835    0.1544 H   0  0  0  0  0  0  0  0  0  0  0  0
    2.0750    2.0283   -0.7777 H   0  0  0  0  0  0  0  0  0  0  0  0
    0.5459    3.2202   -1.7490 C   0  0  0  0  0  0  0  0  0  0  0  0
    1.3966    3.7346   -2.5144 O   0  5  0  0  0  0  0  0  0  0  0  0
   -0.6700    3.5403   -1.7071 O   0  0  0  0  0  0  0  0  0  0  0  0
    0.8347   -0.1638    1.0420 C   0  0  0  0  0  0  0  0  0  0  0  0
    1.9546   -0.4065    1.4766 O   0  0  0  0  0  0  0  0  0  0  0  0
   -0.1084    0.4078    1.8790 N   0  0  0  0  0  0  0  0  0  0  0  0
   -0.9279    0.7874    1.4161 H   0  0  0  0  0  0  0  0  0  0  0  0
    0.2111    0.8780    3.2183 C   0  0  0  0  0  0  0  0  0  0  0  0
    0.9740    1.6621    3.1761 H   0  0  0  0  0  0  0  0  0  0  0  0
   -0.6837    1.2884    3.6955 H   0  0  0  0  0  0  0  0  0  0  0  0
    0.5837    0.0531    3.8342 H   0  0  0  0  0  0  0  0  0  0  0  0
  1  2  1  0  0  0  0
  2  3  1  0  0  0  0
  2  4  1  0  0  0  0
  2  5  1  0  0  0  0
  5  6  2  0  0  0  0
  5  7  1  0  0  0  0
  7  8  1  0  0  0  0
  7  9  1  0  0  0  0
  9 10  1  0  0  0  0
  9 11  1  0  0  0  0
  9 20  1  0  0  0  0
 11 12  1  0  0  0  0
 11 13  1  0  0  0  0
 11 14  1  0  0  0  0
 14 15  1  0  0  0  0
 14 16  1  0  0  0  0
 14 17  1  0  0  0  0
 17 18  1  0  0  0  0
 17 19  2  0  0  0  0
 20 21  2  0  0  0  0
 20 22  1  0  0  0  0
 22 23  1  0  0  0  0
 22 24  1  0  0  0  0
 24 25  1  0  0  0  0
 24 26  1  0  0  0  0
 24 27  1  0  0  0  0
M  CHG  1  18  -1
M  END
$$$$

  -OEChem-04042215583D

 27 26  0     1  0  0  0  0  0999 V2000
   -2.7313   -3.7725    0.4731 H   0  0  0  0  0  0  0  0  0  0  0  0
   -2.6222   -2.8082   -0.0314 C   0  0  0  0  0  0  0  0  0  0  0  0
   -3.2583   -2.0748    0.4706 H   0  0  0  0  0  0  0  0  0  0  0  0
   -2.9492   -2.9136   -1.0689 H   0  0  0  0  0  0  0  0  0  0  0  0
   -1.1742   -2.3531    0.0122 C   0  0  0  0  0  0  0  0  0  0  0  0
   -0.3308   -3.0663    0.5288 O   0  0  0  0  0  0  0  0  0  0  0  0
   -0.8286   -1.1488   -0.5642 N   0  0  0  0  0  0  0  0  0  0  0  0
   -1.5871   -0.5887   -0.9440 H   0  0  0  0  0  0  0  0  0  0  0  0
    0.4883   -0.4979   -0.4249 C   0  0  1  0  0  0  0  0  0  0  0  0
    1.2704   -1.1811   -0.7730 H   0  0  0  0  0  0  0  0  0  0  0  0
    0.4517    0.7251   -1.3843 C   0  0  0  0  0  0  0  0  0  0  0  0
    1.0030    0.4707   -2.2951 H   0  0  0  0  0  0  0  0  0  0  0  0
   -0.5867    0.8890   -1.6936 H   0  0  0  0  0  0  0  0  0  0  0  0
    0.9893    2.0763   -0.8575 C   0  0  0  0  0  0  0  0  0  0  0  0
    0.8348    2.1993    0.2146 H   0  0  0  0  0  0  0  0  0  0  0  0
    2.0655    2.1424   -1.0430 H   0  0  0  0  0  0  0  0  0  0  0  0
    0.2557    3.2346   -1.5326 C   0  0  0  0  0  0  0  0  0  0  0  0
    0.8574    3.8928   -2.4150 O   0  5  0  0  0  0  0  0  0  0  0  0
   -0.9440    3.4111   -1.1955 O   0  0  0  0  0  0  0  0  0  0  0  0
    0.8338   -0.1792    1.0490 C   0  0  0  0  0  0  0  0  0  0  0  0
    1.9493   -0.4222    1.4956 O   0  0  0  0  0  0  0  0  0  0  0  0
   -0.1220    0.3915    1.8723 N   0  0  0  0  0  0  0  0  0  0  0  0
   -0.9138    0.8035    1.3868 H   0  0  0  0  0  0  0  0  0  0  0  0
    0.1886    0.8782    3.2077 C   0  0  0  0  0  0  0  0  0  0  0  0
    0.9273    1.6846    3.1572 H   0  0  0  0  0  0  0  0  0  0  0  0
   -0.7163    1.2642    3.6858 H   0  0  0  0  0  0  0  0  0  0  0  0
    0.5875    0.0693    3.8281 H   0  0  0  0  0  0  0  0  0  0  0  0
  1  2  1  0  0  0  0
  2  3  1  0  0  0  0
  2  4  1  0  0  0  0
  2  5  1  0  0  0  0
  5  6  2  0  0  0  0
  5  7  1  0  0  0  0
  7  8  1  0  0  0  0
  7  9  1  0  0  0  0
  9 10  1  0  0  0  0
  9 11  1  0  0  0  0
  9 20  1  0  0  0  0
 11 12  1  0  0  0  0
 11 13  1  0  0  0  0
 11 14  1  0  0  0  0
 14 15  1  0  0  0  0
 14 16  1  0  0  0  0
 14 17  1  0  0  0  0
 17 18  1  0  0  0  0
 17 19  2  0  0  0  0
 20 21  2  0  0  0  0
 20 22  1  0  0  0  0
 22 23  1  0  0  0  0
 22 24  1  0  0  0  0
 24 25  1  0  0  0  0
 24 26  1  0  0  0  0
 24 27  1  0  0  0  0
M  CHG  1  18  -1
M  END
$$$$

  -OEChem-04042215583D

 27 26  0     1  0  0  0  0  0999 V2000
   -2.7049   -3.7470    0.5266 H   0  0  0  0  0  0  0  0  0  0  0  0
   -2.5984   -2.7751    0.0370 C   0  0  0  0  0  0  0  0  0  0  0  0
   -3.1833   -2.0362    0.5903 H   0  0  0  0  0  0  0  0  0  0  0  0
   -2.9873   -2.8483   -0.9816 H   0  0  0  0  0  0  0  0  0  0  0  0
   -1.1386   -2.3597    0.0052 C   0  0  0  0  0  0  0  0  0  0  0  0
   -0.2863   -3.1018    0.4643 O   0  0  0  0  0  0  0  0  0  0  0  0
   -0.7921   -1.1637   -0.5875 N   0  0  0  0  0  0  0  0  0  0  0  0
   -1.5633   -0.5694   -0.8807 H   0  0  0  0  0  0  0  0  0  0  0  0
    0.5253   -0.5159   -0.4386 C   0  0  1  0  0  0  0  0  0  0  0  0
    1.3171   -1.1907   -0.7798 H   0  0  0  0  0  0  0  0  0  0  0  0
    0.4643    0.7130   -1.3902 C   0  0  0  0  0  0  0  0  0  0  0  0
    1.0274    0.4645   -2.2953 H   0  0  0  0  0  0  0  0  0  0  0  0
   -0.5715    0.8566   -1.7188 H   0  0  0  0  0  0  0  0  0  0  0  0
    0.9893    2.0757   -0.8678 C   0  0  0  0  0  0  0  0  0  0  0  0
    1.1344    2.1128    0.2111 H   0  0  0  0  0  0  0  0  0  0  0  0
    1.9634    2.2806   -1.3222 H   0  0  0  0  0  0  0  0  0  0  0  0
    0.0047    3.1853   -1.2316 C   0  0  0  0  0  0  0  0  0  0  0  0
    0.3218    4.0141   -2.1180 O   0  5  0  0  0  0  0  0  0  0  0  0
   -1.1109    3.1426   -0.6480 O   0  0  0  0  0  0  0  0  0  0  0  0
    0.8358   -0.1853    1.0400 C   0  0  0  0  0  0  0  0  0  0  0  0
    1.9294   -0.4566    1.5241 O   0  0  0  0  0  0  0  0  0  0  0  0
   -0.1420    0.3968    1.8295 N   0  0  0  0  0  0  0  0  0  0  0  0
   -0.8709    0.8786    1.3053 H   0  0  0  0  0  0  0  0  0  0  0  0
    0.1332    0.8670    3.1784 C   0  0  0  0  0  0  0  0  0  0  0  0
    0.8876    1.6601    3.1594 H   0  0  0  0  0  0  0  0  0  0  0  0
   -0.7804    1.2656    3.6292 H   0  0  0  0  0  0  0  0  0  0  0  0
    0.4963    0.0456    3.8045 H   0  0  0  0  0  0  0  0  0  0  0  0
  1  2  1  0  0  0  0
  2  3  1  0  0  0  0
  2  4  1  0  0  0  0
  2  5  1  0  0  0  0
  5  6  2  0  0  0  0
  5  7  1  0  0  0  0
  7  8  1  0  0  0  0
  7  9  1  0  0  0  0
  9 10  1  0  0  0  0
  9 11  1  0  0  0  0
  9 20  1  0  0  0  0
 11 12  1  0  0  0  0
 11 13  1  0  0  0  0
 11 14  1  0  0  0  0
 14 15  1  0  0  0  0
 14 16  1  0  0  0  0
 14 17  1  0  0  0  0
 17 18  1  0  0  0  0
 17 19  2  0  0  0  0
 20 21  2  0  0  0  0
 20 22  1  0  0  0  0
 22 23  1  0  0  0  0
 22 24  1  0  0  0  0
 24 25  1  0  0  0  0
 24 26  1  0  0  0  0
 24 27  1  0  0  0  0
M  CHG  1  18  -1
M  END
$$$$

  -OEChem-04042215583D

 27 26  0     1  0  0  0  0  0999 V2000
   -2.6593   -3.6668    0.5415 H   0  0  0  0  0  0  0  0  0  0  0  0
   -2.5404   -2.7198    0.0077 C   0  0  0  0  0  0  0  0  0  0  0  0
   -3.0821   -1.9404    0.5499 H   0  0  0  0  0  0  0  0  0  0  0  0
   -2.9671   -2.8209   -0.9932 H   0  0  0  0  0  0  0  0  0  0  0  0
   -1.0706   -2.3534   -0.0903 C   0  0  0  0  0  0  0  0  0  0  0  0
   -0.2218   -3.1370    0.3032 O   0  0  0  0  0  0  0  0  0  0  0  0
   -0.7120   -1.1599   -0.6805 N   0  0  0  0  0  0  0  0  0  0  0  0
   -1.4846   -0.5310   -0.8857 H   0  0  0  0  0  0  0  0  0  0  0  0
    0.5975   -0.5165   -0.4630 C   0  0  1  0  0  0  0  0  0  0  0  0
    1.4163   -1.1702   -0.7802 H   0  0  0  0  0  0  0  0  0  0  0  0
    0.5286    0.7400   -1.3751 C   0  0  0  0  0  0  0  0  0  0  0  0
    1.1479    0.5277   -2.2523 H   0  0  0  0  0  0  0  0  0  0  0  0
   -0.4871    0.8778   -1.7655 H   0  0  0  0  0  0  0  0  0  0  0  0
    1.0208    2.0839   -0.7778 C   0  0  0  0  0  0  0  0  0  0  0  0
    1.4431    2.0179    0.2246 H   0  0  0  0  0  0  0  0  0  0  0  0
    1.8175    2.4767   -1.4168 H   0  0  0  0  0  0  0  0  0  0  0  0
   -0.1415    3.0722   -0.7844 C   0  0  0  0  0  0  0  0  0  0  0  0
   -1.1166    2.7467   -0.0518 O   0  5  0  0  0  0  0  0  0  0  0  0
   -0.1004    4.0819   -1.5264 O   0  0  0  0  0  0  0  0  0  0  0  0
    0.8065   -0.1894    1.0350 C   0  0  0  0  0  0  0  0  0  0  0  0
    1.8407   -0.5240    1.6040 O   0  0  0  0  0  0  0  0  0  0  0  0
   -0.2238    0.3959    1.7536 N   0  0  0  0  0  0  0  0  0  0  0  0
   -0.8245    1.0015    1.1819 H   0  0  0  0  0  0  0  0  0  0  0  0
   -0.0549    0.7855    3.1445 C   0  0  0  0  0  0  0  0  0  0  0  0
    0.7372    1.5353    3.2377 H   0  0  0  0  0  0  0  0  0  0  0  0
   -0.9859    1.2133    3.5276 H   0  0  0  0  0  0  0  0  0  0  0  0
    0.2039   -0.0833    3.7583 H   0  0  0  0  0  0  0  0  0  0  0  0
  1  2  1  0  0  0  0
  2  3  1  0  0  0  0
  2  4  1  0  0  0  0
  2  5  1  0  0  0  0
  5  6  2  0  0  0  0
  5  7  1  0  0  0  0
  7  8  1  0  0  0  0
  7  9  1  0  0  0  0
  9 10  1  0  0  0  0
  9 11  1  0  0  0  0
  9 20  1  0  0  0  0
 11 12  1  0  0  0  0
 11 13  1  0  0  0  0
 11 14  1  0  0  0  0
 14 15  1  0  0  0  0
 14 16  1  0  0  0  0
 14 17  1  0  0  0  0
 17 18  1  0  0  0  0
 17 19  2  0  0  0  0
 20 21  2  0  0  0  0
 20 22  1  0  0  0  0
 22 23  1  0  0  0  0
 22 24  1  0  0  0  0
 24 25  1  0  0  0  0
 24 26  1  0  0  0  0
 24 27  1  0  0  0  0
M  CHG  1  18  -1
M  END
$$$$

  -OEChem-04042215583D

 27 26  0     1  0  0  0  0  0999 V2000
   -2.6461   -3.6948    0.5378 H   0  0  0  0  0  0  0  0  0  0  0  0
   -2.5464   -2.7329    0.0273 C   0  0  0  0  0  0  0  0  0  0  0  0
   -3.0718   -1.9708    0.6084 H   0  0  0  0  0  0  0  0  0  0  0  0
   -3.0050   -2.8074   -0.9617 H   0  0  0  0  0  0  0  0  0  0  0  0
   -1.0812   -2.3586   -0.1073 C   0  0  0  0  0  0  0  0  0  0  0  0
   -0.2182   -3.1482    0.2419 O   0  0  0  0  0  0  0  0  0  0  0  0
   -0.7448   -1.1493   -0.6777 N   0  0  0  0  0  0  0  0  0  0  0  0
   -1.5272   -0.5151   -0.8239 H   0  0  0  0  0  0  0  0  0  0  0  0
    0.5545   -0.4946   -0.4478 C   0  0  1  0  0  0  0  0  0  0  0  0
    1.3665   -1.1624   -0.7543 H   0  0  0  0  0  0  0  0  0  0  0  0
    0.5287    0.7334   -1.3999 C   0  0  0  0  0  0  0  0  0  0  0  0
    1.1943    0.4907   -2.2341 H   0  0  0  0  0  0  0  0  0  0  0  0
   -0.4637    0.8694   -1.8458 H   0  0  0  0  0  0  0  0  0  0  0  0
    1.0064    2.0821   -0.8148 C   0  0  0  0  0  0  0  0  0  0  0  0
    1.6215    1.9749    0.0805 H   0  0  0  0  0  0  0  0  0  0  0  0
    1.6307    2.5792   -1.5636 H   0  0  0  0  0  0  0  0  0  0  0  0
   -0.2063    2.9773   -0.5365 C   0  0  0  0  0  0  0  0  0  0  0  0
   -1.1605    2.4517    0.1027 O   0  5  0  0  0  0  0  0  0  0  0  0
   -0.1982    4.1541   -0.9683 O   0  0  0  0  0  0  0  0  0  0  0  0
    0.7925   -0.1788    1.0498 C   0  0  0  0  0  0  0  0  0  0  0  0
    1.8452   -0.5106    1.5866 O   0  0  0  0  0  0  0  0  0  0  0  0
   -0.2165    0.3871    1.8085 N   0  0  0  0  0  0  0  0  0  0  0  0
   -0.8400    0.9937    1.2578 H   0  0  0  0  0  0  0  0  0  0  0  0
   -0.0088    0.7686    3.1961 C   0  0  0  0  0  0  0  0  0  0  0  0
    0.7741    1.5302    3.2699 H   0  0  0  0  0  0  0  0  0  0  0  0
   -0.9337    1.1789    3.6117 H   0  0  0  0  0  0  0  0  0  0  0  0
    0.2827   -0.1004    3.7945 H   0  0  0  0  0  0  0  0  0  0  0  0
  1  2  1  0  0  0  0
  2  3  1  0  0  0  0
  2  4  1  0  0  0  0
  2  5  1  0  0  0  0
  5  6  2  0  0  0  0
  5  7  1  0  0  0  0
  7  8  1  0  0  0  0
  7  9  1  0  0  0  0
  9 10  1  0  0  0  0
  9 11  1  0  0  0  0
  9 20  1  0  0  0  0
 11 12  1  0  0  0  0
 11 13  1  0  0  0  0
 11 14  1  0  0  0  0
 14 15  1  0  0  0  0
 14 16  1  0  0  0  0
 14 17  1  0  0  0  0
 17 18  1  0  0  0  0
 17 19  2  0  0  0  0
 20 21  2  0  0  0  0
 20 22  1  0  0  0  0
 22 23  1  0  0  0  0
 22 24  1  0  0  0  0
 24 25  1  0  0  0  0
 24 26  1  0  0  0  0
 24 27  1  0  0  0  0
M  CHG  1  18  -1
M  END
$$$$

  -OEChem-04042215583D

 27 26  0     1  0  0  0  0  0999 V2000
   -2.6380   -3.7514    0.4990 H   0  0  0  0  0  0  0  0  0  0  0  0
   -2.5530   -2.7721    0.0198 C   0  0  0  0  0  0  0  0  0  0  0  0
   -3.0798   -2.0345    0.6309 H   0  0  0  0  0  0  0  0  0  0  0  0
   -3.0212   -2.8180   -0.9665 H   0  0  0  0  0  0  0  0  0  0  0  0
   -1.0931   -2.3788   -0.1170 C   0  0  0  0  0  0  0  0  0  0  0  0
   -0.2189   -3.1624    0.2180 O   0  0  0  0  0  0  0  0  0  0  0  0
   -0.7751   -1.1552   -0.6659 N   0  0  0  0  0  0  0  0  0  0  0  0
   -1.5655   -0.5256   -0.7919 H   0  0  0  0  0  0  0  0  0  0  0  0
    0.5123   -0.4846   -0.4260 C   0  0  1  0  0  0  0  0  0  0  0  0
    1.3189   -1.1634   -0.7225 H   0  0  0  0  0  0  0  0  0  0  0  0
    0.5268    0.7158   -1.4130 C   0  0  0  0  0  0  0  0  0  0  0  0
    1.2235    0.4503   -2.2141 H   0  0  0  0  0  0  0  0  0  0  0  0
   -0.4487    0.8460   -1.8958 H   0  0  0  0  0  0  0  0  0  0  0  0
    0.9872    2.0730   -0.8427 C   0  0  0  0  0  0  0  0  0  0  0  0
    1.7630    1.9477   -0.0832 H   0  0  0  0  0  0  0  0  0  0  0  0
    1.4256    2.6552   -1.6585 H   0  0  0  0  0  0  0  0  0  0  0  0
   -0.1944    2.8783   -0.2755 C   0  0  0  0  0  0  0  0  0  0  0  0
   -1.2318    2.2505    0.0814 O   0  5  0  0  0  0  0  0  0  0  0  0
   -0.0574    4.1210   -0.1941 O   0  0  0  0  0  0  0  0  0  0  0  0
    0.7815   -0.1748    1.0679 C   0  0  0  0  0  0  0  0  0  0  0  0
    1.8623   -0.4756    1.5663 O   0  0  0  0  0  0  0  0  0  0  0  0
   -0.2075    0.3705    1.8644 N   0  0  0  0  0  0  0  0  0  0  0  0
   -0.8835    0.9343    1.3315 H   0  0  0  0  0  0  0  0  0  0  0  0
    0.0525    0.7920    3.2315 C   0  0  0  0  0  0  0  0  0  0  0  0
    0.8095    1.5826    3.2492 H   0  0  0  0  0  0  0  0  0  0  0  0
   -0.8658    1.1788    3.6828 H   0  0  0  0  0  0  0  0  0  0  0  0
    0.4044   -0.0516    3.8338 H   0  0  0  0  0  0  0  0  0  0  0  0
  1  2  1  0  0  0  0
  2  3  1  0  0  0  0
  2  4  1  0  0  0  0
  2  5  1  0  0  0  0
  5  6  2  0  0  0  0
  5  7  1  0  0  0  0
  7  8  1  0  0  0  0
  7  9  1  0  0  0  0
  9 10  1  0  0  0  0
  9 11  1  0  0  0  0
  9 20  1  0  0  0  0
 11 12  1  0  0  0  0
 11 13  1  0  0  0  0
 11 14  1  0  0  0  0
 14 15  1  0  0  0  0
 14 16  1  0  0  0  0
 14 17  1  0  0  0  0
 17 18  1  0  0  0  0
 17 19  2  0  0  0  0
 20 21  2  0  0  0  0
 20 22  1  0  0  0  0
 22 23  1  0  0  0  0
 22 24  1  0  0  0  0
 24 25  1  0  0  0  0
 24 26  1  0  0  0  0
 24 27  1  0  0  0  0
M  CHG  1  18  -1
M  END
$$$$

  -OEChem-04042215583D

 27 26  0     1  0  0  0  0  0999 V2000
   -2.6226   -3.8031    0.4662 H   0  0  0  0  0  0  0  0  0  0  0  0
   -2.5518   -2.8096    0.0148 C   0  0  0  0  0  0  0  0  0  0  0  0
   -3.0825   -2.0959    0.6504 H   0  0  0  0  0  0  0  0  0  0  0  0
   -3.0264   -2.8327   -0.9692 H   0  0  0  0  0  0  0  0  0  0  0  0
   -1.0973   -2.3957   -0.1196 C   0  0  0  0  0  0  0  0  0  0  0  0
   -0.2134   -3.1730    0.2044 O   0  0  0  0  0  0  0  0  0  0  0  0
   -0.7961   -1.1609   -0.6527 N   0  0  0  0  0  0  0  0  0  0  0  0
   -1.5937   -0.5383   -0.7685 H   0  0  0  0  0  0  0  0  0  0  0  0
    0.4833   -0.4775   -0.4083 C   0  0  1  0  0  0  0  0  0  0  0  0
    1.2865   -1.1637   -0.6977 H   0  0  0  0  0  0  0  0  0  0  0  0
    0.5310    0.7036   -1.4191 C   0  0  0  0  0  0  0  0  0  0  0  0
    1.2357    0.4207   -2.2071 H   0  0  0  0  0  0  0  0  0  0  0  0
   -0.4398    0.8309   -1.9113 H   0  0  0  0  0  0  0  0  0  0  0  0
    0.9805    2.0743   -0.8745 C   0  0  0  0  0  0  0  0  0  0  0  0
    1.8913    1.9606   -0.2793 H   0  0  0  0  0  0  0  0  0  0  0  0
    1.2157    2.7248   -1.7216 H   0  0  0  0  0  0  0  0  0  0  0  0
   -0.1050    2.7692   -0.0338 C   0  0  0  0  0  0  0  0  0  0  0  0
   -1.2280    2.2019    0.0924 O   0  5  0  0  0  0  0  0  0  0  0  0
    0.1918    3.8681    0.4885 O   0  0  0  0  0  0  0  0  0  0  0  0
    0.7734   -0.1753    1.0837 C   0  0  0  0  0  0  0  0  0  0  0  0
    1.8686   -0.4649    1.5564 O   0  0  0  0  0  0  0  0  0  0  0  0
   -0.2042    0.3523    1.9061 N   0  0  0  0  0  0  0  0  0  0  0  0
   -0.9023    0.9029    1.3894 H   0  0  0  0  0  0  0  0  0  0  0  0
    0.0950    0.8008    3.2570 C   0  0  0  0  0  0  0  0  0  0  0  0
    0.8365    1.6061    3.2349 H   0  0  0  0  0  0  0  0  0  0  0  0
   -0.8141    1.1786    3.7338 H   0  0  0  0  0  0  0  0  0  0  0  0
    0.4841   -0.0254    3.8606 H   0  0  0  0  0  0  0  0  0  0  0  0
  1  2  1  0  0  0  0
  2  3  1  0  0  0  0
  2  4  1  0  0  0  0
  2  5  1  0  0  0  0
  5  6  2  0  0  0  0
  5  7  1  0  0  0  0
  7  8  1  0  0  0  0
  7  9  1  0  0  0  0
  9 10  1  0  0  0  0
  9 11  1  0  0  0  0
  9 20  1  0  0  0  0
 11 12  1  0  0  0  0
 11 13  1  0  0  0  0
 11 14  1  0  0  0  0
 14 15  1  0  0  0  0
 14 16  1  0  0  0  0
 14 17  1  0  0  0  0
 17 18  1  0  0  0  0
 17 19  2  0  0  0  0
 20 21  2  0  0  0  0
 20 22  1  0  0  0  0
 22 23  1  0  0  0  0
 22 24  1  0  0  0  0
 24 25  1  0  0  0  0
 24 26  1  0  0  0  0
 24 27  1  0  0  0  0
M  CHG  1  18  -1
M  END
$$$$

  -OEChem-04042215583D

 27 26  0     1  0  0  0  0  0999 V2000
   -2.6029   -3.8482    0.4219 H   0  0  0  0  0  0  0  0  0  0  0  0
   -2.5446   -2.8390    0.0050 C   0  0  0  0  0  0  0  0  0  0  0  0
   -3.0810   -2.1535    0.6662 H   0  0  0  0  0  0  0  0  0  0  0  0
   -3.0222   -2.8337   -0.9777 H   0  0  0  0  0  0  0  0  0  0  0  0
   -1.0951   -2.4045   -0.1201 C   0  0  0  0  0  0  0  0  0  0  0  0
   -0.2022   -3.1800    0.1824 O   0  0  0  0  0  0  0  0  0  0  0  0
   -0.8105   -1.1550   -0.6278 N   0  0  0  0  0  0  0  0  0  0  0  0
   -1.6163   -0.5417   -0.7307 H   0  0  0  0  0  0  0  0  0  0  0  0
    0.4603   -0.4585   -0.3751 C   0  0  1  0  0  0  0  0  0  0  0  0
    1.2589   -1.1544   -0.6548 H   0  0  0  0  0  0  0  0  0  0  0  0
    0.5484    0.6945   -1.4196 C   0  0  0  0  0  0  0  0  0  0  0  0
    1.2538    0.3802   -2.1950 H   0  0  0  0  0  0  0  0  0  0  0  0
   -0.4217    0.8113   -1.9152 H   0  0  0  0  0  0  0  0  0  0  0  0
    0.9811    2.0974   -0.9452 C   0  0  0  0  0  0  0  0  0  0  0  0
    1.9916    2.0361   -0.5302 H   0  0  0  0  0  0  0  0  0  0  0  0
    1.0115    2.7699   -1.8070 H   0  0  0  0  0  0  0  0  0  0  0  0
    0.0467    2.7048    0.1106 C   0  0  0  0  0  0  0  0  0  0  0  0
   -1.1328    2.2561    0.1798 O   0  5  0  0  0  0  0  0  0  0  0  0
    0.4971    3.6202    0.8366 O   0  0  0  0  0  0  0  0  0  0  0  0
    0.7688   -0.1739    1.1171 C   0  0  0  0  0  0  0  0  0  0  0  0
    1.8651   -0.4865    1.5724 O   0  0  0  0  0  0  0  0  0  0  0  0
   -0.2010    0.3284    1.9643 N   0  0  0  0  0  0  0  0  0  0  0  0
   -0.8858    0.9133    1.4688 H   0  0  0  0  0  0  0  0  0  0  0  0
    0.1210    0.7415    3.3216 C   0  0  0  0  0  0  0  0  0  0  0  0
    0.8679    1.5421    3.3091 H   0  0  0  0  0  0  0  0  0  0  0  0
   -0.7781    1.1142    3.8209 H   0  0  0  0  0  0  0  0  0  0  0  0
    0.5127   -0.1020    3.8987 H   0  0  0  0  0  0  0  0  0  0  0  0
  1  2  1  0  0  0  0
  2  3  1  0  0  0  0
  2  4  1  0  0  0  0
  2  5  1  0  0  0  0
  5  6  2  0  0  0  0
  5  7  1  0  0  0  0
  7  8  1  0  0  0  0
  7  9  1  0  0  0  0
  9 10  1  0  0  0  0
  9 11  1  0  0  0  0
  9 20  1  0  0  0  0
 11 12  1  0  0  0  0
 11 13  1  0  0  0  0
 11 14  1  0  0  0  0
 14 15  1  0  0  0  0
 14 16  1  0  0  0  0
 14 17  1  0  0  0  0
 17 18  1  0  0  0  0
 17 19  2  0  0  0  0
 20 21  2  0  0  0  0
 20 22  1  0  0  0  0
 22 23  1  0  0  0  0
 22 24  1  0  0  0  0
 24 25  1  0  0  0  0
 24 26  1  0  0  0  0
 24 27  1  0  0  0  0
M  CHG  1  18  -1
M  END
$$$$

  -OEChem-04042215583D

 27 26  0     1  0  0  0  0  0999 V2000
   -2.5409   -3.8921    0.4147 H   0  0  0  0  0  0  0  0  0  0  0  0
   -2.5067   -2.8777    0.0079 C   0  0  0  0  0  0  0  0  0  0  0  0
   -3.0490   -2.2105    0.6828 H   0  0  0  0  0  0  0  0  0  0  0  0
   -2.9949   -2.8712   -0.9695 H   0  0  0  0  0  0  0  0  0  0  0  0
   -1.0672   -2.4145   -0.1279 C   0  0  0  0  0  0  0  0  0  0  0  0
   -0.1576   -3.1823    0.1415 O   0  0  0  0  0  0  0  0  0  0  0  0
   -0.8131   -1.1481   -0.6108 N   0  0  0  0  0  0  0  0  0  0  0  0
   -1.6326   -0.5527   -0.6994 H   0  0  0  0  0  0  0  0  0  0  0  0
    0.4470   -0.4302   -0.3561 C   0  0  1  0  0  0  0  0  0  0  0  0
    1.2486   -1.1226   -0.6370 H   0  0  0  0  0  0  0  0  0  0  0  0
    0.5472    0.7067   -1.4227 C   0  0  0  0  0  0  0  0  0  0  0  0
    1.2412    0.3719   -2.1999 H   0  0  0  0  0  0  0  0  0  0  0  0
   -0.4314    0.8044   -1.9050 H   0  0  0  0  0  0  0  0  0  0  0  0
    0.9556    2.1445   -1.0283 C   0  0  0  0  0  0  0  0  0  0  0  0
    2.0341    2.1546   -0.8428 H   0  0  0  0  0  0  0  0  0  0  0  0
    0.7557    2.8155   -1.8680 H   0  0  0  0  0  0  0  0  0  0  0  0
    0.2555    2.6945    0.2157 C   0  0  0  0  0  0  0  0  0  0  0  0
   -0.9617    2.3891    0.3584 O   0  5  0  0  0  0  0  0  0  0  0  0
    0.8967    3.4366    0.9938 O   0  0  0  0  0  0  0  0  0  0  0  0
    0.7701   -0.1695    1.1385 C   0  0  0  0  0  0  0  0  0  0  0  0
    1.8574   -0.5280    1.5824 O   0  0  0  0  0  0  0  0  0  0  0  0
   -0.1976    0.2958    2.0095 N   0  0  0  0  0  0  0  0  0  0  0  0
   -0.8454    0.9456    1.5460 H   0  0  0  0  0  0  0  0  0  0  0  0
    0.1303    0.6179    3.3899 C   0  0  0  0  0  0  0  0  0  0  0  0
    0.8934    1.4024    3.4265 H   0  0  0  0  0  0  0  0  0  0  0  0
   -0.7617    0.9767    3.9113 H   0  0  0  0  0  0  0  0  0  0  0  0
    0.5044   -0.2673    3.9140 H   0  0  0  0  0  0  0  0  0  0  0  0
  1  2  1  0  0  0  0
  2  3  1  0  0  0  0
  2  4  1  0  0  0  0
  2  5  1  0  0  0  0
  5  6  2  0  0  0  0
  5  7  1  0  0  0  0
  7  8  1  0  0  0  0
  7  9  1  0  0  0  0
  9 10  1  0  0  0  0
  9 11  1  0  0  0  0
  9 20  1  0  0  0  0
 11 12  1  0  0  0  0
 11 13  1  0  0  0  0
 11 14  1  0  0  0  0
 14 15  1  0  0  0  0
 14 16  1  0  0  0  0
 14 17  1  0  0  0  0
 17 18  1  0  0  0  0
 17 19  2  0  0  0  0
 20 21  2  0  0  0  0
 20 22  1  0  0  0  0
 22 23  1  0  0  0  0
 22 24  1  0  0  0  0
 24 25  1  0  0  0  0
 24 26  1  0  0  0  0
 24 27  1  0  0  0  0
M  CHG  1  18  -1
M  END
$$$$

  -OEChem-04042215583D

 27 26  0     1  0  0  0  0  0999 V2000
   -2.6274   -3.8257    0.4990 H   0  0  0  0  0  0  0  0  0  0  0  0
   -2.5618   -2.8355    0.0394 C   0  0  0  0  0  0  0  0  0  0  0  0
   -3.1130   -2.1239    0.6593 H   0  0  0  0  0  0  0  0  0  0  0  0
   -3.0185   -2.8742   -0.9526 H   0  0  0  0  0  0  0  0  0  0  0  0
   -1.1101   -2.4049   -0.0743 C   0  0  0  0  0  0  0  0  0  0  0  0
   -0.2242   -3.1910    0.2188 O   0  0  0  0  0  0  0  0  0  0  0  0
   -0.8194   -1.1537   -0.5771 N   0  0  0  0  0  0  0  0  0  0  0  0
   -1.6253   -0.5463   -0.6941 H   0  0  0  0  0  0  0  0  0  0  0  0
    0.4522   -0.4569   -0.3124 C   0  0  1  0  0  0  0  0  0  0  0  0
    1.2407   -1.1798   -0.5511 H   0  0  0  0  0  0  0  0  0  0  0  0
    0.6159    0.6299   -1.4275 C   0  0  0  0  0  0  0  0  0  0  0  0
    1.3048    0.2301   -2.1783 H   0  0  0  0  0  0  0  0  0  0  0  0
   -0.3546    0.7261   -1.9256 H   0  0  0  0  0  0  0  0  0  0  0  0
    1.0470    2.0905   -1.1437 C   0  0  0  0  0  0  0  0  0  0  0  0
    2.1396    2.1242   -1.1951 H   0  0  0  0  0  0  0  0  0  0  0  0
    0.6693    2.7401   -1.9382 H   0  0  0  0  0  0  0  0  0  0  0  0
    0.6414    2.6808    0.2030 C   0  0  0  0  0  0  0  0  0  0  0  0
    1.5000    3.2502    0.9139 O   0  5  0  0  0  0  0  0  0  0  0  0
   -0.5832    2.5850    0.4917 O   0  0  0  0  0  0  0  0  0  0  0  0
    0.7486   -0.1749    1.1848 C   0  0  0  0  0  0  0  0  0  0  0  0
    1.7817   -0.6226    1.6748 O   0  0  0  0  0  0  0  0  0  0  0  0
   -0.2304    0.3278    2.0219 N   0  0  0  0  0  0  0  0  0  0  0  0
   -0.7725    1.0642    1.5528 H   0  0  0  0  0  0  0  0  0  0  0  0
    0.0486    0.5729    3.4289 C   0  0  0  0  0  0  0  0  0  0  0  0
    0.8599    1.3008    3.5349 H   0  0  0  0  0  0  0  0  0  0  0  0
   -0.8427    0.9721    3.9215 H   0  0  0  0  0  0  0  0  0  0  0  0
    0.3356   -0.3554    3.9331 H   0  0  0  0  0  0  0  0  0  0  0  0
  1  2  1  0  0  0  0
  2  3  1  0  0  0  0
  2  4  1  0  0  0  0
  2  5  1  0  0  0  0
  5  6  2  0  0  0  0
  5  7  1  0  0  0  0
  7  8  1  0  0  0  0
  7  9  1  0  0  0  0
  9 10  1  0  0  0  0
  9 11  1  0  0  0  0
  9 20  1  0  0  0  0
 11 12  1  0  0  0  0
 11 13  1  0  0  0  0
 11 14  1  0  0  0  0
 14 15  1  0  0  0  0
 14 16  1  0  0  0  0
 14 17  1  0  0  0  0
 17 18  1  0  0  0  0
 17 19  2  0  0  0  0
 20 21  2  0  0  0  0
 20 22  1  0  0  0  0
 22 23  1  0  0  0  0
 22 24  1  0  0  0  0
 24 25  1  0  0  0  0
 24 26  1  0  0  0  0
 24 27  1  0  0  0  0
M  CHG  1  18  -1
M  END
$$$$

  -OEChem-04042215583D

 27 26  0     1  0  0  0  0  0999 V2000
   -2.7808   -3.6831    0.3320 H   0  0  0  0  0  0  0  0  0  0  0  0
   -2.6640   -2.6659   -0.0522 C   0  0  0  0  0  0  0  0  0  0  0  0
   -3.1461   -1.9715    0.6408 H   0  0  0  0  0  0  0  0  0  0  0  0
   -3.1538   -2.5972   -1.0265 H   0  0  0  0  0  0  0  0  0  0  0  0
   -1.1914   -2.3211   -0.1860 C   0  0  0  0  0  0  0  0  0  0  0  0
   -0.3505   -3.1766    0.0349 O   0  0  0  0  0  0  0  0  0  0  0  0
   -0.8367   -1.0674   -0.6396 N   0  0  0  0  0  0  0  0  0  0  0  0
   -1.6113   -0.4155   -0.7136 H   0  0  0  0  0  0  0  0  0  0  0  0
    0.4705   -0.4516   -0.3422 C   0  0  1  0  0  0  0  0  0  0  0  0
    1.2327   -1.1900   -0.6172 H   0  0  0  0  0  0  0  0  0  0  0  0
    0.6552    0.6893   -1.4019 C   0  0  0  0  0  0  0  0  0  0  0  0
    1.3154    0.2934   -2.1802 H   0  0  0  0  0  0  0  0  0  0  0  0
   -0.3164    0.8404   -1.8841 H   0  0  0  0  0  0  0  0  0  0  0  0
    1.1464    2.1276   -1.0882 C   0  0  0  0  0  0  0  0  0  0  0  0
    2.1801    2.2002   -1.4406 H   0  0  0  0  0  0  0  0  0  0  0  0
    0.5642    2.8372   -1.6835 H   0  0  0  0  0  0  0  0  0  0  0  0
    1.1398    2.6063    0.3568 C   0  0  0  0  0  0  0  0  0  0  0  0
    2.2213    2.8545    0.9356 O   0  5  0  0  0  0  0  0  0  0  0  0
   -0.0037    2.7559    0.8654 O   0  0  0  0  0  0  0  0  0  0  0  0
    0.7496   -0.2571    1.1722 C   0  0  0  0  0  0  0  0  0  0  0  0
    1.6850   -0.8744    1.6735 O   0  0  0  0  0  0  0  0  0  0  0  0
   -0.2271    0.2606    2.0044 N   0  0  0  0  0  0  0  0  0  0  0  0
   -0.6005    1.1343    1.6130 H   0  0  0  0  0  0  0  0  0  0  0  0
   -0.0300    0.2854    3.4464 C   0  0  0  0  0  0  0  0  0  0  0  0
    0.8615    0.8694    3.6984 H   0  0  0  0  0  0  0  0  0  0  0  0
   -0.8951    0.7446    3.9331 H   0  0  0  0  0  0  0  0  0  0  0  0
    0.0876   -0.7302    3.8376 H   0  0  0  0  0  0  0  0  0  0  0  0
  1  2  1  0  0  0  0
  2  3  1  0  0  0  0
  2  4  1  0  0  0  0
  2  5  1  0  0  0  0
  5  6  2  0  0  0  0
  5  7  1  0  0  0  0
  7  8  1  0  0  0  0
  7  9  1  0  0  0  0
  9 10  1  0  0  0  0
  9 11  1  0  0  0  0
  9 20  1  0  0  0  0
 11 12  1  0  0  0  0
 11 13  1  0  0  0  0
 11 14  1  0  0  0  0
 14 15  1  0  0  0  0
 14 16  1  0  0  0  0
 14 17  1  0  0  0  0
 17 18  1  0  0  0  0
 17 19  2  0  0  0  0
 20 21  2  0  0  0  0
 20 22  1  0  0  0  0
 22 23  1  0  0  0  0
 22 24  1  0  0  0  0
 24 25  1  0  0  0  0
 24 26  1  0  0  0  0
 24 27  1  0  0  0  0
M  CHG  1  18  -1
M  END
$$$$

  -OEChem-04042215583D

 27 26  0     1  0  0  0  0  0999 V2000
   -2.9603   -3.4781    0.4888 H   0  0  0  0  0  0  0  0  0  0  0  0
   -2.7816   -2.4744    0.0932 C   0  0  0  0  0  0  0  0  0  0  0  0
   -3.1653   -1.7423    0.8083 H   0  0  0  0  0  0  0  0  0  0  0  0
   -3.3171   -2.3664   -0.8530 H   0  0  0  0  0  0  0  0  0  0  0  0
   -1.2951   -2.2524   -0.1227 C   0  0  0  0  0  0  0  0  0  0  0  0
   -0.5151   -3.1700    0.0703 O   0  0  0  0  0  0  0  0  0  0  0  0
   -0.8661   -1.0432   -0.6303 N   0  0  0  0  0  0  0  0  0  0  0  0
   -1.5959   -0.3408   -0.6891 H   0  0  0  0  0  0  0  0  0  0  0  0
    0.4857   -0.5111   -0.3675 C   0  0  1  0  0  0  0  0  0  0  0  0
    1.2095   -1.2870   -0.6431 H   0  0  0  0  0  0  0  0  0  0  0  0
    0.6712    0.6221   -1.4368 C   0  0  0  0  0  0  0  0  0  0  0  0
    1.3060    0.1895   -2.2170 H   0  0  0  0  0  0  0  0  0  0  0  0
   -0.2976    0.8049   -1.9138 H   0  0  0  0  0  0  0  0  0  0  0  0
    1.2420    2.0389   -1.1569 C   0  0  0  0  0  0  0  0  0  0  0  0
    2.1111    2.1809   -1.8067 H   0  0  0  0  0  0  0  0  0  0  0  0
    0.4952    2.7717   -1.4780 H   0  0  0  0  0  0  0  0  0  0  0  0
    1.6669    2.4197    0.2533 C   0  0  0  0  0  0  0  0  0  0  0  0
    0.7338    2.7835    1.0171 O   0  5  0  0  0  0  0  0  0  0  0  0
    2.8802    2.3935    0.5578 O   0  0  0  0  0  0  0  0  0  0  0  0
    0.7691   -0.2900    1.1423 C   0  0  0  0  0  0  0  0  0  0  0  0
    1.5919   -1.0226    1.6831 O   0  0  0  0  0  0  0  0  0  0  0  0
   -0.1845    0.3246    1.9362 N   0  0  0  0  0  0  0  0  0  0  0  0
   -0.3580    1.2729    1.5828 H   0  0  0  0  0  0  0  0  0  0  0  0
   -0.0944    0.2478    3.3877 C   0  0  0  0  0  0  0  0  0  0  0  0
    0.8434    0.6937    3.7357 H   0  0  0  0  0  0  0  0  0  0  0  0
   -0.9275    0.7915    3.8424 H   0  0  0  0  0  0  0  0  0  0  0  0
   -0.1382   -0.7936    3.7227 H   0  0  0  0  0  0  0  0  0  0  0  0
  1  2  1  0  0  0  0
  2  3  1  0  0  0  0
  2  4  1  0  0  0  0
  2  5  1  0  0  0  0
  5  6  2  0  0  0  0
  5  7  1  0  0  0  0
  7  8  1  0  0  0  0
  7  9  1  0  0  0  0
  9 10  1  0  0  0  0
  9 11  1  0  0  0  0
  9 20  1  0  0  0  0
 11 12  1  0  0  0  0
 11 13  1  0  0  0  0
 11 14  1  0  0  0  0
 14 15  1  0  0  0  0
 14 16  1  0  0  0  0
 14 17  1  0  0  0  0
 17 18  1  0  0  0  0
 17 19  2  0  0  0  0
 20 21  2  0  0  0  0
 20 22  1  0  0  0  0
 22 23  1  0  0  0  0
 22 24  1  0  0  0  0
 24 25  1  0  0  0  0
 24 26  1  0  0  0  0
 24 27  1  0  0  0  0
M  CHG  1  18  -1
M  END
$$$$

  -OEChem-04042215583D

 27 26  0     1  0  0  0  0  0999 V2000
   -2.4618   -3.7736    0.8310 H   0  0  0  0  0  0  0  0  0  0  0  0
   -2.4267   -2.8013    0.3316 C   0  0  0  0  0  0  0  0  0  0  0  0
   -2.8833   -2.0542    0.9858 H   0  0  0  0  0  0  0  0  0  0  0  0
   -2.9977   -2.8602   -0.5982 H   0  0  0  0  0  0  0  0  0  0  0  0
   -0.9886   -2.4154    0.0348 C   0  0  0  0  0  0  0  0  0  0  0  0
   -0.0943   -3.2169    0.2466 O   0  0  0  0  0  0  0  0  0  0  0  0
   -0.7347   -1.2001   -0.5673 N   0  0  0  0  0  0  0  0  0  0  0  0
   -1.5500   -0.6019   -0.6428 H   0  0  0  0  0  0  0  0  0  0  0  0
    0.5478   -0.4871   -0.3977 C   0  0  1  0  0  0  0  0  0  0  0  0
    1.3666   -1.1572   -0.6846 H   0  0  0  0  0  0  0  0  0  0  0  0
    0.4762    0.6287   -1.4977 C   0  0  0  0  0  0  0  0  0  0  0  0
    1.1404    0.2777   -2.2942 H   0  0  0  0  0  0  0  0  0  0  0  0
   -0.5271    0.6485   -1.9369 H   0  0  0  0  0  0  0  0  0  0  0  0
    0.8521    2.1153   -1.2697 C   0  0  0  0  0  0  0  0  0  0  0  0
    1.4057    2.4646   -2.1466 H   0  0  0  0  0  0  0  0  0  0  0  0
   -0.0817    2.6860   -1.2485 H   0  0  0  0  0  0  0  0  0  0  0  0
    1.6407    2.5193   -0.0330 C   0  0  0  0  0  0  0  0  0  0  0  0
    0.9538    2.8984    0.9512 O   0  5  0  0  0  0  0  0  0  0  0  0
    2.8910    2.4792   -0.0726 O   0  0  0  0  0  0  0  0  0  0  0  0
    0.8482   -0.1318    1.0821 C   0  0  0  0  0  0  0  0  0  0  0  0
    1.7435   -0.7549    1.6439 O   0  0  0  0  0  0  0  0  0  0  0  0
   -0.1556    0.4131    1.8661 N   0  0  0  0  0  0  0  0  0  0  0  0
   -0.4084    1.3299    1.4890 H   0  0  0  0  0  0  0  0  0  0  0  0
   -0.0446    0.3929    3.3185 C   0  0  0  0  0  0  0  0  0  0  0  0
    0.8567    0.9257    3.6398 H   0  0  0  0  0  0  0  0  0  0  0  0
   -0.9148    0.8814    3.7661 H   0  0  0  0  0  0  0  0  0  0  0  0
    0.0012   -0.6369    3.6875 H   0  0  0  0  0  0  0  0  0  0  0  0
  1  2  1  0  0  0  0
  2  3  1  0  0  0  0
  2  4  1  0  0  0  0
  2  5  1  0  0  0  0
  5  6  2  0  0  0  0
  5  7  1  0  0  0  0
  7  8  1  0  0  0  0
  7  9  1  0  0  0  0
  9 10  1  0  0  0  0
  9 11  1  0  0  0  0
  9 20  1  0  0  0  0
 11 12  1  0  0  0  0
 11 13  1  0  0  0  0
 11 14  1  0  0  0  0
 14 15  1  0  0  0  0
 14 16  1  0  0  0  0
 14 17  1  0  0  0  0
 17 18  1  0  0  0  0
 17 19  2  0  0  0  0
 20 21  2  0  0  0  0
 20 22  1  0  0  0  0
 22 23  1  0  0  0  0
 22 24  1  0  0  0  0
 24 25  1  0  0  0  0
 24 26  1  0  0  0  0
 24 27  1  0  0  0  0
M  CHG  1  18  -1
M  END
$$$$

  -OEChem-04042215583D

 27 26  0     1  0  0  0  0  0999 V2000
   -2.6726   -3.7043    0.7819 H   0  0  0  0  0  0  0  0  0  0  0  0
   -2.5633   -2.7536    0.2524 C   0  0  0  0  0  0  0  0  0  0  0  0
   -3.0628   -1.9715    0.8296 H   0  0  0  0  0  0  0  0  0  0  0  0
   -3.0410   -2.8375   -0.7267 H   0  0  0  0  0  0  0  0  0  0  0  0
   -1.0928   -2.4127    0.0857 C   0  0  0  0  0  0  0  0  0  0  0  0
   -0.2476   -3.2166    0.4379 O   0  0  0  0  0  0  0  0  0  0  0  0
   -0.7473   -1.2399   -0.5548 N   0  0  0  0  0  0  0  0  0  0  0  0
   -1.5273   -0.6280   -0.7655 H   0  0  0  0  0  0  0  0  0  0  0  0
    0.5643   -0.5801   -0.3807 C   0  0  1  0  0  0  0  0  0  0  0  0
    1.3724   -1.2746   -0.6383 H   0  0  0  0  0  0  0  0  0  0  0  0
    0.5279    0.5462   -1.4670 C   0  0  0  0  0  0  0  0  0  0  0  0
    1.1775    0.1852   -2.2712 H   0  0  0  0  0  0  0  0  0  0  0  0
   -0.4749    0.6234   -1.9005 H   0  0  0  0  0  0  0  0  0  0  0  0
    0.9735    2.0000   -1.1873 C   0  0  0  0  0  0  0  0  0  0  0  0
    1.3009    2.4458   -2.1311 H   0  0  0  0  0  0  0  0  0  0  0  0
    0.0865    2.5554   -0.8676 H   0  0  0  0  0  0  0  0  0  0  0  0
    2.0605    2.2501   -0.1486 C   0  0  0  0  0  0  0  0  0  0  0  0
    3.2335    1.9213   -0.4409 O   0  5  0  0  0  0  0  0  0  0  0  0
    1.7089    2.8355    0.9058 O   0  0  0  0  0  0  0  0  0  0  0  0
    0.8169   -0.1819    1.0963 C   0  0  0  0  0  0  0  0  0  0  0  0
    1.6977   -0.7620    1.7205 O   0  0  0  0  0  0  0  0  0  0  0  0
   -0.1948    0.4358    1.8144 N   0  0  0  0  0  0  0  0  0  0  0  0
   -0.6642    1.1546    1.2746 H   0  0  0  0  0  0  0  0  0  0  0  0
   -0.0210    0.7264    3.2314 C   0  0  0  0  0  0  0  0  0  0  0  0
    0.8595    1.3593    3.3861 H   0  0  0  0  0  0  0  0  0  0  0  0
   -0.8989    1.2527    3.6164 H   0  0  0  0  0  0  0  0  0  0  0  0
    0.1031   -0.1994    3.8023 H   0  0  0  0  0  0  0  0  0  0  0  0
  1  2  1  0  0  0  0
  2  3  1  0  0  0  0
  2  4  1  0  0  0  0
  2  5  1  0  0  0  0
  5  6  2  0  0  0  0
  5  7  1  0  0  0  0
  7  8  1  0  0  0  0
  7  9  1  0  0  0  0
  9 10  1  0  0  0  0
  9 11  1  0  0  0  0
  9 20  1  0  0  0  0
 11 12  1  0  0  0  0
 11 13  1  0  0  0  0
 11 14  1  0  0  0  0
 14 15  1  0  0  0  0
 14 16  1  0  0  0  0
 14 17  1  0  0  0  0
 17 18  1  0  0  0  0
 17 19  2  0  0  0  0
 20 21  2  0  0  0  0
 20 22  1  0  0  0  0
 22 23  1  0  0  0  0
 22 24  1  0  0  0  0
 24 25  1  0  0  0  0
 24 26  1  0  0  0  0
 24 27  1  0  0  0  0
M  CHG  1  18  -1
M  END
$$$$

  -OEChem-04042215583D

 27 26  0     1  0  0  0  0  0999 V2000
   -2.7507   -3.7015    0.5984 H   0  0  0  0  0  0  0  0  0  0  0  0
   -2.6089   -2.7606    0.0591 C   0  0  0  0  0  0  0  0  0  0  0  0
   -3.1709   -1.9753    0.5706 H   0  0  0  0  0  0  0  0  0  0  0  0
   -2.9947   -2.8744   -0.9568 H   0  0  0  0  0  0  0  0  0  0  0  0
   -1.1346   -2.3987    0.0165 C   0  0  0  0  0  0  0  0  0  0  0  0
   -0.3137   -3.1809    0.4612 O   0  0  0  0  0  0  0  0  0  0  0  0
   -0.7542   -1.2211   -0.5951 N   0  0  0  0  0  0  0  0  0  0  0  0
   -1.5131   -0.6241   -0.9021 H   0  0  0  0  0  0  0  0  0  0  0  0
    0.5633   -0.5779   -0.4023 C   0  0  1  0  0  0  0  0  0  0  0  0
    1.3735   -1.2597   -0.6855 H   0  0  0  0  0  0  0  0  0  0  0  0
    0.5248    0.6063   -1.4210 C   0  0  0  0  0  0  0  0  0  0  0  0
    1.1508    0.2986   -2.2653 H   0  0  0  0  0  0  0  0  0  0  0  0
   -0.4868    0.7363   -1.8191 H   0  0  0  0  0  0  0  0  0  0  0  0
    1.0005    2.0150   -1.0073 C   0  0  0  0  0  0  0  0  0  0  0  0
    1.1011    2.6245   -1.9099 H   0  0  0  0  0  0  0  0  0  0  0  0
    0.2152    2.4695   -0.3959 H   0  0  0  0  0  0  0  0  0  0  0  0
    2.3131    2.1026   -0.2327 C   0  0  0  0  0  0  0  0  0  0  0  0
    3.3273    1.5846   -0.7581 O   0  5  0  0  0  0  0  0  0  0  0  0
    2.3064    2.7754    0.8271 O   0  0  0  0  0  0  0  0  0  0  0  0
    0.8101   -0.2053    1.0818 C   0  0  0  0  0  0  0  0  0  0  0  0
    1.7207   -0.7421    1.6995 O   0  0  0  0  0  0  0  0  0  0  0  0
   -0.1977    0.4113    1.8059 N   0  0  0  0  0  0  0  0  0  0  0  0
   -0.7927    1.0103    1.2474 H   0  0  0  0  0  0  0  0  0  0  0  0
    0.0159    0.8050    3.1917 C   0  0  0  0  0  0  0  0  0  0  0  0
    0.8666    1.4911    3.2650 H   0  0  0  0  0  0  0  0  0  0  0  0
   -0.8732    1.3099    3.5798 H   0  0  0  0  0  0  0  0  0  0  0  0
    0.2138   -0.0723    3.8159 H   0  0  0  0  0  0  0  0  0  0  0  0
  1  2  1  0  0  0  0
  2  3  1  0  0  0  0
  2  4  1  0  0  0  0
  2  5  1  0  0  0  0
  5  6  2  0  0  0  0
  5  7  1  0  0  0  0
  7  8  1  0  0  0  0
  7  9  1  0  0  0  0
  9 10  1  0  0  0  0
  9 11  1  0  0  0  0
  9 20  1  0  0  0  0
 11 12  1  0  0  0  0
 11 13  1  0  0  0  0
 11 14  1  0  0  0  0
 14 15  1  0  0  0  0
 14 16  1  0  0  0  0
 14 17  1  0  0  0  0
 17 18  1  0  0  0  0
 17 19  2  0  0  0  0
 20 21  2  0  0  0  0
 20 22  1  0  0  0  0
 22 23  1  0  0  0  0
 22 24  1  0  0  0  0
 24 25  1  0  0  0  0
 24 26  1  0  0  0  0
 24 27  1  0  0  0  0
M  CHG  1  18  -1
M  END
$$$$

  -OEChem-04042215583D

 27 26  0     1  0  0  0  0  0999 V2000
   -2.7570   -3.7587    0.5219 H   0  0  0  0  0  0  0  0  0  0  0  0
   -2.6042   -2.8359   -0.0450 C   0  0  0  0  0  0  0  0  0  0  0  0
   -3.2588   -2.0616    0.3625 H   0  0  0  0  0  0  0  0  0  0  0  0
   -2.8695   -3.0160   -1.0897 H   0  0  0  0  0  0  0  0  0  0  0  0
   -1.1544   -2.3942    0.0527 C   0  0  0  0  0  0  0  0  0  0  0  0
   -0.3498   -3.1078    0.6235 O   0  0  0  0  0  0  0  0  0  0  0  0
   -0.7747   -1.2171   -0.5602 N   0  0  0  0  0  0  0  0  0  0  0  0
   -1.5112   -0.6857   -1.0096 H   0  0  0  0  0  0  0  0  0  0  0  0
    0.5401   -0.5601   -0.3984 C   0  0  1  0  0  0  0  0  0  0  0  0
    1.3503   -1.2336   -0.7012 H   0  0  0  0  0  0  0  0  0  0  0  0
    0.4805    0.6332   -1.4015 C   0  0  0  0  0  0  0  0  0  0  0  0
    1.0632    0.3456   -2.2831 H   0  0  0  0  0  0  0  0  0  0  0  0
   -0.5481    0.7830   -1.7450 H   0  0  0  0  0  0  0  0  0  0  0  0
    0.9733    2.0193   -0.9389 C   0  0  0  0  0  0  0  0  0  0  0  0
    0.8445    2.7212   -1.7676 H   0  0  0  0  0  0  0  0  0  0  0  0
    0.3432    2.3693   -0.1165 H   0  0  0  0  0  0  0  0  0  0  0  0
    2.4392    2.0816   -0.5067 C   0  0  0  0  0  0  0  0  0  0  0  0
    3.2771    1.4588   -1.2045 O   0  5  0  0  0  0  0  0  0  0  0  0
    2.7199    2.8624    0.4350 O   0  0  0  0  0  0  0  0  0  0  0  0
    0.8229   -0.1759    1.0762 C   0  0  0  0  0  0  0  0  0  0  0  0
    1.8063   -0.6166    1.6557 O   0  0  0  0  0  0  0  0  0  0  0  0
   -0.1672    0.4344    1.8288 N   0  0  0  0  0  0  0  0  0  0  0  0
   -0.8736    0.9177    1.2889 H   0  0  0  0  0  0  0  0  0  0  0  0
    0.0855    0.8959    3.1864 C   0  0  0  0  0  0  0  0  0  0  0  0
    0.9157    1.6104    3.1974 H   0  0  0  0  0  0  0  0  0  0  0  0
   -0.8041    1.3897    3.5875 H   0  0  0  0  0  0  0  0  0  0  0  0
    0.3357    0.0528    3.8384 H   0  0  0  0  0  0  0  0  0  0  0  0
  1  2  1  0  0  0  0
  2  3  1  0  0  0  0
  2  4  1  0  0  0  0
  2  5  1  0  0  0  0
  5  6  2  0  0  0  0
  5  7  1  0  0  0  0
  7  8  1  0  0  0  0
  7  9  1  0  0  0  0
  9 10  1  0  0  0  0
  9 11  1  0  0  0  0
  9 20  1  0  0  0  0
 11 12  1  0  0  0  0
 11 13  1  0  0  0  0
 11 14  1  0  0  0  0
 14 15  1  0  0  0  0
 14 16  1  0  0  0  0
 14 17  1  0  0  0  0
 17 18  1  0  0  0  0
 17 19  2  0  0  0  0
 20 21  2  0  0  0  0
 20 22  1  0  0  0  0
 22 23  1  0  0  0  0
 22 24  1  0  0  0  0
 24 25  1  0  0  0  0
 24 26  1  0  0  0  0
 24 27  1  0  0  0  0
M  CHG  1  18  -1
M  END
$$$$

  -OEChem-04042215583D

 27 26  0     1  0  0  0  0  0999 V2000
   -2.7349   -3.8061    0.4659 H   0  0  0  0  0  0  0  0  0  0  0  0
   -2.5904   -2.8773   -0.0933 C   0  0  0  0  0  0  0  0  0  0  0  0
   -3.2960   -2.1304    0.2783 H   0  0  0  0  0  0  0  0  0  0  0  0
   -2.7932   -3.0672   -1.1501 H   0  0  0  0  0  0  0  0  0  0  0  0
   -1.1671   -2.3766    0.0794 C   0  0  0  0  0  0  0  0  0  0  0  0
   -0.3743   -3.0388    0.7239 O   0  0  0  0  0  0  0  0  0  0  0  0
   -0.7972   -1.1967   -0.5336 N   0  0  0  0  0  0  0  0  0  0  0  0
   -1.5072   -0.7258   -1.0830 H   0  0  0  0  0  0  0  0  0  0  0  0
    0.5164   -0.5331   -0.3940 C   0  0  1  0  0  0  0  0  0  0  0  0
    1.3204   -1.2105   -0.7037 H   0  0  0  0  0  0  0  0  0  0  0  0
    0.4647    0.6552   -1.4005 C   0  0  0  0  0  0  0  0  0  0  0  0
    1.0063    0.3608   -2.3057 H   0  0  0  0  0  0  0  0  0  0  0  0
   -0.5730    0.8211   -1.7068 H   0  0  0  0  0  0  0  0  0  0  0  0
    0.9749    2.0342   -0.9285 C   0  0  0  0  0  0  0  0  0  0  0  0
    0.6411    2.7785   -1.6570 H   0  0  0  0  0  0  0  0  0  0  0  0
    0.5254    2.3035    0.0302 H   0  0  0  0  0  0  0  0  0  0  0  0
    2.4995    2.1575   -0.8394 C   0  0  0  0  0  0  0  0  0  0  0  0
    3.1975    1.4889   -1.6425 O   0  5  0  0  0  0  0  0  0  0  0  0
    2.9455    3.0309   -0.0562 O   0  0  0  0  0  0  0  0  0  0  0  0
    0.8248   -0.1508    1.0759 C   0  0  0  0  0  0  0  0  0  0  0  0
    1.8621   -0.5118    1.6150 O   0  0  0  0  0  0  0  0  0  0  0  0
   -0.1523    0.4506    1.8525 N   0  0  0  0  0  0  0  0  0  0  0  0
   -0.9251    0.8590    1.3423 H   0  0  0  0  0  0  0  0  0  0  0  0
    0.1054    0.9081    3.2103 C   0  0  0  0  0  0  0  0  0  0  0  0
    0.9221    1.6377    3.2189 H   0  0  0  0  0  0  0  0  0  0  0  0
   -0.7893    1.3824    3.6239 H   0  0  0  0  0  0  0  0  0  0  0  0
    0.3776    0.0647    3.8531 H   0  0  0  0  0  0  0  0  0  0  0  0
  1  2  1  0  0  0  0
  2  3  1  0  0  0  0
  2  4  1  0  0  0  0
  2  5  1  0  0  0  0
  5  6  2  0  0  0  0
  5  7  1  0  0  0  0
  7  8  1  0  0  0  0
  7  9  1  0  0  0  0
  9 10  1  0  0  0  0
  9 11  1  0  0  0  0
  9 20  1  0  0  0  0
 11 12  1  0  0  0  0
 11 13  1  0  0  0  0
 11 14  1  0  0  0  0
 14 15  1  0  0  0  0
 14 16  1  0  0  0  0
 14 17  1  0  0  0  0
 17 18  1  0  0  0  0
 17 19  2  0  0  0  0
 20 21  2  0  0  0  0
 20 22  1  0  0  0  0
 22 23  1  0  0  0  0
 22 24  1  0  0  0  0
 24 25  1  0  0  0  0
 24 26  1  0  0  0  0
 24 27  1  0  0  0  0
M  CHG  1  18  -1
M  END
$$$$

  -OEChem-04042215583D

 27 26  0     1  0  0  0  0  0999 V2000
   -2.7253   -3.8403    0.4069 H   0  0  0  0  0  0  0  0  0  0  0  0
   -2.5885   -2.8988   -0.1327 C   0  0  0  0  0  0  0  0  0  0  0  0
   -3.3246   -2.1766    0.2288 H   0  0  0  0  0  0  0  0  0  0  0  0
   -2.7547   -3.0766   -1.1981 H   0  0  0  0  0  0  0  0  0  0  0  0
   -1.1844   -2.3650    0.0911 C   0  0  0  0  0  0  0  0  0  0  0  0
   -0.4048   -3.0011    0.7768 O   0  0  0  0  0  0  0  0  0  0  0  0
   -0.8158   -1.1814   -0.5156 N   0  0  0  0  0  0  0  0  0  0  0  0
   -1.5036   -0.7433   -1.1183 H   0  0  0  0  0  0  0  0  0  0  0  0
    0.4998   -0.5205   -0.3823 C   0  0  1  0  0  0  0  0  0  0  0  0
    1.2966   -1.2048   -0.6952 H   0  0  0  0  0  0  0  0  0  0  0  0
    0.4630    0.6652   -1.3923 C   0  0  0  0  0  0  0  0  0  0  0  0
    0.9733    0.3550   -2.3097 H   0  0  0  0  0  0  0  0  0  0  0  0
   -0.5786    0.8417   -1.6786 H   0  0  0  0  0  0  0  0  0  0  0  0
    0.9840    2.0492   -0.9307 C   0  0  0  0  0  0  0  0  0  0  0  0
    0.4539    2.8060   -1.5157 H   0  0  0  0  0  0  0  0  0  0  0  0
    0.7438    2.2416    0.1162 H   0  0  0  0  0  0  0  0  0  0  0  0
    2.4791    2.2966   -1.1731 C   0  0  0  0  0  0  0  0  0  0  0  0
    3.0656    1.6411   -2.0713 O   0  5  0  0  0  0  0  0  0  0  0  0
    2.9940    3.2440   -0.5305 O   0  0  0  0  0  0  0  0  0  0  0  0
    0.8228   -0.1487    1.0865 C   0  0  0  0  0  0  0  0  0  0  0  0
    1.8948   -0.4517    1.5931 O   0  0  0  0  0  0  0  0  0  0  0  0
   -0.1452    0.4476    1.8780 N   0  0  0  0  0  0  0  0  0  0  0  0
   -0.9585    0.8018    1.3902 H   0  0  0  0  0  0  0  0  0  0  0  0
    0.1226    0.9149    3.2300 C   0  0  0  0  0  0  0  0  0  0  0  0
    0.8896    1.6961    3.2181 H   0  0  0  0  0  0  0  0  0  0  0  0
   -0.7887    1.3269    3.6727 H   0  0  0  0  0  0  0  0  0  0  0  0
    0.4684    0.0886    3.8594 H   0  0  0  0  0  0  0  0  0  0  0  0
  1  2  1  0  0  0  0
  2  3  1  0  0  0  0
  2  4  1  0  0  0  0
  2  5  1  0  0  0  0
  5  6  2  0  0  0  0
  5  7  1  0  0  0  0
  7  8  1  0  0  0  0
  7  9  1  0  0  0  0
  9 10  1  0  0  0  0
  9 11  1  0  0  0  0
  9 20  1  0  0  0  0
 11 12  1  0  0  0  0
 11 13  1  0  0  0  0
 11 14  1  0  0  0  0
 14 15  1  0  0  0  0
 14 16  1  0  0  0  0
 14 17  1  0  0  0  0
 17 18  1  0  0  0  0
 17 19  2  0  0  0  0
 20 21  2  0  0  0  0
 20 22  1  0  0  0  0
 22 23  1  0  0  0  0
 22 24  1  0  0  0  0
 24 25  1  0  0  0  0
 24 26  1  0  0  0  0
 24 27  1  0  0  0  0
M  CHG  1  18  -1
M  END
$$$$

  -OEChem-04042215583D

 27 26  0     1  0  0  0  0  0999 V2000
   -2.7256   -3.8257    0.3735 H   0  0  0  0  0  0  0  0  0  0  0  0
   -2.5862   -2.8813   -0.1604 C   0  0  0  0  0  0  0  0  0  0  0  0
   -3.3264   -2.1624    0.1991 H   0  0  0  0  0  0  0  0  0  0  0  0
   -2.7443   -3.0544   -1.2277 H   0  0  0  0  0  0  0  0  0  0  0  0
   -1.1849   -2.3459    0.0765 C   0  0  0  0  0  0  0  0  0  0  0  0
   -0.4081   -2.9860    0.7617 O   0  0  0  0  0  0  0  0  0  0  0  0
   -0.8170   -1.1543   -0.5153 N   0  0  0  0  0  0  0  0  0  0  0  0
   -1.4960   -0.7239   -1.1334 H   0  0  0  0  0  0  0  0  0  0  0  0
    0.5053   -0.5033   -0.3917 C   0  0  1  0  0  0  0  0  0  0  0  0
    1.2994   -1.1773   -0.7326 H   0  0  0  0  0  0  0  0  0  0  0  0
    0.4449    0.7120   -1.3694 C   0  0  0  0  0  0  0  0  0  0  0  0
    0.9350    0.4235   -2.3055 H   0  0  0  0  0  0  0  0  0  0  0  0
   -0.6025    0.8938   -1.6306 H   0  0  0  0  0  0  0  0  0  0  0  0
    0.9789    2.0903   -0.8962 C   0  0  0  0  0  0  0  0  0  0  0  0
    0.2595    2.8520   -1.2123 H   0  0  0  0  0  0  0  0  0  0  0  0
    1.0526    2.1634    0.1886 H   0  0  0  0  0  0  0  0  0  0  0  0
    2.3386    2.4626   -1.5023 C   0  0  0  0  0  0  0  0  0  0  0  0
    3.1342    1.5464   -1.8273 O   0  5  0  0  0  0  0  0  0  0  0  0
    2.5531    3.6882   -1.6755 O   0  0  0  0  0  0  0  0  0  0  0  0
    0.8364   -0.1663    1.0844 C   0  0  0  0  0  0  0  0  0  0  0  0
    1.9159   -0.4583    1.5824 O   0  0  0  0  0  0  0  0  0  0  0  0
   -0.1299    0.4164    1.8881 N   0  0  0  0  0  0  0  0  0  0  0  0
   -0.9570    0.7539    1.4117 H   0  0  0  0  0  0  0  0  0  0  0  0
    0.1352    0.8650    3.2467 C   0  0  0  0  0  0  0  0  0  0  0  0
    0.8998    1.6486    3.2463 H   0  0  0  0  0  0  0  0  0  0  0  0
   -0.7775    1.2688    3.6942 H   0  0  0  0  0  0  0  0  0  0  0  0
    0.4827    0.0310    3.8650 H   0  0  0  0  0  0  0  0  0  0  0  0
  1  2  1  0  0  0  0
  2  3  1  0  0  0  0
  2  4  1  0  0  0  0
  2  5  1  0  0  0  0
  5  6  2  0  0  0  0
  5  7  1  0  0  0  0
  7  8  1  0  0  0  0
  7  9  1  0  0  0  0
  9 10  1  0  0  0  0
  9 11  1  0  0  0  0
  9 20  1  0  0  0  0
 11 12  1  0  0  0  0
 11 13  1  0  0  0  0
 11 14  1  0  0  0  0
 14 15  1  0  0  0  0
 14 16  1  0  0  0  0
 14 17  1  0  0  0  0
 17 18  1  0  0  0  0
 17 19  2  0  0  0  0
 20 21  2  0  0  0  0
 20 22  1  0  0  0  0
 22 23  1  0  0  0  0
 22 24  1  0  0  0  0
 24 25  1  0  0  0  0
 24 26  1  0  0  0  0
 24 27  1  0  0  0  0
M  CHG  1  18  -1
M  END
$$$$

  -OEChem-04042215583D

 27 26  0     1  0  0  0  0  0999 V2000
   -2.7274   -3.7936    0.3804 H   0  0  0  0  0  0  0  0  0  0  0  0
   -2.5882   -2.8491   -0.1531 C   0  0  0  0  0  0  0  0  0  0  0  0
   -3.3124   -2.1226    0.2234 H   0  0  0  0  0  0  0  0  0  0  0  0
   -2.7698   -3.0160   -1.2177 H   0  0  0  0  0  0  0  0  0  0  0  0
   -1.1762   -2.3315    0.0570 C   0  0  0  0  0  0  0  0  0  0  0  0
   -0.3885   -2.9888    0.7131 O   0  0  0  0  0  0  0  0  0  0  0  0
   -0.8086   -1.1361   -0.5268 N   0  0  0  0  0  0  0  0  0  0  0  0
   -1.5015   -0.6802   -1.1108 H   0  0  0  0  0  0  0  0  0  0  0  0
    0.5149   -0.4892   -0.4009 C   0  0  1  0  0  0  0  0  0  0  0  0
    1.3074   -1.1594   -0.7525 H   0  0  0  0  0  0  0  0  0  0  0  0
    0.4405    0.7386   -1.3602 C   0  0  0  0  0  0  0  0  0  0  0  0
    0.9615    0.4549   -2.2815 H   0  0  0  0  0  0  0  0  0  0  0  0
   -0.6000    0.9150   -1.6512 H   0  0  0  0  0  0  0  0  0  0  0  0
    0.9734    2.1119   -0.8753 C   0  0  0  0  0  0  0  0  0  0  0  0
    0.1514    2.8343   -0.8767 H   0  0  0  0  0  0  0  0  0  0  0  0
    1.3636    2.0747    0.1418 H   0  0  0  0  0  0  0  0  0  0  0  0
    2.1055    2.6270   -1.7690 C   0  0  0  0  0  0  0  0  0  0  0  0
    3.1203    1.9050   -1.9236 O   0  5  0  0  0  0  0  0  0  0  0  0
    1.9212    3.7331   -2.3355 O   0  0  0  0  0  0  0  0  0  0  0  0
    0.8451   -0.1664    1.0780 C   0  0  0  0  0  0  0  0  0  0  0  0
    1.9248   -0.4657    1.5718 O   0  0  0  0  0  0  0  0  0  0  0  0
   -0.1204    0.4109    1.8859 N   0  0  0  0  0  0  0  0  0  0  0  0
   -0.9470    0.7561    1.4136 H   0  0  0  0  0  0  0  0  0  0  0  0
    0.1350    0.8225    3.2578 C   0  0  0  0  0  0  0  0  0  0  0  0
    0.9349    1.5694    3.2892 H   0  0  0  0  0  0  0  0  0  0  0  0
   -0.7678    1.2607    3.6930 H   0  0  0  0  0  0  0  0  0  0  0  0
    0.4294   -0.0387    3.8665 H   0  0  0  0  0  0  0  0  0  0  0  0
  1  2  1  0  0  0  0
  2  3  1  0  0  0  0
  2  4  1  0  0  0  0
  2  5  1  0  0  0  0
  5  6  2  0  0  0  0
  5  7  1  0  0  0  0
  7  8  1  0  0  0  0
  7  9  1  0  0  0  0
  9 10  1  0  0  0  0
  9 11  1  0  0  0  0
  9 20  1  0  0  0  0
 11 12  1  0  0  0  0
 11 13  1  0  0  0  0
 11 14  1  0  0  0  0
 14 15  1  0  0  0  0
 14 16  1  0  0  0  0
 14 17  1  0  0  0  0
 17 18  1  0  0  0  0
 17 19  2  0  0  0  0
 20 21  2  0  0  0  0
 20 22  1  0  0  0  0
 22 23  1  0  0  0  0
 22 24  1  0  0  0  0
 24 25  1  0  0  0  0
 24 26  1  0  0  0  0
 24 27  1  0  0  0  0
M  CHG  1  18  -1
M  END
$$$$

  -OEChem-04042215583D

 27 26  0     1  0  0  0  0  0999 V2000
   -2.6580   -3.8545    0.3725 H   0  0  0  0  0  0  0  0  0  0  0  0
   -2.5281   -2.9108   -0.1648 C   0  0  0  0  0  0  0  0  0  0  0  0
   -3.2796   -2.1997    0.1869 H   0  0  0  0  0  0  0  0  0  0  0  0
   -2.6775   -3.0901   -1.2324 H   0  0  0  0  0  0  0  0  0  0  0  0
   -1.1358   -2.3559    0.0784 C   0  0  0  0  0  0  0  0  0  0  0  0
   -0.3541   -2.9768    0.7764 O   0  0  0  0  0  0  0  0  0  0  0  0
   -0.7738   -1.1677   -0.5225 N   0  0  0  0  0  0  0  0  0  0  0  0
   -1.4532   -0.7427   -1.1457 H   0  0  0  0  0  0  0  0  0  0  0  0
    0.5312   -0.4925   -0.3706 C   0  0  1  0  0  0  0  0  0  0  0  0
    1.3417   -1.1595   -0.6847 H   0  0  0  0  0  0  0  0  0  0  0  0
    0.4613    0.7109   -1.3559 C   0  0  0  0  0  0  0  0  0  0  0  0
    1.0533    0.4172   -2.2300 H   0  0  0  0  0  0  0  0  0  0  0  0
   -0.5615    0.8557   -1.7191 H   0  0  0  0  0  0  0  0  0  0  0  0
    0.9524    2.0986   -0.8754 C   0  0  0  0  0  0  0  0  0  0  0  0
    0.0943    2.7348   -0.6414 H   0  0  0  0  0  0  0  0  0  0  0  0
    1.5606    2.0185    0.0280 H   0  0  0  0  0  0  0  0  0  0  0  0
    1.8225    2.7734   -1.9403 C   0  0  0  0  0  0  0  0  0  0  0  0
    1.2819    2.9828   -3.0563 O   0  5  0  0  0  0  0  0  0  0  0  0
    2.9961    3.1008   -1.6421 O   0  0  0  0  0  0  0  0  0  0  0  0
    0.8206   -0.1231    1.1051 C   0  0  0  0  0  0  0  0  0  0  0  0
    1.9058   -0.3717    1.6153 O   0  0  0  0  0  0  0  0  0  0  0  0
   -0.1699    0.4579    1.8782 N   0  0  0  0  0  0  0  0  0  0  0  0
   -0.9949    0.7710    1.3803 H   0  0  0  0  0  0  0  0  0  0  0  0
    0.0577    0.9298    3.2358 C   0  0  0  0  0  0  0  0  0  0  0  0
    0.8129    1.7224    3.2428 H   0  0  0  0  0  0  0  0  0  0  0  0
   -0.8704    1.3290    3.6553 H   0  0  0  0  0  0  0  0  0  0  0  0
    0.3995    0.1087    3.8745 H   0  0  0  0  0  0  0  0  0  0  0  0
  1  2  1  0  0  0  0
  2  3  1  0  0  0  0
  2  4  1  0  0  0  0
  2  5  1  0  0  0  0
  5  6  2  0  0  0  0
  5  7  1  0  0  0  0
  7  8  1  0  0  0  0
  7  9  1  0  0  0  0
  9 10  1  0  0  0  0
  9 11  1  0  0  0  0
  9 20  1  0  0  0  0
 11 12  1  0  0  0  0
 11 13  1  0  0  0  0
 11 14  1  0  0  0  0
 14 15  1  0  0  0  0
 14 16  1  0  0  0  0
 14 17  1  0  0  0  0
 17 18  1  0  0  0  0
 17 19  2  0  0  0  0
 20 21  2  0  0  0  0
 20 22  1  0  0  0  0
 22 23  1  0  0  0  0
 22 24  1  0  0  0  0
 24 25  1  0  0  0  0
 24 26  1  0  0  0  0
 24 27  1  0  0  0  0
M  CHG  1  18  -1
M  END
$$$$

  -OEChem-04042215583D

 27 26  0     1  0  0  0  0  0999 V2000
   -2.6464   -3.8661    0.3586 H   0  0  0  0  0  0  0  0  0  0  0  0
   -2.5234   -2.9201   -0.1762 C   0  0  0  0  0  0  0  0  0  0  0  0
   -3.2736   -2.2119    0.1845 H   0  0  0  0  0  0  0  0  0  0  0  0
   -2.6818   -3.0961   -1.2432 H   0  0  0  0  0  0  0  0  0  0  0  0
   -1.1300   -2.3631    0.0562 C   0  0  0  0  0  0  0  0  0  0  0  0
   -0.3390   -2.9867    0.7416 O   0  0  0  0  0  0  0  0  0  0  0  0
   -0.7746   -1.1712   -0.5415 N   0  0  0  0  0  0  0  0  0  0  0  0
   -1.4663   -0.7319   -1.1410 H   0  0  0  0  0  0  0  0  0  0  0  0
    0.5259   -0.4899   -0.3833 C   0  0  1  0  0  0  0  0  0  0  0  0
    1.3390   -1.1519   -0.7006 H   0  0  0  0  0  0  0  0  0  0  0  0
    0.4564    0.7220   -1.3544 C   0  0  0  0  0  0  0  0  0  0  0  0
    1.0621    0.4518   -2.2268 H   0  0  0  0  0  0  0  0  0  0  0  0
   -0.5642    0.8732   -1.7217 H   0  0  0  0  0  0  0  0  0  0  0  0
    0.9480    2.0876   -0.8299 C   0  0  0  0  0  0  0  0  0  0  0  0
    0.1319    2.6177   -0.3313 H   0  0  0  0  0  0  0  0  0  0  0  0
    1.7578    1.9551   -0.1070 H   0  0  0  0  0  0  0  0  0  0  0  0
    1.5018    2.9321   -1.9798 C   0  0  0  0  0  0  0  0  0  0  0  0
    0.6864    3.2503   -2.8827 O   0  5  0  0  0  0  0  0  0  0  0  0
    2.7136    3.2563   -1.9633 O   0  0  0  0  0  0  0  0  0  0  0  0
    0.8165   -0.1190    1.0919 C   0  0  0  0  0  0  0  0  0  0  0  0
    1.9094   -0.3511    1.5945 O   0  0  0  0  0  0  0  0  0  0  0  0
   -0.1742    0.4578    1.8680 N   0  0  0  0  0  0  0  0  0  0  0  0
   -0.9971    0.7747    1.3689 H   0  0  0  0  0  0  0  0  0  0  0  0
    0.0636    0.9500    3.2165 C   0  0  0  0  0  0  0  0  0  0  0  0
    0.8045    1.7561    3.2032 H   0  0  0  0  0  0  0  0  0  0  0  0
   -0.8655    1.3374    3.6446 H   0  0  0  0  0  0  0  0  0  0  0  0
    0.4291    0.1429    3.8598 H   0  0  0  0  0  0  0  0  0  0  0  0
  1  2  1  0  0  0  0
  2  3  1  0  0  0  0
  2  4  1  0  0  0  0
  2  5  1  0  0  0  0
  5  6  2  0  0  0  0
  5  7  1  0  0  0  0
  7  8  1  0  0  0  0
  7  9  1  0  0  0  0
  9 10  1  0  0  0  0
  9 11  1  0  0  0  0
  9 20  1  0  0  0  0
 11 12  1  0  0  0  0
 11 13  1  0  0  0  0
 11 14  1  0  0  0  0
 14 15  1  0  0  0  0
 14 16  1  0  0  0  0
 14 17  1  0  0  0  0
 17 18  1  0  0  0  0
 17 19  2  0  0  0  0
 20 21  2  0  0  0  0
 20 22  1  0  0  0  0
 22 23  1  0  0  0  0
 22 24  1  0  0  0  0
 24 25  1  0  0  0  0
 24 26  1  0  0  0  0
 24 27  1  0  0  0  0
M  CHG  1  18  -1
M  END
$$$$

  -OEChem-04042215583D

 27 26  0     1  0  0  0  0  0999 V2000
   -2.6279   -3.8794    0.3302 H   0  0  0  0  0  0  0  0  0  0  0  0
   -2.5127   -2.9249   -0.1911 C   0  0  0  0  0  0  0  0  0  0  0  0
   -3.2572   -2.2226    0.1921 H   0  0  0  0  0  0  0  0  0  0  0  0
   -2.6866   -3.0834   -1.2583 H   0  0  0  0  0  0  0  0  0  0  0  0
   -1.1159   -2.3715    0.0297 C   0  0  0  0  0  0  0  0  0  0  0  0
   -0.3169   -3.0009    0.7007 O   0  0  0  0  0  0  0  0  0  0  0  0
   -0.7666   -1.1741   -0.5598 N   0  0  0  0  0  0  0  0  0  0  0  0
   -1.4707   -0.7187   -1.1324 H   0  0  0  0  0  0  0  0  0  0  0  0
    0.5262   -0.4831   -0.3881 C   0  0  1  0  0  0  0  0  0  0  0  0
    1.3446   -1.1400   -0.7021 H   0  0  0  0  0  0  0  0  0  0  0  0
    0.4643    0.7314   -1.3531 C   0  0  0  0  0  0  0  0  0  0  0  0
    1.0776    0.4818   -2.2261 H   0  0  0  0  0  0  0  0  0  0  0  0
   -0.5569    0.8853   -1.7187 H   0  0  0  0  0  0  0  0  0  0  0  0
    0.9471    2.0803   -0.7934 C   0  0  0  0  0  0  0  0  0  0  0  0
    0.2143    2.4879   -0.0913 H   0  0  0  0  0  0  0  0  0  0  0  0
    1.8948    1.9540   -0.2611 H   0  0  0  0  0  0  0  0  0  0  0  0
    1.1684    3.0654   -1.9405 C   0  0  0  0  0  0  0  0  0  0  0  0
    0.1443    3.6367   -2.3934 O   0  5  0  0  0  0  0  0  0  0  0  0
    2.3277    3.2010   -2.4009 O   0  0  0  0  0  0  0  0  0  0  0  0
    0.8114   -0.1126    1.0883 C   0  0  0  0  0  0  0  0  0  0  0  0
    1.9100   -0.3247    1.5880 O   0  0  0  0  0  0  0  0  0  0  0  0
   -0.1849    0.4551    1.8636 N   0  0  0  0  0  0  0  0  0  0  0  0
   -1.0043    0.7747    1.3594 H   0  0  0  0  0  0  0  0  0  0  0  0
    0.0511    0.9609    3.2073 C   0  0  0  0  0  0  0  0  0  0  0  0
    0.7682    1.7877    3.1831 H   0  0  0  0  0  0  0  0  0  0  0  0
   -0.8849    1.3233    3.6420 H   0  0  0  0  0  0  0  0  0  0  0  0
    0.4455    0.1685    3.8515 H   0  0  0  0  0  0  0  0  0  0  0  0
  1  2  1  0  0  0  0
  2  3  1  0  0  0  0
  2  4  1  0  0  0  0
  2  5  1  0  0  0  0
  5  6  2  0  0  0  0
  5  7  1  0  0  0  0
  7  8  1  0  0  0  0
  7  9  1  0  0  0  0
  9 10  1  0  0  0  0
  9 11  1  0  0  0  0
  9 20  1  0  0  0  0
 11 12  1  0  0  0  0
 11 13  1  0  0  0  0
 11 14  1  0  0  0  0
 14 15  1  0  0  0  0
 14 16  1  0  0  0  0
 14 17  1  0  0  0  0
 17 18  1  0  0  0  0
 17 19  2  0  0  0  0
 20 21  2  0  0  0  0
 20 22  1  0  0  0  0
 22 23  1  0  0  0  0
 22 24  1  0  0  0  0
 24 25  1  0  0  0  0
 24 26  1  0  0  0  0
 24 27  1  0  0  0  0
M  CHG  1  18  -1
M  END
$$$$

  -OEChem-04042215583D

 27 26  0     1  0  0  0  0  0999 V2000
   -2.6590   -3.8576    0.3310 H   0  0  0  0  0  0  0  0  0  0  0  0
   -2.5307   -2.9098   -0.1999 C   0  0  0  0  0  0  0  0  0  0  0  0
   -3.2646   -2.1933    0.1771 H   0  0  0  0  0  0  0  0  0  0  0  0
   -2.7084   -3.0764   -1.2653 H   0  0  0  0  0  0  0  0  0  0  0  0
   -1.1263   -2.3737    0.0146 C   0  0  0  0  0  0  0  0  0  0  0  0
   -0.3323   -3.0127    0.6828 O   0  0  0  0  0  0  0  0  0  0  0  0
   -0.7624   -1.1832   -0.5800 N   0  0  0  0  0  0  0  0  0  0  0  0
   -1.4642   -0.7155   -1.1460 H   0  0  0  0  0  0  0  0  0  0  0  0
    0.5366   -0.5064   -0.4024 C   0  0  1  0  0  0  0  0  0  0  0  0
    1.3548   -1.1629   -0.7168 H   0  0  0  0  0  0  0  0  0  0  0  0
    0.4787    0.7150   -1.3514 C   0  0  0  0  0  0  0  0  0  0  0  0
    0.8183    0.3987   -2.3434 H   0  0  0  0  0  0  0  0  0  0  0  0
   -0.5615    1.0442   -1.4554 H   0  0  0  0  0  0  0  0  0  0  0  0
    1.2883    1.9480   -0.9180 C   0  0  0  0  0  0  0  0  0  0  0  0
    0.9398    2.3257    0.0471 H   0  0  0  0  0  0  0  0  0  0  0  0
    2.3459    1.6853   -0.8176 H   0  0  0  0  0  0  0  0  0  0  0  0
    1.1237    3.0567   -1.9566 C   0  0  0  0  0  0  0  0  0  0  0  0
    0.0325    3.6816   -1.9491 O   0  5  0  0  0  0  0  0  0  0  0  0
    2.0450    3.2333   -2.7902 O   0  0  0  0  0  0  0  0  0  0  0  0
    0.8170   -0.1311    1.0727 C   0  0  0  0  0  0  0  0  0  0  0  0
    1.9131   -0.3458    1.5771 O   0  0  0  0  0  0  0  0  0  0  0  0
   -0.1782    0.4528    1.8373 N   0  0  0  0  0  0  0  0  0  0  0  0
   -0.9853    0.7871    1.3221 H   0  0  0  0  0  0  0  0  0  0  0  0
    0.0620    0.9788    3.1724 C   0  0  0  0  0  0  0  0  0  0  0  0
    0.8006    1.7863    3.1366 H   0  0  0  0  0  0  0  0  0  0  0  0
   -0.8672    1.3742    3.5929 H   0  0  0  0  0  0  0  0  0  0  0  0
    0.4312    0.1893    3.8350 H   0  0  0  0  0  0  0  0  0  0  0  0
  1  2  1  0  0  0  0
  2  3  1  0  0  0  0
  2  4  1  0  0  0  0
  2  5  1  0  0  0  0
  5  6  2  0  0  0  0
  5  7  1  0  0  0  0
  7  8  1  0  0  0  0
  7  9  1  0  0  0  0
  9 10  1  0  0  0  0
  9 11  1  0  0  0  0
  9 20  1  0  0  0  0
 11 12  1  0  0  0  0
 11 13  1  0  0  0  0
 11 14  1  0  0  0  0
 14 15  1  0  0  0  0
 14 16  1  0  0  0  0
 14 17  1  0  0  0  0
 17 18  1  0  0  0  0
 17 19  2  0  0  0  0
 20 21  2  0  0  0  0
 20 22  1  0  0  0  0
 22 23  1  0  0  0  0
 22 24  1  0  0  0  0
 24 25  1  0  0  0  0
 24 26  1  0  0  0  0
 24 27  1  0  0  0  0
M  CHG  1  18  -1
M  END
$$$$

  -OEChem-04042215583D

 27 26  0     1  0  0  0  0  0999 V2000
   -2.7610   -3.7610    0.4555 H   0  0  0  0  0  0  0  0  0  0  0  0
   -2.6311   -2.8107   -0.0703 C   0  0  0  0  0  0  0  0  0  0  0  0
   -3.2926   -2.0665    0.3799 H   0  0  0  0  0  0  0  0  0  0  0  0
   -2.9076   -2.9470   -1.1187 H   0  0  0  0  0  0  0  0  0  0  0  0
   -1.1882   -2.3487    0.0289 C   0  0  0  0  0  0  0  0  0  0  0  0
   -0.3693   -3.0434    0.6055 O   0  0  0  0  0  0  0  0  0  0  0  0
   -0.8192   -1.1618   -0.5696 N   0  0  0  0  0  0  0  0  0  0  0  0
   -1.5518   -0.6317   -1.0324 H   0  0  0  0  0  0  0  0  0  0  0  0
    0.5052   -0.5249   -0.4381 C   0  0  1  0  0  0  0  0  0  0  0  0
    1.2901   -1.2028   -0.7896 H   0  0  0  0  0  0  0  0  0  0  0  0
    0.4456    0.7052   -1.3784 C   0  0  0  0  0  0  0  0  0  0  0  0
    0.7206    0.3922   -2.3909 H   0  0  0  0  0  0  0  0  0  0  0  0
   -0.5930    1.0521   -1.4223 H   0  0  0  0  0  0  0  0  0  0  0  0
    1.3018    1.9257   -0.9861 C   0  0  0  0  0  0  0  0  0  0  0  0
    1.1928    2.1731    0.0722 H   0  0  0  0  0  0  0  0  0  0  0  0
    2.3587    1.7127   -1.1719 H   0  0  0  0  0  0  0  0  0  0  0  0
    0.8560    3.1522   -1.7824 C   0  0  0  0  0  0  0  0  0  0  0  0
    1.5924    3.5541   -2.7155 O   0  5  0  0  0  0  0  0  0  0  0  0
   -0.2672    3.6396   -1.4935 O   0  0  0  0  0  0  0  0  0  0  0  0
    0.8506   -0.1776    1.0294 C   0  0  0  0  0  0  0  0  0  0  0  0
    1.9557   -0.4389    1.4908 O   0  0  0  0  0  0  0  0  0  0  0  0
   -0.0989    0.4245    1.8370 N   0  0  0  0  0  0  0  0  0  0  0  0
   -0.8919    0.8248    1.3462 H   0  0  0  0  0  0  0  0  0  0  0  0
    0.2103    0.9240    3.1683 C   0  0  0  0  0  0  0  0  0  0  0  0
    0.9697    1.7109    3.1143 H   0  0  0  0  0  0  0  0  0  0  0  0
   -0.6894    1.3394    3.6313 H   0  0  0  0  0  0  0  0  0  0  0  0
    0.5827    0.1144    3.8043 H   0  0  0  0  0  0  0  0  0  0  0  0
  1  2  1  0  0  0  0
  2  3  1  0  0  0  0
  2  4  1  0  0  0  0
  2  5  1  0  0  0  0
  5  6  2  0  0  0  0
  5  7  1  0  0  0  0
  7  8  1  0  0  0  0
  7  9  1  0  0  0  0
  9 10  1  0  0  0  0
  9 11  1  0  0  0  0
  9 20  1  0  0  0  0
 11 12  1  0  0  0  0
 11 13  1  0  0  0  0
 11 14  1  0  0  0  0
 14 15  1  0  0  0  0
 14 16  1  0  0  0  0
 14 17  1  0  0  0  0
 17 18  1  0  0  0  0
 17 19  2  0  0  0  0
 20 21  2  0  0  0  0
 20 22  1  0  0  0  0
 22 23  1  0  0  0  0
 22 24  1  0  0  0  0
 24 25  1  0  0  0  0
 24 26  1  0  0  0  0
 24 27  1  0  0  0  0
M  CHG  1  18  -1
M  END
$$$$

  -OEChem-04042215583D

 27 26  0     1  0  0  0  0  0999 V2000
   -2.7499   -3.7477    0.4921 H   0  0  0  0  0  0  0  0  0  0  0  0
   -2.6215   -2.7969   -0.0329 C   0  0  0  0  0  0  0  0  0  0  0  0
   -3.2536   -2.0439    0.4443 H   0  0  0  0  0  0  0  0  0  0  0  0
   -2.9372   -2.9221   -1.0718 H   0  0  0  0  0  0  0  0  0  0  0  0
   -1.1678   -2.3608    0.0185 C   0  0  0  0  0  0  0  0  0  0  0  0
   -0.3391   -3.0782    0.5523 O   0  0  0  0  0  0  0  0  0  0  0  0
   -0.7992   -1.1751   -0.5822 N   0  0  0  0  0  0  0  0  0  0  0  0
   -1.5466   -0.6144   -0.9811 H   0  0  0  0  0  0  0  0  0  0  0  0
    0.5239   -0.5369   -0.4387 C   0  0  1  0  0  0  0  0  0  0  0  0
    1.3153   -1.2108   -0.7834 H   0  0  0  0  0  0  0  0  0  0  0  0
    0.4584    0.6946   -1.3796 C   0  0  0  0  0  0  0  0  0  0  0  0
    0.7326    0.3832   -2.3925 H   0  0  0  0  0  0  0  0  0  0  0  0
   -0.5866    1.0211   -1.4263 H   0  0  0  0  0  0  0  0  0  0  0  0
    1.3001    1.9359   -1.0006 C   0  0  0  0  0  0  0  0  0  0  0  0
    1.4175    2.0519    0.0778 H   0  0  0  0  0  0  0  0  0  0  0  0
    2.3029    1.8427   -1.4278 H   0  0  0  0  0  0  0  0  0  0  0  0
    0.6192    3.2080   -1.5075 C   0  0  0  0  0  0  0  0  0  0  0  0
    1.1282    3.8069   -2.4856 O   0  5  0  0  0  0  0  0  0  0  0  0
   -0.4613    3.5320   -0.9488 O   0  0  0  0  0  0  0  0  0  0  0  0
    0.8486   -0.1871    1.0328 C   0  0  0  0  0  0  0  0  0  0  0  0
    1.9425   -0.4642    1.5123 O   0  0  0  0  0  0  0  0  0  0  0  0
   -0.1124    0.4163    1.8259 N   0  0  0  0  0  0  0  0  0  0  0  0
   -0.8648    0.8655    1.3113 H   0  0  0  0  0  0  0  0  0  0  0  0
    0.1896    0.9199    3.1574 C   0  0  0  0  0  0  0  0  0  0  0  0
    0.9425    1.7128    3.1026 H   0  0  0  0  0  0  0  0  0  0  0  0
   -0.7146    1.3290    3.6174 H   0  0  0  0  0  0  0  0  0  0  0  0
    0.5675    0.1153    3.7964 H   0  0  0  0  0  0  0  0  0  0  0  0
  1  2  1  0  0  0  0
  2  3  1  0  0  0  0
  2  4  1  0  0  0  0
  2  5  1  0  0  0  0
  5  6  2  0  0  0  0
  5  7  1  0  0  0  0
  7  8  1  0  0  0  0
  7  9  1  0  0  0  0
  9 10  1  0  0  0  0
  9 11  1  0  0  0  0
  9 20  1  0  0  0  0
 11 12  1  0  0  0  0
 11 13  1  0  0  0  0
 11 14  1  0  0  0  0
 14 15  1  0  0  0  0
 14 16  1  0  0  0  0
 14 17  1  0  0  0  0
 17 18  1  0  0  0  0
 17 19  2  0  0  0  0
 20 21  2  0  0  0  0
 20 22  1  0  0  0  0
 22 23  1  0  0  0  0
 22 24  1  0  0  0  0
 24 25  1  0  0  0  0
 24 26  1  0  0  0  0
 24 27  1  0  0  0  0
M  CHG  1  18  -1
M  END
$$$$

  -OEChem-04042215583D

 27 26  0     1  0  0  0  0  0999 V2000
   -2.6904   -3.7188    0.5969 H   0  0  0  0  0  0  0  0  0  0  0  0
   -2.5780   -2.7677    0.0688 C   0  0  0  0  0  0  0  0  0  0  0  0
   -3.1467   -2.0009    0.6009 H   0  0  0  0  0  0  0  0  0  0  0  0
   -2.9804   -2.8748   -0.9415 H   0  0  0  0  0  0  0  0  0  0  0  0
   -1.1134   -2.3728    0.0047 C   0  0  0  0  0  0  0  0  0  0  0  0
   -0.2644   -3.1203    0.4607 O   0  0  0  0  0  0  0  0  0  0  0  0
   -0.7599   -1.1959   -0.6217 N   0  0  0  0  0  0  0  0  0  0  0  0
   -1.5295   -0.5991   -0.9110 H   0  0  0  0  0  0  0  0  0  0  0  0
    0.5586   -0.5507   -0.4689 C   0  0  1  0  0  0  0  0  0  0  0  0
    1.3647   -1.2107   -0.8052 H   0  0  0  0  0  0  0  0  0  0  0  0
    0.4639    0.6864   -1.3990 C   0  0  0  0  0  0  0  0  0  0  0  0
    0.7563    0.3824   -2.4092 H   0  0  0  0  0  0  0  0  0  0  0  0
   -0.5878    0.9865   -1.4677 H   0  0  0  0  0  0  0  0  0  0  0  0
    1.2894    1.9400   -1.0111 C   0  0  0  0  0  0  0  0  0  0  0  0
    1.6751    1.9161    0.0083 H   0  0  0  0  0  0  0  0  0  0  0  0
    2.1593    2.0112   -1.6709 H   0  0  0  0  0  0  0  0  0  0  0  0
    0.4280    3.1946   -1.1535 C   0  0  0  0  0  0  0  0  0  0  0  0
    0.7052    4.0207   -2.0558 O   0  5  0  0  0  0  0  0  0  0  0  0
   -0.5680    3.2713   -0.3851 O   0  0  0  0  0  0  0  0  0  0  0  0
    0.8466   -0.1772    1.0048 C   0  0  0  0  0  0  0  0  0  0  0  0
    1.9051   -0.5042    1.5309 O   0  0  0  0  0  0  0  0  0  0  0  0
   -0.1379    0.4361    1.7611 N   0  0  0  0  0  0  0  0  0  0  0  0
   -0.7872    0.9944    1.2073 H   0  0  0  0  0  0  0  0  0  0  0  0
    0.1200    0.8928    3.1183 C   0  0  0  0  0  0  0  0  0  0  0  0
    0.9166    1.6439    3.1229 H   0  0  0  0  0  0  0  0  0  0  0  0
   -0.7842    1.3416    3.5398 H   0  0  0  0  0  0  0  0  0  0  0  0
    0.4183    0.0546    3.7563 H   0  0  0  0  0  0  0  0  0  0  0  0
  1  2  1  0  0  0  0
  2  3  1  0  0  0  0
  2  4  1  0  0  0  0
  2  5  1  0  0  0  0
  5  6  2  0  0  0  0
  5  7  1  0  0  0  0
  7  8  1  0  0  0  0
  7  9  1  0  0  0  0
  9 10  1  0  0  0  0
  9 11  1  0  0  0  0
  9 20  1  0  0  0  0
 11 12  1  0  0  0  0
 11 13  1  0  0  0  0
 11 14  1  0  0  0  0
 14 15  1  0  0  0  0
 14 16  1  0  0  0  0
 14 17  1  0  0  0  0
 17 18  1  0  0  0  0
 17 19  2  0  0  0  0
 20 21  2  0  0  0  0
 20 22  1  0  0  0  0
 22 23  1  0  0  0  0
 22 24  1  0  0  0  0
 24 25  1  0  0  0  0
 24 26  1  0  0  0  0
 24 27  1  0  0  0  0
M  CHG  1  18  -1
M  END
$$$$

  -OEChem-04042215583D

 27 26  0     1  0  0  0  0  0999 V2000
   -2.6757   -3.6588    0.5627 H   0  0  0  0  0  0  0  0  0  0  0  0
   -2.5454   -2.7209    0.0158 C   0  0  0  0  0  0  0  0  0  0  0  0
   -3.0880   -1.9302    0.5404 H   0  0  0  0  0  0  0  0  0  0  0  0
   -2.9628   -2.8354   -0.9875 H   0  0  0  0  0  0  0  0  0  0  0  0
   -1.0723   -2.3642   -0.0730 C   0  0  0  0  0  0  0  0  0  0  0  0
   -0.2334   -3.1449    0.3458 O   0  0  0  0  0  0  0  0  0  0  0  0
   -0.7011   -1.1893   -0.6927 N   0  0  0  0  0  0  0  0  0  0  0  0
   -1.4694   -0.5649   -0.9211 H   0  0  0  0  0  0  0  0  0  0  0  0
    0.6048   -0.5426   -0.4654 C   0  0  1  0  0  0  0  0  0  0  0  0
    1.4323   -1.1957   -0.7608 H   0  0  0  0  0  0  0  0  0  0  0  0
    0.5363    0.6963   -1.3937 C   0  0  0  0  0  0  0  0  0  0  0  0
    0.9165    0.3917   -2.3738 H   0  0  0  0  0  0  0  0  0  0  0  0
   -0.5088    0.9845   -1.5576 H   0  0  0  0  0  0  0  0  0  0  0  0
    1.3329    1.9452   -0.9419 C   0  0  0  0  0  0  0  0  0  0  0  0
    1.9152    1.7936   -0.0316 H   0  0  0  0  0  0  0  0  0  0  0  0
    2.0493    2.2063   -1.7267 H   0  0  0  0  0  0  0  0  0  0  0  0
    0.3642    3.1134   -0.7502 C   0  0  0  0  0  0  0  0  0  0  0  0
   -0.5693    2.9203    0.0777 O   0  5  0  0  0  0  0  0  0  0  0  0
    0.5098    4.1496   -1.4410 O   0  0  0  0  0  0  0  0  0  0  0  0
    0.8119   -0.1580    1.0208 C   0  0  0  0  0  0  0  0  0  0  0  0
    1.8101   -0.5501    1.6171 O   0  0  0  0  0  0  0  0  0  0  0  0
   -0.2091    0.4621    1.7208 N   0  0  0  0  0  0  0  0  0  0  0  0
   -0.7048    1.1568    1.1482 H   0  0  0  0  0  0  0  0  0  0  0  0
   -0.0536    0.8089    3.1251 C   0  0  0  0  0  0  0  0  0  0  0  0
    0.7777    1.5092    3.2560 H   0  0  0  0  0  0  0  0  0  0  0  0
   -0.9679    1.2817    3.4956 H   0  0  0  0  0  0  0  0  0  0  0  0
    0.1386   -0.0872    3.7238 H   0  0  0  0  0  0  0  0  0  0  0  0
  1  2  1  0  0  0  0
  2  3  1  0  0  0  0
  2  4  1  0  0  0  0
  2  5  1  0  0  0  0
  5  6  2  0  0  0  0
  5  7  1  0  0  0  0
  7  8  1  0  0  0  0
  7  9  1  0  0  0  0
  9 10  1  0  0  0  0
  9 11  1  0  0  0  0
  9 20  1  0  0  0  0
 11 12  1  0  0  0  0
 11 13  1  0  0  0  0
 11 14  1  0  0  0  0
 14 15  1  0  0  0  0
 14 16  1  0  0  0  0
 14 17  1  0  0  0  0
 17 18  1  0  0  0  0
 17 19  2  0  0  0  0
 20 21  2  0  0  0  0
 20 22  1  0  0  0  0
 22 23  1  0  0  0  0
 22 24  1  0  0  0  0
 24 25  1  0  0  0  0
 24 26  1  0  0  0  0
 24 27  1  0  0  0  0
M  CHG  1  18  -1
M  END
$$$$

  -OEChem-04042215583D

 27 26  0     1  0  0  0  0  0999 V2000
   -2.6457   -3.6973    0.5667 H   0  0  0  0  0  0  0  0  0  0  0  0
   -2.5426   -2.7448    0.0393 C   0  0  0  0  0  0  0  0  0  0  0  0
   -3.0762   -1.9734    0.6005 H   0  0  0  0  0  0  0  0  0  0  0  0
   -2.9902   -2.8391   -0.9531 H   0  0  0  0  0  0  0  0  0  0  0  0
   -1.0768   -2.3694   -0.0864 C   0  0  0  0  0  0  0  0  0  0  0  0
   -0.2174   -3.1511    0.2864 O   0  0  0  0  0  0  0  0  0  0  0  0
   -0.7379   -1.1731   -0.6827 N   0  0  0  0  0  0  0  0  0  0  0  0
   -1.5207   -0.5507   -0.8626 H   0  0  0  0  0  0  0  0  0  0  0  0
    0.5562   -0.5084   -0.4498 C   0  0  1  0  0  0  0  0  0  0  0  0
    1.3778   -1.1747   -0.7334 H   0  0  0  0  0  0  0  0  0  0  0  0
    0.5335    0.6964   -1.4257 C   0  0  0  0  0  0  0  0  0  0  0  0
    0.9657    0.3485   -2.3691 H   0  0  0  0  0  0  0  0  0  0  0  0
   -0.4974    0.9869   -1.6583 H   0  0  0  0  0  0  0  0  0  0  0  0
    1.3199    1.9502   -0.9831 C   0  0  0  0  0  0  0  0  0  0  0  0
    2.0552    1.7224   -0.2077 H   0  0  0  0  0  0  0  0  0  0  0  0
    1.8752    2.3306   -1.8458 H   0  0  0  0  0  0  0  0  0  0  0  0
    0.3659    3.0554   -0.5052 C   0  0  0  0  0  0  0  0  0  0  0  0
   -0.6402    2.7067    0.1730 O   0  5  0  0  0  0  0  0  0  0  0  0
    0.6257    4.2364   -0.8353 O   0  0  0  0  0  0  0  0  0  0  0  0
    0.7904   -0.1462    1.0390 C   0  0  0  0  0  0  0  0  0  0  0  0
    1.8104   -0.5340    1.6011 O   0  0  0  0  0  0  0  0  0  0  0  0
   -0.2162    0.4421    1.7824 N   0  0  0  0  0  0  0  0  0  0  0  0
   -0.7367    1.1396    1.2331 H   0  0  0  0  0  0  0  0  0  0  0  0
   -0.0225    0.7722    3.1858 C   0  0  0  0  0  0  0  0  0  0  0  0
    0.7999    1.4856    3.3002 H   0  0  0  0  0  0  0  0  0  0  0  0
   -0.9331    1.2231    3.5910 H   0  0  0  0  0  0  0  0  0  0  0  0
    0.2045   -0.1282    3.7656 H   0  0  0  0  0  0  0  0  0  0  0  0
  1  2  1  0  0  0  0
  2  3  1  0  0  0  0
  2  4  1  0  0  0  0
  2  5  1  0  0  0  0
  5  6  2  0  0  0  0
  5  7  1  0  0  0  0
  7  8  1  0  0  0  0
  7  9  1  0  0  0  0
  9 10  1  0  0  0  0
  9 11  1  0  0  0  0
  9 20  1  0  0  0  0
 11 12  1  0  0  0  0
 11 13  1  0  0  0  0
 11 14  1  0  0  0  0
 14 15  1  0  0  0  0
 14 16  1  0  0  0  0
 14 17  1  0  0  0  0
 17 18  1  0  0  0  0
 17 19  2  0  0  0  0
 20 21  2  0  0  0  0
 20 22  1  0  0  0  0
 22 23  1  0  0  0  0
 22 24  1  0  0  0  0
 24 25  1  0  0  0  0
 24 26  1  0  0  0  0
 24 27  1  0  0  0  0
M  CHG  1  18  -1
M  END
$$$$

  -OEChem-04042215583D

 27 26  0     1  0  0  0  0  0999 V2000
   -2.6239   -3.7443    0.5565 H   0  0  0  0  0  0  0  0  0  0  0  0
   -2.5401   -2.7799    0.0479 C   0  0  0  0  0  0  0  0  0  0  0  0
   -3.0745   -2.0269    0.6327 H   0  0  0  0  0  0  0  0  0  0  0  0
   -3.0009   -2.8591   -0.9397 H   0  0  0  0  0  0  0  0  0  0  0  0
   -1.0808   -2.3846   -0.0902 C   0  0  0  0  0  0  0  0  0  0  0  0
   -0.2073   -3.1605    0.2625 O   0  0  0  0  0  0  0  0  0  0  0  0
   -0.7639   -1.1759   -0.6732 N   0  0  0  0  0  0  0  0  0  0  0  0
   -1.5560   -0.5591   -0.8317 H   0  0  0  0  0  0  0  0  0  0  0  0
    0.5221   -0.4976   -0.4412 C   0  0  1  0  0  0  0  0  0  0  0  0
    1.3398   -1.1700   -0.7215 H   0  0  0  0  0  0  0  0  0  0  0  0
    0.5213    0.6872   -1.4419 C   0  0  0  0  0  0  0  0  0  0  0  0
    0.9764    0.3194   -2.3667 H   0  0  0  0  0  0  0  0  0  0  0  0
   -0.5025    0.9757   -1.7045 H   0  0  0  0  0  0  0  0  0  0  0  0
    1.2995    1.9470   -1.0077 C   0  0  0  0  0  0  0  0  0  0  0  0
    2.1756    1.6715   -0.4138 H   0  0  0  0  0  0  0  0  0  0  0  0
    1.6595    2.4531   -1.9081 H   0  0  0  0  0  0  0  0  0  0  0  0
    0.4316    2.9522   -0.2288 C   0  0  0  0  0  0  0  0  0  0  0  0
   -0.7180    2.5944    0.1534 O   0  5  0  0  0  0  0  0  0  0  0  0
    0.9196    4.0889   -0.0296 O   0  0  0  0  0  0  0  0  0  0  0  0
    0.7804   -0.1448    1.0457 C   0  0  0  0  0  0  0  0  0  0  0  0
    1.8211   -0.5169    1.5795 O   0  0  0  0  0  0  0  0  0  0  0  0
   -0.2144    0.4246    1.8188 N   0  0  0  0  0  0  0  0  0  0  0  0
   -0.7762    1.0976    1.2804 H   0  0  0  0  0  0  0  0  0  0  0  0
    0.0214    0.7787    3.2101 C   0  0  0  0  0  0  0  0  0  0  0  0
    0.8264    1.5169    3.2847 H   0  0  0  0  0  0  0  0  0  0  0  0
   -0.8861    1.2090    3.6437 H   0  0  0  0  0  0  0  0  0  0  0  0
    0.2958   -0.1071    3.7918 H   0  0  0  0  0  0  0  0  0  0  0  0
  1  2  1  0  0  0  0
  2  3  1  0  0  0  0
  2  4  1  0  0  0  0
  2  5  1  0  0  0  0
  5  6  2  0  0  0  0
  5  7  1  0  0  0  0
  7  8  1  0  0  0  0
  7  9  1  0  0  0  0
  9 10  1  0  0  0  0
  9 11  1  0  0  0  0
  9 20  1  0  0  0  0
 11 12  1  0  0  0  0
 11 13  1  0  0  0  0
 11 14  1  0  0  0  0
 14 15  1  0  0  0  0
 14 16  1  0  0  0  0
 14 17  1  0  0  0  0
 17 18  1  0  0  0  0
 17 19  2  0  0  0  0
 20 21  2  0  0  0  0
 20 22  1  0  0  0  0
 22 23  1  0  0  0  0
 22 24  1  0  0  0  0
 24 25  1  0  0  0  0
 24 26  1  0  0  0  0
 24 27  1  0  0  0  0
M  CHG  1  18  -1
M  END
$$$$

  -OEChem-04042215583D

 27 26  0     1  0  0  0  0  0999 V2000
   -2.6114   -3.7827    0.5223 H   0  0  0  0  0  0  0  0  0  0  0  0
   -2.5359   -2.8013    0.0459 C   0  0  0  0  0  0  0  0  0  0  0  0
   -3.0692   -2.0708    0.6595 H   0  0  0  0  0  0  0  0  0  0  0  0
   -3.0042   -2.8495   -0.9401 H   0  0  0  0  0  0  0  0  0  0  0  0
   -1.0795   -2.3943   -0.0902 C   0  0  0  0  0  0  0  0  0  0  0  0
   -0.2006   -3.1705    0.2473 O   0  0  0  0  0  0  0  0  0  0  0  0
   -0.7731   -1.1750   -0.6568 N   0  0  0  0  0  0  0  0  0  0  0  0
   -1.5703   -0.5626   -0.8056 H   0  0  0  0  0  0  0  0  0  0  0  0
    0.5079   -0.4884   -0.4212 C   0  0  1  0  0  0  0  0  0  0  0  0
    1.3229   -1.1664   -0.6971 H   0  0  0  0  0  0  0  0  0  0  0  0
    0.5276    0.6785   -1.4462 C   0  0  0  0  0  0  0  0  0  0  0  0
    0.9817    0.2923   -2.3640 H   0  0  0  0  0  0  0  0  0  0  0  0
   -0.4962    0.9660   -1.7096 H   0  0  0  0  0  0  0  0  0  0  0  0
    1.2913    1.9591   -1.0491 C   0  0  0  0  0  0  0  0  0  0  0  0
    2.2750    1.6891   -0.6533 H   0  0  0  0  0  0  0  0  0  0  0  0
    1.4456    2.5645   -1.9467 H   0  0  0  0  0  0  0  0  0  0  0  0
    0.5467    2.8271   -0.0209 C   0  0  0  0  0  0  0  0  0  0  0  0
   -0.6749    2.5860    0.1922 O   0  5  0  0  0  0  0  0  0  0  0  0
    1.1907    3.7496    0.5291 O   0  0  0  0  0  0  0  0  0  0  0  0
    0.7796   -0.1491    1.0659 C   0  0  0  0  0  0  0  0  0  0  0  0
    1.8237   -0.5326    1.5844 O   0  0  0  0  0  0  0  0  0  0  0  0
   -0.2104    0.4040    1.8570 N   0  0  0  0  0  0  0  0  0  0  0  0
   -0.7787    1.0811    1.3319 H   0  0  0  0  0  0  0  0  0  0  0  0
    0.0503    0.7566    3.2444 C   0  0  0  0  0  0  0  0  0  0  0  0
    0.8600    1.4913    3.3055 H   0  0  0  0  0  0  0  0  0  0  0  0
   -0.8475    1.1917    3.6928 H   0  0  0  0  0  0  0  0  0  0  0  0
    0.3300   -0.1302    3.8217 H   0  0  0  0  0  0  0  0  0  0  0  0
  1  2  1  0  0  0  0
  2  3  1  0  0  0  0
  2  4  1  0  0  0  0
  2  5  1  0  0  0  0
  5  6  2  0  0  0  0
  5  7  1  0  0  0  0
  7  8  1  0  0  0  0
  7  9  1  0  0  0  0
  9 10  1  0  0  0  0
  9 11  1  0  0  0  0
  9 20  1  0  0  0  0
 11 12  1  0  0  0  0
 11 13  1  0  0  0  0
 11 14  1  0  0  0  0
 14 15  1  0  0  0  0
 14 16  1  0  0  0  0
 14 17  1  0  0  0  0
 17 18  1  0  0  0  0
 17 19  2  0  0  0  0
 20 21  2  0  0  0  0
 20 22  1  0  0  0  0
 22 23  1  0  0  0  0
 22 24  1  0  0  0  0
 24 25  1  0  0  0  0
 24 26  1  0  0  0  0
 24 27  1  0  0  0  0
M  CHG  1  18  -1
M  END
$$$$

  -OEChem-04042215583D

 27 26  0     1  0  0  0  0  0999 V2000
   -2.5944   -3.7909    0.5232 H   0  0  0  0  0  0  0  0  0  0  0  0
   -2.5254   -2.8058    0.0530 C   0  0  0  0  0  0  0  0  0  0  0  0
   -3.0541   -2.0811    0.6774 H   0  0  0  0  0  0  0  0  0  0  0  0
   -3.0030   -2.8480   -0.9289 H   0  0  0  0  0  0  0  0  0  0  0  0
   -1.0708   -2.3952   -0.0932 C   0  0  0  0  0  0  0  0  0  0  0  0
   -0.1886   -3.1795    0.2151 O   0  0  0  0  0  0  0  0  0  0  0  0
   -0.7721   -1.1648   -0.6400 N   0  0  0  0  0  0  0  0  0  0  0  0
   -1.5733   -0.5549   -0.7732 H   0  0  0  0  0  0  0  0  0  0  0  0
    0.5055   -0.4735   -0.3937 C   0  0  1  0  0  0  0  0  0  0  0  0
    1.3185   -1.1584   -0.6594 H   0  0  0  0  0  0  0  0  0  0  0  0
    0.5521    0.6699   -1.4505 C   0  0  0  0  0  0  0  0  0  0  0  0
    0.9928    0.2550   -2.3623 H   0  0  0  0  0  0  0  0  0  0  0  0
   -0.4746    0.9565   -1.7039 H   0  0  0  0  0  0  0  0  0  0  0  0
    1.2945    1.9842   -1.1256 C   0  0  0  0  0  0  0  0  0  0  0  0
    2.3492    1.7570   -0.9439 H   0  0  0  0  0  0  0  0  0  0  0  0
    1.2384    2.6454   -1.9947 H   0  0  0  0  0  0  0  0  0  0  0  0
    0.7356    2.7377    0.0870 C   0  0  0  0  0  0  0  0  0  0  0  0
   -0.5044    2.6365    0.3037 O   0  5  0  0  0  0  0  0  0  0  0  0
    1.5181    3.4452    0.7612 O   0  0  0  0  0  0  0  0  0  0  0  0
    0.7771   -0.1554    1.0990 C   0  0  0  0  0  0  0  0  0  0  0  0
    1.8017   -0.5876    1.6183 O   0  0  0  0  0  0  0  0  0  0  0  0
   -0.2155    0.3794    1.8999 N   0  0  0  0  0  0  0  0  0  0  0  0
   -0.7448    1.1035    1.3979 H   0  0  0  0  0  0  0  0  0  0  0  0
    0.0380    0.6661    3.3039 C   0  0  0  0  0  0  0  0  0  0  0  0
    0.8602    1.3825    3.4039 H   0  0  0  0  0  0  0  0  0  0  0  0
   -0.8558    1.0971    3.7637 H   0  0  0  0  0  0  0  0  0  0  0  0
    0.2970   -0.2501    3.8440 H   0  0  0  0  0  0  0  0  0  0  0  0
  1  2  1  0  0  0  0
  2  3  1  0  0  0  0
  2  4  1  0  0  0  0
  2  5  1  0  0  0  0
  5  6  2  0  0  0  0
  5  7  1  0  0  0  0
  7  8  1  0  0  0  0
  7  9  1  0  0  0  0
  9 10  1  0  0  0  0
  9 11  1  0  0  0  0
  9 20  1  0  0  0  0
 11 12  1  0  0  0  0
 11 13  1  0  0  0  0
 11 14  1  0  0  0  0
 14 15  1  0  0  0  0
 14 16  1  0  0  0  0
 14 17  1  0  0  0  0
 17 18  1  0  0  0  0
 17 19  2  0  0  0  0
 20 21  2  0  0  0  0
 20 22  1  0  0  0  0
 22 23  1  0  0  0  0
 22 24  1  0  0  0  0
 24 25  1  0  0  0  0
 24 26  1  0  0  0  0
 24 27  1  0  0  0  0
M  CHG  1  18  -1
M  END
$$$$

  -OEChem-04042215583D

 27 26  0     1  0  0  0  0  0999 V2000
   -2.6412   -3.7440    0.5134 H   0  0  0  0  0  0  0  0  0  0  0  0
   -2.5510   -2.7596    0.0453 C   0  0  0  0  0  0  0  0  0  0  0  0
   -3.0701   -2.0263    0.6678 H   0  0  0  0  0  0  0  0  0  0  0  0
   -3.0228   -2.7917   -0.9397 H   0  0  0  0  0  0  0  0  0  0  0  0
   -1.0882   -2.3756   -0.0919 C   0  0  0  0  0  0  0  0  0  0  0  0
   -0.2234   -3.1820    0.2082 O   0  0  0  0  0  0  0  0  0  0  0  0
   -0.7642   -1.1479   -0.6311 N   0  0  0  0  0  0  0  0  0  0  0  0
   -1.5554   -0.5259   -0.7651 H   0  0  0  0  0  0  0  0  0  0  0  0
    0.5211   -0.4770   -0.3625 C   0  0  1  0  0  0  0  0  0  0  0  0
    1.3265   -1.1792   -0.6051 H   0  0  0  0  0  0  0  0  0  0  0  0
    0.6143    0.6445   -1.4458 C   0  0  0  0  0  0  0  0  0  0  0  0
    1.0323    0.1955   -2.3522 H   0  0  0  0  0  0  0  0  0  0  0  0
   -0.4098    0.9476   -1.6898 H   0  0  0  0  0  0  0  0  0  0  0  0
    1.3570    1.9772   -1.1951 C   0  0  0  0  0  0  0  0  0  0  0  0
    2.4321    1.7801   -1.2465 H   0  0  0  0  0  0  0  0  0  0  0  0
    1.1110    2.6770   -1.9988 H   0  0  0  0  0  0  0  0  0  0  0  0
    1.0660    2.6537    0.1432 C   0  0  0  0  0  0  0  0  0  0  0  0
   -0.1513    2.7315    0.4665 O   0  5  0  0  0  0  0  0  0  0  0  0
    2.0120    3.1447    0.7995 O   0  0  0  0  0  0  0  0  0  0  0  0
    0.7630   -0.1731    1.1390 C   0  0  0  0  0  0  0  0  0  0  0  0
    1.7275   -0.6922    1.6926 O   0  0  0  0  0  0  0  0  0  0  0  0
   -0.2443    0.3718    1.9149 N   0  0  0  0  0  0  0  0  0  0  0  0
   -0.6678    1.1763    1.4361 H   0  0  0  0  0  0  0  0  0  0  0  0
   -0.0600    0.5471    3.3479 C   0  0  0  0  0  0  0  0  0  0  0  0
    0.7956    1.2019    3.5443 H   0  0  0  0  0  0  0  0  0  0  0  0
   -0.9533    1.0013    3.7862 H   0  0  0  0  0  0  0  0  0  0  0  0
    0.1113   -0.4178    3.8357 H   0  0  0  0  0  0  0  0  0  0  0  0
  1  2  1  0  0  0  0
  2  3  1  0  0  0  0
  2  4  1  0  0  0  0
  2  5  1  0  0  0  0
  5  6  2  0  0  0  0
  5  7  1  0  0  0  0
  7  8  1  0  0  0  0
  7  9  1  0  0  0  0
  9 10  1  0  0  0  0
  9 11  1  0  0  0  0
  9 20  1  0  0  0  0
 11 12  1  0  0  0  0
 11 13  1  0  0  0  0
 11 14  1  0  0  0  0
 14 15  1  0  0  0  0
 14 16  1  0  0  0  0
 14 17  1  0  0  0  0
 17 18  1  0  0  0  0
 17 19  2  0  0  0  0
 20 21  2  0  0  0  0
 20 22  1  0  0  0  0
 22 23  1  0  0  0  0
 22 24  1  0  0  0  0
 24 25  1  0  0  0  0
 24 26  1  0  0  0  0
 24 27  1  0  0  0  0
M  CHG  1  18  -1
M  END
$$$$

  -OEChem-04042215583D

 27 26  0     1  0  0  0  0  0999 V2000
   -2.7379   -3.6381    0.5491 H   0  0  0  0  0  0  0  0  0  0  0  0
   -2.6115   -2.6624    0.0717 C   0  0  0  0  0  0  0  0  0  0  0  0
   -3.0901   -1.9030    0.6952 H   0  0  0  0  0  0  0  0  0  0  0  0
   -3.0974   -2.6813   -0.9067 H   0  0  0  0  0  0  0  0  0  0  0  0
   -1.1356   -2.3433   -0.0870 C   0  0  0  0  0  0  0  0  0  0  0  0
   -0.3037   -3.1912    0.1900 O   0  0  0  0  0  0  0  0  0  0  0  0
   -0.7663   -1.1311   -0.6326 N   0  0  0  0  0  0  0  0  0  0  0  0
   -1.5359   -0.4817   -0.7582 H   0  0  0  0  0  0  0  0  0  0  0  0
    0.5404   -0.5040   -0.3525 C   0  0  1  0  0  0  0  0  0  0  0  0
    1.3300   -1.2277   -0.5849 H   0  0  0  0  0  0  0  0  0  0  0  0
    0.6609    0.6120   -1.4432 C   0  0  0  0  0  0  0  0  0  0  0  0
    1.0413    0.1411   -2.3552 H   0  0  0  0  0  0  0  0  0  0  0  0
   -0.3601    0.9409   -1.6658 H   0  0  0  0  0  0  0  0  0  0  0  0
    1.4273    1.9439   -1.2481 C   0  0  0  0  0  0  0  0  0  0  0  0
    2.4595    1.7770   -1.5709 H   0  0  0  0  0  0  0  0  0  0  0  0
    0.9996    2.6980   -1.9151 H   0  0  0  0  0  0  0  0  0  0  0  0
    1.4844    2.5238    0.1599 C   0  0  0  0  0  0  0  0  0  0  0  0
    0.3651    2.7913    0.6749 O   0  5  0  0  0  0  0  0  0  0  0  0
    2.5938    2.7720    0.6834 O   0  0  0  0  0  0  0  0  0  0  0  0
    0.7598   -0.2048    1.1538 C   0  0  0  0  0  0  0  0  0  0  0  0
    1.6408   -0.8235    1.7428 O   0  0  0  0  0  0  0  0  0  0  0  0
   -0.2515    0.3788    1.8967 N   0  0  0  0  0  0  0  0  0  0  0  0
   -0.5302    1.2636    1.4559 H   0  0  0  0  0  0  0  0  0  0  0  0
   -0.1561    0.4418    3.3482 C   0  0  0  0  0  0  0  0  0  0  0  0
    0.7411    0.9941    3.6474 H   0  0  0  0  0  0  0  0  0  0  0  0
   -1.0319    0.9532    3.7578 H   0  0  0  0  0  0  0  0  0  0  0  0
   -0.1128   -0.5650    3.7759 H   0  0  0  0  0  0  0  0  0  0  0  0
  1  2  1  0  0  0  0
  2  3  1  0  0  0  0
  2  4  1  0  0  0  0
  2  5  1  0  0  0  0
  5  6  2  0  0  0  0
  5  7  1  0  0  0  0
  7  8  1  0  0  0  0
  7  9  1  0  0  0  0
  9 10  1  0  0  0  0
  9 11  1  0  0  0  0
  9 20  1  0  0  0  0
 11 12  1  0  0  0  0
 11 13  1  0  0  0  0
 11 14  1  0  0  0  0
 14 15  1  0  0  0  0
 14 16  1  0  0  0  0
 14 17  1  0  0  0  0
 17 18  1  0  0  0  0
 17 19  2  0  0  0  0
 20 21  2  0  0  0  0
 20 22  1  0  0  0  0
 22 23  1  0  0  0  0
 22 24  1  0  0  0  0
 24 25  1  0  0  0  0
 24 26  1  0  0  0  0
 24 27  1  0  0  0  0
M  CHG  1  18  -1
M  END
$$$$

  -OEChem-04042215583D

 27 26  0     1  0  0  0  0  0999 V2000
   -2.8963   -3.4781    0.4844 H   0  0  0  0  0  0  0  0  0  0  0  0
   -2.7299   -2.4706    0.0932 C   0  0  0  0  0  0  0  0  0  0  0  0
   -3.0871   -1.7456    0.8290 H   0  0  0  0  0  0  0  0  0  0  0  0
   -3.2982   -2.3518   -0.8324 H   0  0  0  0  0  0  0  0  0  0  0  0
   -1.2516   -2.2480   -0.1719 C   0  0  0  0  0  0  0  0  0  0  0  0
   -0.4676   -3.1700   -0.0227 O   0  0  0  0  0  0  0  0  0  0  0  0
   -0.8377   -1.0314   -0.6743 N   0  0  0  0  0  0  0  0  0  0  0  0
   -1.5711   -0.3313   -0.7032 H   0  0  0  0  0  0  0  0  0  0  0  0
    0.5175   -0.5000   -0.4237 C   0  0  1  0  0  0  0  0  0  0  0  0
    1.2625   -1.2365   -0.7455 H   0  0  0  0  0  0  0  0  0  0  0  0
    0.6111    0.6953   -1.4323 C   0  0  0  0  0  0  0  0  0  0  0  0
    0.9068    0.2769   -2.3999 H   0  0  0  0  0  0  0  0  0  0  0  0
   -0.4069    1.0787   -1.5617 H   0  0  0  0  0  0  0  0  0  0  0  0
    1.4445    1.9842   -1.2091 C   0  0  0  0  0  0  0  0  0  0  0  0
    2.3255    1.9160   -1.8547 H   0  0  0  0  0  0  0  0  0  0  0  0
    0.8634    2.8416   -1.5622 H   0  0  0  0  0  0  0  0  0  0  0  0
    1.9481    2.3015    0.1916 C   0  0  0  0  0  0  0  0  0  0  0  0
    1.0622    2.6836    1.0020 O   0  5  0  0  0  0  0  0  0  0  0  0
    3.1738    2.2385    0.4378 O   0  0  0  0  0  0  0  0  0  0  0  0
    0.8028   -0.3027    1.0882 C   0  0  0  0  0  0  0  0  0  0  0  0
    1.6066   -1.0617    1.6204 O   0  0  0  0  0  0  0  0  0  0  0  0
   -0.1557    0.2996    1.8854 N   0  0  0  0  0  0  0  0  0  0  0  0
   -0.2927    1.2620    1.5596 H   0  0  0  0  0  0  0  0  0  0  0  0
   -0.0898    0.1762    3.3349 C   0  0  0  0  0  0  0  0  0  0  0  0
    0.8545    0.5847    3.7103 H   0  0  0  0  0  0  0  0  0  0  0  0
   -0.9144    0.7287    3.7941 H   0  0  0  0  0  0  0  0  0  0  0  0
   -0.1673   -0.8734    3.6362 H   0  0  0  0  0  0  0  0  0  0  0  0
  1  2  1  0  0  0  0
  2  3  1  0  0  0  0
  2  4  1  0  0  0  0
  2  5  1  0  0  0  0
  5  6  2  0  0  0  0
  5  7  1  0  0  0  0
  7  8  1  0  0  0  0
  7  9  1  0  0  0  0
  9 10  1  0  0  0  0
  9 11  1  0  0  0  0
  9 20  1  0  0  0  0
 11 12  1  0  0  0  0
 11 13  1  0  0  0  0
 11 14  1  0  0  0  0
 14 15  1  0  0  0  0
 14 16  1  0  0  0  0
 14 17  1  0  0  0  0
 17 18  1  0  0  0  0
 17 19  2  0  0  0  0
 20 21  2  0  0  0  0
 20 22  1  0  0  0  0
 22 23  1  0  0  0  0
 22 24  1  0  0  0  0
 24 25  1  0  0  0  0
 24 26  1  0  0  0  0
 24 27  1  0  0  0  0
M  CHG  1  18  -1
M  END
$$$$

  -OEChem-04042215583D

 27 26  0     1  0  0  0  0  0999 V2000
   -2.4044   -3.8287    0.7961 H   0  0  0  0  0  0  0  0  0  0  0  0
   -2.3683   -2.8562    0.2972 C   0  0  0  0  0  0  0  0  0  0  0  0
   -2.8475   -2.1139    0.9405 H   0  0  0  0  0  0  0  0  0  0  0  0
   -2.9169   -2.9216   -0.6455 H   0  0  0  0  0  0  0  0  0  0  0  0
   -0.9275   -2.4559    0.0338 C   0  0  0  0  0  0  0  0  0  0  0  0
   -0.0304   -3.2429    0.2830 O   0  0  0  0  0  0  0  0  0  0  0  0
   -0.6711   -1.2499   -0.5861 N   0  0  0  0  0  0  0  0  0  0  0  0
   -1.4916   -0.6667   -0.7044 H   0  0  0  0  0  0  0  0  0  0  0  0
    0.5994   -0.5182   -0.3960 C   0  0  1  0  0  0  0  0  0  0  0  0
    1.4495   -1.1555   -0.6654 H   0  0  0  0  0  0  0  0  0  0  0  0
    0.4910    0.6071   -1.4795 C   0  0  0  0  0  0  0  0  0  0  0  0
    0.8604    0.1692   -2.4124 H   0  0  0  0  0  0  0  0  0  0  0  0
   -0.5721    0.8170   -1.6407 H   0  0  0  0  0  0  0  0  0  0  0  0
    1.1303    2.0144   -1.3564 C   0  0  0  0  0  0  0  0  0  0  0  0
    1.7967    2.1519   -2.2133 H   0  0  0  0  0  0  0  0  0  0  0  0
    0.3353    2.7591   -1.4628 H   0  0  0  0  0  0  0  0  0  0  0  0
    1.9240    2.3721   -0.1082 C   0  0  0  0  0  0  0  0  0  0  0  0
    1.2465    2.8165    0.8542 O   0  5  0  0  0  0  0  0  0  0  0  0
    3.1714    2.2650   -0.1299 O   0  0  0  0  0  0  0  0  0  0  0  0
    0.8296   -0.1422    1.0912 C   0  0  0  0  0  0  0  0  0  0  0  0
    1.7061   -0.7416    1.7047 O   0  0  0  0  0  0  0  0  0  0  0  0
   -0.2182    0.3977    1.8197 N   0  0  0  0  0  0  0  0  0  0  0  0
   -0.5543    1.2448    1.3650 H   0  0  0  0  0  0  0  0  0  0  0  0
   -0.1305    0.4930    3.2707 C   0  0  0  0  0  0  0  0  0  0  0  0
    0.7386    1.0928    3.5615 H   0  0  0  0  0  0  0  0  0  0  0  0
   -1.0307    0.9695    3.6690 H   0  0  0  0  0  0  0  0  0  0  0  0
   -0.0404   -0.5021    3.7181 H   0  0  0  0  0  0  0  0  0  0  0  0
  1  2  1  0  0  0  0
  2  3  1  0  0  0  0
  2  4  1  0  0  0  0
  2  5  1  0  0  0  0
  5  6  2  0  0  0  0
  5  7  1  0  0  0  0
  7  8  1  0  0  0  0
  7  9  1  0  0  0  0
  9 10  1  0  0  0  0
  9 11  1  0  0  0  0
  9 20  1  0  0  0  0
 11 12  1  0  0  0  0
 11 13  1  0  0  0  0
 11 14  1  0  0  0  0
 14 15  1  0  0  0  0
 14 16  1  0  0  0  0
 14 17  1  0  0  0  0
 17 18  1  0  0  0  0
 17 19  2  0  0  0  0
 20 21  2  0  0  0  0
 20 22  1  0  0  0  0
 22 23  1  0  0  0  0
 22 24  1  0  0  0  0
 24 25  1  0  0  0  0
 24 26  1  0  0  0  0
 24 27  1  0  0  0  0
M  CHG  1  18  -1
M  END
$$$$

  -OEChem-04042215583D

 27 26  0     1  0  0  0  0  0999 V2000
   -2.6574   -3.7064    0.8600 H   0  0  0  0  0  0  0  0  0  0  0  0
   -2.5466   -2.7716    0.3032 C   0  0  0  0  0  0  0  0  0  0  0  0
   -3.0502   -1.9735    0.8545 H   0  0  0  0  0  0  0  0  0  0  0  0
   -3.0187   -2.8853   -0.6756 H   0  0  0  0  0  0  0  0  0  0  0  0
   -1.0756   -2.4343    0.1340 C   0  0  0  0  0  0  0  0  0  0  0  0
   -0.2323   -3.2282    0.5115 O   0  0  0  0  0  0  0  0  0  0  0  0
   -0.7290   -1.2778   -0.5352 N   0  0  0  0  0  0  0  0  0  0  0  0
   -1.5088   -0.6775   -0.7759 H   0  0  0  0  0  0  0  0  0  0  0  0
    0.5853   -0.6146   -0.3883 C   0  0  1  0  0  0  0  0  0  0  0  0
    1.4062   -1.2906   -0.6546 H   0  0  0  0  0  0  0  0  0  0  0  0
    0.4917    0.5170   -1.4624 C   0  0  0  0  0  0  0  0  0  0  0  0
    0.8400    0.0646   -2.3967 H   0  0  0  0  0  0  0  0  0  0  0  0
   -0.5599    0.7794   -1.6193 H   0  0  0  0  0  0  0  0  0  0  0  0
    1.2218    1.8753   -1.3305 C   0  0  0  0  0  0  0  0  0  0  0  0
    1.6324    2.1399   -2.3095 H   0  0  0  0  0  0  0  0  0  0  0  0
    0.4682    2.6330   -1.0940 H   0  0  0  0  0  0  0  0  0  0  0  0
    2.3380    2.0174   -0.3026 C   0  0  0  0  0  0  0  0  0  0  0  0
    3.4618    1.5459   -0.5938 O   0  5  0  0  0  0  0  0  0  0  0  0
    2.0665    2.6642    0.7395 O   0  0  0  0  0  0  0  0  0  0  0  0
    0.8312   -0.1886    1.0826 C   0  0  0  0  0  0  0  0  0  0  0  0
    1.7022   -0.7578    1.7291 O   0  0  0  0  0  0  0  0  0  0  0  0
   -0.1871    0.4408    1.7815 N   0  0  0  0  0  0  0  0  0  0  0  0
   -0.6991    1.1058    1.2143 H   0  0  0  0  0  0  0  0  0  0  0  0
   -0.0140    0.7937    3.1840 C   0  0  0  0  0  0  0  0  0  0  0  0
    0.8586    1.4442    3.3085 H   0  0  0  0  0  0  0  0  0  0  0  0
   -0.8982    1.3240    3.5487 H   0  0  0  0  0  0  0  0  0  0  0  0
    0.1243   -0.1051    3.7936 H   0  0  0  0  0  0  0  0  0  0  0  0
  1  2  1  0  0  0  0
  2  3  1  0  0  0  0
  2  4  1  0  0  0  0
  2  5  1  0  0  0  0
  5  6  2  0  0  0  0
  5  7  1  0  0  0  0
  7  8  1  0  0  0  0
  7  9  1  0  0  0  0
  9 10  1  0  0  0  0
  9 11  1  0  0  0  0
  9 20  1  0  0  0  0
 11 12  1  0  0  0  0
 11 13  1  0  0  0  0
 11 14  1  0  0  0  0
 14 15  1  0  0  0  0
 14 16  1  0  0  0  0
 14 17  1  0  0  0  0
 17 18  1  0  0  0  0
 17 19  2  0  0  0  0
 20 21  2  0  0  0  0
 20 22  1  0  0  0  0
 22 23  1  0  0  0  0
 22 24  1  0  0  0  0
 24 25  1  0  0  0  0
 24 26  1  0  0  0  0
 24 27  1  0  0  0  0
M  CHG  1  18  -1
M  END
$$$$

  -OEChem-04042215583D

 27 26  0     1  0  0  0  0  0999 V2000
   -2.7994   -3.6738    0.6213 H   0  0  0  0  0  0  0  0  0  0  0  0
   -2.6313   -2.7474    0.0646 C   0  0  0  0  0  0  0  0  0  0  0  0
   -3.2079   -1.9469    0.5344 H   0  0  0  0  0  0  0  0  0  0  0  0
   -2.9791   -2.8852   -0.9620 H   0  0  0  0  0  0  0  0  0  0  0  0
   -1.1543   -2.3936    0.0691 C   0  0  0  0  0  0  0  0  0  0  0  0
   -0.3588   -3.1662    0.5715 O   0  0  0  0  0  0  0  0  0  0  0  0
   -0.7437   -1.2391   -0.5672 N   0  0  0  0  0  0  0  0  0  0  0  0
   -1.4818   -0.6588   -0.9472 H   0  0  0  0  0  0  0  0  0  0  0  0
    0.5877   -0.6148   -0.3996 C   0  0  1  0  0  0  0  0  0  0  0  0
    1.4011   -1.2895   -0.6914 H   0  0  0  0  0  0  0  0  0  0  0  0
    0.5090    0.5807   -1.3990 C   0  0  0  0  0  0  0  0  0  0  0  0
    0.8453    0.1866   -2.3636 H   0  0  0  0  0  0  0  0  0  0  0  0
   -0.5336    0.8893   -1.5298 H   0  0  0  0  0  0  0  0  0  0  0  0
    1.2944    1.8872   -1.1509 C   0  0  0  0  0  0  0  0  0  0  0  0
    1.4899    2.3658   -2.1147 H   0  0  0  0  0  0  0  0  0  0  0  0
    0.6454    2.5606   -0.5825 H   0  0  0  0  0  0  0  0  0  0  0  0
    2.6154    1.7790   -0.3942 C   0  0  0  0  0  0  0  0  0  0  0  0
    3.4945    1.0329   -0.8882 O   0  5  0  0  0  0  0  0  0  0  0  0
    2.7712    2.5265    0.6019 O   0  0  0  0  0  0  0  0  0  0  0  0
    0.8288   -0.2195    1.0808 C   0  0  0  0  0  0  0  0  0  0  0  0
    1.7175   -0.7582    1.7269 O   0  0  0  0  0  0  0  0  0  0  0  0
   -0.1790    0.4253    1.7809 N   0  0  0  0  0  0  0  0  0  0  0  0
   -0.7880    0.9935    1.2064 H   0  0  0  0  0  0  0  0  0  0  0  0
    0.0026    0.8281    3.1686 C   0  0  0  0  0  0  0  0  0  0  0  0
    0.8672    1.4941    3.2612 H   0  0  0  0  0  0  0  0  0  0  0  0
   -0.8853    1.3580    3.5252 H   0  0  0  0  0  0  0  0  0  0  0  0
    0.1604   -0.0480    3.8058 H   0  0  0  0  0  0  0  0  0  0  0  0
  1  2  1  0  0  0  0
  2  3  1  0  0  0  0
  2  4  1  0  0  0  0
  2  5  1  0  0  0  0
  5  6  2  0  0  0  0
  5  7  1  0  0  0  0
  7  8  1  0  0  0  0
  7  9  1  0  0  0  0
  9 10  1  0  0  0  0
  9 11  1  0  0  0  0
  9 20  1  0  0  0  0
 11 12  1  0  0  0  0
 11 13  1  0  0  0  0
 11 14  1  0  0  0  0
 14 15  1  0  0  0  0
 14 16  1  0  0  0  0
 14 17  1  0  0  0  0
 17 18  1  0  0  0  0
 17 19  2  0  0  0  0
 20 21  2  0  0  0  0
 20 22  1  0  0  0  0
 22 23  1  0  0  0  0
 22 24  1  0  0  0  0
 24 25  1  0  0  0  0
 24 26  1  0  0  0  0
 24 27  1  0  0  0  0
M  CHG  1  18  -1
M  END
$$$$

  -OEChem-04042215583D

 27 26  0     1  0  0  0  0  0999 V2000
   -2.7997   -3.7459    0.5018 H   0  0  0  0  0  0  0  0  0  0  0  0
   -2.6179   -2.8329   -0.0725 C   0  0  0  0  0  0  0  0  0  0  0  0
   -3.3083   -2.0588    0.2712 H   0  0  0  0  0  0  0  0  0  0  0  0
   -2.8066   -3.0382   -1.1291 H   0  0  0  0  0  0  0  0  0  0  0  0
   -1.1839   -2.3703    0.1179 C   0  0  0  0  0  0  0  0  0  0  0  0
   -0.4281   -3.0415    0.7957 O   0  0  0  0  0  0  0  0  0  0  0  0
   -0.7677   -1.2203   -0.5223 N   0  0  0  0  0  0  0  0  0  0  0  0
   -1.4472   -0.7613   -1.1177 H   0  0  0  0  0  0  0  0  0  0  0  0
    0.5647   -0.5905   -0.3923 C   0  0  1  0  0  0  0  0  0  0  0  0
    1.3746   -1.2566   -0.7132 H   0  0  0  0  0  0  0  0  0  0  0  0
    0.4545    0.6216   -1.3639 C   0  0  0  0  0  0  0  0  0  0  0  0
    0.7483    0.2602   -2.3551 H   0  0  0  0  0  0  0  0  0  0  0  0
   -0.5885    0.9467   -1.4373 H   0  0  0  0  0  0  0  0  0  0  0  0
    1.2679    1.8991   -1.0735 C   0  0  0  0  0  0  0  0  0  0  0  0
    1.2431    2.5384   -1.9602 H   0  0  0  0  0  0  0  0  0  0  0  0
    0.7775    2.4438   -0.2610 H   0  0  0  0  0  0  0  0  0  0  0  0
    2.7295    1.6775   -0.6821 C   0  0  0  0  0  0  0  0  0  0  0  0
    3.3621    0.7945   -1.3132 O   0  5  0  0  0  0  0  0  0  0  0  0
    3.2373    2.4952    0.1232 O   0  0  0  0  0  0  0  0  0  0  0  0
    0.8487   -0.1848    1.0776 C   0  0  0  0  0  0  0  0  0  0  0  0
    1.8205   -0.6196    1.6799 O   0  0  0  0  0  0  0  0  0  0  0  0
   -0.1367    0.4597    1.8082 N   0  0  0  0  0  0  0  0  0  0  0  0
   -0.8662    0.9004    1.2634 H   0  0  0  0  0  0  0  0  0  0  0  0
    0.0764    0.9044    3.1777 C   0  0  0  0  0  0  0  0  0  0  0  0
    0.9313    1.5870    3.2284 H   0  0  0  0  0  0  0  0  0  0  0  0
   -0.8104    1.4287    3.5453 H   0  0  0  0  0  0  0  0  0  0  0  0
    0.2679    0.0482    3.8326 H   0  0  0  0  0  0  0  0  0  0  0  0
  1  2  1  0  0  0  0
  2  3  1  0  0  0  0
  2  4  1  0  0  0  0
  2  5  1  0  0  0  0
  5  6  2  0  0  0  0
  5  7  1  0  0  0  0
  7  8  1  0  0  0  0
  7  9  1  0  0  0  0
  9 10  1  0  0  0  0
  9 11  1  0  0  0  0
  9 20  1  0  0  0  0
 11 12  1  0  0  0  0
 11 13  1  0  0  0  0
 11 14  1  0  0  0  0
 14 15  1  0  0  0  0
 14 16  1  0  0  0  0
 14 17  1  0  0  0  0
 17 18  1  0  0  0  0
 17 19  2  0  0  0  0
 20 21  2  0  0  0  0
 20 22  1  0  0  0  0
 22 23  1  0  0  0  0
 22 24  1  0  0  0  0
 24 25  1  0  0  0  0
 24 26  1  0  0  0  0
 24 27  1  0  0  0  0
M  CHG  1  18  -1
M  END
$$$$

  -OEChem-04042215583D

 27 26  0     1  0  0  0  0  0999 V2000
   -2.7590   -3.8015    0.4458 H   0  0  0  0  0  0  0  0  0  0  0  0
   -2.5928   -2.8825   -0.1236 C   0  0  0  0  0  0  0  0  0  0  0  0
   -3.3368   -2.1418    0.1795 H   0  0  0  0  0  0  0  0  0  0  0  0
   -2.7171   -3.1005   -1.1871 H   0  0  0  0  0  0  0  0  0  0  0  0
   -1.1947   -2.3494    0.1367 C   0  0  0  0  0  0  0  0  0  0  0  0
   -0.4552   -2.9611    0.8852 O   0  0  0  0  0  0  0  0  0  0  0  0
   -0.7947   -1.1949   -0.5061 N   0  0  0  0  0  0  0  0  0  0  0  0
   -1.4405   -0.8092   -1.1857 H   0  0  0  0  0  0  0  0  0  0  0  0
    0.5367   -0.5596   -0.3971 C   0  0  1  0  0  0  0  0  0  0  0  0
    1.3405   -1.2262   -0.7317 H   0  0  0  0  0  0  0  0  0  0  0  0
    0.4294    0.6557   -1.3615 C   0  0  0  0  0  0  0  0  0  0  0  0
    0.6863    0.3106   -2.3687 H   0  0  0  0  0  0  0  0  0  0  0  0
   -0.6094    0.9995   -1.3963 H   0  0  0  0  0  0  0  0  0  0  0  0
    1.2693    1.9085   -1.0401 C   0  0  0  0  0  0  0  0  0  0  0  0
    1.0699    2.6626   -1.8064 H   0  0  0  0  0  0  0  0  0  0  0  0
    0.9553    2.3268   -0.0796 H   0  0  0  0  0  0  0  0  0  0  0  0
    2.7814    1.6627   -1.0062 C   0  0  0  0  0  0  0  0  0  0  0  0
    3.2377    0.7227   -1.7060 O   0  5  0  0  0  0  0  0  0  0  0  0
    3.4796    2.5174   -0.4085 O   0  0  0  0  0  0  0  0  0  0  0  0
    0.8507   -0.1566    1.0669 C   0  0  0  0  0  0  0  0  0  0  0  0
    1.8829   -0.5060    1.6222 O   0  0  0  0  0  0  0  0  0  0  0  0
   -0.1203    0.4803    1.8224 N   0  0  0  0  0  0  0  0  0  0  0  0
   -0.9240    0.8266    1.3148 H   0  0  0  0  0  0  0  0  0  0  0  0
    0.1092    0.9358    3.1852 C   0  0  0  0  0  0  0  0  0  0  0  0
    0.9442    1.6435    3.2151 H   0  0  0  0  0  0  0  0  0  0  0  0
   -0.7843    1.4353    3.5706 H   0  0  0  0  0  0  0  0  0  0  0  0
    0.3398    0.0874    3.8377 H   0  0  0  0  0  0  0  0  0  0  0  0
  1  2  1  0  0  0  0
  2  3  1  0  0  0  0
  2  4  1  0  0  0  0
  2  5  1  0  0  0  0
  5  6  2  0  0  0  0
  5  7  1  0  0  0  0
  7  8  1  0  0  0  0
  7  9  1  0  0  0  0
  9 10  1  0  0  0  0
  9 11  1  0  0  0  0
  9 20  1  0  0  0  0
 11 12  1  0  0  0  0
 11 13  1  0  0  0  0
 11 14  1  0  0  0  0
 14 15  1  0  0  0  0
 14 16  1  0  0  0  0
 14 17  1  0  0  0  0
 17 18  1  0  0  0  0
 17 19  2  0  0  0  0
 20 21  2  0  0  0  0
 20 22  1  0  0  0  0
 22 23  1  0  0  0  0
 22 24  1  0  0  0  0
 24 25  1  0  0  0  0
 24 26  1  0  0  0  0
 24 27  1  0  0  0  0
M  CHG  1  18  -1
M  END
$$$$

  -OEChem-04042215583D

 27 26  0     1  0  0  0  0  0999 V2000
   -2.7285   -3.8285    0.4109 H   0  0  0  0  0  0  0  0  0  0  0  0
   -2.5758   -2.9035   -0.1527 C   0  0  0  0  0  0  0  0  0  0  0  0
   -3.3510   -2.1873    0.1301 H   0  0  0  0  0  0  0  0  0  0  0  0
   -2.6642   -3.1239   -1.2194 H   0  0  0  0  0  0  0  0  0  0  0  0
   -1.2027   -2.3273    0.1461 C   0  0  0  0  0  0  0  0  0  0  0  0
   -0.4734   -2.9046    0.9313 O   0  0  0  0  0  0  0  0  0  0  0  0
   -0.8143   -1.1678   -0.4952 N   0  0  0  0  0  0  0  0  0  0  0  0
   -1.4385   -0.8222   -1.2159 H   0  0  0  0  0  0  0  0  0  0  0  0
    0.5183   -0.5334   -0.3976 C   0  0  1  0  0  0  0  0  0  0  0  0
    1.3143   -1.2057   -0.7387 H   0  0  0  0  0  0  0  0  0  0  0  0
    0.4256    0.6791   -1.3657 C   0  0  0  0  0  0  0  0  0  0  0  0
    0.6438    0.3367   -2.3829 H   0  0  0  0  0  0  0  0  0  0  0  0
   -0.6082    1.0391   -1.3714 H   0  0  0  0  0  0  0  0  0  0  0  0
    1.2826    1.9222   -1.0396 C   0  0  0  0  0  0  0  0  0  0  0  0
    0.9200    2.7492   -1.6566 H   0  0  0  0  0  0  0  0  0  0  0  0
    1.1595    2.2219    0.0039 H   0  0  0  0  0  0  0  0  0  0  0  0
    2.7757    1.7475   -1.3490 C   0  0  0  0  0  0  0  0  0  0  0  0
    3.1378    0.7544   -2.0312 O   0  5  0  0  0  0  0  0  0  0  0  0
    3.5302    2.6895   -1.0034 O   0  0  0  0  0  0  0  0  0  0  0  0
    0.8508   -0.1409    1.0645 C   0  0  0  0  0  0  0  0  0  0  0  0
    1.9196   -0.4324    1.5841 O   0  0  0  0  0  0  0  0  0  0  0  0
   -0.1110    0.4893    1.8366 N   0  0  0  0  0  0  0  0  0  0  0  0
   -0.9630    0.7609    1.3627 H   0  0  0  0  0  0  0  0  0  0  0  0
    0.1189    0.9254    3.2053 C   0  0  0  0  0  0  0  0  0  0  0  0
    0.9471    1.6406    3.2437 H   0  0  0  0  0  0  0  0  0  0  0  0
   -0.7777    1.4107    3.6015 H   0  0  0  0  0  0  0  0  0  0  0  0
    0.3598    0.0688    3.8431 H   0  0  0  0  0  0  0  0  0  0  0  0
  1  2  1  0  0  0  0
  2  3  1  0  0  0  0
  2  4  1  0  0  0  0
  2  5  1  0  0  0  0
  5  6  2  0  0  0  0
  5  7  1  0  0  0  0
  7  8  1  0  0  0  0
  7  9  1  0  0  0  0
  9 10  1  0  0  0  0
  9 11  1  0  0  0  0
  9 20  1  0  0  0  0
 11 12  1  0  0  0  0
 11 13  1  0  0  0  0
 11 14  1  0  0  0  0
 14 15  1  0  0  0  0
 14 16  1  0  0  0  0
 14 17  1  0  0  0  0
 17 18  1  0  0  0  0
 17 19  2  0  0  0  0
 20 21  2  0  0  0  0
 20 22  1  0  0  0  0
 22 23  1  0  0  0  0
 22 24  1  0  0  0  0
 24 25  1  0  0  0  0
 24 26  1  0  0  0  0
 24 27  1  0  0  0  0
M  CHG  1  18  -1
M  END
$$$$

  -OEChem-04042215583D

 27 26  0     1  0  0  0  0  0999 V2000
   -2.7203   -3.8273    0.3815 H   0  0  0  0  0  0  0  0  0  0  0  0
   -2.5740   -2.8926   -0.1675 C   0  0  0  0  0  0  0  0  0  0  0  0
   -3.3495   -2.1833    0.1318 H   0  0  0  0  0  0  0  0  0  0  0  0
   -2.6681   -3.0953   -1.2372 H   0  0  0  0  0  0  0  0  0  0  0  0
   -1.2014   -2.3164    0.1333 C   0  0  0  0  0  0  0  0  0  0  0  0
   -0.4725   -2.8937    0.9192 O   0  0  0  0  0  0  0  0  0  0  0  0
   -0.8156   -1.1512   -0.4991 N   0  0  0  0  0  0  0  0  0  0  0  0
   -1.4366   -0.8067   -1.2234 H   0  0  0  0  0  0  0  0  0  0  0  0
    0.5177   -0.5183   -0.3992 C   0  0  1  0  0  0  0  0  0  0  0  0
    1.3110   -1.1922   -0.7437 H   0  0  0  0  0  0  0  0  0  0  0  0
    0.4336    0.6963   -1.3665 C   0  0  0  0  0  0  0  0  0  0  0  0
    0.6316    0.3559   -2.3885 H   0  0  0  0  0  0  0  0  0  0  0  0
   -0.5991    1.0596   -1.3569 H   0  0  0  0  0  0  0  0  0  0  0  0
    1.2925    1.9426   -1.0430 C   0  0  0  0  0  0  0  0  0  0  0  0
    0.7790    2.8150   -1.4580 H   0  0  0  0  0  0  0  0  0  0  0  0
    1.3856    2.1120    0.0311 H   0  0  0  0  0  0  0  0  0  0  0  0
    2.6912    1.9023   -1.6745 C   0  0  0  0  0  0  0  0  0  0  0  0
    3.1098    0.8222   -2.1640 O   0  5  0  0  0  0  0  0  0  0  0  0
    3.3081    2.9950   -1.7271 O   0  0  0  0  0  0  0  0  0  0  0  0
    0.8529   -0.1399    1.0661 C   0  0  0  0  0  0  0  0  0  0  0  0
    1.9349   -0.4084    1.5716 O   0  0  0  0  0  0  0  0  0  0  0  0
   -0.1062    0.4829    1.8472 N   0  0  0  0  0  0  0  0  0  0  0  0
   -0.9791    0.7177    1.3918 H   0  0  0  0  0  0  0  0  0  0  0  0
    0.1202    0.8936    3.2243 C   0  0  0  0  0  0  0  0  0  0  0  0
    0.9475    1.6087    3.2783 H   0  0  0  0  0  0  0  0  0  0  0  0
   -0.7779    1.3704    3.6276 H   0  0  0  0  0  0  0  0  0  0  0  0
    0.3608    0.0253    3.8462 H   0  0  0  0  0  0  0  0  0  0  0  0
  1  2  1  0  0  0  0
  2  3  1  0  0  0  0
  2  4  1  0  0  0  0
  2  5  1  0  0  0  0
  5  6  2  0  0  0  0
  5  7  1  0  0  0  0
  7  8  1  0  0  0  0
  7  9  1  0  0  0  0
  9 10  1  0  0  0  0
  9 11  1  0  0  0  0
  9 20  1  0  0  0  0
 11 12  1  0  0  0  0
 11 13  1  0  0  0  0
 11 14  1  0  0  0  0
 14 15  1  0  0  0  0
 14 16  1  0  0  0  0
 14 17  1  0  0  0  0
 17 18  1  0  0  0  0
 17 19  2  0  0  0  0
 20 21  2  0  0  0  0
 20 22  1  0  0  0  0
 22 23  1  0  0  0  0
 22 24  1  0  0  0  0
 24 25  1  0  0  0  0
 24 26  1  0  0  0  0
 24 27  1  0  0  0  0
M  CHG  1  18  -1
M  END
$$$$

  -OEChem-04042215583D

 27 26  0     1  0  0  0  0  0999 V2000
   -2.7334   -3.8120    0.3547 H   0  0  0  0  0  0  0  0  0  0  0  0
   -2.5808   -2.8765   -0.1912 C   0  0  0  0  0  0  0  0  0  0  0  0
   -3.3529   -2.1640    0.1091 H   0  0  0  0  0  0  0  0  0  0  0  0
   -2.6741   -3.0753   -1.2618 H   0  0  0  0  0  0  0  0  0  0  0  0
   -1.2051   -2.3095    0.1130 C   0  0  0  0  0  0  0  0  0  0  0  0
   -0.4728   -2.9029    0.8838 O   0  0  0  0  0  0  0  0  0  0  0  0
   -0.8149   -1.1384   -0.5056 N   0  0  0  0  0  0  0  0  0  0  0  0
   -1.4380   -0.7788   -1.2209 H   0  0  0  0  0  0  0  0  0  0  0  0
    0.5213   -0.5128   -0.3998 C   0  0  1  0  0  0  0  0  0  0  0  0
    1.3111   -1.1854   -0.7535 H   0  0  0  0  0  0  0  0  0  0  0  0
    0.4369    0.7154   -1.3504 C   0  0  0  0  0  0  0  0  0  0  0  0
    0.6333    0.3815   -2.3751 H   0  0  0  0  0  0  0  0  0  0  0  0
   -0.5962    1.0783   -1.3404 H   0  0  0  0  0  0  0  0  0  0  0  0
    1.2982    1.9604   -1.0204 C   0  0  0  0  0  0  0  0  0  0  0  0
    0.6780    2.8525   -1.1515 H   0  0  0  0  0  0  0  0  0  0  0  0
    1.6502    1.9678    0.0118 H   0  0  0  0  0  0  0  0  0  0  0  0
    2.5133    2.0819   -1.9481 C   0  0  0  0  0  0  0  0  0  0  0  0
    3.1175    1.0331   -2.2862 O   0  5  0  0  0  0  0  0  0  0  0  0
    2.8001    3.2343   -2.3577 O   0  0  0  0  0  0  0  0  0  0  0  0
    0.8557   -0.1554    1.0708 C   0  0  0  0  0  0  0  0  0  0  0  0
    1.9410   -0.4253    1.5695 O   0  0  0  0  0  0  0  0  0  0  0  0
   -0.1015    0.4611    1.8589 N   0  0  0  0  0  0  0  0  0  0  0  0
   -0.9676    0.7165    1.4011 H   0  0  0  0  0  0  0  0  0  0  0  0
    0.1360    0.8808    3.2314 C   0  0  0  0  0  0  0  0  0  0  0  0
    0.9520    1.6096    3.2717 H   0  0  0  0  0  0  0  0  0  0  0  0
   -0.7646    1.3444    3.6442 H   0  0  0  0  0  0  0  0  0  0  0  0
    0.3987    0.0192    3.8537 H   0  0  0  0  0  0  0  0  0  0  0  0
  1  2  1  0  0  0  0
  2  3  1  0  0  0  0
  2  4  1  0  0  0  0
  2  5  1  0  0  0  0
  5  6  2  0  0  0  0
  5  7  1  0  0  0  0
  7  8  1  0  0  0  0
  7  9  1  0  0  0  0
  9 10  1  0  0  0  0
  9 11  1  0  0  0  0
  9 20  1  0  0  0  0
 11 12  1  0  0  0  0
 11 13  1  0  0  0  0
 11 14  1  0  0  0  0
 14 15  1  0  0  0  0
 14 16  1  0  0  0  0
 14 17  1  0  0  0  0
 17 18  1  0  0  0  0
 17 19  2  0  0  0  0
 20 21  2  0  0  0  0
 20 22  1  0  0  0  0
 22 23  1  0  0  0  0
 22 24  1  0  0  0  0
 24 25  1  0  0  0  0
 24 26  1  0  0  0  0
 24 27  1  0  0  0  0
M  CHG  1  18  -1
M  END
$$$$

  -OEChem-04042215583D

 27 26  0     1  0  0  0  0  0999 V2000
   -2.7584   -3.7924    0.3459 H   0  0  0  0  0  0  0  0  0  0  0  0
   -2.5967   -2.8604   -0.2032 C   0  0  0  0  0  0  0  0  0  0  0  0
   -3.3593   -2.1379    0.0977 H   0  0  0  0  0  0  0  0  0  0  0  0
   -2.6965   -3.0612   -1.2729 H   0  0  0  0  0  0  0  0  0  0  0  0
   -1.2132   -2.3090    0.0940 C   0  0  0  0  0  0  0  0  0  0  0  0
   -0.4747   -2.9191    0.8460 O   0  0  0  0  0  0  0  0  0  0  0  0
   -0.8180   -1.1356   -0.5164 N   0  0  0  0  0  0  0  0  0  0  0  0
   -1.4503   -0.7527   -1.2116 H   0  0  0  0  0  0  0  0  0  0  0  0
    0.5191   -0.5153   -0.4045 C   0  0  1  0  0  0  0  0  0  0  0  0
    1.3063   -1.1876   -0.7642 H   0  0  0  0  0  0  0  0  0  0  0  0
    0.4341    0.7218   -1.3411 C   0  0  0  0  0  0  0  0  0  0  0  0
    0.6580    0.3840   -2.3591 H   0  0  0  0  0  0  0  0  0  0  0  0
   -0.5991    1.0842   -1.3587 H   0  0  0  0  0  0  0  0  0  0  0  0
    1.2984    1.9591   -0.9949 C   0  0  0  0  0  0  0  0  0  0  0  0
    0.6447    2.8169   -0.8094 H   0  0  0  0  0  0  0  0  0  0  0  0
    1.8955    1.8054   -0.0947 H   0  0  0  0  0  0  0  0  0  0  0  0
    2.2729    2.2914   -2.1288 C   0  0  0  0  0  0  0  0  0  0  0  0
    3.0663    1.3959   -2.5109 O   0  5  0  0  0  0  0  0  0  0  0  0
    2.1748    3.4303   -2.6500 O   0  0  0  0  0  0  0  0  0  0  0  0
    0.8558   -0.1662    1.0677 C   0  0  0  0  0  0  0  0  0  0  0  0
    1.9432   -0.4448    1.5578 O   0  0  0  0  0  0  0  0  0  0  0  0
   -0.0949    0.4499    1.8636 N   0  0  0  0  0  0  0  0  0  0  0  0
   -0.9450    0.7468    1.4003 H   0  0  0  0  0  0  0  0  0  0  0  0
    0.1652    0.8865    3.2269 C   0  0  0  0  0  0  0  0  0  0  0  0
    0.9653    1.6336    3.2414 H   0  0  0  0  0  0  0  0  0  0  0  0
   -0.7355    1.3328    3.6579 H   0  0  0  0  0  0  0  0  0  0  0  0
    0.4621    0.0367    3.8501 H   0  0  0  0  0  0  0  0  0  0  0  0
  1  2  1  0  0  0  0
  2  3  1  0  0  0  0
  2  4  1  0  0  0  0
  2  5  1  0  0  0  0
  5  6  2  0  0  0  0
  5  7  1  0  0  0  0
  7  8  1  0  0  0  0
  7  9  1  0  0  0  0
  9 10  1  0  0  0  0
  9 11  1  0  0  0  0
  9 20  1  0  0  0  0
 11 12  1  0  0  0  0
 11 13  1  0  0  0  0
 11 14  1  0  0  0  0
 14 15  1  0  0  0  0
 14 16  1  0  0  0  0
 14 17  1  0  0  0  0
 17 18  1  0  0  0  0
 17 19  2  0  0  0  0
 20 21  2  0  0  0  0
 20 22  1  0  0  0  0
 22 23  1  0  0  0  0
 22 24  1  0  0  0  0
 24 25  1  0  0  0  0
 24 26  1  0  0  0  0
 24 27  1  0  0  0  0
M  CHG  1  18  -1
M  END
$$$$

  -OEChem-04042215583D

 27 26  0     1  0  0  0  0  0999 V2000
   -2.7701   -3.7604    0.3911 H   0  0  0  0  0  0  0  0  0  0  0  0
   -2.6081   -2.8356   -0.1703 C   0  0  0  0  0  0  0  0  0  0  0  0
   -3.3447   -2.0953    0.1516 H   0  0  0  0  0  0  0  0  0  0  0  0
   -2.7480   -3.0407   -1.2346 H   0  0  0  0  0  0  0  0  0  0  0  0
   -1.2048   -2.3107    0.0758 C   0  0  0  0  0  0  0  0  0  0  0  0
   -0.4449   -2.9412    0.7890 O   0  0  0  0  0  0  0  0  0  0  0  0
   -0.8138   -1.1364   -0.5348 N   0  0  0  0  0  0  0  0  0  0  0  0
   -1.4710   -0.7204   -1.1870 H   0  0  0  0  0  0  0  0  0  0  0  0
    0.5209   -0.5132   -0.4232 C   0  0  1  0  0  0  0  0  0  0  0  0
    1.3069   -1.1846   -0.7866 H   0  0  0  0  0  0  0  0  0  0  0  0
    0.4321    0.7280   -1.3488 C   0  0  0  0  0  0  0  0  0  0  0  0
    0.6922    0.3901   -2.3584 H   0  0  0  0  0  0  0  0  0  0  0  0
   -0.6002    1.0903   -1.3960 H   0  0  0  0  0  0  0  0  0  0  0  0
    1.3004    1.9496   -0.9773 C   0  0  0  0  0  0  0  0  0  0  0  0
    0.6864    2.7181   -0.4984 H   0  0  0  0  0  0  0  0  0  0  0  0
    2.0911    1.6730   -0.2753 H   0  0  0  0  0  0  0  0  0  0  0  0
    1.9945    2.5111   -2.2194 C   0  0  0  0  0  0  0  0  0  0  0  0
    2.9721    1.8798   -2.6903 O   0  5  0  0  0  0  0  0  0  0  0  0
    1.4836    3.5337   -2.7407 O   0  0  0  0  0  0  0  0  0  0  0  0
    0.8627   -0.1614    1.0471 C   0  0  0  0  0  0  0  0  0  0  0  0
    1.9515   -0.4438    1.5323 O   0  0  0  0  0  0  0  0  0  0  0  0
   -0.0861    0.4539    1.8457 N   0  0  0  0  0  0  0  0  0  0  0  0
   -0.9320    0.7622    1.3815 H   0  0  0  0  0  0  0  0  0  0  0  0
    0.1729    0.8809    3.2122 C   0  0  0  0  0  0  0  0  0  0  0  0
    0.9862    1.6135    3.2365 H   0  0  0  0  0  0  0  0  0  0  0  0
   -0.7231    1.3421    3.6375 H   0  0  0  0  0  0  0  0  0  0  0  0
    0.4489    0.0232    3.8341 H   0  0  0  0  0  0  0  0  0  0  0  0
  1  2  1  0  0  0  0
  2  3  1  0  0  0  0
  2  4  1  0  0  0  0
  2  5  1  0  0  0  0
  5  6  2  0  0  0  0
  5  7  1  0  0  0  0
  7  8  1  0  0  0  0
  7  9  1  0  0  0  0
  9 10  1  0  0  0  0
  9 11  1  0  0  0  0
  9 20  1  0  0  0  0
 11 12  1  0  0  0  0
 11 13  1  0  0  0  0
 11 14  1  0  0  0  0
 14 15  1  0  0  0  0
 14 16  1  0  0  0  0
 14 17  1  0  0  0  0
 17 18  1  0  0  0  0
 17 19  2  0  0  0  0
 20 21  2  0  0  0  0
 20 22  1  0  0  0  0
 22 23  1  0  0  0  0
 22 24  1  0  0  0  0
 24 25  1  0  0  0  0
 24 26  1  0  0  0  0
 24 27  1  0  0  0  0
M  CHG  1  18  -1
M  END
$$$$

  -OEChem-04042215583D

 27 26  0     1  0  0  0  0  0999 V2000
   -2.6621   -3.8524    0.3716 H   0  0  0  0  0  0  0  0  0  0  0  0
   -2.5191   -2.9253   -0.1907 C   0  0  0  0  0  0  0  0  0  0  0  0
   -3.2808   -2.2054    0.1190 H   0  0  0  0  0  0  0  0  0  0  0  0
   -2.6401   -3.1375   -1.2559 H   0  0  0  0  0  0  0  0  0  0  0  0
   -1.1341   -2.3602    0.0713 C   0  0  0  0  0  0  0  0  0  0  0  0
   -0.3678   -2.9610    0.8034 O   0  0  0  0  0  0  0  0  0  0  0  0
   -0.7625   -1.1843   -0.5477 N   0  0  0  0  0  0  0  0  0  0  0  0
   -1.4251   -0.7811   -1.2030 H   0  0  0  0  0  0  0  0  0  0  0  0
    0.5435   -0.5123   -0.3988 C   0  0  1  0  0  0  0  0  0  0  0  0
    1.3613   -1.1663   -0.7196 H   0  0  0  0  0  0  0  0  0  0  0  0
    0.4520    0.7061   -1.3501 C   0  0  0  0  0  0  0  0  0  0  0  0
    0.7813    0.3652   -2.3381 H   0  0  0  0  0  0  0  0  0  0  0  0
   -0.5878    1.0343   -1.4559 H   0  0  0  0  0  0  0  0  0  0  0  0
    1.2680    1.9499   -0.9521 C   0  0  0  0  0  0  0  0  0  0  0  0
    0.6839    2.5942   -0.2888 H   0  0  0  0  0  0  0  0  0  0  0  0
    2.1774    1.6531   -0.4209 H   0  0  0  0  0  0  0  0  0  0  0  0
    1.6895    2.7212   -2.2038 C   0  0  0  0  0  0  0  0  0  0  0  0
    0.7735    3.3070   -2.8351 O   0  5  0  0  0  0  0  0  0  0  0  0
    2.8940    2.6911   -2.5539 O   0  0  0  0  0  0  0  0  0  0  0  0
    0.8318   -0.1150    1.0703 C   0  0  0  0  0  0  0  0  0  0  0  0
    1.9214   -0.3410    1.5829 O   0  0  0  0  0  0  0  0  0  0  0  0
   -0.1570    0.4860    1.8301 N   0  0  0  0  0  0  0  0  0  0  0  0
   -0.9895    0.7749    1.3297 H   0  0  0  0  0  0  0  0  0  0  0  0
    0.0696    0.9885    3.1768 C   0  0  0  0  0  0  0  0  0  0  0  0
    0.8043    1.8000    3.1622 H   0  0  0  0  0  0  0  0  0  0  0  0
   -0.8646    1.3711    3.5980 H   0  0  0  0  0  0  0  0  0  0  0  0
    0.4380    0.1884    3.8270 H   0  0  0  0  0  0  0  0  0  0  0  0
  1  2  1  0  0  0  0
  2  3  1  0  0  0  0
  2  4  1  0  0  0  0
  2  5  1  0  0  0  0
  5  6  2  0  0  0  0
  5  7  1  0  0  0  0
  7  8  1  0  0  0  0
  7  9  1  0  0  0  0
  9 10  1  0  0  0  0
  9 11  1  0  0  0  0
  9 20  1  0  0  0  0
 11 12  1  0  0  0  0
 11 13  1  0  0  0  0
 11 14  1  0  0  0  0
 14 15  1  0  0  0  0
 14 16  1  0  0  0  0
 14 17  1  0  0  0  0
 17 18  1  0  0  0  0
 17 19  2  0  0  0  0
 20 21  2  0  0  0  0
 20 22  1  0  0  0  0
 22 23  1  0  0  0  0
 22 24  1  0  0  0  0
 24 25  1  0  0  0  0
 24 26  1  0  0  0  0
 24 27  1  0  0  0  0
M  CHG  1  18  -1
M  END
$$$$

  -OEChem-04042215583D

 27 26  0     1  0  0  0  0  0999 V2000
   -2.6549   -3.8648    0.3387 H   0  0  0  0  0  0  0  0  0  0  0  0
   -2.5199   -2.9268   -0.2074 C   0  0  0  0  0  0  0  0  0  0  0  0
   -3.2755   -2.2123    0.1286 H   0  0  0  0  0  0  0  0  0  0  0  0
   -2.6584   -3.1179   -1.2745 H   0  0  0  0  0  0  0  0  0  0  0  0
   -1.1302   -2.3683    0.0433 C   0  0  0  0  0  0  0  0  0  0  0  0
   -0.3528   -2.9821    0.7529 O   0  0  0  0  0  0  0  0  0  0  0  0
   -0.7632   -1.1850   -0.5637 N   0  0  0  0  0  0  0  0  0  0  0  0
   -1.4412   -0.7563   -1.1864 H   0  0  0  0  0  0  0  0  0  0  0  0
    0.5376   -0.5080   -0.4001 C   0  0  1  0  0  0  0  0  0  0  0  0
    1.3567   -1.1621   -0.7179 H   0  0  0  0  0  0  0  0  0  0  0  0
    0.4611    0.7118   -1.3489 C   0  0  0  0  0  0  0  0  0  0  0  0
    0.8024    0.3853   -2.3376 H   0  0  0  0  0  0  0  0  0  0  0  0
   -0.5779    1.0424   -1.4582 H   0  0  0  0  0  0  0  0  0  0  0  0
    1.2737    1.9446   -0.9241 C   0  0  0  0  0  0  0  0  0  0  0  0
    0.7917    2.4548   -0.0851 H   0  0  0  0  0  0  0  0  0  0  0  0
    2.2766    1.6424   -0.6066 H   0  0  0  0  0  0  0  0  0  0  0  0
    1.3999    2.9049   -2.1061 C   0  0  0  0  0  0  0  0  0  0  0  0
    0.3922    3.6090   -2.3693 O   0  5  0  0  0  0  0  0  0  0  0  0
    2.4569    2.8853   -2.7824 O   0  0  0  0  0  0  0  0  0  0  0  0
    0.8239   -0.1180    1.0707 C   0  0  0  0  0  0  0  0  0  0  0  0
    1.9199   -0.3307    1.5758 O   0  0  0  0  0  0  0  0  0  0  0  0
   -0.1677    0.4744    1.8335 N   0  0  0  0  0  0  0  0  0  0  0  0
   -0.9889    0.7838    1.3261 H   0  0  0  0  0  0  0  0  0  0  0  0
    0.0680    0.9956    3.1715 C   0  0  0  0  0  0  0  0  0  0  0  0
    0.7833    1.8238    3.1374 H   0  0  0  0  0  0  0  0  0  0  0  0
   -0.8687    1.3607    3.6029 H   0  0  0  0  0  0  0  0  0  0  0  0
    0.4647    0.2111    3.8241 H   0  0  0  0  0  0  0  0  0  0  0  0
  1  2  1  0  0  0  0
  2  3  1  0  0  0  0
  2  4  1  0  0  0  0
  2  5  1  0  0  0  0
  5  6  2  0  0  0  0
  5  7  1  0  0  0  0
  7  8  1  0  0  0  0
  7  9  1  0  0  0  0
  9 10  1  0  0  0  0
  9 11  1  0  0  0  0
  9 20  1  0  0  0  0
 11 12  1  0  0  0  0
 11 13  1  0  0  0  0
 11 14  1  0  0  0  0
 14 15  1  0  0  0  0
 14 16  1  0  0  0  0
 14 17  1  0  0  0  0
 17 18  1  0  0  0  0
 17 19  2  0  0  0  0
 20 21  2  0  0  0  0
 20 22  1  0  0  0  0
 22 23  1  0  0  0  0
 22 24  1  0  0  0  0
 24 25  1  0  0  0  0
 24 26  1  0  0  0  0
 24 27  1  0  0  0  0
M  CHG  1  18  -1
M  END
$$$$

  -OEChem-04042215583D

 27 26  0     1  0  0  0  0  0999 V2000
   -2.6863   -3.8482    0.3319 H   0  0  0  0  0  0  0  0  0  0  0  0
   -2.5419   -2.9124   -0.2156 C   0  0  0  0  0  0  0  0  0  0  0  0
   -3.2846   -2.1871    0.1258 H   0  0  0  0  0  0  0  0  0  0  0  0
   -2.6910   -3.1015   -1.2816 H   0  0  0  0  0  0  0  0  0  0  0  0
   -1.1425   -2.3744    0.0244 C   0  0  0  0  0  0  0  0  0  0  0  0
   -0.3681   -2.9998    0.7273 O   0  0  0  0  0  0  0  0  0  0  0  0
   -0.7614   -1.1971   -0.5851 N   0  0  0  0  0  0  0  0  0  0  0  0
   -1.4421   -0.7470   -1.1896 H   0  0  0  0  0  0  0  0  0  0  0  0
    0.5428   -0.5317   -0.4089 C   0  0  1  0  0  0  0  0  0  0  0  0
    1.3581   -1.1898   -0.7271 H   0  0  0  0  0  0  0  0  0  0  0  0
    0.4702    0.6883   -1.3495 C   0  0  0  0  0  0  0  0  0  0  0  0
    0.5428    0.3372   -2.3845 H   0  0  0  0  0  0  0  0  0  0  0  0
   -0.5068    1.1712   -1.2334 H   0  0  0  0  0  0  0  0  0  0  0  0
    1.5421    1.7636   -1.1167 C   0  0  0  0  0  0  0  0  0  0  0  0
    1.4711    2.1733   -0.1054 H   0  0  0  0  0  0  0  0  0  0  0  0
    2.5397    1.3297   -1.2364 H   0  0  0  0  0  0  0  0  0  0  0  0
    1.3445    2.9032   -2.1159 C   0  0  0  0  0  0  0  0  0  0  0  0
    0.3565    3.6586   -1.9303 O   0  5  0  0  0  0  0  0  0  0  0  0
    2.1269    2.9749   -3.0949 O   0  0  0  0  0  0  0  0  0  0  0  0
    0.8287   -0.1321    1.0580 C   0  0  0  0  0  0  0  0  0  0  0  0
    1.9220   -0.3517    1.5664 O   0  0  0  0  0  0  0  0  0  0  0  0
   -0.1587    0.4779    1.8118 N   0  0  0  0  0  0  0  0  0  0  0  0
   -0.9662    0.8067    1.2939 H   0  0  0  0  0  0  0  0  0  0  0  0
    0.0842    1.0169    3.1415 C   0  0  0  0  0  0  0  0  0  0  0  0
    0.8149    1.8311    3.0957 H   0  0  0  0  0  0  0  0  0  0  0  0
   -0.8466    1.4066    3.5640 H   0  0  0  0  0  0  0  0  0  0  0  0
    0.4647    0.2361    3.8081 H   0  0  0  0  0  0  0  0  0  0  0  0
  1  2  1  0  0  0  0
  2  3  1  0  0  0  0
  2  4  1  0  0  0  0
  2  5  1  0  0  0  0
  5  6  2  0  0  0  0
  5  7  1  0  0  0  0
  7  8  1  0  0  0  0
  7  9  1  0  0  0  0
  9 10  1  0  0  0  0
  9 11  1  0  0  0  0
  9 20  1  0  0  0  0
 11 12  1  0  0  0  0
 11 13  1  0  0  0  0
 11 14  1  0  0  0  0
 14 15  1  0  0  0  0
 14 16  1  0  0  0  0
 14 17  1  0  0  0  0
 17 18  1  0  0  0  0
 17 19  2  0  0  0  0
 20 21  2  0  0  0  0
 20 22  1  0  0  0  0
 22 23  1  0  0  0  0
 22 24  1  0  0  0  0
 24 25  1  0  0  0  0
 24 26  1  0  0  0  0
 24 27  1  0  0  0  0
M  CHG  1  18  -1
M  END
$$$$

  -OEChem-04042215583D

 27 26  0     1  0  0  0  0  0999 V2000
   -2.7804   -3.7502    0.4722 H   0  0  0  0  0  0  0  0  0  0  0  0
   -2.6362   -2.8173   -0.0802 C   0  0  0  0  0  0  0  0  0  0  0  0
   -3.3054   -2.0580    0.3319 H   0  0  0  0  0  0  0  0  0  0  0  0
   -2.8905   -2.9863   -1.1296 H   0  0  0  0  0  0  0  0  0  0  0  0
   -1.1941   -2.3560    0.0371 C   0  0  0  0  0  0  0  0  0  0  0  0
   -0.3895   -3.0404    0.6450 O   0  0  0  0  0  0  0  0  0  0  0  0
   -0.8102   -1.1823   -0.5780 N   0  0  0  0  0  0  0  0  0  0  0  0
   -1.5297   -0.6643   -1.0732 H   0  0  0  0  0  0  0  0  0  0  0  0
    0.5174   -0.5533   -0.4465 C   0  0  1  0  0  0  0  0  0  0  0  0
    1.3032   -1.2278   -0.8025 H   0  0  0  0  0  0  0  0  0  0  0  0
    0.4348    0.6780   -1.3744 C   0  0  0  0  0  0  0  0  0  0  0  0
    0.4399    0.3446   -2.4174 H   0  0  0  0  0  0  0  0  0  0  0  0
   -0.5286    1.1686   -1.1947 H   0  0  0  0  0  0  0  0  0  0  0  0
    1.5354    1.7407   -1.1913 C   0  0  0  0  0  0  0  0  0  0  0  0
    1.6978    1.9735   -0.1363 H   0  0  0  0  0  0  0  0  0  0  0  0
    2.4799    1.3670   -1.5978 H   0  0  0  0  0  0  0  0  0  0  0  0
    1.1329    3.0415   -1.8888 C   0  0  0  0  0  0  0  0  0  0  0  0
    1.7855    3.3932   -2.9016 O   0  5  0  0  0  0  0  0  0  0  0  0
    0.1209    3.6421   -1.4438 O   0  0  0  0  0  0  0  0  0  0  0  0
    0.8651   -0.1790    1.0134 C   0  0  0  0  0  0  0  0  0  0  0  0
    1.9624   -0.4547    1.4848 O   0  0  0  0  0  0  0  0  0  0  0  0
   -0.0786    0.4480    1.8083 N   0  0  0  0  0  0  0  0  0  0  0  0
   -0.8609    0.8570    1.3078 H   0  0  0  0  0  0  0  0  0  0  0  0
    0.2374    0.9667    3.1306 C   0  0  0  0  0  0  0  0  0  0  0  0
    1.0085    1.7409    3.0620 H   0  0  0  0  0  0  0  0  0  0  0  0
   -0.6559    1.4040    3.5859 H   0  0  0  0  0  0  0  0  0  0  0  0
    0.5981    0.1634    3.7813 H   0  0  0  0  0  0  0  0  0  0  0  0
  1  2  1  0  0  0  0
  2  3  1  0  0  0  0
  2  4  1  0  0  0  0
  2  5  1  0  0  0  0
  5  6  2  0  0  0  0
  5  7  1  0  0  0  0
  7  8  1  0  0  0  0
  7  9  1  0  0  0  0
  9 10  1  0  0  0  0
  9 11  1  0  0  0  0
  9 20  1  0  0  0  0
 11 12  1  0  0  0  0
 11 13  1  0  0  0  0
 11 14  1  0  0  0  0
 14 15  1  0  0  0  0
 14 16  1  0  0  0  0
 14 17  1  0  0  0  0
 17 18  1  0  0  0  0
 17 19  2  0  0  0  0
 20 21  2  0  0  0  0
 20 22  1  0  0  0  0
 22 23  1  0  0  0  0
 22 24  1  0  0  0  0
 24 25  1  0  0  0  0
 24 26  1  0  0  0  0
 24 27  1  0  0  0  0
M  CHG  1  18  -1
M  END
$$$$

  -OEChem-04042215583D

 27 26  0     1  0  0  0  0  0999 V2000
   -2.7482   -3.7473    0.5113 H   0  0  0  0  0  0  0  0  0  0  0  0
   -2.6160   -2.8046   -0.0273 C   0  0  0  0  0  0  0  0  0  0  0  0
   -3.2503   -2.0440    0.4349 H   0  0  0  0  0  0  0  0  0  0  0  0
   -2.9259   -2.9456   -1.0658 H   0  0  0  0  0  0  0  0  0  0  0  0
   -1.1622   -2.3691    0.0255 C   0  0  0  0  0  0  0  0  0  0  0  0
   -0.3395   -3.0781    0.5790 O   0  0  0  0  0  0  0  0  0  0  0  0
   -0.7874   -1.1960   -0.5961 N   0  0  0  0  0  0  0  0  0  0  0  0
   -1.5287   -0.6457   -1.0187 H   0  0  0  0  0  0  0  0  0  0  0  0
    0.5357   -0.5590   -0.4552 C   0  0  1  0  0  0  0  0  0  0  0  0
    1.3302   -1.2272   -0.8034 H   0  0  0  0  0  0  0  0  0  0  0  0
    0.4445    0.6703   -1.3861 C   0  0  0  0  0  0  0  0  0  0  0  0
    0.4510    0.3376   -2.4292 H   0  0  0  0  0  0  0  0  0  0  0  0
   -0.5287    1.1414   -1.2087 H   0  0  0  0  0  0  0  0  0  0  0  0
    1.5310    1.7532   -1.2083 C   0  0  0  0  0  0  0  0  0  0  0  0
    1.8883    1.8144   -0.1786 H   0  0  0  0  0  0  0  0  0  0  0  0
    2.3940    1.5115   -1.8358 H   0  0  0  0  0  0  0  0  0  0  0  0
    0.9735    3.1299   -1.5754 C   0  0  0  0  0  0  0  0  0  0  0  0
    1.4101    3.6857   -2.6124 O   0  5  0  0  0  0  0  0  0  0  0  0
    0.0482    3.5838   -0.8529 O   0  0  0  0  0  0  0  0  0  0  0  0
    0.8622   -0.1768    1.0082 C   0  0  0  0  0  0  0  0  0  0  0  0
    1.9419   -0.4807    1.5035 O   0  0  0  0  0  0  0  0  0  0  0  0
   -0.0948    0.4487    1.7882 N   0  0  0  0  0  0  0  0  0  0  0  0
   -0.8240    0.9210    1.2619 H   0  0  0  0  0  0  0  0  0  0  0  0
    0.2050    0.9508    3.1209 C   0  0  0  0  0  0  0  0  0  0  0  0
    0.9879    1.7148    3.0739 H   0  0  0  0  0  0  0  0  0  0  0  0
   -0.6905    1.3966    3.5637 H   0  0  0  0  0  0  0  0  0  0  0  0
    0.5419    0.1367    3.7708 H   0  0  0  0  0  0  0  0  0  0  0  0
  1  2  1  0  0  0  0
  2  3  1  0  0  0  0
  2  4  1  0  0  0  0
  2  5  1  0  0  0  0
  5  6  2  0  0  0  0
  5  7  1  0  0  0  0
  7  8  1  0  0  0  0
  7  9  1  0  0  0  0
  9 10  1  0  0  0  0
  9 11  1  0  0  0  0
  9 20  1  0  0  0  0
 11 12  1  0  0  0  0
 11 13  1  0  0  0  0
 11 14  1  0  0  0  0
 14 15  1  0  0  0  0
 14 16  1  0  0  0  0
 14 17  1  0  0  0  0
 17 18  1  0  0  0  0
 17 19  2  0  0  0  0
 20 21  2  0  0  0  0
 20 22  1  0  0  0  0
 22 23  1  0  0  0  0
 22 24  1  0  0  0  0
 24 25  1  0  0  0  0
 24 26  1  0  0  0  0
 24 27  1  0  0  0  0
M  CHG  1  18  -1
M  END
$$$$

  -OEChem-04042215583D

 27 26  0     1  0  0  0  0  0999 V2000
   -2.6918   -3.7508    0.5575 H   0  0  0  0  0  0  0  0  0  0  0  0
   -2.5765   -2.7889    0.0500 C   0  0  0  0  0  0  0  0  0  0  0  0
   -3.1527   -2.0345    0.5916 H   0  0  0  0  0  0  0  0  0  0  0  0
   -2.9690   -2.8771   -0.9661 H   0  0  0  0  0  0  0  0  0  0  0  0
   -1.1122   -2.3887    0.0086 C   0  0  0  0  0  0  0  0  0  0  0  0
   -0.2707   -3.1227    0.4984 O   0  0  0  0  0  0  0  0  0  0  0  0
   -0.7522   -1.2219   -0.6329 N   0  0  0  0  0  0  0  0  0  0  0  0
   -1.5167   -0.6396   -0.9603 H   0  0  0  0  0  0  0  0  0  0  0  0
    0.5622   -0.5712   -0.4773 C   0  0  1  0  0  0  0  0  0  0  0  0
    1.3728   -1.2245   -0.8166 H   0  0  0  0  0  0  0  0  0  0  0  0
    0.4420    0.6592   -1.4014 C   0  0  0  0  0  0  0  0  0  0  0  0
    0.4773    0.3231   -2.4427 H   0  0  0  0  0  0  0  0  0  0  0  0
   -0.5505    1.0988   -1.2526 H   0  0  0  0  0  0  0  0  0  0  0  0
    1.5082    1.7637   -1.2130 C   0  0  0  0  0  0  0  0  0  0  0  0
    2.0764    1.6509   -0.2879 H   0  0  0  0  0  0  0  0  0  0  0  0
    2.2298    1.7084   -2.0336 H   0  0  0  0  0  0  0  0  0  0  0  0
    0.8446    3.1431   -1.1994 C   0  0  0  0  0  0  0  0  0  0  0  0
    1.1411    3.9573   -2.1067 O   0  5  0  0  0  0  0  0  0  0  0  0
   -0.0260    3.3417   -0.3102 O   0  0  0  0  0  0  0  0  0  0  0  0
    0.8631   -0.1598    0.9847 C   0  0  0  0  0  0  0  0  0  0  0  0
    1.9088   -0.5138    1.5190 O   0  0  0  0  0  0  0  0  0  0  0  0
   -0.1102    0.4741    1.7375 N   0  0  0  0  0  0  0  0  0  0  0  0
   -0.7312    1.0582    1.1797 H   0  0  0  0  0  0  0  0  0  0  0  0
    0.1607    0.9310    3.0925 C   0  0  0  0  0  0  0  0  0  0  0  0
    0.9798    1.6576    3.0937 H   0  0  0  0  0  0  0  0  0  0  0  0
   -0.7296    1.4101    3.5102 H   0  0  0  0  0  0  0  0  0  0  0  0
    0.4327    0.0880    3.7358 H   0  0  0  0  0  0  0  0  0  0  0  0
  1  2  1  0  0  0  0
  2  3  1  0  0  0  0
  2  4  1  0  0  0  0
  2  5  1  0  0  0  0
  5  6  2  0  0  0  0
  5  7  1  0  0  0  0
  7  8  1  0  0  0  0
  7  9  1  0  0  0  0
  9 10  1  0  0  0  0
  9 11  1  0  0  0  0
  9 20  1  0  0  0  0
 11 12  1  0  0  0  0
 11 13  1  0  0  0  0
 11 14  1  0  0  0  0
 14 15  1  0  0  0  0
 14 16  1  0  0  0  0
 14 17  1  0  0  0  0
 17 18  1  0  0  0  0
 17 19  2  0  0  0  0
 20 21  2  0  0  0  0
 20 22  1  0  0  0  0
 22 23  1  0  0  0  0
 22 24  1  0  0  0  0
 24 25  1  0  0  0  0
 24 26  1  0  0  0  0
 24 27  1  0  0  0  0
M  CHG  1  18  -1
M  END
$$$$

  -OEChem-04042215583D

 27 26  0     1  0  0  0  0  0999 V2000
   -2.6865   -3.6704    0.5658 H   0  0  0  0  0  0  0  0  0  0  0  0
   -2.5523   -2.7381    0.0102 C   0  0  0  0  0  0  0  0  0  0  0  0
   -3.1082   -1.9447    0.5161 H   0  0  0  0  0  0  0  0  0  0  0  0
   -2.9514   -2.8673   -0.9988 H   0  0  0  0  0  0  0  0  0  0  0  0
   -1.0797   -2.3748   -0.0568 C   0  0  0  0  0  0  0  0  0  0  0  0
   -0.2470   -3.1414    0.3976 O   0  0  0  0  0  0  0  0  0  0  0  0
   -0.7025   -1.2139   -0.6987 N   0  0  0  0  0  0  0  0  0  0  0  0
   -1.4673   -0.6008   -0.9627 H   0  0  0  0  0  0  0  0  0  0  0  0
    0.5982   -0.5607   -0.4658 C   0  0  1  0  0  0  0  0  0  0  0  0
    1.4283   -1.2151   -0.7512 H   0  0  0  0  0  0  0  0  0  0  0  0
    0.5237    0.6566   -1.4105 C   0  0  0  0  0  0  0  0  0  0  0  0
    0.6591    0.2947   -2.4346 H   0  0  0  0  0  0  0  0  0  0  0  0
   -0.4822    1.0905   -1.3723 H   0  0  0  0  0  0  0  0  0  0  0  0
    1.5753    1.7582   -1.1522 C   0  0  0  0  0  0  0  0  0  0  0  0
    2.2678    1.4970   -0.3486 H   0  0  0  0  0  0  0  0  0  0  0  0
    2.1757    1.8962   -2.0563 H   0  0  0  0  0  0  0  0  0  0  0  0
    0.8671    3.0750   -0.8156 C   0  0  0  0  0  0  0  0  0  0  0  0
    0.0030    3.0323    0.1036 O   0  5  0  0  0  0  0  0  0  0  0  0
    1.1397    4.0927   -1.4956 O   0  0  0  0  0  0  0  0  0  0  0  0
    0.8231   -0.1250    1.0042 C   0  0  0  0  0  0  0  0  0  0  0  0
    1.7947   -0.5578    1.6164 O   0  0  0  0  0  0  0  0  0  0  0  0
   -0.1855    0.5244    1.6939 N   0  0  0  0  0  0  0  0  0  0  0  0
   -0.5986    1.2721    1.1252 H   0  0  0  0  0  0  0  0  0  0  0  0
   -0.0354    0.8426    3.1058 C   0  0  0  0  0  0  0  0  0  0  0  0
    0.8288    1.4968    3.2604 H   0  0  0  0  0  0  0  0  0  0  0  0
   -0.9299    1.3568    3.4692 H   0  0  0  0  0  0  0  0  0  0  0  0
    0.1005   -0.0709    3.6935 H   0  0  0  0  0  0  0  0  0  0  0  0
  1  2  1  0  0  0  0
  2  3  1  0  0  0  0
  2  4  1  0  0  0  0
  2  5  1  0  0  0  0
  5  6  2  0  0  0  0
  5  7  1  0  0  0  0
  7  8  1  0  0  0  0
  7  9  1  0  0  0  0
  9 10  1  0  0  0  0
  9 11  1  0  0  0  0
  9 20  1  0  0  0  0
 11 12  1  0  0  0  0
 11 13  1  0  0  0  0
 11 14  1  0  0  0  0
 14 15  1  0  0  0  0
 14 16  1  0  0  0  0
 14 17  1  0  0  0  0
 17 18  1  0  0  0  0
 17 19  2  0  0  0  0
 20 21  2  0  0  0  0
 20 22  1  0  0  0  0
 22 23  1  0  0  0  0
 22 24  1  0  0  0  0
 24 25  1  0  0  0  0
 24 26  1  0  0  0  0
 24 27  1  0  0  0  0
M  CHG  1  18  -1
M  END
$$$$

  -OEChem-04042215583D

 27 26  0     1  0  0  0  0  0999 V2000
   -2.6523   -3.6963    0.5947 H   0  0  0  0  0  0  0  0  0  0  0  0
   -2.5441   -2.7582    0.0432 C   0  0  0  0  0  0  0  0  0  0  0  0
   -3.0935   -1.9750    0.5716 H   0  0  0  0  0  0  0  0  0  0  0  0
   -2.9706   -2.8834   -0.9550 H   0  0  0  0  0  0  0  0  0  0  0  0
   -1.0779   -2.3781   -0.0625 C   0  0  0  0  0  0  0  0  0  0  0  0
   -0.2240   -3.1470    0.3471 O   0  0  0  0  0  0  0  0  0  0  0  0
   -0.7336   -1.1974   -0.6865 N   0  0  0  0  0  0  0  0  0  0  0  0
   -1.5147   -0.5868   -0.9045 H   0  0  0  0  0  0  0  0  0  0  0  0
    0.5566   -0.5248   -0.4556 C   0  0  1  0  0  0  0  0  0  0  0  0
    1.3823   -1.1892   -0.7306 H   0  0  0  0  0  0  0  0  0  0  0  0
    0.5157    0.6608   -1.4451 C   0  0  0  0  0  0  0  0  0  0  0  0
    0.6975    0.2531   -2.4446 H   0  0  0  0  0  0  0  0  0  0  0  0
   -0.4873    1.1008   -1.4741 H   0  0  0  0  0  0  0  0  0  0  0  0
    1.5622    1.7665   -1.1924 C   0  0  0  0  0  0  0  0  0  0  0  0
    2.3738    1.4032   -0.5561 H   0  0  0  0  0  0  0  0  0  0  0  0
    2.0045    2.0526   -2.1513 H   0  0  0  0  0  0  0  0  0  0  0  0
    0.9270    3.0190   -0.5646 C   0  0  0  0  0  0  0  0  0  0  0  0
   -0.0688    2.8658    0.1961 O   0  5  0  0  0  0  0  0  0  0  0  0
    1.4188    4.1300   -0.8737 O   0  0  0  0  0  0  0  0  0  0  0  0
    0.8024   -0.1101    1.0168 C   0  0  0  0  0  0  0  0  0  0  0  0
    1.7921   -0.5434    1.5995 O   0  0  0  0  0  0  0  0  0  0  0  0
   -0.1987    0.5080    1.7433 N   0  0  0  0  0  0  0  0  0  0  0  0
   -0.6105    1.2779    1.2007 H   0  0  0  0  0  0  0  0  0  0  0  0
   -0.0215    0.7897    3.1599 C   0  0  0  0  0  0  0  0  0  0  0  0
    0.8347    1.4550    3.3124 H   0  0  0  0  0  0  0  0  0  0  0  0
   -0.9161    1.2771    3.5580 H   0  0  0  0  0  0  0  0  0  0  0  0
    0.1445   -0.1367    3.7190 H   0  0  0  0  0  0  0  0  0  0  0  0
  1  2  1  0  0  0  0
  2  3  1  0  0  0  0
  2  4  1  0  0  0  0
  2  5  1  0  0  0  0
  5  6  2  0  0  0  0
  5  7  1  0  0  0  0
  7  8  1  0  0  0  0
  7  9  1  0  0  0  0
  9 10  1  0  0  0  0
  9 11  1  0  0  0  0
  9 20  1  0  0  0  0
 11 12  1  0  0  0  0
 11 13  1  0  0  0  0
 11 14  1  0  0  0  0
 14 15  1  0  0  0  0
 14 16  1  0  0  0  0
 14 17  1  0  0  0  0
 17 18  1  0  0  0  0
 17 19  2  0  0  0  0
 20 21  2  0  0  0  0
 20 22  1  0  0  0  0
 22 23  1  0  0  0  0
 22 24  1  0  0  0  0
 24 25  1  0  0  0  0
 24 26  1  0  0  0  0
 24 27  1  0  0  0  0
M  CHG  1  18  -1
M  END
$$$$

  -OEChem-04042215583D

 27 26  0     1  0  0  0  0  0999 V2000
   -2.6377   -3.7155    0.6061 H   0  0  0  0  0  0  0  0  0  0  0  0
   -2.5393   -2.7775    0.0527 C   0  0  0  0  0  0  0  0  0  0  0  0
   -3.0917   -1.9976    0.5831 H   0  0  0  0  0  0  0  0  0  0  0  0
   -2.9700   -2.9066   -0.9432 H   0  0  0  0  0  0  0  0  0  0  0  0
   -1.0767   -2.3869   -0.0621 C   0  0  0  0  0  0  0  0  0  0  0  0
   -0.2138   -3.1572    0.3254 O   0  0  0  0  0  0  0  0  0  0  0  0
   -0.7474   -1.1955   -0.6734 N   0  0  0  0  0  0  0  0  0  0  0  0
   -1.5355   -0.5872   -0.8724 H   0  0  0  0  0  0  0  0  0  0  0  0
    0.5389   -0.5146   -0.4465 C   0  0  1  0  0  0  0  0  0  0  0  0
    1.3626   -1.1815   -0.7229 H   0  0  0  0  0  0  0  0  0  0  0  0
    0.5024    0.6560   -1.4560 C   0  0  0  0  0  0  0  0  0  0  0  0
    0.6953    0.2285   -2.4450 H   0  0  0  0  0  0  0  0  0  0  0  0
   -0.5007    1.0931   -1.5036 H   0  0  0  0  0  0  0  0  0  0  0  0
    1.5394    1.7739   -1.2231 C   0  0  0  0  0  0  0  0  0  0  0  0
    2.4596    1.3506   -0.8096 H   0  0  0  0  0  0  0  0  0  0  0  0
    1.7846    2.2219   -2.1904 H   0  0  0  0  0  0  0  0  0  0  0  0
    1.0306    2.9021   -0.3064 C   0  0  0  0  0  0  0  0  0  0  0  0
   -0.1221    2.8027    0.2000 O   0  5  0  0  0  0  0  0  0  0  0  0
    1.7884    3.8876   -0.1499 O   0  0  0  0  0  0  0  0  0  0  0  0
    0.8009   -0.1142    1.0268 C   0  0  0  0  0  0  0  0  0  0  0  0
    1.8003   -0.5489    1.5909 O   0  0  0  0  0  0  0  0  0  0  0  0
   -0.1942    0.4871    1.7752 N   0  0  0  0  0  0  0  0  0  0  0  0
   -0.6333    1.2483    1.2419 H   0  0  0  0  0  0  0  0  0  0  0  0
    0.0079    0.7712    3.1884 C   0  0  0  0  0  0  0  0  0  0  0  0
    0.8516    1.4561    3.3228 H   0  0  0  0  0  0  0  0  0  0  0  0
   -0.8885    1.2374    3.6077 H   0  0  0  0  0  0  0  0  0  0  0  0
    0.2077   -0.1515    3.7425 H   0  0  0  0  0  0  0  0  0  0  0  0
  1  2  1  0  0  0  0
  2  3  1  0  0  0  0
  2  4  1  0  0  0  0
  2  5  1  0  0  0  0
  5  6  2  0  0  0  0
  5  7  1  0  0  0  0
  7  8  1  0  0  0  0
  7  9  1  0  0  0  0
  9 10  1  0  0  0  0
  9 11  1  0  0  0  0
  9 20  1  0  0  0  0
 11 12  1  0  0  0  0
 11 13  1  0  0  0  0
 11 14  1  0  0  0  0
 14 15  1  0  0  0  0
 14 16  1  0  0  0  0
 14 17  1  0  0  0  0
 17 18  1  0  0  0  0
 17 19  2  0  0  0  0
 20 21  2  0  0  0  0
 20 22  1  0  0  0  0
 22 23  1  0  0  0  0
 22 24  1  0  0  0  0
 24 25  1  0  0  0  0
 24 26  1  0  0  0  0
 24 27  1  0  0  0  0
M  CHG  1  18  -1
M  END
$$$$

  -OEChem-04042215583D

 27 26  0     1  0  0  0  0  0999 V2000
   -2.6216   -3.7263    0.6074 H   0  0  0  0  0  0  0  0  0  0  0  0
   -2.5287   -2.7791    0.0686 C   0  0  0  0  0  0  0  0  0  0  0  0
   -3.0706   -2.0073    0.6213 H   0  0  0  0  0  0  0  0  0  0  0  0
   -2.9750   -2.8902   -0.9226 H   0  0  0  0  0  0  0  0  0  0  0  0
   -1.0667   -2.3900   -0.0617 C   0  0  0  0  0  0  0  0  0  0  0  0
   -0.2004   -3.1690    0.2995 O   0  0  0  0  0  0  0  0  0  0  0  0
   -0.7437   -1.1905   -0.6609 N   0  0  0  0  0  0  0  0  0  0  0  0
   -1.5349   -0.5807   -0.8408 H   0  0  0  0  0  0  0  0  0  0  0  0
    0.5415   -0.5078   -0.4303 C   0  0  1  0  0  0  0  0  0  0  0  0
    1.3636   -1.1786   -0.7025 H   0  0  0  0  0  0  0  0  0  0  0  0
    0.5144    0.6483   -1.4624 C   0  0  0  0  0  0  0  0  0  0  0  0
    0.6943    0.2058   -2.4474 H   0  0  0  0  0  0  0  0  0  0  0  0
   -0.4880    1.0886   -1.4979 H   0  0  0  0  0  0  0  0  0  0  0  0
    1.5329    1.7911   -1.2737 C   0  0  0  0  0  0  0  0  0  0  0  0
    2.5241    1.3650   -1.0922 H   0  0  0  0  0  0  0  0  0  0  0  0
    1.5805    2.3712   -2.1993 H   0  0  0  0  0  0  0  0  0  0  0  0
    1.1782    2.7587   -0.1331 C   0  0  0  0  0  0  0  0  0  0  0  0
   -0.0215    2.7968    0.2592 O   0  5  0  0  0  0  0  0  0  0  0  0
    2.0881    3.5044    0.2966 O   0  0  0  0  0  0  0  0  0  0  0  0
    0.8030   -0.1248    1.0474 C   0  0  0  0  0  0  0  0  0  0  0  0
    1.7865   -0.5927    1.6123 O   0  0  0  0  0  0  0  0  0  0  0  0
   -0.1959    0.4639    1.8012 N   0  0  0  0  0  0  0  0  0  0  0  0
   -0.6190    1.2428    1.2817 H   0  0  0  0  0  0  0  0  0  0  0  0
    0.0035    0.7204    3.2200 C   0  0  0  0  0  0  0  0  0  0  0  0
    0.8564    1.3908    3.3697 H   0  0  0  0  0  0  0  0  0  0  0  0
   -0.8884    1.1923    3.6424 H   0  0  0  0  0  0  0  0  0  0  0  0
    0.1877   -0.2144    3.7589 H   0  0  0  0  0  0  0  0  0  0  0  0
  1  2  1  0  0  0  0
  2  3  1  0  0  0  0
  2  4  1  0  0  0  0
  2  5  1  0  0  0  0
  5  6  2  0  0  0  0
  5  7  1  0  0  0  0
  7  8  1  0  0  0  0
  7  9  1  0  0  0  0
  9 10  1  0  0  0  0
  9 11  1  0  0  0  0
  9 20  1  0  0  0  0
 11 12  1  0  0  0  0
 11 13  1  0  0  0  0
 11 14  1  0  0  0  0
 14 15  1  0  0  0  0
 14 16  1  0  0  0  0
 14 17  1  0  0  0  0
 17 18  1  0  0  0  0
 17 19  2  0  0  0  0
 20 21  2  0  0  0  0
 20 22  1  0  0  0  0
 22 23  1  0  0  0  0
 22 24  1  0  0  0  0
 24 25  1  0  0  0  0
 24 26  1  0  0  0  0
 24 27  1  0  0  0  0
M  CHG  1  18  -1
M  END
$$$$

  -OEChem-04042215583D

 27 26  0     1  0  0  0  0  0999 V2000
   -2.6066   -3.7188    0.6205 H   0  0  0  0  0  0  0  0  0  0  0  0
   -2.5151   -2.7658    0.0917 C   0  0  0  0  0  0  0  0  0  0  0  0
   -3.0416   -1.9964    0.6621 H   0  0  0  0  0  0  0  0  0  0  0  0
   -2.9783   -2.8613   -0.8933 H   0  0  0  0  0  0  0  0  0  0  0  0
   -1.0523   -2.3871   -0.0571 C   0  0  0  0  0  0  0  0  0  0  0  0
   -0.1875   -3.1816    0.2723 O   0  0  0  0  0  0  0  0  0  0  0  0
   -0.7295   -1.1824   -0.6463 N   0  0  0  0  0  0  0  0  0  0  0  0
   -1.5211   -0.5686   -0.8075 H   0  0  0  0  0  0  0  0  0  0  0  0
    0.5565   -0.5021   -0.4076 C   0  0  1  0  0  0  0  0  0  0  0  0
    1.3780   -1.1776   -0.6702 H   0  0  0  0  0  0  0  0  0  0  0  0
    0.5410    0.6353   -1.4683 C   0  0  0  0  0  0  0  0  0  0  0  0
    0.6932    0.1735   -2.4489 H   0  0  0  0  0  0  0  0  0  0  0  0
   -0.4597    1.0816   -1.4798 H   0  0  0  0  0  0  0  0  0  0  0  0
    1.5336    1.8109   -1.3479 C   0  0  0  0  0  0  0  0  0  0  0  0
    2.5526    1.4167   -1.4068 H   0  0  0  0  0  0  0  0  0  0  0  0
    1.3855    2.4856   -2.1956 H   0  0  0  0  0  0  0  0  0  0  0  0
    1.3949    2.6268   -0.0593 C   0  0  0  0  0  0  0  0  0  0  0  0
    0.2223    2.8021    0.3742 O   0  5  0  0  0  0  0  0  0  0  0  0
    2.4231    3.1406    0.4371 O   0  0  0  0  0  0  0  0  0  0  0  0
    0.8045   -0.1369    1.0774 C   0  0  0  0  0  0  0  0  0  0  0  0
    1.7500   -0.6619    1.6567 O   0  0  0  0  0  0  0  0  0  0  0  0
   -0.2046    0.4426    1.8252 N   0  0  0  0  0  0  0  0  0  0  0  0
   -0.5699    1.2652    1.3309 H   0  0  0  0  0  0  0  0  0  0  0  0
   -0.0440    0.6272    3.2603 C   0  0  0  0  0  0  0  0  0  0  0  0
    0.8289    1.2546    3.4693 H   0  0  0  0  0  0  0  0  0  0  0  0
   -0.9302    1.1159    3.6750 H   0  0  0  0  0  0  0  0  0  0  0  0
    0.0840   -0.3379    3.7608 H   0  0  0  0  0  0  0  0  0  0  0  0
  1  2  1  0  0  0  0
  2  3  1  0  0  0  0
  2  4  1  0  0  0  0
  2  5  1  0  0  0  0
  5  6  2  0  0  0  0
  5  7  1  0  0  0  0
  7  8  1  0  0  0  0
  7  9  1  0  0  0  0
  9 10  1  0  0  0  0
  9 11  1  0  0  0  0
  9 20  1  0  0  0  0
 11 12  1  0  0  0  0
 11 13  1  0  0  0  0
 11 14  1  0  0  0  0
 14 15  1  0  0  0  0
 14 16  1  0  0  0  0
 14 17  1  0  0  0  0
 17 18  1  0  0  0  0
 17 19  2  0  0  0  0
 20 21  2  0  0  0  0
 20 22  1  0  0  0  0
 22 23  1  0  0  0  0
 22 24  1  0  0  0  0
 24 25  1  0  0  0  0
 24 26  1  0  0  0  0
 24 27  1  0  0  0  0
M  CHG  1  18  -1
M  END
$$$$

  -OEChem-04042215583D

 27 26  0     1  0  0  0  0  0999 V2000
   -2.6170   -3.6909    0.6226 H   0  0  0  0  0  0  0  0  0  0  0  0
   -2.5172   -2.7199    0.1293 C   0  0  0  0  0  0  0  0  0  0  0  0
   -3.0018   -1.9605    0.7482 H   0  0  0  0  0  0  0  0  0  0  0  0
   -3.0166   -2.7630   -0.8417 H   0  0  0  0  0  0  0  0  0  0  0  0
   -1.0502   -2.3746   -0.0552 C   0  0  0  0  0  0  0  0  0  0  0  0
   -0.1972   -3.1940    0.2420 O   0  0  0  0  0  0  0  0  0  0  0  0
   -0.7138   -1.1729   -0.6435 N   0  0  0  0  0  0  0  0  0  0  0  0
   -1.4991   -0.5472   -0.7877 H   0  0  0  0  0  0  0  0  0  0  0  0
    0.5796   -0.5084   -0.3936 C   0  0  1  0  0  0  0  0  0  0  0  0
    1.3982   -1.1912   -0.6467 H   0  0  0  0  0  0  0  0  0  0  0  0
    0.5746    0.6196   -1.4702 C   0  0  0  0  0  0  0  0  0  0  0  0
    0.6920    0.1457   -2.4500 H   0  0  0  0  0  0  0  0  0  0  0  0
   -0.4214    1.0759   -1.4518 H   0  0  0  0  0  0  0  0  0  0  0  0
    1.5504    1.8159   -1.4117 C   0  0  0  0  0  0  0  0  0  0  0  0
    2.5372    1.4628   -1.7260 H   0  0  0  0  0  0  0  0  0  0  0  0
    1.2266    2.5722   -2.1323 H   0  0  0  0  0  0  0  0  0  0  0  0
    1.7023    2.4827   -0.0471 C   0  0  0  0  0  0  0  0  0  0  0  0
    0.6241    2.7914    0.5306 O   0  5  0  0  0  0  0  0  0  0  0  0
    2.8478    2.7711    0.3682 O   0  0  0  0  0  0  0  0  0  0  0  0
    0.8050   -0.1544    1.0986 C   0  0  0  0  0  0  0  0  0  0  0  0
    1.6884   -0.7518    1.7051 O   0  0  0  0  0  0  0  0  0  0  0  0
   -0.2170    0.4328    1.8235 N   0  0  0  0  0  0  0  0  0  0  0  0
   -0.4804    1.3145    1.3698 H   0  0  0  0  0  0  0  0  0  0  0  0
   -0.1368    0.5117    3.2752 C   0  0  0  0  0  0  0  0  0  0  0  0
    0.7516    1.0760    3.5779 H   0  0  0  0  0  0  0  0  0  0  0  0
   -1.0218    1.0178    3.6710 H   0  0  0  0  0  0  0  0  0  0  0  0
   -0.0870   -0.4902    3.7136 H   0  0  0  0  0  0  0  0  0  0  0  0
  1  2  1  0  0  0  0
  2  3  1  0  0  0  0
  2  4  1  0  0  0  0
  2  5  1  0  0  0  0
  5  6  2  0  0  0  0
  5  7  1  0  0  0  0
  7  8  1  0  0  0  0
  7  9  1  0  0  0  0
  9 10  1  0  0  0  0
  9 11  1  0  0  0  0
  9 20  1  0  0  0  0
 11 12  1  0  0  0  0
 11 13  1  0  0  0  0
 11 14  1  0  0  0  0
 14 15  1  0  0  0  0
 14 16  1  0  0  0  0
 14 17  1  0  0  0  0
 17 18  1  0  0  0  0
 17 19  2  0  0  0  0
 20 21  2  0  0  0  0
 20 22  1  0  0  0  0
 22 23  1  0  0  0  0
 22 24  1  0  0  0  0
 24 25  1  0  0  0  0
 24 26  1  0  0  0  0
 24 27  1  0  0  0  0
M  CHG  1  18  -1
M  END
$$$$

  -OEChem-04042215583D

 27 26  0     1  0  0  0  0  0999 V2000
   -2.6323   -3.6624    0.6528 H   0  0  0  0  0  0  0  0  0  0  0  0
   -2.5204   -2.7024    0.1409 C   0  0  0  0  0  0  0  0  0  0  0  0
   -2.9980   -1.9260    0.7440 H   0  0  0  0  0  0  0  0  0  0  0  0
   -3.0180   -2.7589   -0.8302 H   0  0  0  0  0  0  0  0  0  0  0  0
   -1.0492   -2.3772   -0.0473 C   0  0  0  0  0  0  0  0  0  0  0  0
   -0.2078   -3.2112    0.2407 O   0  0  0  0  0  0  0  0  0  0  0  0
   -0.6986   -1.1811   -0.6394 N   0  0  0  0  0  0  0  0  0  0  0  0
   -1.4778   -0.5488   -0.7844 H   0  0  0  0  0  0  0  0  0  0  0  0
    0.6019   -0.5280   -0.3879 C   0  0  1  0  0  0  0  0  0  0  0  0
    1.4217   -1.2085   -0.6436 H   0  0  0  0  0  0  0  0  0  0  0  0
    0.5798    0.6078   -1.4587 C   0  0  0  0  0  0  0  0  0  0  0  0
    0.6626    0.1392   -2.4446 H   0  0  0  0  0  0  0  0  0  0  0  0
   -0.4154    1.0630   -1.4040 H   0  0  0  0  0  0  0  0  0  0  0  0
    1.5397    1.8203   -1.4383 C   0  0  0  0  0  0  0  0  0  0  0  0
    2.4275    1.5449   -2.0157 H   0  0  0  0  0  0  0  0  0  0  0  0
    1.0642    2.6561   -1.9596 H   0  0  0  0  0  0  0  0  0  0  0  0
    2.0202    2.3099   -0.0781 C   0  0  0  0  0  0  0  0  0  0  0  0
    1.1128    2.7338    0.6867 O   0  5  0  0  0  0  0  0  0  0  0  0
    3.2485    2.3593    0.1608 O   0  0  0  0  0  0  0  0  0  0  0  0
    0.8127   -0.1755    1.1070 C   0  0  0  0  0  0  0  0  0  0  0  0
    1.6478   -0.8189    1.7340 O   0  0  0  0  0  0  0  0  0  0  0  0
   -0.2188    0.4223    1.8112 N   0  0  0  0  0  0  0  0  0  0  0  0
   -0.4351    1.3216    1.3756 H   0  0  0  0  0  0  0  0  0  0  0  0
   -0.1877    0.4604    3.2665 C   0  0  0  0  0  0  0  0  0  0  0  0
    0.7144    0.9739    3.6160 H   0  0  0  0  0  0  0  0  0  0  0  0
   -1.0620    0.9977    3.6450 H   0  0  0  0  0  0  0  0  0  0  0  0
   -0.2009   -0.5540    3.6781 H   0  0  0  0  0  0  0  0  0  0  0  0
  1  2  1  0  0  0  0
  2  3  1  0  0  0  0
  2  4  1  0  0  0  0
  2  5  1  0  0  0  0
  5  6  2  0  0  0  0
  5  7  1  0  0  0  0
  7  8  1  0  0  0  0
  7  9  1  0  0  0  0
  9 10  1  0  0  0  0
  9 11  1  0  0  0  0
  9 20  1  0  0  0  0
 11 12  1  0  0  0  0
 11 13  1  0  0  0  0
 11 14  1  0  0  0  0
 14 15  1  0  0  0  0
 14 16  1  0  0  0  0
 14 17  1  0  0  0  0
 17 18  1  0  0  0  0
 17 19  2  0  0  0  0
 20 21  2  0  0  0  0
 20 22  1  0  0  0  0
 22 23  1  0  0  0  0
 22 24  1  0  0  0  0
 24 25  1  0  0  0  0
 24 26  1  0  0  0  0
 24 27  1  0  0  0  0
M  CHG  1  18  -1
M  END
$$$$

  -OEChem-04042215583D

 27 26  0     1  0  0  0  0  0999 V2000
   -2.4277   -3.8514    0.6911 H   0  0  0  0  0  0  0  0  0  0  0  0
   -2.3788   -2.8763    0.1981 C   0  0  0  0  0  0  0  0  0  0  0  0
   -2.8858   -2.1399    0.8267 H   0  0  0  0  0  0  0  0  0  0  0  0
   -2.8923   -2.9408   -0.7642 H   0  0  0  0  0  0  0  0  0  0  0  0
   -0.9316   -2.4667   -0.0109 C   0  0  0  0  0  0  0  0  0  0  0  0
   -0.0405   -3.2491    0.2702 O   0  0  0  0  0  0  0  0  0  0  0  0
   -0.6595   -1.2554   -0.6140 N   0  0  0  0  0  0  0  0  0  0  0  0
   -1.4753   -0.6744   -0.7684 H   0  0  0  0  0  0  0  0  0  0  0  0
    0.6125   -0.5302   -0.4105 C   0  0  1  0  0  0  0  0  0  0  0  0
    1.4672   -1.1506   -0.7033 H   0  0  0  0  0  0  0  0  0  0  0  0
    0.4634    0.6238   -1.4500 C   0  0  0  0  0  0  0  0  0  0  0  0
    0.5270    0.1779   -2.4482 H   0  0  0  0  0  0  0  0  0  0  0  0
   -0.5554    1.0118   -1.3412 H   0  0  0  0  0  0  0  0  0  0  0  0
    1.3475    1.8944   -1.4556 C   0  0  0  0  0  0  0  0  0  0  0  0
    2.0504    1.7980   -2.2888 H   0  0  0  0  0  0  0  0  0  0  0  0
    0.7153    2.7592   -1.6790 H   0  0  0  0  0  0  0  0  0  0  0  0
    2.1712    2.2164   -0.2162 C   0  0  0  0  0  0  0  0  0  0  0  0
    1.5277    2.7128    0.7437 O   0  5  0  0  0  0  0  0  0  0  0  0
    3.4138    2.0617   -0.2543 O   0  0  0  0  0  0  0  0  0  0  0  0
    0.8356   -0.1701    1.0815 C   0  0  0  0  0  0  0  0  0  0  0  0
    1.7190   -0.7578    1.6955 O   0  0  0  0  0  0  0  0  0  0  0  0
   -0.2146    0.3658    1.8099 N   0  0  0  0  0  0  0  0  0  0  0  0
   -0.6406    1.1435    1.3149 H   0  0  0  0  0  0  0  0  0  0  0  0
   -0.0954    0.5421    3.2509 C   0  0  0  0  0  0  0  0  0  0  0  0
    0.7618    1.1820    3.4864 H   0  0  0  0  0  0  0  0  0  0  0  0
   -0.9999    1.0123    3.6469 H   0  0  0  0  0  0  0  0  0  0  0  0
    0.0364   -0.4241    3.7486 H   0  0  0  0  0  0  0  0  0  0  0  0
  1  2  1  0  0  0  0
  2  3  1  0  0  0  0
  2  4  1  0  0  0  0
  2  5  1  0  0  0  0
  5  6  2  0  0  0  0
  5  7  1  0  0  0  0
  7  8  1  0  0  0  0
  7  9  1  0  0  0  0
  9 10  1  0  0  0  0
  9 11  1  0  0  0  0
  9 20  1  0  0  0  0
 11 12  1  0  0  0  0
 11 13  1  0  0  0  0
 11 14  1  0  0  0  0
 14 15  1  0  0  0  0
 14 16  1  0  0  0  0
 14 17  1  0  0  0  0
 17 18  1  0  0  0  0
 17 19  2  0  0  0  0
 20 21  2  0  0  0  0
 20 22  1  0  0  0  0
 22 23  1  0  0  0  0
 22 24  1  0  0  0  0
 24 25  1  0  0  0  0
 24 26  1  0  0  0  0
 24 27  1  0  0  0  0
M  CHG  1  18  -1
M  END
$$$$

  -OEChem-04042215583D

 27 26  0     1  0  0  0  0  0999 V2000
   -2.6388   -3.7422    0.7967 H   0  0  0  0  0  0  0  0  0  0  0  0
   -2.5432   -2.7912    0.2651 C   0  0  0  0  0  0  0  0  0  0  0  0
   -3.0476   -2.0137    0.8442 H   0  0  0  0  0  0  0  0  0  0  0  0
   -3.0259   -2.8820   -0.7111 H   0  0  0  0  0  0  0  0  0  0  0  0
   -1.0777   -2.4349    0.0881 C   0  0  0  0  0  0  0  0  0  0  0  0
   -0.2234   -3.2309    0.4341 O   0  0  0  0  0  0  0  0  0  0  0  0
   -0.7517   -1.2545   -0.5491 N   0  0  0  0  0  0  0  0  0  0  0  0
   -1.5380   -0.6567   -0.7736 H   0  0  0  0  0  0  0  0  0  0  0  0
    0.5671   -0.5947   -0.4313 C   0  0  1  0  0  0  0  0  0  0  0  0
    1.3796   -1.2463   -0.7732 H   0  0  0  0  0  0  0  0  0  0  0  0
    0.3925    0.5861   -1.4330 C   0  0  0  0  0  0  0  0  0  0  0  0
    0.3898    0.1504   -2.4377 H   0  0  0  0  0  0  0  0  0  0  0  0
   -0.6023    1.0152   -1.2715 H   0  0  0  0  0  0  0  0  0  0  0  0
    1.3470    1.8034   -1.4705 C   0  0  0  0  0  0  0  0  0  0  0  0
    1.7711    1.8674   -2.4772 H   0  0  0  0  0  0  0  0  0  0  0  0
    0.7512    2.7103   -1.3282 H   0  0  0  0  0  0  0  0  0  0  0  0
    2.5081    1.8526   -0.4856 C   0  0  0  0  0  0  0  0  0  0  0  0
    3.5906    1.3198   -0.8252 O   0  5  0  0  0  0  0  0  0  0  0  0
    2.3119    2.4926    0.5772 O   0  0  0  0  0  0  0  0  0  0  0  0
    0.8775   -0.2195    1.0418 C   0  0  0  0  0  0  0  0  0  0  0  0
    1.7729   -0.8092    1.6338 O   0  0  0  0  0  0  0  0  0  0  0  0
   -0.1093    0.3842    1.8063 N   0  0  0  0  0  0  0  0  0  0  0  0
   -0.6706    1.0447    1.2833 H   0  0  0  0  0  0  0  0  0  0  0  0
    0.1258    0.6980    3.2092 C   0  0  0  0  0  0  0  0  0  0  0  0
    1.0005    1.3495    3.3119 H   0  0  0  0  0  0  0  0  0  0  0  0
   -0.7432    1.2120    3.6296 H   0  0  0  0  0  0  0  0  0  0  0  0
    0.2965   -0.2172    3.7854 H   0  0  0  0  0  0  0  0  0  0  0  0
  1  2  1  0  0  0  0
  2  3  1  0  0  0  0
  2  4  1  0  0  0  0
  2  5  1  0  0  0  0
  5  6  2  0  0  0  0
  5  7  1  0  0  0  0
  7  8  1  0  0  0  0
  7  9  1  0  0  0  0
  9 10  1  0  0  0  0
  9 11  1  0  0  0  0
  9 20  1  0  0  0  0
 11 12  1  0  0  0  0
 11 13  1  0  0  0  0
 11 14  1  0  0  0  0
 14 15  1  0  0  0  0
 14 16  1  0  0  0  0
 14 17  1  0  0  0  0
 17 18  1  0  0  0  0
 17 19  2  0  0  0  0
 20 21  2  0  0  0  0
 20 22  1  0  0  0  0
 22 23  1  0  0  0  0
 22 24  1  0  0  0  0
 24 25  1  0  0  0  0
 24 26  1  0  0  0  0
 24 27  1  0  0  0  0
M  CHG  1  18  -1
M  END
$$$$

  -OEChem-04042215583D

 27 26  0     1  0  0  0  0  0999 V2000
   -2.8726   -3.6407    0.6850 H   0  0  0  0  0  0  0  0  0  0  0  0
   -2.6682   -2.7510    0.0825 C   0  0  0  0  0  0  0  0  0  0  0  0
   -3.2838   -1.9276    0.4527 H   0  0  0  0  0  0  0  0  0  0  0  0
   -2.9356   -2.9599   -0.9562 H   0  0  0  0  0  0  0  0  0  0  0  0
   -1.1981   -2.3814    0.1755 C   0  0  0  0  0  0  0  0  0  0  0  0
   -0.4433   -3.1030    0.8006 O   0  0  0  0  0  0  0  0  0  0  0  0
   -0.7492   -1.2672   -0.5052 N   0  0  0  0  0  0  0  0  0  0  0  0
   -1.4483   -0.7408   -1.0156 H   0  0  0  0  0  0  0  0  0  0  0  0
    0.5934   -0.6609   -0.3650 C   0  0  1  0  0  0  0  0  0  0  0  0
    1.3993   -1.3497   -0.6453 H   0  0  0  0  0  0  0  0  0  0  0  0
    0.4976    0.5079   -1.3871 C   0  0  0  0  0  0  0  0  0  0  0  0
    0.5375    0.0490   -2.3805 H   0  0  0  0  0  0  0  0  0  0  0  0
   -0.4843    0.9840   -1.2929 H   0  0  0  0  0  0  0  0  0  0  0  0
    1.5260    1.6614   -1.3892 C   0  0  0  0  0  0  0  0  0  0  0  0
    1.7827    1.8972   -2.4260 H   0  0  0  0  0  0  0  0  0  0  0  0
    1.0338    2.5467   -0.9742 H   0  0  0  0  0  0  0  0  0  0  0  0
    2.8255    1.4548   -0.6169 C   0  0  0  0  0  0  0  0  0  0  0  0
    3.5861    0.5439   -1.0242 O   0  5  0  0  0  0  0  0  0  0  0  0
    3.0971    2.2792    0.2898 O   0  0  0  0  0  0  0  0  0  0  0  0
    0.8441   -0.2008    1.0954 C   0  0  0  0  0  0  0  0  0  0  0  0
    1.7331   -0.7052    1.7675 O   0  0  0  0  0  0  0  0  0  0  0  0
   -0.1510    0.4950    1.7644 N   0  0  0  0  0  0  0  0  0  0  0  0
   -0.7915    1.0033    1.1691 H   0  0  0  0  0  0  0  0  0  0  0  0
    0.0256    0.9588    3.1332 C   0  0  0  0  0  0  0  0  0  0  0  0
    0.8969    1.6188    3.2018 H   0  0  0  0  0  0  0  0  0  0  0  0
   -0.8589    1.5133    3.4593 H   0  0  0  0  0  0  0  0  0  0  0  0
    0.1697    0.1108    3.8106 H   0  0  0  0  0  0  0  0  0  0  0  0
  1  2  1  0  0  0  0
  2  3  1  0  0  0  0
  2  4  1  0  0  0  0
  2  5  1  0  0  0  0
  5  6  2  0  0  0  0
  5  7  1  0  0  0  0
  7  8  1  0  0  0  0
  7  9  1  0  0  0  0
  9 10  1  0  0  0  0
  9 11  1  0  0  0  0
  9 20  1  0  0  0  0
 11 12  1  0  0  0  0
 11 13  1  0  0  0  0
 11 14  1  0  0  0  0
 14 15  1  0  0  0  0
 14 16  1  0  0  0  0
 14 17  1  0  0  0  0
 17 18  1  0  0  0  0
 17 19  2  0  0  0  0
 20 21  2  0  0  0  0
 20 22  1  0  0  0  0
 22 23  1  0  0  0  0
 22 24  1  0  0  0  0
 24 25  1  0  0  0  0
 24 26  1  0  0  0  0
 24 27  1  0  0  0  0
M  CHG  1  18  -1
M  END
$$$$

  -OEChem-04042215583D

 27 26  0     1  0  0  0  0  0999 V2000
   -2.8376   -3.7416    0.4846 H   0  0  0  0  0  0  0  0  0  0  0  0
   -2.6373   -2.8362   -0.0956 C   0  0  0  0  0  0  0  0  0  0  0  0
   -3.3576   -2.0672    0.1936 H   0  0  0  0  0  0  0  0  0  0  0  0
   -2.7626   -3.0643   -1.1569 H   0  0  0  0  0  0  0  0  0  0  0  0
   -1.2236   -2.3469    0.1668 C   0  0  0  0  0  0  0  0  0  0  0  0
   -0.5135   -2.9716    0.9324 O   0  0  0  0  0  0  0  0  0  0  0  0
   -0.7805   -1.2188   -0.4950 N   0  0  0  0  0  0  0  0  0  0  0  0
   -1.4091   -0.8252   -1.1857 H   0  0  0  0  0  0  0  0  0  0  0  0
    0.5654   -0.6154   -0.3792 C   0  0  1  0  0  0  0  0  0  0  0  0
    1.3615   -1.2941   -0.7084 H   0  0  0  0  0  0  0  0  0  0  0  0
    0.4466    0.6033   -1.3349 C   0  0  0  0  0  0  0  0  0  0  0  0
    0.4623    0.2009   -2.3533 H   0  0  0  0  0  0  0  0  0  0  0  0
   -0.5257    1.0863   -1.1912 H   0  0  0  0  0  0  0  0  0  0  0  0
    1.5042    1.7269   -1.2816 C   0  0  0  0  0  0  0  0  0  0  0  0
    1.5530    2.2124   -2.2603 H   0  0  0  0  0  0  0  0  0  0  0  0
    1.1596    2.4756   -0.5618 H   0  0  0  0  0  0  0  0  0  0  0  0
    2.9193    1.3166   -0.8731 C   0  0  0  0  0  0  0  0  0  0  0  0
    3.3973    0.3027   -1.4409 O   0  5  0  0  0  0  0  0  0  0  0  0
    3.5653    2.1115   -0.1478 O   0  0  0  0  0  0  0  0  0  0  0  0
    0.8633   -0.1870    1.0815 C   0  0  0  0  0  0  0  0  0  0  0  0
    1.8378   -0.6060    1.6895 O   0  0  0  0  0  0  0  0  0  0  0  0
   -0.1078    0.4924    1.7996 N   0  0  0  0  0  0  0  0  0  0  0  0
   -0.8787    0.8699    1.2644 H   0  0  0  0  0  0  0  0  0  0  0  0
    0.0826    0.9267    3.1754 C   0  0  0  0  0  0  0  0  0  0  0  0
    0.9599    1.5777    3.2518 H   0  0  0  0  0  0  0  0  0  0  0  0
   -0.7941    1.4825    3.5193 H   0  0  0  0  0  0  0  0  0  0  0  0
    0.2243    0.0622    3.8322 H   0  0  0  0  0  0  0  0  0  0  0  0
  1  2  1  0  0  0  0
  2  3  1  0  0  0  0
  2  4  1  0  0  0  0
  2  5  1  0  0  0  0
  5  6  2  0  0  0  0
  5  7  1  0  0  0  0
  7  8  1  0  0  0  0
  7  9  1  0  0  0  0
  9 10  1  0  0  0  0
  9 11  1  0  0  0  0
  9 20  1  0  0  0  0
 11 12  1  0  0  0  0
 11 13  1  0  0  0  0
 11 14  1  0  0  0  0
 14 15  1  0  0  0  0
 14 16  1  0  0  0  0
 14 17  1  0  0  0  0
 17 18  1  0  0  0  0
 17 19  2  0  0  0  0
 20 21  2  0  0  0  0
 20 22  1  0  0  0  0
 22 23  1  0  0  0  0
 22 24  1  0  0  0  0
 24 25  1  0  0  0  0
 24 26  1  0  0  0  0
 24 27  1  0  0  0  0
M  CHG  1  18  -1
M  END
$$$$

  -OEChem-04042215583D

 27 26  0     1  0  0  0  0  0999 V2000
   -2.7710   -3.7974    0.4420 H   0  0  0  0  0  0  0  0  0  0  0  0
   -2.5952   -2.8867   -0.1378 C   0  0  0  0  0  0  0  0  0  0  0  0
   -3.3803   -2.1637    0.0964 H   0  0  0  0  0  0  0  0  0  0  0  0
   -2.6410   -3.1333   -1.2015 H   0  0  0  0  0  0  0  0  0  0  0  0
   -1.2344   -2.3032    0.2009 C   0  0  0  0  0  0  0  0  0  0  0  0
   -0.5550   -2.8417    1.0550 O   0  0  0  0  0  0  0  0  0  0  0  0
   -0.8101   -1.1771   -0.4766 N   0  0  0  0  0  0  0  0  0  0  0  0
   -1.3924   -0.8816   -1.2523 H   0  0  0  0  0  0  0  0  0  0  0  0
    0.5365   -0.5714   -0.3879 C   0  0  1  0  0  0  0  0  0  0  0  0
    1.3217   -1.2574   -0.7276 H   0  0  0  0  0  0  0  0  0  0  0  0
    0.4208    0.6463   -1.3417 C   0  0  0  0  0  0  0  0  0  0  0  0
    0.4133    0.2574   -2.3655 H   0  0  0  0  0  0  0  0  0  0  0  0
   -0.5378    1.1487   -1.1751 H   0  0  0  0  0  0  0  0  0  0  0  0
    1.5105    1.7354   -1.2663 C   0  0  0  0  0  0  0  0  0  0  0  0
    1.4131    2.3907   -2.1362 H   0  0  0  0  0  0  0  0  0  0  0  0
    1.3349    2.3423   -0.3730 H   0  0  0  0  0  0  0  0  0  0  0  0
    2.9502    1.2150   -1.2106 C   0  0  0  0  0  0  0  0  0  0  0  0
    3.2066    0.1669   -1.8574 O   0  5  0  0  0  0  0  0  0  0  0  0
    3.8102    1.9643   -0.6873 O   0  0  0  0  0  0  0  0  0  0  0  0
    0.8723   -0.1319    1.0604 C   0  0  0  0  0  0  0  0  0  0  0  0
    1.9077   -0.4674    1.6175 O   0  0  0  0  0  0  0  0  0  0  0  0
   -0.0793    0.5511    1.7995 N   0  0  0  0  0  0  0  0  0  0  0  0
   -0.9501    0.7654    1.3312 H   0  0  0  0  0  0  0  0  0  0  0  0
    0.1059    0.9366    3.1901 C   0  0  0  0  0  0  0  0  0  0  0  0
    0.9905    1.5734    3.2950 H   0  0  0  0  0  0  0  0  0  0  0  0
   -0.7657    1.4939    3.5453 H   0  0  0  0  0  0  0  0  0  0  0  0
    0.2313    0.0490    3.8187 H   0  0  0  0  0  0  0  0  0  0  0  0
  1  2  1  0  0  0  0
  2  3  1  0  0  0  0
  2  4  1  0  0  0  0
  2  5  1  0  0  0  0
  5  6  2  0  0  0  0
  5  7  1  0  0  0  0
  7  8  1  0  0  0  0
  7  9  1  0  0  0  0
  9 10  1  0  0  0  0
  9 11  1  0  0  0  0
  9 20  1  0  0  0  0
 11 12  1  0  0  0  0
 11 13  1  0  0  0  0
 11 14  1  0  0  0  0
 14 15  1  0  0  0  0
 14 16  1  0  0  0  0
 14 17  1  0  0  0  0
 17 18  1  0  0  0  0
 17 19  2  0  0  0  0
 20 21  2  0  0  0  0
 20 22  1  0  0  0  0
 22 23  1  0  0  0  0
 22 24  1  0  0  0  0
 24 25  1  0  0  0  0
 24 26  1  0  0  0  0
 24 27  1  0  0  0  0
M  CHG  1  18  -1
M  END
$$$$

  -OEChem-04042215583D

 27 26  0     1  0  0  0  0  0999 V2000
   -2.7203   -3.8303    0.4127 H   0  0  0  0  0  0  0  0  0  0  0  0
   -2.5647   -2.9129   -0.1623 C   0  0  0  0  0  0  0  0  0  0  0  0
   -3.3785   -2.2170    0.0561 H   0  0  0  0  0  0  0  0  0  0  0  0
   -2.5810   -3.1596   -1.2269 H   0  0  0  0  0  0  0  0  0  0  0  0
   -1.2317   -2.2837    0.2032 C   0  0  0  0  0  0  0  0  0  0  0  0
   -0.5611   -2.7845    1.0870 O   0  0  0  0  0  0  0  0  0  0  0  0
   -0.8268   -1.1513   -0.4751 N   0  0  0  0  0  0  0  0  0  0  0  0
   -1.3940   -0.8926   -1.2751 H   0  0  0  0  0  0  0  0  0  0  0  0
    0.5163   -0.5380   -0.3969 C   0  0  1  0  0  0  0  0  0  0  0  0
    1.2987   -1.2244   -0.7427 H   0  0  0  0  0  0  0  0  0  0  0  0
    0.4071    0.6757   -1.3540 C   0  0  0  0  0  0  0  0  0  0  0  0
    0.3750    0.3014   -2.3830 H   0  0  0  0  0  0  0  0  0  0  0  0
   -0.5401    1.1912   -1.1651 H   0  0  0  0  0  0  0  0  0  0  0  0
    1.5161    1.7430   -1.2548 C   0  0  0  0  0  0  0  0  0  0  0  0
    1.2992    2.5342   -1.9776 H   0  0  0  0  0  0  0  0  0  0  0  0
    1.5062    2.1945   -0.2586 H   0  0  0  0  0  0  0  0  0  0  0  0
    2.9259    1.2109   -1.5444 C   0  0  0  0  0  0  0  0  0  0  0  0
    3.0301    0.1422   -2.2013 O   0  5  0  0  0  0  0  0  0  0  0  0
    3.8864    1.9616   -1.2454 O   0  0  0  0  0  0  0  0  0  0  0  0
    0.8700   -0.1021    1.0475 C   0  0  0  0  0  0  0  0  0  0  0  0
    1.9452   -0.3745    1.5634 O   0  0  0  0  0  0  0  0  0  0  0  0
   -0.0745    0.5718    1.8034 N   0  0  0  0  0  0  0  0  0  0  0  0
   -0.9845    0.6965    1.3785 H   0  0  0  0  0  0  0  0  0  0  0  0
    0.1241    0.9370    3.1977 C   0  0  0  0  0  0  0  0  0  0  0  0
    1.0026    1.5821    3.3023 H   0  0  0  0  0  0  0  0  0  0  0  0
   -0.7489    1.4789    3.5725 H   0  0  0  0  0  0  0  0  0  0  0  0
    0.2673    0.0408    3.8100 H   0  0  0  0  0  0  0  0  0  0  0  0
  1  2  1  0  0  0  0
  2  3  1  0  0  0  0
  2  4  1  0  0  0  0
  2  5  1  0  0  0  0
  5  6  2  0  0  0  0
  5  7  1  0  0  0  0
  7  8  1  0  0  0  0
  7  9  1  0  0  0  0
  9 10  1  0  0  0  0
  9 11  1  0  0  0  0
  9 20  1  0  0  0  0
 11 12  1  0  0  0  0
 11 13  1  0  0  0  0
 11 14  1  0  0  0  0
 14 15  1  0  0  0  0
 14 16  1  0  0  0  0
 14 17  1  0  0  0  0
 17 18  1  0  0  0  0
 17 19  2  0  0  0  0
 20 21  2  0  0  0  0
 20 22  1  0  0  0  0
 22 23  1  0  0  0  0
 22 24  1  0  0  0  0
 24 25  1  0  0  0  0
 24 26  1  0  0  0  0
 24 27  1  0  0  0  0
M  CHG  1  18  -1
M  END
$$$$

  -OEChem-04042215583D

 27 26  0     1  0  0  0  0  0999 V2000
   -2.6916   -3.8469    0.3801 H   0  0  0  0  0  0  0  0  0  0  0  0
   -2.5552   -2.9154   -0.1768 C   0  0  0  0  0  0  0  0  0  0  0  0
   -3.3765   -2.2364    0.0651 H   0  0  0  0  0  0  0  0  0  0  0  0
   -2.5795   -3.1400   -1.2460 H   0  0  0  0  0  0  0  0  0  0  0  0
   -1.2278   -2.2746    0.1893 C   0  0  0  0  0  0  0  0  0  0  0  0
   -0.5539   -2.7692    1.0745 O   0  0  0  0  0  0  0  0  0  0  0  0
   -0.8331   -1.1341   -0.4816 N   0  0  0  0  0  0  0  0  0  0  0  0
   -1.3979   -0.8802   -1.2852 H   0  0  0  0  0  0  0  0  0  0  0  0
    0.5081   -0.5168   -0.4026 C   0  0  1  0  0  0  0  0  0  0  0  0
    1.2895   -1.2027   -0.7509 H   0  0  0  0  0  0  0  0  0  0  0  0
    0.4096    0.6929   -1.3654 C   0  0  0  0  0  0  0  0  0  0  0  0
    0.3554    0.3286   -2.3970 H   0  0  0  0  0  0  0  0  0  0  0  0
   -0.5299    1.2163   -1.1604 H   0  0  0  0  0  0  0  0  0  0  0  0
    1.5267    1.7527   -1.2536 C   0  0  0  0  0  0  0  0  0  0  0  0
    1.1998    2.6455   -1.7943 H   0  0  0  0  0  0  0  0  0  0  0  0
    1.6873    2.0443   -0.2127 H   0  0  0  0  0  0  0  0  0  0  0  0
    2.8615    1.3061   -1.8680 C   0  0  0  0  0  0  0  0  0  0  0  0
    2.9279    0.1763   -2.4191 O   0  5  0  0  0  0  0  0  0  0  0  0
    3.7843    2.1571   -1.8761 O   0  0  0  0  0  0  0  0  0  0  0  0
    0.8662   -0.0930    1.0443 C   0  0  0  0  0  0  0  0  0  0  0  0
    1.9594   -0.3344    1.5393 O   0  0  0  0  0  0  0  0  0  0  0  0
   -0.0765    0.5701    1.8115 N   0  0  0  0  0  0  0  0  0  0  0  0
   -0.9981    0.6652    1.4041 H   0  0  0  0  0  0  0  0  0  0  0  0
    0.1289    0.9184    3.2088 C   0  0  0  0  0  0  0  0  0  0  0  0
    0.9959    1.5786    3.3144 H   0  0  0  0  0  0  0  0  0  0  0  0
   -0.7507    1.4377    3.6003 H   0  0  0  0  0  0  0  0  0  0  0  0
    0.2952    0.0159    3.8060 H   0  0  0  0  0  0  0  0  0  0  0  0
  1  2  1  0  0  0  0
  2  3  1  0  0  0  0
  2  4  1  0  0  0  0
  2  5  1  0  0  0  0
  5  6  2  0  0  0  0
  5  7  1  0  0  0  0
  7  8  1  0  0  0  0
  7  9  1  0  0  0  0
  9 10  1  0  0  0  0
  9 11  1  0  0  0  0
  9 20  1  0  0  0  0
 11 12  1  0  0  0  0
 11 13  1  0  0  0  0
 11 14  1  0  0  0  0
 14 15  1  0  0  0  0
 14 16  1  0  0  0  0
 14 17  1  0  0  0  0
 17 18  1  0  0  0  0
 17 19  2  0  0  0  0
 20 21  2  0  0  0  0
 20 22  1  0  0  0  0
 22 23  1  0  0  0  0
 22 24  1  0  0  0  0
 24 25  1  0  0  0  0
 24 26  1  0  0  0  0
 24 27  1  0  0  0  0
M  CHG  1  18  -1
M  END
$$$$

  -OEChem-04042215583D

 27 26  0     1  0  0  0  0  0999 V2000
   -2.7072   -3.8260    0.3561 H   0  0  0  0  0  0  0  0  0  0  0  0
   -2.5588   -2.8956   -0.1994 C   0  0  0  0  0  0  0  0  0  0  0  0
   -3.3706   -2.2060    0.0443 H   0  0  0  0  0  0  0  0  0  0  0  0
   -2.5871   -3.1180   -1.2691 H   0  0  0  0  0  0  0  0  0  0  0  0
   -1.2229   -2.2723    0.1658 C   0  0  0  0  0  0  0  0  0  0  0  0
   -0.5436   -2.7877    1.0350 O   0  0  0  0  0  0  0  0  0  0  0  0
   -0.8243   -1.1252   -0.4911 N   0  0  0  0  0  0  0  0  0  0  0  0
   -1.3946   -0.8521   -1.2847 H   0  0  0  0  0  0  0  0  0  0  0  0
    0.5181   -0.5113   -0.4048 C   0  0  1  0  0  0  0  0  0  0  0  0
    1.3007   -1.1921   -0.7609 H   0  0  0  0  0  0  0  0  0  0  0  0
    0.4205    0.7070   -1.3569 C   0  0  0  0  0  0  0  0  0  0  0  0
    0.3499    0.3570   -2.3927 H   0  0  0  0  0  0  0  0  0  0  0  0
   -0.5158    1.2290   -1.1339 H   0  0  0  0  0  0  0  0  0  0  0  0
    1.5375    1.7676   -1.2386 C   0  0  0  0  0  0  0  0  0  0  0  0
    1.1193    2.7349   -1.5326 H   0  0  0  0  0  0  0  0  0  0  0  0
    1.8979    1.8716   -0.2134 H   0  0  0  0  0  0  0  0  0  0  0  0
    2.7242    1.4688   -2.1650 C   0  0  0  0  0  0  0  0  0  0  0  0
    2.9411    0.2761   -2.5012 O   0  5  0  0  0  0  0  0  0  0  0  0
    3.3739    2.4574   -2.5870 O   0  0  0  0  0  0  0  0  0  0  0  0
    0.8707   -0.1068    1.0494 C   0  0  0  0  0  0  0  0  0  0  0  0
    1.9637   -0.3509    1.5448 O   0  0  0  0  0  0  0  0  0  0  0  0
   -0.0746    0.5476    1.8210 N   0  0  0  0  0  0  0  0  0  0  0  0
   -0.9906    0.6640    1.4059 H   0  0  0  0  0  0  0  0  0  0  0  0
    0.1307    0.8992    3.2175 C   0  0  0  0  0  0  0  0  0  0  0  0
    0.9926    1.5664    3.3204 H   0  0  0  0  0  0  0  0  0  0  0  0
   -0.7522    1.4119    3.6098 H   0  0  0  0  0  0  0  0  0  0  0  0
    0.3052   -0.0010    3.8155 H   0  0  0  0  0  0  0  0  0  0  0  0
  1  2  1  0  0  0  0
  2  3  1  0  0  0  0
  2  4  1  0  0  0  0
  2  5  1  0  0  0  0
  5  6  2  0  0  0  0
  5  7  1  0  0  0  0
  7  8  1  0  0  0  0
  7  9  1  0  0  0  0
  9 10  1  0  0  0  0
  9 11  1  0  0  0  0
  9 20  1  0  0  0  0
 11 12  1  0  0  0  0
 11 13  1  0  0  0  0
 11 14  1  0  0  0  0
 14 15  1  0  0  0  0
 14 16  1  0  0  0  0
 14 17  1  0  0  0  0
 17 18  1  0  0  0  0
 17 19  2  0  0  0  0
 20 21  2  0  0  0  0
 20 22  1  0  0  0  0
 22 23  1  0  0  0  0
 22 24  1  0  0  0  0
 24 25  1  0  0  0  0
 24 26  1  0  0  0  0
 24 27  1  0  0  0  0
M  CHG  1  18  -1
M  END
$$$$

  -OEChem-04042215583D

 27 26  0     1  0  0  0  0  0999 V2000
   -2.7287   -3.8059    0.3392 H   0  0  0  0  0  0  0  0  0  0  0  0
   -2.5740   -2.8745   -0.2129 C   0  0  0  0  0  0  0  0  0  0  0  0
   -3.3735   -2.1755    0.0448 H   0  0  0  0  0  0  0  0  0  0  0  0
   -2.6184   -3.0899   -1.2835 H   0  0  0  0  0  0  0  0  0  0  0  0
   -1.2248   -2.2729    0.1397 C   0  0  0  0  0  0  0  0  0  0  0  0
   -0.5328   -2.8140    0.9830 O   0  0  0  0  0  0  0  0  0  0  0  0
   -0.8210   -1.1203   -0.5042 N   0  0  0  0  0  0  0  0  0  0  0  0
   -1.4017   -0.8198   -1.2804 H   0  0  0  0  0  0  0  0  0  0  0  0
    0.5226   -0.5111   -0.4086 C   0  0  1  0  0  0  0  0  0  0  0  0
    1.3035   -1.1904   -0.7698 H   0  0  0  0  0  0  0  0  0  0  0  0
    0.4306    0.7154   -1.3486 C   0  0  0  0  0  0  0  0  0  0  0  0
    0.3616    0.3681   -2.3856 H   0  0  0  0  0  0  0  0  0  0  0  0
   -0.5067    1.2373   -1.1290 H   0  0  0  0  0  0  0  0  0  0  0  0
    1.5491    1.7741   -1.2197 C   0  0  0  0  0  0  0  0  0  0  0  0
    1.0941    2.7692   -1.2223 H   0  0  0  0  0  0  0  0  0  0  0  0
    2.1071    1.6757   -0.2868 H   0  0  0  0  0  0  0  0  0  0  0  0
    2.5341    1.6814   -2.3897 C   0  0  0  0  0  0  0  0  0  0  0  0
    2.9664    0.5452   -2.7092 O   0  5  0  0  0  0  0  0  0  0  0  0
    2.8017    2.7455   -3.0012 O   0  0  0  0  0  0  0  0  0  0  0  0
    0.8729   -0.1221    1.0506 C   0  0  0  0  0  0  0  0  0  0  0  0
    1.9648   -0.3782    1.5435 O   0  0  0  0  0  0  0  0  0  0  0  0
   -0.0703    0.5273    1.8285 N   0  0  0  0  0  0  0  0  0  0  0  0
   -0.9776    0.6791    1.4055 H   0  0  0  0  0  0  0  0  0  0  0  0
    0.1456    0.8931    3.2198 C   0  0  0  0  0  0  0  0  0  0  0  0
    1.0012    1.5704    3.3078 H   0  0  0  0  0  0  0  0  0  0  0  0
   -0.7387    1.3995    3.6171 H   0  0  0  0  0  0  0  0  0  0  0  0
    0.3361    0.0001    3.8237 H   0  0  0  0  0  0  0  0  0  0  0  0
  1  2  1  0  0  0  0
  2  3  1  0  0  0  0
  2  4  1  0  0  0  0
  2  5  1  0  0  0  0
  5  6  2  0  0  0  0
  5  7  1  0  0  0  0
  7  8  1  0  0  0  0
  7  9  1  0  0  0  0
  9 10  1  0  0  0  0
  9 11  1  0  0  0  0
  9 20  1  0  0  0  0
 11 12  1  0  0  0  0
 11 13  1  0  0  0  0
 11 14  1  0  0  0  0
 14 15  1  0  0  0  0
 14 16  1  0  0  0  0
 14 17  1  0  0  0  0
 17 18  1  0  0  0  0
 17 19  2  0  0  0  0
 20 21  2  0  0  0  0
 20 22  1  0  0  0  0
 22 23  1  0  0  0  0
 22 24  1  0  0  0  0
 24 25  1  0  0  0  0
 24 26  1  0  0  0  0
 24 27  1  0  0  0  0
M  CHG  1  18  -1
M  END
$$$$

  -OEChem-04042215583D

 27 26  0     1  0  0  0  0  0999 V2000
   -2.7532   -3.7945    0.3429 H   0  0  0  0  0  0  0  0  0  0  0  0
   -2.5924   -2.8683   -0.2166 C   0  0  0  0  0  0  0  0  0  0  0  0
   -3.3824   -2.1586    0.0414 H   0  0  0  0  0  0  0  0  0  0  0  0
   -2.6465   -3.0906   -1.2853 H   0  0  0  0  0  0  0  0  0  0  0  0
   -1.2341   -2.2795    0.1220 C   0  0  0  0  0  0  0  0  0  0  0  0
   -0.5286   -2.8387    0.9421 O   0  0  0  0  0  0  0  0  0  0  0  0
   -0.8295   -1.1239   -0.5158 N   0  0  0  0  0  0  0  0  0  0  0  0
   -1.4250   -0.7968   -1.2700 H   0  0  0  0  0  0  0  0  0  0  0  0
    0.5140   -0.5172   -0.4165 C   0  0  1  0  0  0  0  0  0  0  0  0
    1.2911   -1.1982   -0.7818 H   0  0  0  0  0  0  0  0  0  0  0  0
    0.4265    0.7161   -1.3452 C   0  0  0  0  0  0  0  0  0  0  0  0
    0.3810    0.3606   -2.3807 H   0  0  0  0  0  0  0  0  0  0  0  0
   -0.5155    1.2394   -1.1502 H   0  0  0  0  0  0  0  0  0  0  0  0
    1.5513    1.7652   -1.1988 C   0  0  0  0  0  0  0  0  0  0  0  0
    1.1210    2.7232   -0.8914 H   0  0  0  0  0  0  0  0  0  0  0  0
    2.2766    1.4722   -0.4367 H   0  0  0  0  0  0  0  0  0  0  0  0
    2.3126    1.9386   -2.5156 C   0  0  0  0  0  0  0  0  0  0  0  0
    2.8828    0.9303   -3.0022 O   0  5  0  0  0  0  0  0  0  0  0  0
    2.2606    3.0663   -3.0665 O   0  0  0  0  0  0  0  0  0  0  0  0
    0.8714   -0.1337    1.0421 C   0  0  0  0  0  0  0  0  0  0  0  0
    1.9655   -0.3995    1.5250 O   0  0  0  0  0  0  0  0  0  0  0  0
   -0.0637    0.5152    1.8297 N   0  0  0  0  0  0  0  0  0  0  0  0
   -0.9593    0.7138    1.4007 H   0  0  0  0  0  0  0  0  0  0  0  0
    0.1775    0.9102    3.2089 C   0  0  0  0  0  0  0  0  0  0  0  0
    1.0288    1.5964    3.2659 H   0  0  0  0  0  0  0  0  0  0  0  0
   -0.7034    1.4157    3.6148 H   0  0  0  0  0  0  0  0  0  0  0  0
    0.3883    0.0310    3.8262 H   0  0  0  0  0  0  0  0  0  0  0  0
  1  2  1  0  0  0  0
  2  3  1  0  0  0  0
  2  4  1  0  0  0  0
  2  5  1  0  0  0  0
  5  6  2  0  0  0  0
  5  7  1  0  0  0  0
  7  8  1  0  0  0  0
  7  9  1  0  0  0  0
  9 10  1  0  0  0  0
  9 11  1  0  0  0  0
  9 20  1  0  0  0  0
 11 12  1  0  0  0  0
 11 13  1  0  0  0  0
 11 14  1  0  0  0  0
 14 15  1  0  0  0  0
 14 16  1  0  0  0  0
 14 17  1  0  0  0  0
 17 18  1  0  0  0  0
 17 19  2  0  0  0  0
 20 21  2  0  0  0  0
 20 22  1  0  0  0  0
 22 23  1  0  0  0  0
 22 24  1  0  0  0  0
 24 25  1  0  0  0  0
 24 26  1  0  0  0  0
 24 27  1  0  0  0  0
M  CHG  1  18  -1
M  END
$$$$

  -OEChem-04042215583D

 27 26  0     1  0  0  0  0  0999 V2000
   -2.7954   -3.7533    0.3961 H   0  0  0  0  0  0  0  0  0  0  0  0
   -2.6152   -2.8542   -0.2000 C   0  0  0  0  0  0  0  0  0  0  0  0
   -3.3778   -2.1109    0.0453 H   0  0  0  0  0  0  0  0  0  0  0  0
   -2.6949   -3.1120   -1.2590 H   0  0  0  0  0  0  0  0  0  0  0  0
   -1.2331   -2.2979    0.0942 C   0  0  0  0  0  0  0  0  0  0  0  0
   -0.5016   -2.8886    0.8685 O   0  0  0  0  0  0  0  0  0  0  0  0
   -0.8314   -1.1373   -0.5354 N   0  0  0  0  0  0  0  0  0  0  0  0
   -1.4559   -0.7663   -1.2446 H   0  0  0  0  0  0  0  0  0  0  0  0
    0.5088   -0.5269   -0.4300 C   0  0  1  0  0  0  0  0  0  0  0  0
    1.2860   -1.2055   -0.7985 H   0  0  0  0  0  0  0  0  0  0  0  0
    0.4225    0.7137   -1.3451 C   0  0  0  0  0  0  0  0  0  0  0  0
    0.4131    0.3556   -2.3810 H   0  0  0  0  0  0  0  0  0  0  0  0
   -0.5248    1.2368   -1.1780 H   0  0  0  0  0  0  0  0  0  0  0  0
    1.5508    1.7486   -1.1702 C   0  0  0  0  0  0  0  0  0  0  0  0
    1.1939    2.6031   -0.5875 H   0  0  0  0  0  0  0  0  0  0  0  0
    2.3956    1.3095   -0.6321 H   0  0  0  0  0  0  0  0  0  0  0  0
    2.0701    2.2093   -2.5329 C   0  0  0  0  0  0  0  0  0  0  0  0
    2.8322    1.4372   -3.1655 O   0  5  0  0  0  0  0  0  0  0  0  0
    1.6242    3.2971   -2.9759 O   0  0  0  0  0  0  0  0  0  0  0  0
    0.8705   -0.1482    1.0279 C   0  0  0  0  0  0  0  0  0  0  0  0
    1.9682   -0.4145    1.5024 O   0  0  0  0  0  0  0  0  0  0  0  0
   -0.0630    0.4952    1.8218 N   0  0  0  0  0  0  0  0  0  0  0  0
   -0.9340    0.7558    1.3753 H   0  0  0  0  0  0  0  0  0  0  0  0
    0.2035    0.9333    3.1831 C   0  0  0  0  0  0  0  0  0  0  0  0
    1.0036    1.6805    3.1932 H   0  0  0  0  0  0  0  0  0  0  0  0
   -0.6956    1.3799    3.6173 H   0  0  0  0  0  0  0  0  0  0  0  0
    0.5026    0.0842    3.8062 H   0  0  0  0  0  0  0  0  0  0  0  0
  1  2  1  0  0  0  0
  2  3  1  0  0  0  0
  2  4  1  0  0  0  0
  2  5  1  0  0  0  0
  5  6  2  0  0  0  0
  5  7  1  0  0  0  0
  7  8  1  0  0  0  0
  7  9  1  0  0  0  0
  9 10  1  0  0  0  0
  9 11  1  0  0  0  0
  9 20  1  0  0  0  0
 11 12  1  0  0  0  0
 11 13  1  0  0  0  0
 11 14  1  0  0  0  0
 14 15  1  0  0  0  0
 14 16  1  0  0  0  0
 14 17  1  0  0  0  0
 17 18  1  0  0  0  0
 17 19  2  0  0  0  0
 20 21  2  0  0  0  0
 20 22  1  0  0  0  0
 22 23  1  0  0  0  0
 22 24  1  0  0  0  0
 24 25  1  0  0  0  0
 24 26  1  0  0  0  0
 24 27  1  0  0  0  0
M  CHG  1  18  -1
M  END
$$$$

  -OEChem-04042215583D

 27 26  0     1  0  0  0  0  0999 V2000
   -2.6732   -3.8534    0.3864 H   0  0  0  0  0  0  0  0  0  0  0  0
   -2.5205   -2.9439   -0.2015 C   0  0  0  0  0  0  0  0  0  0  0  0
   -3.2924   -2.2185    0.0668 H   0  0  0  0  0  0  0  0  0  0  0  0
   -2.6151   -3.1905   -1.2619 H   0  0  0  0  0  0  0  0  0  0  0  0
   -1.1447   -2.3636    0.0754 C   0  0  0  0  0  0  0  0  0  0  0  0
   -0.3903   -2.9420    0.8372 O   0  0  0  0  0  0  0  0  0  0  0  0
   -0.7703   -1.1956   -0.5566 N   0  0  0  0  0  0  0  0  0  0  0  0
   -1.4161   -0.8176   -1.2432 H   0  0  0  0  0  0  0  0  0  0  0  0
    0.5375   -0.5279   -0.4140 C   0  0  1  0  0  0  0  0  0  0  0  0
    1.3514   -1.1819   -0.7453 H   0  0  0  0  0  0  0  0  0  0  0  0
    0.4352    0.6939   -1.3492 C   0  0  0  0  0  0  0  0  0  0  0  0
    0.4959    0.3233   -2.3788 H   0  0  0  0  0  0  0  0  0  0  0  0
   -0.5394    1.1807   -1.2354 H   0  0  0  0  0  0  0  0  0  0  0  0
    1.5151    1.7685   -1.1401 C   0  0  0  0  0  0  0  0  0  0  0  0
    1.1961    2.4872   -0.3798 H   0  0  0  0  0  0  0  0  0  0  0  0
    2.4448    1.3047   -0.7956 H   0  0  0  0  0  0  0  0  0  0  0  0
    1.7981    2.4883   -2.4593 C   0  0  0  0  0  0  0  0  0  0  0  0
    0.8915    3.2431   -2.8943 O   0  5  0  0  0  0  0  0  0  0  0  0
    2.8730    2.2417   -3.0585 O   0  0  0  0  0  0  0  0  0  0  0  0
    0.8424   -0.1102    1.0451 C   0  0  0  0  0  0  0  0  0  0  0  0
    1.9399   -0.3195    1.5477 O   0  0  0  0  0  0  0  0  0  0  0  0
   -0.1371    0.5076    1.8028 N   0  0  0  0  0  0  0  0  0  0  0  0
   -0.9870    0.7639    1.3142 H   0  0  0  0  0  0  0  0  0  0  0  0
    0.0957    1.0237    3.1431 C   0  0  0  0  0  0  0  0  0  0  0  0
    0.8449    1.8218    3.1201 H   0  0  0  0  0  0  0  0  0  0  0  0
   -0.8328    1.4287    3.5561 H   0  0  0  0  0  0  0  0  0  0  0  0
    0.4484    0.2255    3.8044 H   0  0  0  0  0  0  0  0  0  0  0  0
  1  2  1  0  0  0  0
  2  3  1  0  0  0  0
  2  4  1  0  0  0  0
  2  5  1  0  0  0  0
  5  6  2  0  0  0  0
  5  7  1  0  0  0  0
  7  8  1  0  0  0  0
  7  9  1  0  0  0  0
  9 10  1  0  0  0  0
  9 11  1  0  0  0  0
  9 20  1  0  0  0  0
 11 12  1  0  0  0  0
 11 13  1  0  0  0  0
 11 14  1  0  0  0  0
 14 15  1  0  0  0  0
 14 16  1  0  0  0  0
 14 17  1  0  0  0  0
 17 18  1  0  0  0  0
 17 19  2  0  0  0  0
 20 21  2  0  0  0  0
 20 22  1  0  0  0  0
 22 23  1  0  0  0  0
 22 24  1  0  0  0  0
 24 25  1  0  0  0  0
 24 26  1  0  0  0  0
 24 27  1  0  0  0  0
M  CHG  1  18  -1
M  END
$$$$

  -OEChem-04042215583D

 27 26  0     1  0  0  0  0  0999 V2000
   -2.6798   -3.8600    0.3424 H   0  0  0  0  0  0  0  0  0  0  0  0
   -2.5313   -2.9349   -0.2219 C   0  0  0  0  0  0  0  0  0  0  0  0
   -3.2941   -2.2125    0.0794 H   0  0  0  0  0  0  0  0  0  0  0  0
   -2.6446   -3.1506   -1.2873 H   0  0  0  0  0  0  0  0  0  0  0  0
   -1.1476   -2.3708    0.0483 C   0  0  0  0  0  0  0  0  0  0  0  0
   -0.3865   -2.9691    0.7881 O   0  0  0  0  0  0  0  0  0  0  0  0
   -0.7699   -1.1969   -0.5699 N   0  0  0  0  0  0  0  0  0  0  0  0
   -1.4296   -0.7872   -1.2244 H   0  0  0  0  0  0  0  0  0  0  0  0
    0.5355   -0.5295   -0.4103 C   0  0  1  0  0  0  0  0  0  0  0  0
    1.3498   -1.1847   -0.7374 H   0  0  0  0  0  0  0  0  0  0  0  0
    0.4466    0.6920   -1.3461 C   0  0  0  0  0  0  0  0  0  0  0  0
    0.5173    0.3322   -2.3787 H   0  0  0  0  0  0  0  0  0  0  0  0
   -0.5287    1.1785   -1.2336 H   0  0  0  0  0  0  0  0  0  0  0  0
    1.5231    1.7628   -1.1195 C   0  0  0  0  0  0  0  0  0  0  0  0
    1.3166    2.3296   -0.2071 H   0  0  0  0  0  0  0  0  0  0  0  0
    2.5032    1.2887   -1.0081 H   0  0  0  0  0  0  0  0  0  0  0  0
    1.5572    2.7140   -2.3160 C   0  0  0  0  0  0  0  0  0  0  0  0
    0.5656    3.4729   -2.4647 O   0  5  0  0  0  0  0  0  0  0  0  0
    2.5270    2.6396   -3.1093 O   0  0  0  0  0  0  0  0  0  0  0  0
    0.8367   -0.1213    1.0516 C   0  0  0  0  0  0  0  0  0  0  0  0
    1.9367   -0.3286    1.5503 O   0  0  0  0  0  0  0  0  0  0  0  0
   -0.1440    0.4919    1.8116 N   0  0  0  0  0  0  0  0  0  0  0  0
   -0.9774    0.7797    1.3117 H   0  0  0  0  0  0  0  0  0  0  0  0
    0.1018    1.0305    3.1407 C   0  0  0  0  0  0  0  0  0  0  0  0
    0.8366    1.8407    3.0935 H   0  0  0  0  0  0  0  0  0  0  0  0
   -0.8266    1.4255    3.5633 H   0  0  0  0  0  0  0  0  0  0  0  0
    0.4783    0.2481    3.8075 H   0  0  0  0  0  0  0  0  0  0  0  0
  1  2  1  0  0  0  0
  2  3  1  0  0  0  0
  2  4  1  0  0  0  0
  2  5  1  0  0  0  0
  5  6  2  0  0  0  0
  5  7  1  0  0  0  0
  7  8  1  0  0  0  0
  7  9  1  0  0  0  0
  9 10  1  0  0  0  0
  9 11  1  0  0  0  0
  9 20  1  0  0  0  0
 11 12  1  0  0  0  0
 11 13  1  0  0  0  0
 11 14  1  0  0  0  0
 14 15  1  0  0  0  0
 14 16  1  0  0  0  0
 14 17  1  0  0  0  0
 17 18  1  0  0  0  0
 17 19  2  0  0  0  0
 20 21  2  0  0  0  0
 20 22  1  0  0  0  0
 22 23  1  0  0  0  0
 22 24  1  0  0  0  0
 24 25  1  0  0  0  0
 24 26  1  0  0  0  0
 24 27  1  0  0  0  0
M  CHG  1  18  -1
M  END
$$$$
