
  -OEChem-03222214043D

 27 26  0     1  0  0  0  0  0999 V2000
   -3.2234   -3.6266    1.1829 H   0  0  0  0  0  0  0  0  0  0  0  0
   -3.1229   -2.7055    0.6020 C   0  0  0  0  0  0  0  0  0  0  0  0
   -3.8729   -1.9879    0.9438 H   0  0  0  0  0  0  0  0  0  0  0  0
   -3.3013   -2.9328   -0.4520 H   0  0  0  0  0  0  0  0  0  0  0  0
   -1.7315   -2.1232    0.7753 C   0  0  0  0  0  0  0  0  0  0  0  0
   -0.9270   -2.6794    1.5078 O   0  0  0  0  0  0  0  0  0  0  0  0
   -1.4082   -0.9467    0.1360 N   0  0  0  0  0  0  0  0  0  0  0  0
   -2.1368   -0.4808   -0.4002 H   0  0  0  0  0  0  0  0  0  0  0  0
   -0.0960   -0.2876    0.1753 C   0  0  1  0  0  0  0  0  0  0  0  0
    0.4965   -0.6830    1.0062 H   0  0  0  0  0  0  0  0  0  0  0  0
    0.6549   -0.5788   -1.1341 C   0  0  0  0  0  0  0  0  0  0  0  0
    0.7670   -1.6624   -1.2488 H   0  0  0  0  0  0  0  0  0  0  0  0
    0.0661   -0.2132   -1.9825 H   0  0  0  0  0  0  0  0  0  0  0  0
    2.0493    0.0816   -1.1658 C   0  0  0  0  0  0  0  0  0  0  0  0
    1.9468    1.1652   -1.0619 H   0  0  0  0  0  0  0  0  0  0  0  0
    2.6376   -0.2892   -0.3217 H   0  0  0  0  0  0  0  0  0  0  0  0
    2.8348   -0.1842   -2.4557 C   0  0  0  0  0  0  0  0  0  0  0  0
    2.3951   -1.0186   -3.2864 O   0  5  0  0  0  0  0  0  0  0  0  0
    3.9070    0.4559   -2.5879 O   0  0  0  0  0  0  0  0  0  0  0  0
   -0.2790    1.2262    0.4154 C   0  0  0  0  0  0  0  0  0  0  0  0
   -1.2471    1.8177   -0.0565 O   0  0  0  0  0  0  0  0  0  0  0  0
    0.5226    1.8794    1.3338 N   0  0  0  0  0  0  0  0  0  0  0  0
    1.3803    1.4002    1.5923 H   0  0  0  0  0  0  0  0  0  0  0  0
    0.4369    3.3128    1.5720 C   0  0  0  0  0  0  0  0  0  0  0  0
   -0.5664    3.5870    1.9135 H   0  0  0  0  0  0  0  0  0  0  0  0
    1.1549    3.6084    2.3426 H   0  0  0  0  0  0  0  0  0  0  0  0
    0.6631    3.8656    0.6545 H   0  0  0  0  0  0  0  0  0  0  0  0
  1  2  1  0  0  0  0
  2  3  1  0  0  0  0
  2  4  1  0  0  0  0
  2  5  1  0  0  0  0
  5  6  2  0  0  0  0
  5  7  1  0  0  0  0
  7  8  1  0  0  0  0
  7  9  1  0  0  0  0
  9 10  1  0  0  0  0
  9 11  1  0  0  0  0
  9 20  1  0  0  0  0
 11 12  1  0  0  0  0
 11 13  1  0  0  0  0
 11 14  1  0  0  0  0
 14 15  1  0  0  0  0
 14 16  1  0  0  0  0
 14 17  1  0  0  0  0
 17 18  1  0  0  0  0
 17 19  2  0  0  0  0
 20 21  2  0  0  0  0
 20 22  1  0  0  0  0
 22 23  1  0  0  0  0
 22 24  1  0  0  0  0
 24 25  1  0  0  0  0
 24 26  1  0  0  0  0
 24 27  1  0  0  0  0
M  CHG  1  18  -1
M  END
$$$$

  -OEChem-03222214043D

 27 26  0     1  0  0  0  0  0999 V2000
   -3.2524   -3.5858    1.1625 H   0  0  0  0  0  0  0  0  0  0  0  0
   -3.1403   -2.6602    0.5911 C   0  0  0  0  0  0  0  0  0  0  0  0
   -3.8675   -1.9303    0.9554 H   0  0  0  0  0  0  0  0  0  0  0  0
   -3.3426   -2.8698   -0.4622 H   0  0  0  0  0  0  0  0  0  0  0  0
   -1.7326   -2.1123    0.7467 C   0  0  0  0  0  0  0  0  0  0  0  0
   -0.9274   -2.6968    1.4562 O   0  0  0  0  0  0  0  0  0  0  0  0
   -1.3949   -0.9339    0.1187 N   0  0  0  0  0  0  0  0  0  0  0  0
   -2.1262   -0.4375   -0.3861 H   0  0  0  0  0  0  0  0  0  0  0  0
   -0.0778   -0.2853    0.1710 C   0  0  1  0  0  0  0  0  0  0  0  0
    0.5074   -0.6877    1.0032 H   0  0  0  0  0  0  0  0  0  0  0  0
    0.6771   -0.5783   -1.1372 C   0  0  0  0  0  0  0  0  0  0  0  0
    0.7715   -1.6608   -1.2747 H   0  0  0  0  0  0  0  0  0  0  0  0
    0.0881   -0.1892   -1.9752 H   0  0  0  0  0  0  0  0  0  0  0  0
    2.0812    0.0601   -1.1790 C   0  0  0  0  0  0  0  0  0  0  0  0
    2.0420    1.0928   -0.8247 H   0  0  0  0  0  0  0  0  0  0  0  0
    2.7514   -0.4961   -0.5178 H   0  0  0  0  0  0  0  0  0  0  0  0
    2.6697    0.0768   -2.5927 C   0  0  0  0  0  0  0  0  0  0  0  0
    2.5826   -0.9692   -3.2829 O   0  5  0  0  0  0  0  0  0  0  0  0
    3.2511    1.1281   -2.9581 O   0  0  0  0  0  0  0  0  0  0  0  0
   -0.2680    1.2274    0.4217 C   0  0  0  0  0  0  0  0  0  0  0  0
   -1.2514    1.8105   -0.0289 O   0  0  0  0  0  0  0  0  0  0  0  0
    0.5237    1.8771    1.3513 N   0  0  0  0  0  0  0  0  0  0  0  0
    1.3917    1.4101    1.5962 H   0  0  0  0  0  0  0  0  0  0  0  0
    0.4111    3.3038    1.6186 C   0  0  0  0  0  0  0  0  0  0  0  0
   -0.5836    3.5442    2.0075 H   0  0  0  0  0  0  0  0  0  0  0  0
    1.1540    3.6053    2.3630 H   0  0  0  0  0  0  0  0  0  0  0  0
    0.5830    3.8793    0.7030 H   0  0  0  0  0  0  0  0  0  0  0  0
  1  2  1  0  0  0  0
  2  3  1  0  0  0  0
  2  4  1  0  0  0  0
  2  5  1  0  0  0  0
  5  6  2  0  0  0  0
  5  7  1  0  0  0  0
  7  8  1  0  0  0  0
  7  9  1  0  0  0  0
  9 10  1  0  0  0  0
  9 11  1  0  0  0  0
  9 20  1  0  0  0  0
 11 12  1  0  0  0  0
 11 13  1  0  0  0  0
 11 14  1  0  0  0  0
 14 15  1  0  0  0  0
 14 16  1  0  0  0  0
 14 17  1  0  0  0  0
 17 18  1  0  0  0  0
 17 19  2  0  0  0  0
 20 21  2  0  0  0  0
 20 22  1  0  0  0  0
 22 23  1  0  0  0  0
 22 24  1  0  0  0  0
 24 25  1  0  0  0  0
 24 26  1  0  0  0  0
 24 27  1  0  0  0  0
M  CHG  1  18  -1
M  END
$$$$

  -OEChem-03222214043D

 27 26  0     1  0  0  0  0  0999 V2000
   -3.2557   -3.5730    1.1842 H   0  0  0  0  0  0  0  0  0  0  0  0
   -3.1413   -2.6521    0.6055 C   0  0  0  0  0  0  0  0  0  0  0  0
   -3.8585   -1.9133    0.9716 H   0  0  0  0  0  0  0  0  0  0  0  0
   -3.3548   -2.8668   -0.4447 H   0  0  0  0  0  0  0  0  0  0  0  0
   -1.7278   -2.1154    0.7439 C   0  0  0  0  0  0  0  0  0  0  0  0
   -0.9139   -2.7159    1.4298 O   0  0  0  0  0  0  0  0  0  0  0  0
   -1.3899   -0.9351    0.1199 N   0  0  0  0  0  0  0  0  0  0  0  0
   -2.1276   -0.4201   -0.3571 H   0  0  0  0  0  0  0  0  0  0  0  0
   -0.0715   -0.2895    0.1744 C   0  0  1  0  0  0  0  0  0  0  0  0
    0.5159   -0.6943    1.0039 H   0  0  0  0  0  0  0  0  0  0  0  0
    0.6768   -0.5774   -1.1393 C   0  0  0  0  0  0  0  0  0  0  0  0
    0.7612   -1.6580   -1.2947 H   0  0  0  0  0  0  0  0  0  0  0  0
    0.0766   -0.1747   -1.9633 H   0  0  0  0  0  0  0  0  0  0  0  0
    2.0871    0.0511   -1.1970 C   0  0  0  0  0  0  0  0  0  0  0  0
    2.1298    0.9662   -0.6030 H   0  0  0  0  0  0  0  0  0  0  0  0
    2.8096   -0.6500   -0.7702 H   0  0  0  0  0  0  0  0  0  0  0  0
    2.5124    0.4057   -2.6244 C   0  0  0  0  0  0  0  0  0  0  0  0
    2.3732   -0.4689   -3.5154 O   0  5  0  0  0  0  0  0  0  0  0  0
    3.0235    1.5383   -2.8063 O   0  0  0  0  0  0  0  0  0  0  0  0
   -0.2705    1.2219    0.4314 C   0  0  0  0  0  0  0  0  0  0  0  0
   -1.2649    1.7959   -0.0070 O   0  0  0  0  0  0  0  0  0  0  0  0
    0.5154    1.8742    1.3643 N   0  0  0  0  0  0  0  0  0  0  0  0
    1.3917    1.4171    1.5972 H   0  0  0  0  0  0  0  0  0  0  0  0
    0.4032    3.3039    1.6162 C   0  0  0  0  0  0  0  0  0  0  0  0
   -0.6030    3.5553    1.9669 H   0  0  0  0  0  0  0  0  0  0  0  0
    1.1207    3.6064    2.3846 H   0  0  0  0  0  0  0  0  0  0  0  0
    0.6123    3.8700    0.7024 H   0  0  0  0  0  0  0  0  0  0  0  0
  1  2  1  0  0  0  0
  2  3  1  0  0  0  0
  2  4  1  0  0  0  0
  2  5  1  0  0  0  0
  5  6  2  0  0  0  0
  5  7  1  0  0  0  0
  7  8  1  0  0  0  0
  7  9  1  0  0  0  0
  9 10  1  0  0  0  0
  9 11  1  0  0  0  0
  9 20  1  0  0  0  0
 11 12  1  0  0  0  0
 11 13  1  0  0  0  0
 11 14  1  0  0  0  0
 14 15  1  0  0  0  0
 14 16  1  0  0  0  0
 14 17  1  0  0  0  0
 17 18  1  0  0  0  0
 17 19  2  0  0  0  0
 20 21  2  0  0  0  0
 20 22  1  0  0  0  0
 22 23  1  0  0  0  0
 22 24  1  0  0  0  0
 24 25  1  0  0  0  0
 24 26  1  0  0  0  0
 24 27  1  0  0  0  0
M  CHG  1  18  -1
M  END
$$$$

  -OEChem-03222214043D

 27 26  0     1  0  0  0  0  0999 V2000
   -3.2695   -3.5538    1.2189 H   0  0  0  0  0  0  0  0  0  0  0  0
   -3.1547   -2.6311    0.6434 C   0  0  0  0  0  0  0  0  0  0  0  0
   -3.8431   -1.8803    1.0395 H   0  0  0  0  0  0  0  0  0  0  0  0
   -3.4086   -2.8327   -0.4003 H   0  0  0  0  0  0  0  0  0  0  0  0
   -1.7263   -2.1251    0.7383 C   0  0  0  0  0  0  0  0  0  0  0  0
   -0.9012   -2.7499    1.3884 O   0  0  0  0  0  0  0  0  0  0  0  0
   -1.3867   -0.9461    0.1136 N   0  0  0  0  0  0  0  0  0  0  0  0
   -2.1336   -0.4040   -0.3177 H   0  0  0  0  0  0  0  0  0  0  0  0
   -0.0653   -0.3059    0.1612 C   0  0  1  0  0  0  0  0  0  0  0  0
    0.5263   -0.7122    0.9871 H   0  0  0  0  0  0  0  0  0  0  0  0
    0.6765   -0.5789   -1.1584 C   0  0  0  0  0  0  0  0  0  0  0  0
    0.7629   -1.6584   -1.3187 H   0  0  0  0  0  0  0  0  0  0  0  0
    0.0717   -0.1762   -1.9789 H   0  0  0  0  0  0  0  0  0  0  0  0
    2.0878    0.0509   -1.2069 C   0  0  0  0  0  0  0  0  0  0  0  0
    2.2286    0.7673   -0.3953 H   0  0  0  0  0  0  0  0  0  0  0  0
    2.8300   -0.7393   -1.0628 H   0  0  0  0  0  0  0  0  0  0  0  0
    2.3793    0.7581   -2.5316 C   0  0  0  0  0  0  0  0  0  0  0  0
    2.2985    0.0849   -3.5888 O   0  5  0  0  0  0  0  0  0  0  0  0
    2.7271    1.9634   -2.4722 O   0  0  0  0  0  0  0  0  0  0  0  0
   -0.2682    1.2062    0.4208 C   0  0  0  0  0  0  0  0  0  0  0  0
   -1.2892    1.7625    0.0206 O   0  0  0  0  0  0  0  0  0  0  0  0
    0.5196    1.8612    1.3501 N   0  0  0  0  0  0  0  0  0  0  0  0
    1.4218    1.4315    1.5303 H   0  0  0  0  0  0  0  0  0  0  0  0
    0.3922    3.2898    1.6007 C   0  0  0  0  0  0  0  0  0  0  0  0
   -0.6122    3.5289    1.9649 H   0  0  0  0  0  0  0  0  0  0  0  0
    1.1163    3.6034    2.3583 H   0  0  0  0  0  0  0  0  0  0  0  0
    0.5810    3.8564    0.6828 H   0  0  0  0  0  0  0  0  0  0  0  0
  1  2  1  0  0  0  0
  2  3  1  0  0  0  0
  2  4  1  0  0  0  0
  2  5  1  0  0  0  0
  5  6  2  0  0  0  0
  5  7  1  0  0  0  0
  7  8  1  0  0  0  0
  7  9  1  0  0  0  0
  9 10  1  0  0  0  0
  9 11  1  0  0  0  0
  9 20  1  0  0  0  0
 11 12  1  0  0  0  0
 11 13  1  0  0  0  0
 11 14  1  0  0  0  0
 14 15  1  0  0  0  0
 14 16  1  0  0  0  0
 14 17  1  0  0  0  0
 17 18  1  0  0  0  0
 17 19  2  0  0  0  0
 20 21  2  0  0  0  0
 20 22  1  0  0  0  0
 22 23  1  0  0  0  0
 22 24  1  0  0  0  0
 24 25  1  0  0  0  0
 24 26  1  0  0  0  0
 24 27  1  0  0  0  0
M  CHG  1  18  -1
M  END
$$$$

  -OEChem-03222214043D

 27 26  0     1  0  0  0  0  0999 V2000
   -3.2750   -3.5378    1.2784 H   0  0  0  0  0  0  0  0  0  0  0  0
   -3.1658   -2.6187    0.6961 C   0  0  0  0  0  0  0  0  0  0  0  0
   -3.8200   -1.8527    1.1199 H   0  0  0  0  0  0  0  0  0  0  0  0
   -3.4689   -2.8157   -0.3352 H   0  0  0  0  0  0  0  0  0  0  0  0
   -1.7241   -2.1434    0.7269 C   0  0  0  0  0  0  0  0  0  0  0  0
   -0.8809   -2.7970    1.3235 O   0  0  0  0  0  0  0  0  0  0  0  0
   -1.3899   -0.9641    0.1001 N   0  0  0  0  0  0  0  0  0  0  0  0
   -2.1486   -0.3904   -0.2661 H   0  0  0  0  0  0  0  0  0  0  0  0
   -0.0660   -0.3283    0.1365 C   0  0  1  0  0  0  0  0  0  0  0  0
    0.5304   -0.7376    0.9577 H   0  0  0  0  0  0  0  0  0  0  0  0
    0.6740   -0.5749   -1.1874 C   0  0  0  0  0  0  0  0  0  0  0  0
    0.7757   -1.6534   -1.3449 H   0  0  0  0  0  0  0  0  0  0  0  0
    0.0745   -0.1802   -2.0156 H   0  0  0  0  0  0  0  0  0  0  0  0
    2.0793    0.0678   -1.2003 C   0  0  0  0  0  0  0  0  0  0  0  0
    2.3187    0.5192   -0.2343 H   0  0  0  0  0  0  0  0  0  0  0  0
    2.8167   -0.7235   -1.3637 H   0  0  0  0  0  0  0  0  0  0  0  0
    2.2605    1.1039   -2.3082 C   0  0  0  0  0  0  0  0  0  0  0  0
    2.2225    0.7131   -3.5007 O   0  5  0  0  0  0  0  0  0  0  0  0
    2.4737    2.2865   -1.9434 O   0  0  0  0  0  0  0  0  0  0  0  0
   -0.2692    1.1845    0.4012 C   0  0  0  0  0  0  0  0  0  0  0  0
   -1.3181    1.7217    0.0463 O   0  0  0  0  0  0  0  0  0  0  0  0
    0.5260    1.8393    1.3239 N   0  0  0  0  0  0  0  0  0  0  0  0
    1.4570    1.4465    1.4249 H   0  0  0  0  0  0  0  0  0  0  0  0
    0.3898    3.2696    1.5609 C   0  0  0  0  0  0  0  0  0  0  0  0
   -0.6091    3.5046    1.9423 H   0  0  0  0  0  0  0  0  0  0  0  0
    1.1261    3.5987    2.2999 H   0  0  0  0  0  0  0  0  0  0  0  0
    0.5558    3.8264    0.6325 H   0  0  0  0  0  0  0  0  0  0  0  0
  1  2  1  0  0  0  0
  2  3  1  0  0  0  0
  2  4  1  0  0  0  0
  2  5  1  0  0  0  0
  5  6  2  0  0  0  0
  5  7  1  0  0  0  0
  7  8  1  0  0  0  0
  7  9  1  0  0  0  0
  9 10  1  0  0  0  0
  9 11  1  0  0  0  0
  9 20  1  0  0  0  0
 11 12  1  0  0  0  0
 11 13  1  0  0  0  0
 11 14  1  0  0  0  0
 14 15  1  0  0  0  0
 14 16  1  0  0  0  0
 14 17  1  0  0  0  0
 17 18  1  0  0  0  0
 17 19  2  0  0  0  0
 20 21  2  0  0  0  0
 20 22  1  0  0  0  0
 22 23  1  0  0  0  0
 22 24  1  0  0  0  0
 24 25  1  0  0  0  0
 24 26  1  0  0  0  0
 24 27  1  0  0  0  0
M  CHG  1  18  -1
M  END
$$$$

  -OEChem-03222214043D

 27 26  0     1  0  0  0  0  0999 V2000
   -3.2701   -3.5124    1.3241 H   0  0  0  0  0  0  0  0  0  0  0  0
   -3.1654   -2.5942    0.7398 C   0  0  0  0  0  0  0  0  0  0  0  0
   -3.7860   -1.8159    1.1909 H   0  0  0  0  0  0  0  0  0  0  0  0
   -3.5140   -2.7819   -0.2788 H   0  0  0  0  0  0  0  0  0  0  0  0
   -1.7141   -2.1485    0.7142 C   0  0  0  0  0  0  0  0  0  0  0  0
   -0.8595   -2.8282    1.2636 O   0  0  0  0  0  0  0  0  0  0  0  0
   -1.3839   -0.9702    0.0835 N   0  0  0  0  0  0  0  0  0  0  0  0
   -2.1495   -0.3710   -0.2240 H   0  0  0  0  0  0  0  0  0  0  0  0
   -0.0579   -0.3370    0.1085 C   0  0  1  0  0  0  0  0  0  0  0  0
    0.5389   -0.7433    0.9310 H   0  0  0  0  0  0  0  0  0  0  0  0
    0.6852   -0.5782   -1.2138 C   0  0  0  0  0  0  0  0  0  0  0  0
    0.7979   -1.6575   -1.3564 H   0  0  0  0  0  0  0  0  0  0  0  0
    0.0947   -0.1963   -2.0543 H   0  0  0  0  0  0  0  0  0  0  0  0
    2.0852    0.0718   -1.2048 C   0  0  0  0  0  0  0  0  0  0  0  0
    2.4206    0.2611   -0.1810 H   0  0  0  0  0  0  0  0  0  0  0  0
    2.7921   -0.6419   -1.6378 H   0  0  0  0  0  0  0  0  0  0  0  0
    2.1782    1.3503   -2.0335 C   0  0  0  0  0  0  0  0  0  0  0  0
    2.0861    1.2676   -3.2822 O   0  5  0  0  0  0  0  0  0  0  0  0
    2.3748    2.4117   -1.3910 O   0  0  0  0  0  0  0  0  0  0  0  0
   -0.2650    1.1770    0.3742 C   0  0  0  0  0  0  0  0  0  0  0  0
   -1.3445    1.6876    0.0706 O   0  0  0  0  0  0  0  0  0  0  0  0
    0.5359    1.8345    1.2898 N   0  0  0  0  0  0  0  0  0  0  0  0
    1.5028    1.5207    1.2671 H   0  0  0  0  0  0  0  0  0  0  0  0
    0.3421    3.2510    1.5675 C   0  0  0  0  0  0  0  0  0  0  0  0
   -0.6514    3.4296    1.9908 H   0  0  0  0  0  0  0  0  0  0  0  0
    1.0899    3.5967    2.2871 H   0  0  0  0  0  0  0  0  0  0  0  0
    0.4480    3.8372    0.6482 H   0  0  0  0  0  0  0  0  0  0  0  0
  1  2  1  0  0  0  0
  2  3  1  0  0  0  0
  2  4  1  0  0  0  0
  2  5  1  0  0  0  0
  5  6  2  0  0  0  0
  5  7  1  0  0  0  0
  7  8  1  0  0  0  0
  7  9  1  0  0  0  0
  9 10  1  0  0  0  0
  9 11  1  0  0  0  0
  9 20  1  0  0  0  0
 11 12  1  0  0  0  0
 11 13  1  0  0  0  0
 11 14  1  0  0  0  0
 14 15  1  0  0  0  0
 14 16  1  0  0  0  0
 14 17  1  0  0  0  0
 17 18  1  0  0  0  0
 17 19  2  0  0  0  0
 20 21  2  0  0  0  0
 20 22  1  0  0  0  0
 22 23  1  0  0  0  0
 22 24  1  0  0  0  0
 24 25  1  0  0  0  0
 24 26  1  0  0  0  0
 24 27  1  0  0  0  0
M  CHG  1  18  -1
M  END
$$$$

  -OEChem-03222214043D

 27 26  0     1  0  0  0  0  0999 V2000
   -3.2594   -3.4489    1.3723 H   0  0  0  0  0  0  0  0  0  0  0  0
   -3.1557   -2.5341    0.7822 C   0  0  0  0  0  0  0  0  0  0  0  0
   -3.7443   -1.7422    1.2524 H   0  0  0  0  0  0  0  0  0  0  0  0
   -3.5423   -2.7161   -0.2236 H   0  0  0  0  0  0  0  0  0  0  0  0
   -1.6972   -2.1188    0.7067 C   0  0  0  0  0  0  0  0  0  0  0  0
   -0.8394   -2.8181    1.2257 O   0  0  0  0  0  0  0  0  0  0  0  0
   -1.3641   -0.9491    0.0622 N   0  0  0  0  0  0  0  0  0  0  0  0
   -2.1285   -0.3292   -0.2061 H   0  0  0  0  0  0  0  0  0  0  0  0
   -0.0327   -0.3256    0.0807 C   0  0  1  0  0  0  0  0  0  0  0  0
    0.5599   -0.7180    0.9131 H   0  0  0  0  0  0  0  0  0  0  0  0
    0.7145   -0.5974   -1.2357 C   0  0  0  0  0  0  0  0  0  0  0  0
    0.8151   -1.6807   -1.3556 H   0  0  0  0  0  0  0  0  0  0  0  0
    0.1334   -0.2238   -2.0859 H   0  0  0  0  0  0  0  0  0  0  0  0
    2.1221    0.0337   -1.2440 C   0  0  0  0  0  0  0  0  0  0  0  0
    2.5576   -0.0116   -0.2409 H   0  0  0  0  0  0  0  0  0  0  0  0
    2.7583   -0.5761   -1.8920 H   0  0  0  0  0  0  0  0  0  0  0  0
    2.1898    1.4605   -1.7781 C   0  0  0  0  0  0  0  0  0  0  0  0
    1.9810    1.6679   -2.9969 O   0  5  0  0  0  0  0  0  0  0  0  0
    2.4726    2.3442   -0.9295 O   0  0  0  0  0  0  0  0  0  0  0  0
   -0.2546    1.1924    0.3331 C   0  0  0  0  0  0  0  0  0  0  0  0
   -1.3616    1.6704    0.0708 O   0  0  0  0  0  0  0  0  0  0  0  0
    0.5405    1.8624    1.2443 N   0  0  0  0  0  0  0  0  0  0  0  0
    1.5309    1.7249    1.0302 H   0  0  0  0  0  0  0  0  0  0  0  0
    0.2081    3.2152    1.6697 C   0  0  0  0  0  0  0  0  0  0  0  0
   -0.7654    3.2351    2.1698 H   0  0  0  0  0  0  0  0  0  0  0  0
    0.9630    3.5810    2.3716 H   0  0  0  0  0  0  0  0  0  0  0  0
    0.1797    3.8901    0.8077 H   0  0  0  0  0  0  0  0  0  0  0  0
  1  2  1  0  0  0  0
  2  3  1  0  0  0  0
  2  4  1  0  0  0  0
  2  5  1  0  0  0  0
  5  6  2  0  0  0  0
  5  7  1  0  0  0  0
  7  8  1  0  0  0  0
  7  9  1  0  0  0  0
  9 10  1  0  0  0  0
  9 11  1  0  0  0  0
  9 20  1  0  0  0  0
 11 12  1  0  0  0  0
 11 13  1  0  0  0  0
 11 14  1  0  0  0  0
 14 15  1  0  0  0  0
 14 16  1  0  0  0  0
 14 17  1  0  0  0  0
 17 18  1  0  0  0  0
 17 19  2  0  0  0  0
 20 21  2  0  0  0  0
 20 22  1  0  0  0  0
 22 23  1  0  0  0  0
 22 24  1  0  0  0  0
 24 25  1  0  0  0  0
 24 26  1  0  0  0  0
 24 27  1  0  0  0  0
M  CHG  1  18  -1
M  END
$$$$

  -OEChem-03222214043D

 27 26  0     1  0  0  0  0  0999 V2000
   -3.2389   -3.4393    1.3586 H   0  0  0  0  0  0  0  0  0  0  0  0
   -3.1361   -2.5193    0.7766 C   0  0  0  0  0  0  0  0  0  0  0  0
   -3.7210   -1.7305    1.2566 H   0  0  0  0  0  0  0  0  0  0  0  0
   -3.5274   -2.6910   -0.2291 H   0  0  0  0  0  0  0  0  0  0  0  0
   -1.6774   -2.1058    0.6985 C   0  0  0  0  0  0  0  0  0  0  0  0
   -0.8182   -2.8124    1.2048 O   0  0  0  0  0  0  0  0  0  0  0  0
   -1.3459   -0.9306    0.0636 N   0  0  0  0  0  0  0  0  0  0  0  0
   -2.1118   -0.3059   -0.1895 H   0  0  0  0  0  0  0  0  0  0  0  0
   -0.0170   -0.3008    0.0965 C   0  0  1  0  0  0  0  0  0  0  0  0
    0.5754   -0.6870    0.9320 H   0  0  0  0  0  0  0  0  0  0  0  0
    0.7256   -0.5983   -1.2211 C   0  0  0  0  0  0  0  0  0  0  0  0
    0.8079   -1.6843   -1.3294 H   0  0  0  0  0  0  0  0  0  0  0  0
    0.1357   -0.2257   -2.0657 H   0  0  0  0  0  0  0  0  0  0  0  0
    2.1435    0.0052   -1.2936 C   0  0  0  0  0  0  0  0  0  0  0  0
    2.6847   -0.2494   -0.3771 H   0  0  0  0  0  0  0  0  0  0  0  0
    2.6719   -0.4772   -2.1207 H   0  0  0  0  0  0  0  0  0  0  0  0
    2.2254    1.5097   -1.5273 C   0  0  0  0  0  0  0  0  0  0  0  0
    1.8846    1.9717   -2.6409 O   0  5  0  0  0  0  0  0  0  0  0  0
    2.6315    2.1941   -0.5526 O   0  0  0  0  0  0  0  0  0  0  0  0
   -0.2684    1.2129    0.3571 C   0  0  0  0  0  0  0  0  0  0  0  0
   -1.3828    1.6736    0.0925 O   0  0  0  0  0  0  0  0  0  0  0  0
    0.5045    1.8912    1.2812 N   0  0  0  0  0  0  0  0  0  0  0  0
    1.5013    1.7986    1.0518 H   0  0  0  0  0  0  0  0  0  0  0  0
    0.1269    3.2215    1.7386 C   0  0  0  0  0  0  0  0  0  0  0  0
   -0.8429    3.1953    2.2456 H   0  0  0  0  0  0  0  0  0  0  0  0
    0.8737    3.5985    2.4433 H   0  0  0  0  0  0  0  0  0  0  0  0
    0.0675    3.9136    0.8919 H   0  0  0  0  0  0  0  0  0  0  0  0
  1  2  1  0  0  0  0
  2  3  1  0  0  0  0
  2  4  1  0  0  0  0
  2  5  1  0  0  0  0
  5  6  2  0  0  0  0
  5  7  1  0  0  0  0
  7  8  1  0  0  0  0
  7  9  1  0  0  0  0
  9 10  1  0  0  0  0
  9 11  1  0  0  0  0
  9 20  1  0  0  0  0
 11 12  1  0  0  0  0
 11 13  1  0  0  0  0
 11 14  1  0  0  0  0
 14 15  1  0  0  0  0
 14 16  1  0  0  0  0
 14 17  1  0  0  0  0
 17 18  1  0  0  0  0
 17 19  2  0  0  0  0
 20 21  2  0  0  0  0
 20 22  1  0  0  0  0
 22 23  1  0  0  0  0
 22 24  1  0  0  0  0
 24 25  1  0  0  0  0
 24 26  1  0  0  0  0
 24 27  1  0  0  0  0
M  CHG  1  18  -1
M  END
$$$$

  -OEChem-03222214043D

 27 26  0     1  0  0  0  0  0999 V2000
   -3.2175   -3.4567    1.3406 H   0  0  0  0  0  0  0  0  0  0  0  0
   -3.1168   -2.5374    0.7571 C   0  0  0  0  0  0  0  0  0  0  0  0
   -3.7146   -1.7534    1.2288 H   0  0  0  0  0  0  0  0  0  0  0  0
   -3.4957   -2.7157   -0.2522 H   0  0  0  0  0  0  0  0  0  0  0  0
   -1.6607   -2.1111    0.6938 C   0  0  0  0  0  0  0  0  0  0  0  0
   -0.7995   -2.8197    1.1934 O   0  0  0  0  0  0  0  0  0  0  0  0
   -1.3329   -0.9249    0.0773 N   0  0  0  0  0  0  0  0  0  0  0  0
   -2.1013   -0.3015   -0.1718 H   0  0  0  0  0  0  0  0  0  0  0  0
   -0.0087   -0.2853    0.1302 C   0  0  1  0  0  0  0  0  0  0  0  0
    0.5880   -0.6742    0.9616 H   0  0  0  0  0  0  0  0  0  0  0  0
    0.7233   -0.5810   -1.1979 C   0  0  0  0  0  0  0  0  0  0  0  0
    0.7847   -1.6666   -1.3228 H   0  0  0  0  0  0  0  0  0  0  0  0
    0.1169   -0.1886   -2.0215 H   0  0  0  0  0  0  0  0  0  0  0  0
    2.1492   -0.0031   -1.3382 C   0  0  0  0  0  0  0  0  0  0  0  0
    2.7808   -0.4625   -0.5715 H   0  0  0  0  0  0  0  0  0  0  0  0
    2.5470   -0.3143   -2.3084 H   0  0  0  0  0  0  0  0  0  0  0  0
    2.2998    1.5108   -1.2442 C   0  0  0  0  0  0  0  0  0  0  0  0
    1.9116    2.2159   -2.2036 O   0  5  0  0  0  0  0  0  0  0  0  0
    2.7826    1.9555   -0.1701 O   0  0  0  0  0  0  0  0  0  0  0  0
   -0.2948    1.2200    0.4092 C   0  0  0  0  0  0  0  0  0  0  0  0
   -1.4054    1.6730    0.1145 O   0  0  0  0  0  0  0  0  0  0  0  0
    0.4495    1.9051    1.3512 N   0  0  0  0  0  0  0  0  0  0  0  0
    1.4573    1.7726    1.1937 H   0  0  0  0  0  0  0  0  0  0  0  0
    0.0807    3.2517    1.7641 C   0  0  0  0  0  0  0  0  0  0  0  0
   -0.9092    3.2554    2.2311 H   0  0  0  0  0  0  0  0  0  0  0  0
    0.8058    3.6295    2.4905 H   0  0  0  0  0  0  0  0  0  0  0  0
    0.0702    3.9255    0.9010 H   0  0  0  0  0  0  0  0  0  0  0  0
  1  2  1  0  0  0  0
  2  3  1  0  0  0  0
  2  4  1  0  0  0  0
  2  5  1  0  0  0  0
  5  6  2  0  0  0  0
  5  7  1  0  0  0  0
  7  8  1  0  0  0  0
  7  9  1  0  0  0  0
  9 10  1  0  0  0  0
  9 11  1  0  0  0  0
  9 20  1  0  0  0  0
 11 12  1  0  0  0  0
 11 13  1  0  0  0  0
 11 14  1  0  0  0  0
 14 15  1  0  0  0  0
 14 16  1  0  0  0  0
 14 17  1  0  0  0  0
 17 18  1  0  0  0  0
 17 19  2  0  0  0  0
 20 21  2  0  0  0  0
 20 22  1  0  0  0  0
 22 23  1  0  0  0  0
 22 24  1  0  0  0  0
 24 25  1  0  0  0  0
 24 26  1  0  0  0  0
 24 27  1  0  0  0  0
M  CHG  1  18  -1
M  END
$$$$

  -OEChem-03222214043D

 27 26  0     1  0  0  0  0  0999 V2000
   -3.2032   -3.4879    1.3060 H   0  0  0  0  0  0  0  0  0  0  0  0
   -3.1005   -2.5591    0.7380 C   0  0  0  0  0  0  0  0  0  0  0  0
   -3.7020   -1.7834    1.2187 H   0  0  0  0  0  0  0  0  0  0  0  0
   -3.4731   -2.7214   -0.2765 H   0  0  0  0  0  0  0  0  0  0  0  0
   -1.6452   -2.1285    0.6899 C   0  0  0  0  0  0  0  0  0  0  0  0
   -0.7848   -2.8423    1.1831 O   0  0  0  0  0  0  0  0  0  0  0  0
   -1.3199   -0.9323    0.0919 N   0  0  0  0  0  0  0  0  0  0  0  0
   -2.0906   -0.3109   -0.1552 H   0  0  0  0  0  0  0  0  0  0  0  0
   -0.0011   -0.2829    0.1656 C   0  0  1  0  0  0  0  0  0  0  0  0
    0.6017   -0.6755    0.9910 H   0  0  0  0  0  0  0  0  0  0  0  0
    0.7195   -0.5588   -1.1761 C   0  0  0  0  0  0  0  0  0  0  0  0
    0.7637   -1.6416   -1.3309 H   0  0  0  0  0  0  0  0  0  0  0  0
    0.0972   -0.1398   -1.9741 H   0  0  0  0  0  0  0  0  0  0  0  0
    2.1482    0.0055   -1.3653 C   0  0  0  0  0  0  0  0  0  0  0  0
    2.8360   -0.6336   -0.8033 H   0  0  0  0  0  0  0  0  0  0  0  0
    2.4180   -0.0898   -2.4210 H   0  0  0  0  0  0  0  0  0  0  0  0
    2.4051    1.4454   -0.9385 C   0  0  0  0  0  0  0  0  0  0  0  0
    2.0917    2.3696   -1.7227 O   0  5  0  0  0  0  0  0  0  0  0  0
    2.8709    1.6117    0.2193 O   0  0  0  0  0  0  0  0  0  0  0  0
   -0.3206    1.2134    0.4607 C   0  0  0  0  0  0  0  0  0  0  0  0
   -1.4174    1.6653    0.1161 O   0  0  0  0  0  0  0  0  0  0  0  0
    0.3914    1.9091    1.4190 N   0  0  0  0  0  0  0  0  0  0  0  0
    1.4006    1.7158    1.3577 H   0  0  0  0  0  0  0  0  0  0  0  0
    0.0508    3.2822    1.7607 C   0  0  0  0  0  0  0  0  0  0  0  0
   -0.9593    3.3371    2.1789 H   0  0  0  0  0  0  0  0  0  0  0  0
    0.7539    3.6653    2.5059 H   0  0  0  0  0  0  0  0  0  0  0  0
    0.1042    3.9202    0.8722 H   0  0  0  0  0  0  0  0  0  0  0  0
  1  2  1  0  0  0  0
  2  3  1  0  0  0  0
  2  4  1  0  0  0  0
  2  5  1  0  0  0  0
  5  6  2  0  0  0  0
  5  7  1  0  0  0  0
  7  8  1  0  0  0  0
  7  9  1  0  0  0  0
  9 10  1  0  0  0  0
  9 11  1  0  0  0  0
  9 20  1  0  0  0  0
 11 12  1  0  0  0  0
 11 13  1  0  0  0  0
 11 14  1  0  0  0  0
 14 15  1  0  0  0  0
 14 16  1  0  0  0  0
 14 17  1  0  0  0  0
 17 18  1  0  0  0  0
 17 19  2  0  0  0  0
 20 21  2  0  0  0  0
 20 22  1  0  0  0  0
 22 23  1  0  0  0  0
 22 24  1  0  0  0  0
 24 25  1  0  0  0  0
 24 26  1  0  0  0  0
 24 27  1  0  0  0  0
M  CHG  1  18  -1
M  END
$$$$

  -OEChem-03222214043D

 27 26  0     1  0  0  0  0  0999 V2000
   -3.1956   -3.5084    1.3175 H   0  0  0  0  0  0  0  0  0  0  0  0
   -3.0946   -2.5817    0.7459 C   0  0  0  0  0  0  0  0  0  0  0  0
   -3.7024   -1.8071    1.2203 H   0  0  0  0  0  0  0  0  0  0  0  0
   -3.4606   -2.7503   -0.2699 H   0  0  0  0  0  0  0  0  0  0  0  0
   -1.6411   -2.1445    0.7044 C   0  0  0  0  0  0  0  0  0  0  0  0
   -0.7799   -2.8590    1.1943 O   0  0  0  0  0  0  0  0  0  0  0  0
   -1.3205   -0.9422    0.1160 N   0  0  0  0  0  0  0  0  0  0  0  0
   -2.0937   -0.3259   -0.1349 H   0  0  0  0  0  0  0  0  0  0  0  0
   -0.0049   -0.2865    0.1945 C   0  0  1  0  0  0  0  0  0  0  0  0
    0.6094   -0.6842    1.0094 H   0  0  0  0  0  0  0  0  0  0  0  0
    0.6991   -0.5370   -1.1623 C   0  0  0  0  0  0  0  0  0  0  0  0
    0.7348   -1.6163   -1.3414 H   0  0  0  0  0  0  0  0  0  0  0  0
    0.0596   -0.1013   -1.9374 H   0  0  0  0  0  0  0  0  0  0  0  0
    2.1263    0.0262   -1.3875 C   0  0  0  0  0  0  0  0  0  0  0  0
    2.8387   -0.7432   -1.0756 H   0  0  0  0  0  0  0  0  0  0  0  0
    2.2742    0.1760   -2.4611 H   0  0  0  0  0  0  0  0  0  0  0  0
    2.5156    1.3076   -0.6592 C   0  0  0  0  0  0  0  0  0  0  0  0
    2.3996    2.3991   -1.2618 O   0  5  0  0  0  0  0  0  0  0  0  0
    2.8726    1.1885    0.5424 O   0  0  0  0  0  0  0  0  0  0  0  0
   -0.3383    1.2038    0.5006 C   0  0  0  0  0  0  0  0  0  0  0  0
   -1.4111    1.6702    0.1042 O   0  0  0  0  0  0  0  0  0  0  0  0
    0.3607    1.9045    1.4637 N   0  0  0  0  0  0  0  0  0  0  0  0
    1.3552    1.6397    1.4910 H   0  0  0  0  0  0  0  0  0  0  0  0
    0.0759    3.3042    1.7396 C   0  0  0  0  0  0  0  0  0  0  0  0
   -0.9505    3.4264    2.0993 H   0  0  0  0  0  0  0  0  0  0  0  0
    0.7578    3.6781    2.5089 H   0  0  0  0  0  0  0  0  0  0  0  0
    0.2104    3.9049    0.8341 H   0  0  0  0  0  0  0  0  0  0  0  0
  1  2  1  0  0  0  0
  2  3  1  0  0  0  0
  2  4  1  0  0  0  0
  2  5  1  0  0  0  0
  5  6  2  0  0  0  0
  5  7  1  0  0  0  0
  7  8  1  0  0  0  0
  7  9  1  0  0  0  0
  9 10  1  0  0  0  0
  9 11  1  0  0  0  0
  9 20  1  0  0  0  0
 11 12  1  0  0  0  0
 11 13  1  0  0  0  0
 11 14  1  0  0  0  0
 14 15  1  0  0  0  0
 14 16  1  0  0  0  0
 14 17  1  0  0  0  0
 17 18  1  0  0  0  0
 17 19  2  0  0  0  0
 20 21  2  0  0  0  0
 20 22  1  0  0  0  0
 22 23  1  0  0  0  0
 22 24  1  0  0  0  0
 24 25  1  0  0  0  0
 24 26  1  0  0  0  0
 24 27  1  0  0  0  0
M  CHG  1  18  -1
M  END
$$$$

  -OEChem-03222214043D

 27 26  0     1  0  0  0  0  0999 V2000
   -3.3152   -3.4459    1.3000 H   0  0  0  0  0  0  0  0  0  0  0  0
   -3.1823   -2.5194    0.7346 C   0  0  0  0  0  0  0  0  0  0  0  0
   -3.7873   -1.7348    1.1961 H   0  0  0  0  0  0  0  0  0  0  0  0
   -3.5254   -2.6780   -0.2907 H   0  0  0  0  0  0  0  0  0  0  0  0
   -1.7203   -2.1095    0.7319 C   0  0  0  0  0  0  0  0  0  0  0  0
   -0.8897   -2.8314    1.2612 O   0  0  0  0  0  0  0  0  0  0  0  0
   -1.3606   -0.9261    0.1275 N   0  0  0  0  0  0  0  0  0  0  0  0
   -2.1152   -0.3076   -0.1682 H   0  0  0  0  0  0  0  0  0  0  0  0
   -0.0366   -0.2904    0.2241 C   0  0  1  0  0  0  0  0  0  0  0  0
    0.5480   -0.6894    1.0608 H   0  0  0  0  0  0  0  0  0  0  0  0
    0.6963   -0.5760   -1.1095 C   0  0  0  0  0  0  0  0  0  0  0  0
    0.7219   -1.6603   -1.2587 H   0  0  0  0  0  0  0  0  0  0  0  0
    0.0782   -0.1565   -1.9103 H   0  0  0  0  0  0  0  0  0  0  0  0
    2.1394   -0.0395   -1.3213 C   0  0  0  0  0  0  0  0  0  0  0  0
    2.8265   -0.8872   -1.2431 H   0  0  0  0  0  0  0  0  0  0  0  0
    2.2193    0.3356   -2.3461 H   0  0  0  0  0  0  0  0  0  0  0  0
    2.6598    1.0341   -0.3670 C   0  0  0  0  0  0  0  0  0  0  0  0
    2.8324    2.1912   -0.8145 O   0  5  0  0  0  0  0  0  0  0  0  0
    2.8161    0.7090    0.8390 O   0  0  0  0  0  0  0  0  0  0  0  0
   -0.3260    1.2133    0.4894 C   0  0  0  0  0  0  0  0  0  0  0  0
   -1.3480    1.7193    0.0170 O   0  0  0  0  0  0  0  0  0  0  0  0
    0.3740    1.9134    1.4514 N   0  0  0  0  0  0  0  0  0  0  0  0
    1.3323    1.5581    1.5790 H   0  0  0  0  0  0  0  0  0  0  0  0
    0.1880    3.3428    1.6444 C   0  0  0  0  0  0  0  0  0  0  0  0
   -0.8443    3.5629    1.9343 H   0  0  0  0  0  0  0  0  0  0  0  0
    0.8525    3.7009    2.4362 H   0  0  0  0  0  0  0  0  0  0  0  0
    0.4230    3.8844    0.7223 H   0  0  0  0  0  0  0  0  0  0  0  0
  1  2  1  0  0  0  0
  2  3  1  0  0  0  0
  2  4  1  0  0  0  0
  2  5  1  0  0  0  0
  5  6  2  0  0  0  0
  5  7  1  0  0  0  0
  7  8  1  0  0  0  0
  7  9  1  0  0  0  0
  9 10  1  0  0  0  0
  9 11  1  0  0  0  0
  9 20  1  0  0  0  0
 11 12  1  0  0  0  0
 11 13  1  0  0  0  0
 11 14  1  0  0  0  0
 14 15  1  0  0  0  0
 14 16  1  0  0  0  0
 14 17  1  0  0  0  0
 17 18  1  0  0  0  0
 17 19  2  0  0  0  0
 20 21  2  0  0  0  0
 20 22  1  0  0  0  0
 22 23  1  0  0  0  0
 22 24  1  0  0  0  0
 24 25  1  0  0  0  0
 24 26  1  0  0  0  0
 24 27  1  0  0  0  0
M  CHG  1  18  -1
M  END
$$$$

  -OEChem-03222214043D

 27 26  0     1  0  0  0  0  0999 V2000
   -3.3580   -3.4839    1.1987 H   0  0  0  0  0  0  0  0  0  0  0  0
   -3.2256   -2.5345    0.6724 C   0  0  0  0  0  0  0  0  0  0  0  0
   -3.8443   -1.7743    1.1560 H   0  0  0  0  0  0  0  0  0  0  0  0
   -3.5532   -2.6559   -0.3630 H   0  0  0  0  0  0  0  0  0  0  0  0
   -1.7670   -2.1128    0.7068 C   0  0  0  0  0  0  0  0  0  0  0  0
   -0.9463   -2.8307    1.2554 O   0  0  0  0  0  0  0  0  0  0  0  0
   -1.4012   -0.9267    0.1101 N   0  0  0  0  0  0  0  0  0  0  0  0
   -2.1531   -0.3200   -0.2128 H   0  0  0  0  0  0  0  0  0  0  0  0
   -0.0822   -0.2831    0.2215 C   0  0  1  0  0  0  0  0  0  0  0  0
    0.4715   -0.6941    1.0729 H   0  0  0  0  0  0  0  0  0  0  0  0
    0.6937   -0.5754   -1.0842 C   0  0  0  0  0  0  0  0  0  0  0  0
    0.7482   -1.6632   -1.1955 H   0  0  0  0  0  0  0  0  0  0  0  0
    0.0937   -0.1982   -1.9188 H   0  0  0  0  0  0  0  0  0  0  0  0
    2.1374   -0.0197   -1.2598 C   0  0  0  0  0  0  0  0  0  0  0  0
    2.8049   -0.8686   -1.4325 H   0  0  0  0  0  0  0  0  0  0  0  0
    2.1541    0.5874   -2.1702 H   0  0  0  0  0  0  0  0  0  0  0  0
    2.7518    0.8070   -0.1251 C   0  0  0  0  0  0  0  0  0  0  0  0
    2.7439    0.3280    1.0375 O   0  5  0  0  0  0  0  0  0  0  0  0
    3.1723    1.9529   -0.4078 O   0  0  0  0  0  0  0  0  0  0  0  0
   -0.3224    1.2231    0.4857 C   0  0  0  0  0  0  0  0  0  0  0  0
   -1.3064    1.7726   -0.0145 O   0  0  0  0  0  0  0  0  0  0  0  0
    0.4023    1.8885    1.4535 N   0  0  0  0  0  0  0  0  0  0  0  0
    1.3197    1.4583    1.6389 H   0  0  0  0  0  0  0  0  0  0  0  0
    0.3052    3.3270    1.6378 C   0  0  0  0  0  0  0  0  0  0  0  0
   -0.7132    3.6119    1.9194 H   0  0  0  0  0  0  0  0  0  0  0  0
    0.9860    3.6463    2.4322 H   0  0  0  0  0  0  0  0  0  0  0  0
    0.5796    3.8484    0.7150 H   0  0  0  0  0  0  0  0  0  0  0  0
  1  2  1  0  0  0  0
  2  3  1  0  0  0  0
  2  4  1  0  0  0  0
  2  5  1  0  0  0  0
  5  6  2  0  0  0  0
  5  7  1  0  0  0  0
  7  8  1  0  0  0  0
  7  9  1  0  0  0  0
  9 10  1  0  0  0  0
  9 11  1  0  0  0  0
  9 20  1  0  0  0  0
 11 12  1  0  0  0  0
 11 13  1  0  0  0  0
 11 14  1  0  0  0  0
 14 15  1  0  0  0  0
 14 16  1  0  0  0  0
 14 17  1  0  0  0  0
 17 18  1  0  0  0  0
 17 19  2  0  0  0  0
 20 21  2  0  0  0  0
 20 22  1  0  0  0  0
 22 23  1  0  0  0  0
 22 24  1  0  0  0  0
 24 25  1  0  0  0  0
 24 26  1  0  0  0  0
 24 27  1  0  0  0  0
M  CHG  1  18  -1
M  END
$$$$

  -OEChem-03222214043D

 27 26  0     1  0  0  0  0  0999 V2000
   -3.3477   -3.5342    1.1828 H   0  0  0  0  0  0  0  0  0  0  0  0
   -3.2137   -2.6158    0.6045 C   0  0  0  0  0  0  0  0  0  0  0  0
   -3.8681   -1.8431    1.0152 H   0  0  0  0  0  0  0  0  0  0  0  0
   -3.4952   -2.8076   -0.4337 H   0  0  0  0  0  0  0  0  0  0  0  0
   -1.7671   -2.1582    0.6712 C   0  0  0  0  0  0  0  0  0  0  0  0
   -0.9439   -2.8555    1.2412 O   0  0  0  0  0  0  0  0  0  0  0  0
   -1.4180   -0.9651    0.0771 N   0  0  0  0  0  0  0  0  0  0  0  0
   -2.1778   -0.3890   -0.2790 H   0  0  0  0  0  0  0  0  0  0  0  0
   -0.1201   -0.2829    0.2085 C   0  0  1  0  0  0  0  0  0  0  0  0
    0.3975   -0.6891    1.0829 H   0  0  0  0  0  0  0  0  0  0  0  0
    0.7201   -0.5694   -1.0545 C   0  0  0  0  0  0  0  0  0  0  0  0
    0.8331   -1.6565   -1.1167 H   0  0  0  0  0  0  0  0  0  0  0  0
    0.1453   -0.2552   -1.9316 H   0  0  0  0  0  0  0  0  0  0  0  0
    2.1474    0.0435   -1.1729 C   0  0  0  0  0  0  0  0  0  0  0  0
    2.8084   -0.7206   -1.5916 H   0  0  0  0  0  0  0  0  0  0  0  0
    2.0857    0.8512   -1.9090 H   0  0  0  0  0  0  0  0  0  0  0  0
    2.8441    0.6231    0.0685 C   0  0  0  0  0  0  0  0  0  0  0  0
    2.6492    0.0982    1.1931 O   0  5  0  0  0  0  0  0  0  0  0  0
    3.5306    1.6565   -0.1085 O   0  0  0  0  0  0  0  0  0  0  0  0
   -0.3404    1.2226    0.4611 C   0  0  0  0  0  0  0  0  0  0  0  0
   -1.2947    1.7931   -0.0690 O   0  0  0  0  0  0  0  0  0  0  0  0
    0.3904    1.8712    1.4354 N   0  0  0  0  0  0  0  0  0  0  0  0
    1.2694    1.3931    1.6799 H   0  0  0  0  0  0  0  0  0  0  0  0
    0.3408    3.3123    1.6189 C   0  0  0  0  0  0  0  0  0  0  0  0
   -0.6753    3.6350    1.8670 H   0  0  0  0  0  0  0  0  0  0  0  0
    1.0060    3.6067    2.4361 H   0  0  0  0  0  0  0  0  0  0  0  0
    0.6642    3.8233    0.7063 H   0  0  0  0  0  0  0  0  0  0  0  0
  1  2  1  0  0  0  0
  2  3  1  0  0  0  0
  2  4  1  0  0  0  0
  2  5  1  0  0  0  0
  5  6  2  0  0  0  0
  5  7  1  0  0  0  0
  7  8  1  0  0  0  0
  7  9  1  0  0  0  0
  9 10  1  0  0  0  0
  9 11  1  0  0  0  0
  9 20  1  0  0  0  0
 11 12  1  0  0  0  0
 11 13  1  0  0  0  0
 11 14  1  0  0  0  0
 14 15  1  0  0  0  0
 14 16  1  0  0  0  0
 14 17  1  0  0  0  0
 17 18  1  0  0  0  0
 17 19  2  0  0  0  0
 20 21  2  0  0  0  0
 20 22  1  0  0  0  0
 22 23  1  0  0  0  0
 22 24  1  0  0  0  0
 24 25  1  0  0  0  0
 24 26  1  0  0  0  0
 24 27  1  0  0  0  0
M  CHG  1  18  -1
M  END
$$$$

  -OEChem-03222214043D

 27 26  0     1  0  0  0  0  0999 V2000
   -3.2247   -3.5996    1.0986 H   0  0  0  0  0  0  0  0  0  0  0  0
   -3.1114   -2.6271    0.6115 C   0  0  0  0  0  0  0  0  0  0  0  0
   -3.7524   -1.9016    1.1184 H   0  0  0  0  0  0  0  0  0  0  0  0
   -3.4277   -2.7163   -0.4307 H   0  0  0  0  0  0  0  0  0  0  0  0
   -1.6637   -2.1719    0.6758 C   0  0  0  0  0  0  0  0  0  0  0  0
   -0.8434   -2.8636    1.2554 O   0  0  0  0  0  0  0  0  0  0  0  0
   -1.3147   -0.9793    0.0819 N   0  0  0  0  0  0  0  0  0  0  0  0
   -2.0757   -0.3926   -0.2556 H   0  0  0  0  0  0  0  0  0  0  0  0
   -0.0088   -0.3084    0.1919 C   0  0  1  0  0  0  0  0  0  0  0  0
    0.5681   -0.7138    1.0316 H   0  0  0  0  0  0  0  0  0  0  0  0
    0.7558   -0.5211   -1.1320 C   0  0  0  0  0  0  0  0  0  0  0  0
    0.8712   -1.6018   -1.2660 H   0  0  0  0  0  0  0  0  0  0  0  0
    0.1523   -0.1496   -1.9663 H   0  0  0  0  0  0  0  0  0  0  0  0
    2.1674    0.1076   -1.2228 C   0  0  0  0  0  0  0  0  0  0  0  0
    2.7727   -0.4626   -1.9331 H   0  0  0  0  0  0  0  0  0  0  0  0
    2.0650    1.1194   -1.6267 H   0  0  0  0  0  0  0  0  0  0  0  0
    2.9181    0.2076    0.1077 C   0  0  0  0  0  0  0  0  0  0  0  0
    3.0063    1.3357    0.6528 O   0  5  0  0  0  0  0  0  0  0  0  0
    3.3040   -0.8609    0.6326 O   0  0  0  0  0  0  0  0  0  0  0  0
   -0.2933    1.1927    0.4563 C   0  0  0  0  0  0  0  0  0  0  0  0
   -1.3062    1.7001   -0.0322 O   0  0  0  0  0  0  0  0  0  0  0  0
    0.3994    1.9002    1.4183 N   0  0  0  0  0  0  0  0  0  0  0  0
    1.3810    1.6019    1.5138 H   0  0  0  0  0  0  0  0  0  0  0  0
    0.1303    3.3037    1.6882 C   0  0  0  0  0  0  0  0  0  0  0  0
   -0.9009    3.4393    2.0291 H   0  0  0  0  0  0  0  0  0  0  0  0
    0.8027    3.6672    2.4708 H   0  0  0  0  0  0  0  0  0  0  0  0
    0.2896    3.9034    0.7864 H   0  0  0  0  0  0  0  0  0  0  0  0
  1  2  1  0  0  0  0
  2  3  1  0  0  0  0
  2  4  1  0  0  0  0
  2  5  1  0  0  0  0
  5  6  2  0  0  0  0
  5  7  1  0  0  0  0
  7  8  1  0  0  0  0
  7  9  1  0  0  0  0
  9 10  1  0  0  0  0
  9 11  1  0  0  0  0
  9 20  1  0  0  0  0
 11 12  1  0  0  0  0
 11 13  1  0  0  0  0
 11 14  1  0  0  0  0
 14 15  1  0  0  0  0
 14 16  1  0  0  0  0
 14 17  1  0  0  0  0
 17 18  1  0  0  0  0
 17 19  2  0  0  0  0
 20 21  2  0  0  0  0
 20 22  1  0  0  0  0
 22 23  1  0  0  0  0
 22 24  1  0  0  0  0
 24 25  1  0  0  0  0
 24 26  1  0  0  0  0
 24 27  1  0  0  0  0
M  CHG  1  18  -1
M  END
$$$$

  -OEChem-03222214043D

 27 26  0     1  0  0  0  0  0999 V2000
   -3.2512   -3.5778    1.1540 H   0  0  0  0  0  0  0  0  0  0  0  0
   -3.1269   -2.6414    0.6028 C   0  0  0  0  0  0  0  0  0  0  0  0
   -3.7929   -1.8890    1.0324 H   0  0  0  0  0  0  0  0  0  0  0  0
   -3.4018   -2.8072   -0.4417 H   0  0  0  0  0  0  0  0  0  0  0  0
   -1.6867   -2.1677    0.6890 C   0  0  0  0  0  0  0  0  0  0  0  0
   -0.8689   -2.8394    1.2954 O   0  0  0  0  0  0  0  0  0  0  0  0
   -1.3384   -0.9787    0.0876 N   0  0  0  0  0  0  0  0  0  0  0  0
   -2.0949   -0.4077   -0.2840 H   0  0  0  0  0  0  0  0  0  0  0  0
   -0.0344   -0.3063    0.2011 C   0  0  1  0  0  0  0  0  0  0  0  0
    0.5375   -0.7063    1.0463 H   0  0  0  0  0  0  0  0  0  0  0  0
    0.7388   -0.5264   -1.1152 C   0  0  0  0  0  0  0  0  0  0  0  0
    0.8544   -1.6064   -1.2540 H   0  0  0  0  0  0  0  0  0  0  0  0
    0.1423   -0.1493   -1.9520 H   0  0  0  0  0  0  0  0  0  0  0  0
    2.1471    0.1072   -1.1917 C   0  0  0  0  0  0  0  0  0  0  0  0
    2.6670   -0.2913   -2.0680 H   0  0  0  0  0  0  0  0  0  0  0  0
    2.0373    1.1846   -1.3455 H   0  0  0  0  0  0  0  0  0  0  0  0
    3.0228   -0.1016    0.0493 C   0  0  0  0  0  0  0  0  0  0  0  0
    2.8199    0.6361    1.0477 O   0  5  0  0  0  0  0  0  0  0  0  0
    3.8962   -0.9985   -0.0043 O   0  0  0  0  0  0  0  0  0  0  0  0
   -0.3033    1.1973    0.4536 C   0  0  0  0  0  0  0  0  0  0  0  0
   -1.2806    1.7323   -0.0742 O   0  0  0  0  0  0  0  0  0  0  0  0
    0.3971    1.8945    1.4155 N   0  0  0  0  0  0  0  0  0  0  0  0
    1.3281    1.4965    1.6113 H   0  0  0  0  0  0  0  0  0  0  0  0
    0.2142    3.3179    1.6484 C   0  0  0  0  0  0  0  0  0  0  0  0
   -0.8211    3.5306    1.9329 H   0  0  0  0  0  0  0  0  0  0  0  0
    0.8695    3.6497    2.4592 H   0  0  0  0  0  0  0  0  0  0  0  0
    0.4595    3.8875    0.7465 H   0  0  0  0  0  0  0  0  0  0  0  0
  1  2  1  0  0  0  0
  2  3  1  0  0  0  0
  2  4  1  0  0  0  0
  2  5  1  0  0  0  0
  5  6  2  0  0  0  0
  5  7  1  0  0  0  0
  7  8  1  0  0  0  0
  7  9  1  0  0  0  0
  9 10  1  0  0  0  0
  9 11  1  0  0  0  0
  9 20  1  0  0  0  0
 11 12  1  0  0  0  0
 11 13  1  0  0  0  0
 11 14  1  0  0  0  0
 14 15  1  0  0  0  0
 14 16  1  0  0  0  0
 14 17  1  0  0  0  0
 17 18  1  0  0  0  0
 17 19  2  0  0  0  0
 20 21  2  0  0  0  0
 20 22  1  0  0  0  0
 22 23  1  0  0  0  0
 22 24  1  0  0  0  0
 24 25  1  0  0  0  0
 24 26  1  0  0  0  0
 24 27  1  0  0  0  0
M  CHG  1  18  -1
M  END
$$$$

  -OEChem-03222214043D

 27 26  0     1  0  0  0  0  0999 V2000
   -3.2155   -3.6393    1.1611 H   0  0  0  0  0  0  0  0  0  0  0  0
   -3.1209   -2.7064    0.5980 C   0  0  0  0  0  0  0  0  0  0  0  0
   -3.8122   -1.9707    1.0166 H   0  0  0  0  0  0  0  0  0  0  0  0
   -3.3876   -2.8949   -0.4449 H   0  0  0  0  0  0  0  0  0  0  0  0
   -1.6969   -2.1853    0.6800 C   0  0  0  0  0  0  0  0  0  0  0  0
   -0.8562   -2.8320    1.2814 O   0  0  0  0  0  0  0  0  0  0  0  0
   -1.3904   -0.9856    0.0761 N   0  0  0  0  0  0  0  0  0  0  0  0
   -2.1653   -0.4479   -0.3048 H   0  0  0  0  0  0  0  0  0  0  0  0
   -0.1000   -0.2830    0.1503 C   0  0  1  0  0  0  0  0  0  0  0  0
    0.4663   -0.6778    1.0015 H   0  0  0  0  0  0  0  0  0  0  0  0
    0.7097   -0.5465   -1.1337 C   0  0  0  0  0  0  0  0  0  0  0  0
    0.8649   -1.6256   -1.2372 H   0  0  0  0  0  0  0  0  0  0  0  0
    0.1297   -0.2089   -1.9983 H   0  0  0  0  0  0  0  0  0  0  0  0
    2.0853    0.1540   -1.1566 C   0  0  0  0  0  0  0  0  0  0  0  0
    2.5774   -0.0798   -2.1053 H   0  0  0  0  0  0  0  0  0  0  0  0
    1.9524    1.2392   -1.1272 H   0  0  0  0  0  0  0  0  0  0  0  0
    3.0101   -0.2666   -0.0138 C   0  0  0  0  0  0  0  0  0  0  0  0
    2.8344    0.3113    1.0922 O   0  5  0  0  0  0  0  0  0  0  0  0
    3.8868   -1.1335   -0.2393 O   0  0  0  0  0  0  0  0  0  0  0  0
   -0.3062    1.2208    0.4173 C   0  0  0  0  0  0  0  0  0  0  0  0
   -1.2749    1.8031   -0.0711 O   0  0  0  0  0  0  0  0  0  0  0  0
    0.4762    1.8593    1.3575 N   0  0  0  0  0  0  0  0  0  0  0  0
    1.3721    1.3842    1.5494 H   0  0  0  0  0  0  0  0  0  0  0  0
    0.3913    3.2856    1.6228 C   0  0  0  0  0  0  0  0  0  0  0  0
   -0.6216    3.5588    1.9348 H   0  0  0  0  0  0  0  0  0  0  0  0
    1.0840    3.5567    2.4250 H   0  0  0  0  0  0  0  0  0  0  0  0
    0.6537    3.8571    0.7270 H   0  0  0  0  0  0  0  0  0  0  0  0
  1  2  1  0  0  0  0
  2  3  1  0  0  0  0
  2  4  1  0  0  0  0
  2  5  1  0  0  0  0
  5  6  2  0  0  0  0
  5  7  1  0  0  0  0
  7  8  1  0  0  0  0
  7  9  1  0  0  0  0
  9 10  1  0  0  0  0
  9 11  1  0  0  0  0
  9 20  1  0  0  0  0
 11 12  1  0  0  0  0
 11 13  1  0  0  0  0
 11 14  1  0  0  0  0
 14 15  1  0  0  0  0
 14 16  1  0  0  0  0
 14 17  1  0  0  0  0
 17 18  1  0  0  0  0
 17 19  2  0  0  0  0
 20 21  2  0  0  0  0
 20 22  1  0  0  0  0
 22 23  1  0  0  0  0
 22 24  1  0  0  0  0
 24 25  1  0  0  0  0
 24 26  1  0  0  0  0
 24 27  1  0  0  0  0
M  CHG  1  18  -1
M  END
$$$$

  -OEChem-03222214043D

 27 26  0     1  0  0  0  0  0999 V2000
   -3.1854   -3.6850    1.1373 H   0  0  0  0  0  0  0  0  0  0  0  0
   -3.1189   -2.7423    0.5869 C   0  0  0  0  0  0  0  0  0  0  0  0
   -3.8141   -2.0255    1.0308 H   0  0  0  0  0  0  0  0  0  0  0  0
   -3.4041   -2.9200   -0.4528 H   0  0  0  0  0  0  0  0  0  0  0  0
   -1.7030   -2.1967    0.6482 C   0  0  0  0  0  0  0  0  0  0  0  0
   -0.8408   -2.8336    1.2288 O   0  0  0  0  0  0  0  0  0  0  0  0
   -1.4316   -0.9828    0.0548 N   0  0  0  0  0  0  0  0  0  0  0  0
   -2.2228   -0.4651   -0.3193 H   0  0  0  0  0  0  0  0  0  0  0  0
   -0.1525   -0.2574    0.0982 C   0  0  1  0  0  0  0  0  0  0  0  0
    0.4094   -0.6467    0.9553 H   0  0  0  0  0  0  0  0  0  0  0  0
    0.6967   -0.5691   -1.1481 C   0  0  0  0  0  0  0  0  0  0  0  0
    0.8796   -1.6473   -1.2119 H   0  0  0  0  0  0  0  0  0  0  0  0
    0.1342   -0.2723   -2.0386 H   0  0  0  0  0  0  0  0  0  0  0  0
    2.0435    0.1833   -1.1413 C   0  0  0  0  0  0  0  0  0  0  0  0
    2.4783    0.1036   -2.1419 H   0  0  0  0  0  0  0  0  0  0  0  0
    1.9135    1.2508   -0.9492 H   0  0  0  0  0  0  0  0  0  0  0  0
    3.0405   -0.4112   -0.1556 C   0  0  0  0  0  0  0  0  0  0  0  0
    2.9178    0.0032    1.0290 O   0  5  0  0  0  0  0  0  0  0  0  0
    3.9109   -1.2203   -0.5554 O   0  0  0  0  0  0  0  0  0  0  0  0
   -0.3178    1.2420    0.3903 C   0  0  0  0  0  0  0  0  0  0  0  0
   -1.2858    1.8601   -0.0498 O   0  0  0  0  0  0  0  0  0  0  0  0
    0.5284    1.8265    1.3125 N   0  0  0  0  0  0  0  0  0  0  0  0
    1.3988    1.3025    1.4875 H   0  0  0  0  0  0  0  0  0  0  0  0
    0.5041    3.2459    1.6222 C   0  0  0  0  0  0  0  0  0  0  0  0
   -0.4810    3.5399    1.9982 H   0  0  0  0  0  0  0  0  0  0  0  0
    1.2484    3.4727    2.3913 H   0  0  0  0  0  0  0  0  0  0  0  0
    0.7342    3.8349    0.7288 H   0  0  0  0  0  0  0  0  0  0  0  0
  1  2  1  0  0  0  0
  2  3  1  0  0  0  0
  2  4  1  0  0  0  0
  2  5  1  0  0  0  0
  5  6  2  0  0  0  0
  5  7  1  0  0  0  0
  7  8  1  0  0  0  0
  7  9  1  0  0  0  0
  9 10  1  0  0  0  0
  9 11  1  0  0  0  0
  9 20  1  0  0  0  0
 11 12  1  0  0  0  0
 11 13  1  0  0  0  0
 11 14  1  0  0  0  0
 14 15  1  0  0  0  0
 14 16  1  0  0  0  0
 14 17  1  0  0  0  0
 17 18  1  0  0  0  0
 17 19  2  0  0  0  0
 20 21  2  0  0  0  0
 20 22  1  0  0  0  0
 22 23  1  0  0  0  0
 22 24  1  0  0  0  0
 24 25  1  0  0  0  0
 24 26  1  0  0  0  0
 24 27  1  0  0  0  0
M  CHG  1  18  -1
M  END
$$$$

  -OEChem-03222214043D

 27 26  0     1  0  0  0  0  0999 V2000
   -3.1956   -3.6689    1.0991 H   0  0  0  0  0  0  0  0  0  0  0  0
   -3.1000   -2.7405    0.5290 C   0  0  0  0  0  0  0  0  0  0  0  0
   -3.8460   -2.0275    0.8885 H   0  0  0  0  0  0  0  0  0  0  0  0
   -3.2886   -2.9539   -0.5261 H   0  0  0  0  0  0  0  0  0  0  0  0
   -1.7061   -2.1617    0.6975 C   0  0  0  0  0  0  0  0  0  0  0  0
   -0.8909   -2.7516    1.3858 O   0  0  0  0  0  0  0  0  0  0  0  0
   -1.4046   -0.9598    0.0949 N   0  0  0  0  0  0  0  0  0  0  0  0
   -2.1615   -0.4729   -0.3781 H   0  0  0  0  0  0  0  0  0  0  0  0
   -0.1142   -0.2561    0.1535 C   0  0  1  0  0  0  0  0  0  0  0  0
    0.4702   -0.6512    0.9933 H   0  0  0  0  0  0  0  0  0  0  0  0
    0.6841   -0.5533   -1.1288 C   0  0  0  0  0  0  0  0  0  0  0  0
    0.8216   -1.6343   -1.2424 H   0  0  0  0  0  0  0  0  0  0  0  0
    0.0994   -0.2041   -1.9857 H   0  0  0  0  0  0  0  0  0  0  0  0
    2.0558    0.1520   -1.1561 C   0  0  0  0  0  0  0  0  0  0  0  0
    2.3295    0.3186   -2.2022 H   0  0  0  0  0  0  0  0  0  0  0  0
    2.0330    1.1364   -0.6857 H   0  0  0  0  0  0  0  0  0  0  0  0
    3.1473   -0.7042   -0.5290 C   0  0  0  0  0  0  0  0  0  0  0  0
    3.2945   -0.5574    0.7115 O   0  5  0  0  0  0  0  0  0  0  0  0
    3.8231   -1.4735   -1.2544 O   0  0  0  0  0  0  0  0  0  0  0  0
   -0.3038    1.2463    0.4281 C   0  0  0  0  0  0  0  0  0  0  0  0
   -1.2519    1.8567   -0.0621 O   0  0  0  0  0  0  0  0  0  0  0  0
    0.5059    1.8636    1.3628 N   0  0  0  0  0  0  0  0  0  0  0  0
    1.3534    1.3498    1.6138 H   0  0  0  0  0  0  0  0  0  0  0  0
    0.4482    3.2887    1.6467 C   0  0  0  0  0  0  0  0  0  0  0  0
   -0.5542    3.5731    1.9821 H   0  0  0  0  0  0  0  0  0  0  0  0
    1.1606    3.5416    2.4375 H   0  0  0  0  0  0  0  0  0  0  0  0
    0.7009    3.8661    0.7517 H   0  0  0  0  0  0  0  0  0  0  0  0
  1  2  1  0  0  0  0
  2  3  1  0  0  0  0
  2  4  1  0  0  0  0
  2  5  1  0  0  0  0
  5  6  2  0  0  0  0
  5  7  1  0  0  0  0
  7  8  1  0  0  0  0
  7  9  1  0  0  0  0
  9 10  1  0  0  0  0
  9 11  1  0  0  0  0
  9 20  1  0  0  0  0
 11 12  1  0  0  0  0
 11 13  1  0  0  0  0
 11 14  1  0  0  0  0
 14 15  1  0  0  0  0
 14 16  1  0  0  0  0
 14 17  1  0  0  0  0
 17 18  1  0  0  0  0
 17 19  2  0  0  0  0
 20 21  2  0  0  0  0
 20 22  1  0  0  0  0
 22 23  1  0  0  0  0
 22 24  1  0  0  0  0
 24 25  1  0  0  0  0
 24 26  1  0  0  0  0
 24 27  1  0  0  0  0
M  CHG  1  18  -1
M  END
$$$$

  -OEChem-03222214043D

 27 26  0     1  0  0  0  0  0999 V2000
   -3.2191   -3.6445    1.0611 H   0  0  0  0  0  0  0  0  0  0  0  0
   -3.1014   -2.7162    0.4950 C   0  0  0  0  0  0  0  0  0  0  0  0
   -3.8634   -2.0042    0.8213 H   0  0  0  0  0  0  0  0  0  0  0  0
   -3.2446   -2.9309   -0.5670 H   0  0  0  0  0  0  0  0  0  0  0  0
   -1.7175   -2.1336    0.7216 C   0  0  0  0  0  0  0  0  0  0  0  0
   -0.9405   -2.6986    1.4732 O   0  0  0  0  0  0  0  0  0  0  0  0
   -1.3846   -0.9442    0.1115 N   0  0  0  0  0  0  0  0  0  0  0  0
   -2.1098   -0.4712   -0.4218 H   0  0  0  0  0  0  0  0  0  0  0  0
   -0.0813   -0.2678    0.1887 C   0  0  1  0  0  0  0  0  0  0  0  0
    0.5057   -0.6724    1.0216 H   0  0  0  0  0  0  0  0  0  0  0  0
    0.6894   -0.5442   -1.1146 C   0  0  0  0  0  0  0  0  0  0  0  0
    0.7901   -1.6258   -1.2595 H   0  0  0  0  0  0  0  0  0  0  0  0
    0.1006   -0.1584   -1.9530 H   0  0  0  0  0  0  0  0  0  0  0  0
    2.0830    0.1205   -1.1527 C   0  0  0  0  0  0  0  0  0  0  0  0
    2.2260    0.5712   -2.1392 H   0  0  0  0  0  0  0  0  0  0  0  0
    2.1770    0.9272   -0.4236 H   0  0  0  0  0  0  0  0  0  0  0  0
    3.2055   -0.8887   -0.9330 C   0  0  0  0  0  0  0  0  0  0  0  0
    3.6588   -0.9696    0.2359 O   0  5  0  0  0  0  0  0  0  0  0  0
    3.6011   -1.5702   -1.9103 O   0  0  0  0  0  0  0  0  0  0  0  0
   -0.2833    1.2391    0.4471 C   0  0  0  0  0  0  0  0  0  0  0  0
   -1.2187    1.8412   -0.0765 O   0  0  0  0  0  0  0  0  0  0  0  0
    0.4929    1.8833    1.3926 N   0  0  0  0  0  0  0  0  0  0  0  0
    1.3248    1.3824    1.7009 H   0  0  0  0  0  0  0  0  0  0  0  0
    0.3988    3.3100    1.6620 C   0  0  0  0  0  0  0  0  0  0  0  0
   -0.6113    3.5719    1.9927 H   0  0  0  0  0  0  0  0  0  0  0  0
    1.1027    3.5896    2.4514 H   0  0  0  0  0  0  0  0  0  0  0  0
    0.6383    3.8852    0.7620 H   0  0  0  0  0  0  0  0  0  0  0  0
  1  2  1  0  0  0  0
  2  3  1  0  0  0  0
  2  4  1  0  0  0  0
  2  5  1  0  0  0  0
  5  6  2  0  0  0  0
  5  7  1  0  0  0  0
  7  8  1  0  0  0  0
  7  9  1  0  0  0  0
  9 10  1  0  0  0  0
  9 11  1  0  0  0  0
  9 20  1  0  0  0  0
 11 12  1  0  0  0  0
 11 13  1  0  0  0  0
 11 14  1  0  0  0  0
 14 15  1  0  0  0  0
 14 16  1  0  0  0  0
 14 17  1  0  0  0  0
 17 18  1  0  0  0  0
 17 19  2  0  0  0  0
 20 21  2  0  0  0  0
 20 22  1  0  0  0  0
 22 23  1  0  0  0  0
 22 24  1  0  0  0  0
 24 25  1  0  0  0  0
 24 26  1  0  0  0  0
 24 27  1  0  0  0  0
M  CHG  1  18  -1
M  END
$$$$

  -OEChem-03222214043D

 27 26  0     1  0  0  0  0  0999 V2000
   -3.2499   -3.6252    1.0480 H   0  0  0  0  0  0  0  0  0  0  0  0
   -3.1198   -2.7049    0.4718 C   0  0  0  0  0  0  0  0  0  0  0  0
   -3.8899   -1.9894    0.7704 H   0  0  0  0  0  0  0  0  0  0  0  0
   -3.2379   -2.9348   -0.5902 H   0  0  0  0  0  0  0  0  0  0  0  0
   -1.7417   -2.1181    0.7218 C   0  0  0  0  0  0  0  0  0  0  0  0
   -0.9789   -2.6733    1.4961 O   0  0  0  0  0  0  0  0  0  0  0  0
   -1.3943   -0.9336    0.1100 N   0  0  0  0  0  0  0  0  0  0  0  0
   -2.1029   -0.4660   -0.4499 H   0  0  0  0  0  0  0  0  0  0  0  0
   -0.0821   -0.2762    0.1940 C   0  0  1  0  0  0  0  0  0  0  0  0
    0.4986   -0.6912    1.0248 H   0  0  0  0  0  0  0  0  0  0  0  0
    0.6830   -0.5408   -1.1143 C   0  0  0  0  0  0  0  0  0  0  0  0
    0.7739   -1.6238   -1.2549 H   0  0  0  0  0  0  0  0  0  0  0  0
    0.1033   -0.1528   -1.9582 H   0  0  0  0  0  0  0  0  0  0  0  0
    2.0861    0.1080   -1.1368 C   0  0  0  0  0  0  0  0  0  0  0  0
    2.1398    0.8217   -1.9640 H   0  0  0  0  0  0  0  0  0  0  0  0
    2.2753    0.6682   -0.2182 H   0  0  0  0  0  0  0  0  0  0  0  0
    3.2056   -0.9186   -1.3082 C   0  0  0  0  0  0  0  0  0  0  0  0
    4.0088   -1.0492   -0.3514 O   0  5  0  0  0  0  0  0  0  0  0  0
    3.2532   -1.5694   -2.3811 O   0  0  0  0  0  0  0  0  0  0  0  0
   -0.2687    1.2347    0.4502 C   0  0  0  0  0  0  0  0  0  0  0  0
   -1.1974    1.8447   -0.0752 O   0  0  0  0  0  0  0  0  0  0  0  0
    0.5062    1.8765    1.3988 N   0  0  0  0  0  0  0  0  0  0  0  0
    1.3299    1.3723    1.7189 H   0  0  0  0  0  0  0  0  0  0  0  0
    0.4159    3.3037    1.6679 C   0  0  0  0  0  0  0  0  0  0  0  0
   -0.5843    3.5624    2.0299 H   0  0  0  0  0  0  0  0  0  0  0  0
    1.1442    3.5872    2.4335 H   0  0  0  0  0  0  0  0  0  0  0  0
    0.6249    3.8787    0.7601 H   0  0  0  0  0  0  0  0  0  0  0  0
  1  2  1  0  0  0  0
  2  3  1  0  0  0  0
  2  4  1  0  0  0  0
  2  5  1  0  0  0  0
  5  6  2  0  0  0  0
  5  7  1  0  0  0  0
  7  8  1  0  0  0  0
  7  9  1  0  0  0  0
  9 10  1  0  0  0  0
  9 11  1  0  0  0  0
  9 20  1  0  0  0  0
 11 12  1  0  0  0  0
 11 13  1  0  0  0  0
 11 14  1  0  0  0  0
 14 15  1  0  0  0  0
 14 16  1  0  0  0  0
 14 17  1  0  0  0  0
 17 18  1  0  0  0  0
 17 19  2  0  0  0  0
 20 21  2  0  0  0  0
 20 22  1  0  0  0  0
 22 23  1  0  0  0  0
 22 24  1  0  0  0  0
 24 25  1  0  0  0  0
 24 26  1  0  0  0  0
 24 27  1  0  0  0  0
M  CHG  1  18  -1
M  END
$$$$

  -OEChem-03222214043D

 27 26  0     1  0  0  0  0  0999 V2000
   -3.1882   -3.6230    1.2541 H   0  0  0  0  0  0  0  0  0  0  0  0
   -3.0875   -2.7186    0.6476 C   0  0  0  0  0  0  0  0  0  0  0  0
   -3.8476   -1.9978    0.9589 H   0  0  0  0  0  0  0  0  0  0  0  0
   -3.2496   -2.9788   -0.4015 H   0  0  0  0  0  0  0  0  0  0  0  0
   -1.7034   -2.1195    0.8228 C   0  0  0  0  0  0  0  0  0  0  0  0
   -0.9067   -2.6464    1.5833 O   0  0  0  0  0  0  0  0  0  0  0  0
   -1.3859   -0.9553    0.1580 N   0  0  0  0  0  0  0  0  0  0  0  0
   -2.1167   -0.5104   -0.3922 H   0  0  0  0  0  0  0  0  0  0  0  0
   -0.0803   -0.2811    0.1875 C   0  0  1  0  0  0  0  0  0  0  0  0
    0.5191   -0.6583    1.0226 H   0  0  0  0  0  0  0  0  0  0  0  0
    0.6656   -0.5799   -1.1227 C   0  0  0  0  0  0  0  0  0  0  0  0
    0.7837   -1.6662   -1.2061 H   0  0  0  0  0  0  0  0  0  0  0  0
    0.0723   -0.2492   -1.9815 H   0  0  0  0  0  0  0  0  0  0  0  0
    2.0543    0.0923   -1.1772 C   0  0  0  0  0  0  0  0  0  0  0  0
    2.0079    0.9734   -1.8237 H   0  0  0  0  0  0  0  0  0  0  0  0
    2.3522    0.4309   -0.1809 H   0  0  0  0  0  0  0  0  0  0  0  0
    3.1375   -0.8572   -1.6905 C   0  0  0  0  0  0  0  0  0  0  0  0
    3.0501   -1.2605   -2.8766 O   0  5  0  0  0  0  0  0  0  0  0  0
    4.0610   -1.1601   -0.8949 O   0  0  0  0  0  0  0  0  0  0  0  0
   -0.2713    1.2369    0.3902 C   0  0  0  0  0  0  0  0  0  0  0  0
   -1.2283    1.8164   -0.1184 O   0  0  0  0  0  0  0  0  0  0  0  0
    0.5215    1.9181    1.2954 N   0  0  0  0  0  0  0  0  0  0  0  0
    1.3639    1.4390    1.6035 H   0  0  0  0  0  0  0  0  0  0  0  0
    0.4043    3.3482    1.5397 C   0  0  0  0  0  0  0  0  0  0  0  0
   -0.6074    3.5985    1.8750 H   0  0  0  0  0  0  0  0  0  0  0  0
    1.1096    3.6540    2.3182 H   0  0  0  0  0  0  0  0  0  0  0  0
    0.6259    3.9118    0.6276 H   0  0  0  0  0  0  0  0  0  0  0  0
  1  2  1  0  0  0  0
  2  3  1  0  0  0  0
  2  4  1  0  0  0  0
  2  5  1  0  0  0  0
  5  6  2  0  0  0  0
  5  7  1  0  0  0  0
  7  8  1  0  0  0  0
  7  9  1  0  0  0  0
  9 10  1  0  0  0  0
  9 11  1  0  0  0  0
  9 20  1  0  0  0  0
 11 12  1  0  0  0  0
 11 13  1  0  0  0  0
 11 14  1  0  0  0  0
 14 15  1  0  0  0  0
 14 16  1  0  0  0  0
 14 17  1  0  0  0  0
 17 18  1  0  0  0  0
 17 19  2  0  0  0  0
 20 21  2  0  0  0  0
 20 22  1  0  0  0  0
 22 23  1  0  0  0  0
 22 24  1  0  0  0  0
 24 25  1  0  0  0  0
 24 26  1  0  0  0  0
 24 27  1  0  0  0  0
M  CHG  1  18  -1
M  END
$$$$

  -OEChem-03222214043D

 27 26  0     1  0  0  0  0  0999 V2000
   -3.1873   -3.6453    1.2268 H   0  0  0  0  0  0  0  0  0  0  0  0
   -3.0945   -2.7314    0.6335 C   0  0  0  0  0  0  0  0  0  0  0  0
   -3.8555   -2.0190    0.9610 H   0  0  0  0  0  0  0  0  0  0  0  0
   -3.2631   -2.9761   -0.4183 H   0  0  0  0  0  0  0  0  0  0  0  0
   -1.7116   -2.1295    0.8081 C   0  0  0  0  0  0  0  0  0  0  0  0
   -0.9093   -2.6610    1.5599 O   0  0  0  0  0  0  0  0  0  0  0  0
   -1.3972   -0.9610    0.1498 N   0  0  0  0  0  0  0  0  0  0  0  0
   -2.1288   -0.5141   -0.3979 H   0  0  0  0  0  0  0  0  0  0  0  0
   -0.0923   -0.2862    0.1817 C   0  0  1  0  0  0  0  0  0  0  0  0
    0.5031   -0.6673    1.0176 H   0  0  0  0  0  0  0  0  0  0  0  0
    0.6622   -0.5765   -1.1243 C   0  0  0  0  0  0  0  0  0  0  0  0
    0.7941   -1.6611   -1.2072 H   0  0  0  0  0  0  0  0  0  0  0  0
    0.0763   -0.2479   -1.9892 H   0  0  0  0  0  0  0  0  0  0  0  0
    2.0449    0.1051   -1.1540 C   0  0  0  0  0  0  0  0  0  0  0  0
    1.9487    1.1166   -1.5585 H   0  0  0  0  0  0  0  0  0  0  0  0
    2.4373    0.1878   -0.1358 H   0  0  0  0  0  0  0  0  0  0  0  0
    3.0600   -0.6798   -1.9873 C   0  0  0  0  0  0  0  0  0  0  0  0
    2.7540   -0.9667   -3.1712 O   0  5  0  0  0  0  0  0  0  0  0  0
    4.1544   -0.9640   -1.4407 O   0  0  0  0  0  0  0  0  0  0  0  0
   -0.2781    1.2308    0.3938 C   0  0  0  0  0  0  0  0  0  0  0  0
   -1.2385    1.8147   -0.1028 O   0  0  0  0  0  0  0  0  0  0  0  0
    0.5194    1.9033    1.3014 N   0  0  0  0  0  0  0  0  0  0  0  0
    1.3642    1.4214    1.5966 H   0  0  0  0  0  0  0  0  0  0  0  0
    0.4247    3.3381    1.5269 C   0  0  0  0  0  0  0  0  0  0  0  0
   -0.5710    3.6031    1.8966 H   0  0  0  0  0  0  0  0  0  0  0  0
    1.1635    3.6503    2.2709 H   0  0  0  0  0  0  0  0  0  0  0  0
    0.6151    3.8842    0.5972 H   0  0  0  0  0  0  0  0  0  0  0  0
  1  2  1  0  0  0  0
  2  3  1  0  0  0  0
  2  4  1  0  0  0  0
  2  5  1  0  0  0  0
  5  6  2  0  0  0  0
  5  7  1  0  0  0  0
  7  8  1  0  0  0  0
  7  9  1  0  0  0  0
  9 10  1  0  0  0  0
  9 11  1  0  0  0  0
  9 20  1  0  0  0  0
 11 12  1  0  0  0  0
 11 13  1  0  0  0  0
 11 14  1  0  0  0  0
 14 15  1  0  0  0  0
 14 16  1  0  0  0  0
 14 17  1  0  0  0  0
 17 18  1  0  0  0  0
 17 19  2  0  0  0  0
 20 21  2  0  0  0  0
 20 22  1  0  0  0  0
 22 23  1  0  0  0  0
 22 24  1  0  0  0  0
 24 25  1  0  0  0  0
 24 26  1  0  0  0  0
 24 27  1  0  0  0  0
M  CHG  1  18  -1
M  END
$$$$

  -OEChem-03222214043D

 27 26  0     1  0  0  0  0  0999 V2000
   -3.1863   -3.6415    1.2222 H   0  0  0  0  0  0  0  0  0  0  0  0
   -3.0946   -2.7247    0.6333 C   0  0  0  0  0  0  0  0  0  0  0  0
   -3.8484   -2.0099    0.9725 H   0  0  0  0  0  0  0  0  0  0  0  0
   -3.2753   -2.9618   -0.4182 H   0  0  0  0  0  0  0  0  0  0  0  0
   -1.7067   -2.1311    0.7965 C   0  0  0  0  0  0  0  0  0  0  0  0
   -0.8976   -2.6717    1.5349 O   0  0  0  0  0  0  0  0  0  0  0  0
   -1.3935   -0.9615    0.1398 N   0  0  0  0  0  0  0  0  0  0  0  0
   -2.1291   -0.5077   -0.3973 H   0  0  0  0  0  0  0  0  0  0  0  0
   -0.0899   -0.2846    0.1715 C   0  0  1  0  0  0  0  0  0  0  0  0
    0.5023   -0.6619    1.0112 H   0  0  0  0  0  0  0  0  0  0  0  0
    0.6714   -0.5834   -1.1288 C   0  0  0  0  0  0  0  0  0  0  0  0
    0.8083   -1.6668   -1.2142 H   0  0  0  0  0  0  0  0  0  0  0  0
    0.0863   -0.2525   -1.9938 H   0  0  0  0  0  0  0  0  0  0  0  0
    2.0508    0.1008   -1.1538 C   0  0  0  0  0  0  0  0  0  0  0  0
    1.9295    1.1743   -1.3244 H   0  0  0  0  0  0  0  0  0  0  0  0
    2.5428   -0.0355   -0.1859 H   0  0  0  0  0  0  0  0  0  0  0  0
    2.9562   -0.4696   -2.2477 C   0  0  0  0  0  0  0  0  0  0  0  0
    2.5018   -0.5350   -3.4170 O   0  5  0  0  0  0  0  0  0  0  0  0
    4.1167   -0.8109   -1.9099 O   0  0  0  0  0  0  0  0  0  0  0  0
   -0.2795    1.2318    0.3852 C   0  0  0  0  0  0  0  0  0  0  0  0
   -1.2533    1.8094   -0.0919 O   0  0  0  0  0  0  0  0  0  0  0  0
    0.5179    1.9040    1.2934 N   0  0  0  0  0  0  0  0  0  0  0  0
    1.3727    1.4312    1.5736 H   0  0  0  0  0  0  0  0  0  0  0  0
    0.4035    3.3341    1.5395 C   0  0  0  0  0  0  0  0  0  0  0  0
   -0.5877    3.5761    1.9363 H   0  0  0  0  0  0  0  0  0  0  0  0
    1.1539    3.6504    2.2700 H   0  0  0  0  0  0  0  0  0  0  0  0
    0.5622    3.8954    0.6129 H   0  0  0  0  0  0  0  0  0  0  0  0
  1  2  1  0  0  0  0
  2  3  1  0  0  0  0
  2  4  1  0  0  0  0
  2  5  1  0  0  0  0
  5  6  2  0  0  0  0
  5  7  1  0  0  0  0
  7  8  1  0  0  0  0
  7  9  1  0  0  0  0
  9 10  1  0  0  0  0
  9 11  1  0  0  0  0
  9 20  1  0  0  0  0
 11 12  1  0  0  0  0
 11 13  1  0  0  0  0
 11 14  1  0  0  0  0
 14 15  1  0  0  0  0
 14 16  1  0  0  0  0
 14 17  1  0  0  0  0
 17 18  1  0  0  0  0
 17 19  2  0  0  0  0
 20 21  2  0  0  0  0
 20 22  1  0  0  0  0
 22 23  1  0  0  0  0
 22 24  1  0  0  0  0
 24 25  1  0  0  0  0
 24 26  1  0  0  0  0
 24 27  1  0  0  0  0
M  CHG  1  18  -1
M  END
$$$$

  -OEChem-03222214043D

 27 26  0     1  0  0  0  0  0999 V2000
   -3.2566   -3.6173    1.1349 H   0  0  0  0  0  0  0  0  0  0  0  0
   -3.1471   -2.6927    0.5614 C   0  0  0  0  0  0  0  0  0  0  0  0
   -3.8984   -1.9755    0.9009 H   0  0  0  0  0  0  0  0  0  0  0  0
   -3.3151   -2.9124   -0.4960 H   0  0  0  0  0  0  0  0  0  0  0  0
   -1.7556   -2.1162    0.7540 C   0  0  0  0  0  0  0  0  0  0  0  0
   -0.9656   -2.6745    1.5001 O   0  0  0  0  0  0  0  0  0  0  0  0
   -1.4206   -0.9386    0.1223 N   0  0  0  0  0  0  0  0  0  0  0  0
   -2.1425   -0.4704   -0.4204 H   0  0  0  0  0  0  0  0  0  0  0  0
   -0.1044   -0.2864    0.1686 C   0  0  1  0  0  0  0  0  0  0  0  0
    0.4743   -0.7006    1.0002 H   0  0  0  0  0  0  0  0  0  0  0  0
    0.6558   -0.5634   -1.1369 C   0  0  0  0  0  0  0  0  0  0  0  0
    0.5586   -1.6239   -1.3939 H   0  0  0  0  0  0  0  0  0  0  0  0
    0.2198    0.0185   -1.9559 H   0  0  0  0  0  0  0  0  0  0  0  0
    2.1507   -0.2270   -0.9931 C   0  0  0  0  0  0  0  0  0  0  0  0
    2.2719    0.8257   -0.7220 H   0  0  0  0  0  0  0  0  0  0  0  0
    2.5880   -0.8330   -0.1945 H   0  0  0  0  0  0  0  0  0  0  0  0
    2.9203   -0.4981   -2.2872 C   0  0  0  0  0  0  0  0  0  0  0  0
    2.9285   -1.6726   -2.7318 O   0  5  0  0  0  0  0  0  0  0  0  0
    3.5232    0.4705   -2.8118 O   0  0  0  0  0  0  0  0  0  0  0  0
   -0.2541    1.2289    0.4146 C   0  0  0  0  0  0  0  0  0  0  0  0
   -1.2122    1.8398   -0.0528 O   0  0  0  0  0  0  0  0  0  0  0  0
    0.5601    1.8625    1.3353 N   0  0  0  0  0  0  0  0  0  0  0  0
    1.4069    1.3654    1.5965 H   0  0  0  0  0  0  0  0  0  0  0  0
    0.4903    3.2928    1.5967 C   0  0  0  0  0  0  0  0  0  0  0  0
   -0.4989    3.5649    1.9787 H   0  0  0  0  0  0  0  0  0  0  0  0
    1.2376    3.5742    2.3445 H   0  0  0  0  0  0  0  0  0  0  0  0
    0.6849    3.8590    0.6799 H   0  0  0  0  0  0  0  0  0  0  0  0
  1  2  1  0  0  0  0
  2  3  1  0  0  0  0
  2  4  1  0  0  0  0
  2  5  1  0  0  0  0
  5  6  2  0  0  0  0
  5  7  1  0  0  0  0
  7  8  1  0  0  0  0
  7  9  1  0  0  0  0
  9 10  1  0  0  0  0
  9 11  1  0  0  0  0
  9 20  1  0  0  0  0
 11 12  1  0  0  0  0
 11 13  1  0  0  0  0
 11 14  1  0  0  0  0
 14 15  1  0  0  0  0
 14 16  1  0  0  0  0
 14 17  1  0  0  0  0
 17 18  1  0  0  0  0
 17 19  2  0  0  0  0
 20 21  2  0  0  0  0
 20 22  1  0  0  0  0
 22 23  1  0  0  0  0
 22 24  1  0  0  0  0
 24 25  1  0  0  0  0
 24 26  1  0  0  0  0
 24 27  1  0  0  0  0
M  CHG  1  18  -1
M  END
$$$$

  -OEChem-03222214043D

 27 26  0     1  0  0  0  0  0999 V2000
   -3.2593   -3.6049    1.1629 H   0  0  0  0  0  0  0  0  0  0  0  0
   -3.1485   -2.6802    0.5897 C   0  0  0  0  0  0  0  0  0  0  0  0
   -3.8798   -1.9519    0.9489 H   0  0  0  0  0  0  0  0  0  0  0  0
   -3.3452   -2.8931   -0.4640 H   0  0  0  0  0  0  0  0  0  0  0  0
   -1.7440   -2.1260    0.7501 C   0  0  0  0  0  0  0  0  0  0  0  0
   -0.9402   -2.7051    1.4654 O   0  0  0  0  0  0  0  0  0  0  0  0
   -1.4110   -0.9465    0.1208 N   0  0  0  0  0  0  0  0  0  0  0  0
   -2.1424   -0.4612   -0.3941 H   0  0  0  0  0  0  0  0  0  0  0  0
   -0.0958   -0.2930    0.1664 C   0  0  1  0  0  0  0  0  0  0  0  0
    0.4869   -0.7052    0.9961 H   0  0  0  0  0  0  0  0  0  0  0  0
    0.6609   -0.5687   -1.1421 C   0  0  0  0  0  0  0  0  0  0  0  0
    0.5600   -1.6240   -1.4179 H   0  0  0  0  0  0  0  0  0  0  0  0
    0.2188    0.0274   -1.9482 H   0  0  0  0  0  0  0  0  0  0  0  0
    2.1588   -0.2350   -1.0098 C   0  0  0  0  0  0  0  0  0  0  0  0
    2.2863    0.7247   -0.5022 H   0  0  0  0  0  0  0  0  0  0  0  0
    2.6498   -1.0021   -0.4044 H   0  0  0  0  0  0  0  0  0  0  0  0
    2.8536   -0.1499   -2.3710 C   0  0  0  0  0  0  0  0  0  0  0  0
    2.6863   -1.0954   -3.1809 O   0  5  0  0  0  0  0  0  0  0  0  0
    3.5810    0.8523   -2.5806 O   0  0  0  0  0  0  0  0  0  0  0  0
   -0.2599    1.2214    0.4165 C   0  0  0  0  0  0  0  0  0  0  0  0
   -1.2324    1.8195   -0.0378 O   0  0  0  0  0  0  0  0  0  0  0  0
    0.5478    1.8620    1.3382 N   0  0  0  0  0  0  0  0  0  0  0  0
    1.4084    1.3803    1.5821 H   0  0  0  0  0  0  0  0  0  0  0  0
    0.4674    3.2937    1.5900 C   0  0  0  0  0  0  0  0  0  0  0  0
   -0.5224    3.5609    1.9739 H   0  0  0  0  0  0  0  0  0  0  0  0
    1.2156    3.5869    2.3323 H   0  0  0  0  0  0  0  0  0  0  0  0
    0.6537    3.8548    0.6684 H   0  0  0  0  0  0  0  0  0  0  0  0
  1  2  1  0  0  0  0
  2  3  1  0  0  0  0
  2  4  1  0  0  0  0
  2  5  1  0  0  0  0
  5  6  2  0  0  0  0
  5  7  1  0  0  0  0
  7  8  1  0  0  0  0
  7  9  1  0  0  0  0
  9 10  1  0  0  0  0
  9 11  1  0  0  0  0
  9 20  1  0  0  0  0
 11 12  1  0  0  0  0
 11 13  1  0  0  0  0
 11 14  1  0  0  0  0
 14 15  1  0  0  0  0
 14 16  1  0  0  0  0
 14 17  1  0  0  0  0
 17 18  1  0  0  0  0
 17 19  2  0  0  0  0
 20 21  2  0  0  0  0
 20 22  1  0  0  0  0
 22 23  1  0  0  0  0
 22 24  1  0  0  0  0
 24 25  1  0  0  0  0
 24 26  1  0  0  0  0
 24 27  1  0  0  0  0
M  CHG  1  18  -1
M  END
$$$$

  -OEChem-03222214043D

 27 26  0     1  0  0  0  0  0999 V2000
   -3.2654   -3.5887    1.1846 H   0  0  0  0  0  0  0  0  0  0  0  0
   -3.1542   -2.6641    0.6114 C   0  0  0  0  0  0  0  0  0  0  0  0
   -3.8668   -1.9266    0.9887 H   0  0  0  0  0  0  0  0  0  0  0  0
   -3.3775   -2.8712   -0.4382 H   0  0  0  0  0  0  0  0  0  0  0  0
   -1.7388   -2.1301    0.7417 C   0  0  0  0  0  0  0  0  0  0  0  0
   -0.9224   -2.7324    1.4228 O   0  0  0  0  0  0  0  0  0  0  0  0
   -1.4048   -0.9493    0.1158 N   0  0  0  0  0  0  0  0  0  0  0  0
   -2.1473   -0.4349   -0.3538 H   0  0  0  0  0  0  0  0  0  0  0  0
   -0.0877   -0.2995    0.1606 C   0  0  1  0  0  0  0  0  0  0  0  0
    0.4961   -0.7143    0.9882 H   0  0  0  0  0  0  0  0  0  0  0  0
    0.6655   -0.5704   -1.1507 C   0  0  0  0  0  0  0  0  0  0  0  0
    0.5595   -1.6209   -1.4408 H   0  0  0  0  0  0  0  0  0  0  0  0
    0.2167    0.0364   -1.9455 H   0  0  0  0  0  0  0  0  0  0  0  0
    2.1671   -0.2431   -1.0259 C   0  0  0  0  0  0  0  0  0  0  0  0
    2.3247    0.5562   -0.2977 H   0  0  0  0  0  0  0  0  0  0  0  0
    2.7011   -1.1261   -0.6637 H   0  0  0  0  0  0  0  0  0  0  0  0
    2.7729    0.2039   -2.3573 C   0  0  0  0  0  0  0  0  0  0  0  0
    2.6554   -0.5628   -3.3450 O   0  5  0  0  0  0  0  0  0  0  0  0
    3.3795    1.3034   -2.3707 O   0  0  0  0  0  0  0  0  0  0  0  0
   -0.2569    1.2144    0.4167 C   0  0  0  0  0  0  0  0  0  0  0  0
   -1.2490    1.7995   -0.0123 O   0  0  0  0  0  0  0  0  0  0  0  0
    0.5485    1.8575    1.3389 N   0  0  0  0  0  0  0  0  0  0  0  0
    1.4305    1.3972    1.5449 H   0  0  0  0  0  0  0  0  0  0  0  0
    0.4527    3.2880    1.5926 C   0  0  0  0  0  0  0  0  0  0  0  0
   -0.5463    3.5481    1.9574 H   0  0  0  0  0  0  0  0  0  0  0  0
    1.1834    3.5836    2.3511 H   0  0  0  0  0  0  0  0  0  0  0  0
    0.6541    3.8526    0.6763 H   0  0  0  0  0  0  0  0  0  0  0  0
  1  2  1  0  0  0  0
  2  3  1  0  0  0  0
  2  4  1  0  0  0  0
  2  5  1  0  0  0  0
  5  6  2  0  0  0  0
  5  7  1  0  0  0  0
  7  8  1  0  0  0  0
  7  9  1  0  0  0  0
  9 10  1  0  0  0  0
  9 11  1  0  0  0  0
  9 20  1  0  0  0  0
 11 12  1  0  0  0  0
 11 13  1  0  0  0  0
 11 14  1  0  0  0  0
 14 15  1  0  0  0  0
 14 16  1  0  0  0  0
 14 17  1  0  0  0  0
 17 18  1  0  0  0  0
 17 19  2  0  0  0  0
 20 21  2  0  0  0  0
 20 22  1  0  0  0  0
 22 23  1  0  0  0  0
 22 24  1  0  0  0  0
 24 25  1  0  0  0  0
 24 26  1  0  0  0  0
 24 27  1  0  0  0  0
M  CHG  1  18  -1
M  END
$$$$

  -OEChem-03222214043D

 27 26  0     1  0  0  0  0  0999 V2000
   -3.2768   -3.5710    1.2297 H   0  0  0  0  0  0  0  0  0  0  0  0
   -3.1675   -2.6495    0.6513 C   0  0  0  0  0  0  0  0  0  0  0  0
   -3.8519   -1.8979    1.0527 H   0  0  0  0  0  0  0  0  0  0  0  0
   -3.4313   -2.8527   -0.3896 H   0  0  0  0  0  0  0  0  0  0  0  0
   -1.7380   -2.1436    0.7313 C   0  0  0  0  0  0  0  0  0  0  0  0
   -0.9058   -2.7728    1.3675 O   0  0  0  0  0  0  0  0  0  0  0  0
   -1.4071   -0.9614    0.1069 N   0  0  0  0  0  0  0  0  0  0  0  0
   -2.1616   -0.4185   -0.3090 H   0  0  0  0  0  0  0  0  0  0  0  0
   -0.0878   -0.3150    0.1429 C   0  0  1  0  0  0  0  0  0  0  0  0
    0.4985   -0.7337    0.9668 H   0  0  0  0  0  0  0  0  0  0  0  0
    0.6661   -0.5647   -1.1717 C   0  0  0  0  0  0  0  0  0  0  0  0
    0.5656   -1.6137   -1.4688 H   0  0  0  0  0  0  0  0  0  0  0  0
    0.2136    0.0433   -1.9635 H   0  0  0  0  0  0  0  0  0  0  0  0
    2.1678   -0.2332   -1.0338 C   0  0  0  0  0  0  0  0  0  0  0  0
    2.3605    0.3309   -0.1176 H   0  0  0  0  0  0  0  0  0  0  0  0
    2.7340   -1.1662   -0.9591 H   0  0  0  0  0  0  0  0  0  0  0  0
    2.6978    0.5734   -2.2184 C   0  0  0  0  0  0  0  0  0  0  0  0
    2.7188    0.0233   -3.3468 O   0  5  0  0  0  0  0  0  0  0  0  0
    3.0983    1.7393   -1.9781 O   0  0  0  0  0  0  0  0  0  0  0  0
   -0.2577    1.1985    0.4065 C   0  0  0  0  0  0  0  0  0  0  0  0
   -1.2764    1.7691    0.0201 O   0  0  0  0  0  0  0  0  0  0  0  0
    0.5551    1.8379    1.3243 N   0  0  0  0  0  0  0  0  0  0  0  0
    1.4642    1.4050    1.4615 H   0  0  0  0  0  0  0  0  0  0  0  0
    0.4542    3.2684    1.5760 C   0  0  0  0  0  0  0  0  0  0  0  0
   -0.5414    3.5243    1.9524 H   0  0  0  0  0  0  0  0  0  0  0  0
    1.1927    3.5702    2.3245 H   0  0  0  0  0  0  0  0  0  0  0  0
    0.6416    3.8316    0.6557 H   0  0  0  0  0  0  0  0  0  0  0  0
  1  2  1  0  0  0  0
  2  3  1  0  0  0  0
  2  4  1  0  0  0  0
  2  5  1  0  0  0  0
  5  6  2  0  0  0  0
  5  7  1  0  0  0  0
  7  8  1  0  0  0  0
  7  9  1  0  0  0  0
  9 10  1  0  0  0  0
  9 11  1  0  0  0  0
  9 20  1  0  0  0  0
 11 12  1  0  0  0  0
 11 13  1  0  0  0  0
 11 14  1  0  0  0  0
 14 15  1  0  0  0  0
 14 16  1  0  0  0  0
 14 17  1  0  0  0  0
 17 18  1  0  0  0  0
 17 19  2  0  0  0  0
 20 21  2  0  0  0  0
 20 22  1  0  0  0  0
 22 23  1  0  0  0  0
 22 24  1  0  0  0  0
 24 25  1  0  0  0  0
 24 26  1  0  0  0  0
 24 27  1  0  0  0  0
M  CHG  1  18  -1
M  END
$$$$

  -OEChem-03222214043D

 27 26  0     1  0  0  0  0  0999 V2000
   -3.2788   -3.5452    1.2889 H   0  0  0  0  0  0  0  0  0  0  0  0
   -3.1772   -2.6220    0.7118 C   0  0  0  0  0  0  0  0  0  0  0  0
   -3.8145   -1.8547    1.1585 H   0  0  0  0  0  0  0  0  0  0  0  0
   -3.5080   -2.8079   -0.3131 H   0  0  0  0  0  0  0  0  0  0  0  0
   -1.7316   -2.1575    0.7115 C   0  0  0  0  0  0  0  0  0  0  0  0
   -0.8808   -2.8233    1.2823 O   0  0  0  0  0  0  0  0  0  0  0  0
   -1.4053   -0.9753    0.0849 N   0  0  0  0  0  0  0  0  0  0  0  0
   -2.1715   -0.3947   -0.2525 H   0  0  0  0  0  0  0  0  0  0  0  0
   -0.0827   -0.3345    0.1089 C   0  0  1  0  0  0  0  0  0  0  0  0
    0.5028   -0.7560    0.9320 H   0  0  0  0  0  0  0  0  0  0  0  0
    0.6755   -0.5584   -1.2059 C   0  0  0  0  0  0  0  0  0  0  0  0
    0.5862   -1.6096   -1.4984 H   0  0  0  0  0  0  0  0  0  0  0  0
    0.2268    0.0423   -2.0054 H   0  0  0  0  0  0  0  0  0  0  0  0
    2.1734   -0.2208   -1.0384 C   0  0  0  0  0  0  0  0  0  0  0  0
    2.4088    0.0524   -0.0060 H   0  0  0  0  0  0  0  0  0  0  0  0
    2.7603   -1.1154   -1.2668 H   0  0  0  0  0  0  0  0  0  0  0  0
    2.6304    0.8964   -1.9711 C   0  0  0  0  0  0  0  0  0  0  0  0
    2.8094    0.6343   -3.1852 O   0  5  0  0  0  0  0  0  0  0  0  0
    2.8027    2.0222   -1.4409 O   0  0  0  0  0  0  0  0  0  0  0  0
   -0.2509    1.1800    0.3773 C   0  0  0  0  0  0  0  0  0  0  0  0
   -1.3047    1.7265    0.0501 O   0  0  0  0  0  0  0  0  0  0  0  0
    0.5715    1.8171    1.2874 N   0  0  0  0  0  0  0  0  0  0  0  0
    1.5211    1.4521    1.2977 H   0  0  0  0  0  0  0  0  0  0  0  0
    0.4290    3.2389    1.5661 C   0  0  0  0  0  0  0  0  0  0  0  0
   -0.5620    3.4546    1.9783 H   0  0  0  0  0  0  0  0  0  0  0  0
    1.1808    3.5538    2.2956 H   0  0  0  0  0  0  0  0  0  0  0  0
    0.5674    3.8223    0.6497 H   0  0  0  0  0  0  0  0  0  0  0  0
  1  2  1  0  0  0  0
  2  3  1  0  0  0  0
  2  4  1  0  0  0  0
  2  5  1  0  0  0  0
  5  6  2  0  0  0  0
  5  7  1  0  0  0  0
  7  8  1  0  0  0  0
  7  9  1  0  0  0  0
  9 10  1  0  0  0  0
  9 11  1  0  0  0  0
  9 20  1  0  0  0  0
 11 12  1  0  0  0  0
 11 13  1  0  0  0  0
 11 14  1  0  0  0  0
 14 15  1  0  0  0  0
 14 16  1  0  0  0  0
 14 17  1  0  0  0  0
 17 18  1  0  0  0  0
 17 19  2  0  0  0  0
 20 21  2  0  0  0  0
 20 22  1  0  0  0  0
 22 23  1  0  0  0  0
 22 24  1  0  0  0  0
 24 25  1  0  0  0  0
 24 26  1  0  0  0  0
 24 27  1  0  0  0  0
M  CHG  1  18  -1
M  END
$$$$

  -OEChem-03222214043D

 27 26  0     1  0  0  0  0  0999 V2000
   -3.2740   -3.4855    1.3491 H   0  0  0  0  0  0  0  0  0  0  0  0
   -3.1730   -2.5627    0.7711 C   0  0  0  0  0  0  0  0  0  0  0  0
   -3.7654   -1.7794    1.2507 H   0  0  0  0  0  0  0  0  0  0  0  0
   -3.5578   -2.7337   -0.2373 H   0  0  0  0  0  0  0  0  0  0  0  0
   -1.7159   -2.1406    0.7031 C   0  0  0  0  0  0  0  0  0  0  0  0
   -0.8589   -2.8357    1.2279 O   0  0  0  0  0  0  0  0  0  0  0  0
   -1.3861   -0.9690    0.0591 N   0  0  0  0  0  0  0  0  0  0  0  0
   -2.1534   -0.3582   -0.2186 H   0  0  0  0  0  0  0  0  0  0  0  0
   -0.0564   -0.3413    0.0674 C   0  0  1  0  0  0  0  0  0  0  0  0
    0.5250   -0.7515    0.8992 H   0  0  0  0  0  0  0  0  0  0  0  0
    0.7060   -0.5718   -1.2441 C   0  0  0  0  0  0  0  0  0  0  0  0
    0.6166   -1.6277   -1.5181 H   0  0  0  0  0  0  0  0  0  0  0  0
    0.2706    0.0181   -2.0586 H   0  0  0  0  0  0  0  0  0  0  0  0
    2.2020   -0.2407   -1.0569 C   0  0  0  0  0  0  0  0  0  0  0  0
    2.4863   -0.2542   -0.0004 H   0  0  0  0  0  0  0  0  0  0  0  0
    2.7881   -1.0236   -1.5470 H   0  0  0  0  0  0  0  0  0  0  0  0
    2.6046    1.0866   -1.6862 C   0  0  0  0  0  0  0  0  0  0  0  0
    2.7798    1.1543   -2.9261 O   0  5  0  0  0  0  0  0  0  0  0  0
    2.7243    2.0457   -0.8815 O   0  0  0  0  0  0  0  0  0  0  0  0
   -0.2306    1.1788    0.3206 C   0  0  0  0  0  0  0  0  0  0  0  0
   -1.3198    1.6897    0.0501 O   0  0  0  0  0  0  0  0  0  0  0  0
    0.5941    1.8292    1.2188 N   0  0  0  0  0  0  0  0  0  0  0  0
    1.5793    1.6358    1.0188 H   0  0  0  0  0  0  0  0  0  0  0  0
    0.3203    3.1993    1.6281 C   0  0  0  0  0  0  0  0  0  0  0  0
   -0.6519    3.2664    2.1266 H   0  0  0  0  0  0  0  0  0  0  0  0
    1.0896    3.5401    2.3270 H   0  0  0  0  0  0  0  0  0  0  0  0
    0.3212    3.8649    0.7586 H   0  0  0  0  0  0  0  0  0  0  0  0
  1  2  1  0  0  0  0
  2  3  1  0  0  0  0
  2  4  1  0  0  0  0
  2  5  1  0  0  0  0
  5  6  2  0  0  0  0
  5  7  1  0  0  0  0
  7  8  1  0  0  0  0
  7  9  1  0  0  0  0
  9 10  1  0  0  0  0
  9 11  1  0  0  0  0
  9 20  1  0  0  0  0
 11 12  1  0  0  0  0
 11 13  1  0  0  0  0
 11 14  1  0  0  0  0
 14 15  1  0  0  0  0
 14 16  1  0  0  0  0
 14 17  1  0  0  0  0
 17 18  1  0  0  0  0
 17 19  2  0  0  0  0
 20 21  2  0  0  0  0
 20 22  1  0  0  0  0
 22 23  1  0  0  0  0
 22 24  1  0  0  0  0
 24 25  1  0  0  0  0
 24 26  1  0  0  0  0
 24 27  1  0  0  0  0
M  CHG  1  18  -1
M  END
$$$$

  -OEChem-03222214043D

 27 26  0     1  0  0  0  0  0999 V2000
   -3.2536   -3.4693    1.3445 H   0  0  0  0  0  0  0  0  0  0  0  0
   -3.1494   -2.5518    0.7587 C   0  0  0  0  0  0  0  0  0  0  0  0
   -3.7456   -1.7647    1.2272 H   0  0  0  0  0  0  0  0  0  0  0  0
   -3.5274   -2.7319   -0.2507 H   0  0  0  0  0  0  0  0  0  0  0  0
   -1.6925   -2.1289    0.6962 C   0  0  0  0  0  0  0  0  0  0  0  0
   -0.8354   -2.8308    1.2118 O   0  0  0  0  0  0  0  0  0  0  0  0
   -1.3623   -0.9532    0.0606 N   0  0  0  0  0  0  0  0  0  0  0  0
   -2.1298   -0.3371   -0.2055 H   0  0  0  0  0  0  0  0  0  0  0  0
   -0.0347   -0.3208    0.0847 C   0  0  1  0  0  0  0  0  0  0  0  0
    0.5496   -0.7238    0.9181 H   0  0  0  0  0  0  0  0  0  0  0  0
    0.7181   -0.5768   -1.2314 C   0  0  0  0  0  0  0  0  0  0  0  0
    0.6149   -1.6366   -1.4848 H   0  0  0  0  0  0  0  0  0  0  0  0
    0.2765    0.0023   -2.0498 H   0  0  0  0  0  0  0  0  0  0  0  0
    2.2218   -0.2634   -1.0946 C   0  0  0  0  0  0  0  0  0  0  0  0
    2.5785   -0.5220   -0.0929 H   0  0  0  0  0  0  0  0  0  0  0  0
    2.7657   -0.9013   -1.7974 H   0  0  0  0  0  0  0  0  0  0  0  0
    2.5881    1.1789   -1.4245 C   0  0  0  0  0  0  0  0  0  0  0  0
    2.6067    1.5468   -2.6226 O   0  5  0  0  0  0  0  0  0  0  0  0
    2.8311    1.9180   -0.4358 O   0  0  0  0  0  0  0  0  0  0  0  0
   -0.2406    1.1960    0.3442 C   0  0  0  0  0  0  0  0  0  0  0  0
   -1.3339    1.6904    0.0569 O   0  0  0  0  0  0  0  0  0  0  0  0
    0.5572    1.8606    1.2560 N   0  0  0  0  0  0  0  0  0  0  0  0
    1.5529    1.7012    1.0553 H   0  0  0  0  0  0  0  0  0  0  0  0
    0.2439    3.2187    1.6774 C   0  0  0  0  0  0  0  0  0  0  0  0
   -0.7356    3.2568    2.1647 H   0  0  0  0  0  0  0  0  0  0  0  0
    0.9963    3.5699    2.3895 H   0  0  0  0  0  0  0  0  0  0  0  0
    0.2396    3.8942    0.8155 H   0  0  0  0  0  0  0  0  0  0  0  0
  1  2  1  0  0  0  0
  2  3  1  0  0  0  0
  2  4  1  0  0  0  0
  2  5  1  0  0  0  0
  5  6  2  0  0  0  0
  5  7  1  0  0  0  0
  7  8  1  0  0  0  0
  7  9  1  0  0  0  0
  9 10  1  0  0  0  0
  9 11  1  0  0  0  0
  9 20  1  0  0  0  0
 11 12  1  0  0  0  0
 11 13  1  0  0  0  0
 11 14  1  0  0  0  0
 14 15  1  0  0  0  0
 14 16  1  0  0  0  0
 14 17  1  0  0  0  0
 17 18  1  0  0  0  0
 17 19  2  0  0  0  0
 20 21  2  0  0  0  0
 20 22  1  0  0  0  0
 22 23  1  0  0  0  0
 22 24  1  0  0  0  0
 24 25  1  0  0  0  0
 24 26  1  0  0  0  0
 24 27  1  0  0  0  0
M  CHG  1  18  -1
M  END
$$$$

  -OEChem-03222214043D

 27 26  0     1  0  0  0  0  0999 V2000
   -3.2372   -3.4686    1.3352 H   0  0  0  0  0  0  0  0  0  0  0  0
   -3.1296   -2.5558    0.7430 C   0  0  0  0  0  0  0  0  0  0  0  0
   -3.7339   -1.7673    1.1985 H   0  0  0  0  0  0  0  0  0  0  0  0
   -3.4948   -2.7456   -0.2692 H   0  0  0  0  0  0  0  0  0  0  0  0
   -1.6736   -2.1284    0.6929 C   0  0  0  0  0  0  0  0  0  0  0  0
   -0.8176   -2.8315    1.2085 O   0  0  0  0  0  0  0  0  0  0  0  0
   -1.3436   -0.9459    0.0702 N   0  0  0  0  0  0  0  0  0  0  0  0
   -2.1114   -0.3311   -0.1987 H   0  0  0  0  0  0  0  0  0  0  0  0
   -0.0197   -0.3065    0.1136 C   0  0  1  0  0  0  0  0  0  0  0  0
    0.5716   -0.7078    0.9432 H   0  0  0  0  0  0  0  0  0  0  0  0
    0.7197   -0.5710   -1.2121 C   0  0  0  0  0  0  0  0  0  0  0  0
    0.5996   -1.6279   -1.4699 H   0  0  0  0  0  0  0  0  0  0  0  0
    0.2678    0.0185   -2.0172 H   0  0  0  0  0  0  0  0  0  0  0  0
    2.2311   -0.2759   -1.1324 C   0  0  0  0  0  0  0  0  0  0  0  0
    2.6506   -0.7582   -0.2441 H   0  0  0  0  0  0  0  0  0  0  0  0
    2.7140   -0.7315   -2.0018 H   0  0  0  0  0  0  0  0  0  0  0  0
    2.5972    1.2042   -1.1302 C   0  0  0  0  0  0  0  0  0  0  0  0
    2.4889    1.8556   -2.1949 O   0  5  0  0  0  0  0  0  0  0  0  0
    2.9496    1.6858   -0.0223 O   0  0  0  0  0  0  0  0  0  0  0  0
   -0.2614    1.2038    0.3842 C   0  0  0  0  0  0  0  0  0  0  0  0
   -1.3487    1.6903    0.0615 O   0  0  0  0  0  0  0  0  0  0  0  0
    0.5057    1.8806    1.3128 N   0  0  0  0  0  0  0  0  0  0  0  0
    1.5088    1.6802    1.1971 H   0  0  0  0  0  0  0  0  0  0  0  0
    0.1976    3.2516    1.6919 C   0  0  0  0  0  0  0  0  0  0  0  0
   -0.8003    3.3146    2.1374 H   0  0  0  0  0  0  0  0  0  0  0  0
    0.9258    3.6069    2.4269 H   0  0  0  0  0  0  0  0  0  0  0  0
    0.2387    3.9075    0.8162 H   0  0  0  0  0  0  0  0  0  0  0  0
  1  2  1  0  0  0  0
  2  3  1  0  0  0  0
  2  4  1  0  0  0  0
  2  5  1  0  0  0  0
  5  6  2  0  0  0  0
  5  7  1  0  0  0  0
  7  8  1  0  0  0  0
  7  9  1  0  0  0  0
  9 10  1  0  0  0  0
  9 11  1  0  0  0  0
  9 20  1  0  0  0  0
 11 12  1  0  0  0  0
 11 13  1  0  0  0  0
 11 14  1  0  0  0  0
 14 15  1  0  0  0  0
 14 16  1  0  0  0  0
 14 17  1  0  0  0  0
 17 18  1  0  0  0  0
 17 19  2  0  0  0  0
 20 21  2  0  0  0  0
 20 22  1  0  0  0  0
 22 23  1  0  0  0  0
 22 24  1  0  0  0  0
 24 25  1  0  0  0  0
 24 26  1  0  0  0  0
 24 27  1  0  0  0  0
M  CHG  1  18  -1
M  END
$$$$

  -OEChem-03222214043D

 27 26  0     1  0  0  0  0  0999 V2000
   -3.2142   -3.5087    1.2913 H   0  0  0  0  0  0  0  0  0  0  0  0
   -3.1137   -2.5753    0.7304 C   0  0  0  0  0  0  0  0  0  0  0  0
   -3.7182   -1.8055    1.2166 H   0  0  0  0  0  0  0  0  0  0  0  0
   -3.4849   -2.7317   -0.2855 H   0  0  0  0  0  0  0  0  0  0  0  0
   -1.6592   -2.1406    0.6885 C   0  0  0  0  0  0  0  0  0  0  0  0
   -0.8017   -2.8486    1.1943 O   0  0  0  0  0  0  0  0  0  0  0  0
   -1.3322   -0.9488    0.0820 N   0  0  0  0  0  0  0  0  0  0  0  0
   -2.1021   -0.3340   -0.1811 H   0  0  0  0  0  0  0  0  0  0  0  0
   -0.0130   -0.3003    0.1453 C   0  0  1  0  0  0  0  0  0  0  0  0
    0.5848   -0.7034    0.9696 H   0  0  0  0  0  0  0  0  0  0  0  0
    0.7182   -0.5553   -1.1903 C   0  0  0  0  0  0  0  0  0  0  0  0
    0.5831   -1.6049   -1.4699 H   0  0  0  0  0  0  0  0  0  0  0  0
    0.2560    0.0563   -1.9727 H   0  0  0  0  0  0  0  0  0  0  0  0
    2.2352   -0.2720   -1.1615 C   0  0  0  0  0  0  0  0  0  0  0  0
    2.7049   -0.9511   -0.4433 H   0  0  0  0  0  0  0  0  0  0  0  0
    2.6496   -0.5084   -2.1458 H   0  0  0  0  0  0  0  0  0  0  0  0
    2.6330    1.1580   -0.8140 C   0  0  0  0  0  0  0  0  0  0  0  0
    2.5203    2.0422   -1.6938 O   0  5  0  0  0  0  0  0  0  0  0  0
    2.9880    1.3682    0.3751 O   0  0  0  0  0  0  0  0  0  0  0  0
   -0.2880    1.2030    0.4304 C   0  0  0  0  0  0  0  0  0  0  0  0
   -1.3637    1.6857    0.0651 O   0  0  0  0  0  0  0  0  0  0  0  0
    0.4479    1.8921    1.3747 N   0  0  0  0  0  0  0  0  0  0  0  0
    1.4450    1.6356    1.3578 H   0  0  0  0  0  0  0  0  0  0  0  0
    0.1712    3.2873    1.6813 C   0  0  0  0  0  0  0  0  0  0  0  0
   -0.8374    3.4004    2.0911 H   0  0  0  0  0  0  0  0  0  0  0  0
    0.8874    3.6540    2.4223 H   0  0  0  0  0  0  0  0  0  0  0  0
    0.2605    3.9007    0.7785 H   0  0  0  0  0  0  0  0  0  0  0  0
  1  2  1  0  0  0  0
  2  3  1  0  0  0  0
  2  4  1  0  0  0  0
  2  5  1  0  0  0  0
  5  6  2  0  0  0  0
  5  7  1  0  0  0  0
  7  8  1  0  0  0  0
  7  9  1  0  0  0  0
  9 10  1  0  0  0  0
  9 11  1  0  0  0  0
  9 20  1  0  0  0  0
 11 12  1  0  0  0  0
 11 13  1  0  0  0  0
 11 14  1  0  0  0  0
 14 15  1  0  0  0  0
 14 16  1  0  0  0  0
 14 17  1  0  0  0  0
 17 18  1  0  0  0  0
 17 19  2  0  0  0  0
 20 21  2  0  0  0  0
 20 22  1  0  0  0  0
 22 23  1  0  0  0  0
 22 24  1  0  0  0  0
 24 25  1  0  0  0  0
 24 26  1  0  0  0  0
 24 27  1  0  0  0  0
M  CHG  1  18  -1
M  END
$$$$

  -OEChem-03222214043D

 27 26  0     1  0  0  0  0  0999 V2000
   -3.2024   -3.5404    1.2601 H   0  0  0  0  0  0  0  0  0  0  0  0
   -3.1035   -2.5963    0.7172 C   0  0  0  0  0  0  0  0  0  0  0  0
   -3.7130   -1.8377    1.2148 H   0  0  0  0  0  0  0  0  0  0  0  0
   -3.4694   -2.7352   -0.3031 H   0  0  0  0  0  0  0  0  0  0  0  0
   -1.6510   -2.1543    0.6897 C   0  0  0  0  0  0  0  0  0  0  0  0
   -0.7946   -2.8617    1.1975 O   0  0  0  0  0  0  0  0  0  0  0  0
   -1.3272   -0.9570    0.0925 N   0  0  0  0  0  0  0  0  0  0  0  0
   -2.0993   -0.3499   -0.1803 H   0  0  0  0  0  0  0  0  0  0  0  0
   -0.0151   -0.2959    0.1744 C   0  0  1  0  0  0  0  0  0  0  0  0
    0.5834   -0.6971    0.9997 H   0  0  0  0  0  0  0  0  0  0  0  0
    0.7185   -0.5428   -1.1640 C   0  0  0  0  0  0  0  0  0  0  0  0
    0.5769   -1.5875   -1.4591 H   0  0  0  0  0  0  0  0  0  0  0  0
    0.2475    0.0805   -1.9316 H   0  0  0  0  0  0  0  0  0  0  0  0
    2.2388   -0.2602   -1.1724 C   0  0  0  0  0  0  0  0  0  0  0  0
    2.7423   -1.0864   -0.6616 H   0  0  0  0  0  0  0  0  0  0  0  0
    2.5896   -0.2625   -2.2085 H   0  0  0  0  0  0  0  0  0  0  0  0
    2.6871    1.0373   -0.5088 C   0  0  0  0  0  0  0  0  0  0  0  0
    2.6993    2.0834   -1.1970 O   0  5  0  0  0  0  0  0  0  0  0  0
    2.9330    0.9905    0.7248 O   0  0  0  0  0  0  0  0  0  0  0  0
   -0.3134    1.2024    0.4622 C   0  0  0  0  0  0  0  0  0  0  0  0
   -1.3670    1.6894    0.0425 O   0  0  0  0  0  0  0  0  0  0  0  0
    0.3972    1.9010    1.4180 N   0  0  0  0  0  0  0  0  0  0  0  0
    1.3762    1.5898    1.4934 H   0  0  0  0  0  0  0  0  0  0  0  0
    0.1574    3.3134    1.6695 C   0  0  0  0  0  0  0  0  0  0  0  0
   -0.8651    3.4738    2.0256 H   0  0  0  0  0  0  0  0  0  0  0  0
    0.8503    3.6776    2.4337 H   0  0  0  0  0  0  0  0  0  0  0  0
    0.3124    3.8949    0.7548 H   0  0  0  0  0  0  0  0  0  0  0  0
  1  2  1  0  0  0  0
  2  3  1  0  0  0  0
  2  4  1  0  0  0  0
  2  5  1  0  0  0  0
  5  6  2  0  0  0  0
  5  7  1  0  0  0  0
  7  8  1  0  0  0  0
  7  9  1  0  0  0  0
  9 10  1  0  0  0  0
  9 11  1  0  0  0  0
  9 20  1  0  0  0  0
 11 12  1  0  0  0  0
 11 13  1  0  0  0  0
 11 14  1  0  0  0  0
 14 15  1  0  0  0  0
 14 16  1  0  0  0  0
 14 17  1  0  0  0  0
 17 18  1  0  0  0  0
 17 19  2  0  0  0  0
 20 21  2  0  0  0  0
 20 22  1  0  0  0  0
 22 23  1  0  0  0  0
 22 24  1  0  0  0  0
 24 25  1  0  0  0  0
 24 26  1  0  0  0  0
 24 27  1  0  0  0  0
M  CHG  1  18  -1
M  END
$$$$

  -OEChem-03222214043D

 27 26  0     1  0  0  0  0  0999 V2000
   -3.2598   -3.5181    1.2650 H   0  0  0  0  0  0  0  0  0  0  0  0
   -3.1428   -2.5881    0.7016 C   0  0  0  0  0  0  0  0  0  0  0  0
   -3.7669   -1.8172    1.1606 H   0  0  0  0  0  0  0  0  0  0  0  0
   -3.4769   -2.7523   -0.3258 H   0  0  0  0  0  0  0  0  0  0  0  0
   -1.6895   -2.1479    0.7076 C   0  0  0  0  0  0  0  0  0  0  0  0
   -0.8478   -2.8540    1.2399 O   0  0  0  0  0  0  0  0  0  0  0  0
   -1.3518   -0.9567    0.1056 N   0  0  0  0  0  0  0  0  0  0  0  0
   -2.1183   -0.3579   -0.1982 H   0  0  0  0  0  0  0  0  0  0  0  0
   -0.0425   -0.2918    0.2015 C   0  0  1  0  0  0  0  0  0  0  0  0
    0.5355   -0.6923    1.0423 H   0  0  0  0  0  0  0  0  0  0  0  0
    0.7173   -0.5576   -1.1193 C   0  0  0  0  0  0  0  0  0  0  0  0
    0.5740   -1.6044   -1.4056 H   0  0  0  0  0  0  0  0  0  0  0  0
    0.2520    0.0566   -1.8973 H   0  0  0  0  0  0  0  0  0  0  0  0
    2.2422   -0.2774   -1.1375 C   0  0  0  0  0  0  0  0  0  0  0  0
    2.7575   -1.1973   -0.8456 H   0  0  0  0  0  0  0  0  0  0  0  0
    2.5455   -0.0557   -2.1649 H   0  0  0  0  0  0  0  0  0  0  0  0
    2.7546    0.8297   -0.2175 C   0  0  0  0  0  0  0  0  0  0  0  0
    2.9857    1.9518   -0.7237 O   0  5  0  0  0  0  0  0  0  0  0  0
    2.8208    0.5808    1.0142 O   0  0  0  0  0  0  0  0  0  0  0  0
   -0.3230    1.2104    0.4682 C   0  0  0  0  0  0  0  0  0  0  0  0
   -1.3404    1.7207   -0.0074 O   0  0  0  0  0  0  0  0  0  0  0  0
    0.3853    1.9074    1.4261 N   0  0  0  0  0  0  0  0  0  0  0  0
    1.3310    1.5300    1.5836 H   0  0  0  0  0  0  0  0  0  0  0  0
    0.2165    3.3383    1.6198 C   0  0  0  0  0  0  0  0  0  0  0  0
   -0.8144    3.5705    1.9051 H   0  0  0  0  0  0  0  0  0  0  0  0
    0.8822    3.6869    2.4147 H   0  0  0  0  0  0  0  0  0  0  0  0
    0.4621    3.8775    0.6993 H   0  0  0  0  0  0  0  0  0  0  0  0
  1  2  1  0  0  0  0
  2  3  1  0  0  0  0
  2  4  1  0  0  0  0
  2  5  1  0  0  0  0
  5  6  2  0  0  0  0
  5  7  1  0  0  0  0
  7  8  1  0  0  0  0
  7  9  1  0  0  0  0
  9 10  1  0  0  0  0
  9 11  1  0  0  0  0
  9 20  1  0  0  0  0
 11 12  1  0  0  0  0
 11 13  1  0  0  0  0
 11 14  1  0  0  0  0
 14 15  1  0  0  0  0
 14 16  1  0  0  0  0
 14 17  1  0  0  0  0
 17 18  1  0  0  0  0
 17 19  2  0  0  0  0
 20 21  2  0  0  0  0
 20 22  1  0  0  0  0
 22 23  1  0  0  0  0
 22 24  1  0  0  0  0
 24 25  1  0  0  0  0
 24 26  1  0  0  0  0
 24 27  1  0  0  0  0
M  CHG  1  18  -1
M  END
$$$$

  -OEChem-03222214043D

 27 26  0     1  0  0  0  0  0999 V2000
   -3.4026   -3.4493    1.2107 H   0  0  0  0  0  0  0  0  0  0  0  0
   -3.2498   -2.5289    0.6401 C   0  0  0  0  0  0  0  0  0  0  0  0
   -3.8814   -1.7434    1.0626 H   0  0  0  0  0  0  0  0  0  0  0  0
   -3.5433   -2.7032   -0.3980 H   0  0  0  0  0  0  0  0  0  0  0  0
   -1.7918   -2.1082    0.7006 C   0  0  0  0  0  0  0  0  0  0  0  0
   -0.9879   -2.8137    1.2881 O   0  0  0  0  0  0  0  0  0  0  0  0
   -1.4096   -0.9389    0.0804 N   0  0  0  0  0  0  0  0  0  0  0  0
   -2.1532   -0.3480   -0.2868 H   0  0  0  0  0  0  0  0  0  0  0  0
   -0.0980   -0.2836    0.2137 C   0  0  1  0  0  0  0  0  0  0  0  0
    0.4063   -0.6793    1.1014 H   0  0  0  0  0  0  0  0  0  0  0  0
    0.7425   -0.6184   -1.0397 C   0  0  0  0  0  0  0  0  0  0  0  0
    0.6052   -1.6788   -1.2748 H   0  0  0  0  0  0  0  0  0  0  0  0
    0.3238   -0.0486   -1.8757 H   0  0  0  0  0  0  0  0  0  0  0  0
    2.2745   -0.3515   -1.0023 C   0  0  0  0  0  0  0  0  0  0  0  0
    2.7802   -1.3163   -0.9052 H   0  0  0  0  0  0  0  0  0  0  0  0
    2.5729    0.0637   -1.9698 H   0  0  0  0  0  0  0  0  0  0  0  0
    2.8311    0.5440    0.1107 C   0  0  0  0  0  0  0  0  0  0  0  0
    3.3308    1.6392   -0.2363 O   0  5  0  0  0  0  0  0  0  0  0  0
    2.6705    0.1946    1.3074 O   0  0  0  0  0  0  0  0  0  0  0  0
   -0.3121    1.2330    0.4242 C   0  0  0  0  0  0  0  0  0  0  0  0
   -1.2627    1.7871   -0.1310 O   0  0  0  0  0  0  0  0  0  0  0  0
    0.3991    1.9152    1.3901 N   0  0  0  0  0  0  0  0  0  0  0  0
    1.2854    1.4579    1.6491 H   0  0  0  0  0  0  0  0  0  0  0  0
    0.3384    3.3614    1.5218 C   0  0  0  0  0  0  0  0  0  0  0  0
   -0.6803    3.6847    1.7577 H   0  0  0  0  0  0  0  0  0  0  0  0
    1.0011    3.6897    2.3279 H   0  0  0  0  0  0  0  0  0  0  0  0
    0.6588    3.8416    0.5915 H   0  0  0  0  0  0  0  0  0  0  0  0
  1  2  1  0  0  0  0
  2  3  1  0  0  0  0
  2  4  1  0  0  0  0
  2  5  1  0  0  0  0
  5  6  2  0  0  0  0
  5  7  1  0  0  0  0
  7  8  1  0  0  0  0
  7  9  1  0  0  0  0
  9 10  1  0  0  0  0
  9 11  1  0  0  0  0
  9 20  1  0  0  0  0
 11 12  1  0  0  0  0
 11 13  1  0  0  0  0
 11 14  1  0  0  0  0
 14 15  1  0  0  0  0
 14 16  1  0  0  0  0
 14 17  1  0  0  0  0
 17 18  1  0  0  0  0
 17 19  2  0  0  0  0
 20 21  2  0  0  0  0
 20 22  1  0  0  0  0
 22 23  1  0  0  0  0
 22 24  1  0  0  0  0
 24 25  1  0  0  0  0
 24 26  1  0  0  0  0
 24 27  1  0  0  0  0
M  CHG  1  18  -1
M  END
$$$$

  -OEChem-03222214043D

 27 26  0     1  0  0  0  0  0999 V2000
   -3.3823   -3.4321    1.1712 H   0  0  0  0  0  0  0  0  0  0  0  0
   -3.2212   -2.4939    0.6331 C   0  0  0  0  0  0  0  0  0  0  0  0
   -3.8287   -1.7129    1.0972 H   0  0  0  0  0  0  0  0  0  0  0  0
   -3.5376   -2.6230   -0.4048 H   0  0  0  0  0  0  0  0  0  0  0  0
   -1.7540   -2.1047    0.6808 C   0  0  0  0  0  0  0  0  0  0  0  0
   -0.9588   -2.8330    1.2505 O   0  0  0  0  0  0  0  0  0  0  0  0
   -1.3580   -0.9358    0.0698 N   0  0  0  0  0  0  0  0  0  0  0  0
   -2.0987   -0.3215   -0.2639 H   0  0  0  0  0  0  0  0  0  0  0  0
   -0.0354   -0.3002    0.1933 C   0  0  1  0  0  0  0  0  0  0  0  0
    0.4875   -0.7080    1.0660 H   0  0  0  0  0  0  0  0  0  0  0  0
    0.7714   -0.5950   -1.0924 C   0  0  0  0  0  0  0  0  0  0  0  0
    0.6304   -1.6528   -1.3374 H   0  0  0  0  0  0  0  0  0  0  0  0
    0.3401   -0.0152   -1.9148 H   0  0  0  0  0  0  0  0  0  0  0  0
    2.3031   -0.3405   -1.0562 C   0  0  0  0  0  0  0  0  0  0  0  0
    2.8167   -1.2755   -1.2993 H   0  0  0  0  0  0  0  0  0  0  0  0
    2.5544    0.3732   -1.8464 H   0  0  0  0  0  0  0  0  0  0  0  0
    2.8787    0.1821    0.2609 C   0  0  0  0  0  0  0  0  0  0  0  0
    3.0527   -0.6368    1.1913 O   0  5  0  0  0  0  0  0  0  0  0  0
    3.0240    1.4223    0.3812 O   0  0  0  0  0  0  0  0  0  0  0  0
   -0.2636    1.2160    0.4202 C   0  0  0  0  0  0  0  0  0  0  0  0
   -1.2629    1.7427   -0.0762 O   0  0  0  0  0  0  0  0  0  0  0  0
    0.4419    1.9117    1.3818 N   0  0  0  0  0  0  0  0  0  0  0  0
    1.4169    1.5950    1.4744 H   0  0  0  0  0  0  0  0  0  0  0  0
    0.2041    3.3221    1.6437 C   0  0  0  0  0  0  0  0  0  0  0  0
   -0.8290    3.4847    1.9667 H   0  0  0  0  0  0  0  0  0  0  0  0
    0.8723    3.6703    2.4368 H   0  0  0  0  0  0  0  0  0  0  0  0
    0.3937    3.9148    0.7432 H   0  0  0  0  0  0  0  0  0  0  0  0
  1  2  1  0  0  0  0
  2  3  1  0  0  0  0
  2  4  1  0  0  0  0
  2  5  1  0  0  0  0
  5  6  2  0  0  0  0
  5  7  1  0  0  0  0
  7  8  1  0  0  0  0
  7  9  1  0  0  0  0
  9 10  1  0  0  0  0
  9 11  1  0  0  0  0
  9 20  1  0  0  0  0
 11 12  1  0  0  0  0
 11 13  1  0  0  0  0
 11 14  1  0  0  0  0
 14 15  1  0  0  0  0
 14 16  1  0  0  0  0
 14 17  1  0  0  0  0
 17 18  1  0  0  0  0
 17 19  2  0  0  0  0
 20 21  2  0  0  0  0
 20 22  1  0  0  0  0
 22 23  1  0  0  0  0
 22 24  1  0  0  0  0
 24 25  1  0  0  0  0
 24 26  1  0  0  0  0
 24 27  1  0  0  0  0
M  CHG  1  18  -1
M  END
$$$$

  -OEChem-03222214043D

 27 26  0     1  0  0  0  0  0999 V2000
   -3.2698   -3.5631    1.1465 H   0  0  0  0  0  0  0  0  0  0  0  0
   -3.1377   -2.6216    0.6061 C   0  0  0  0  0  0  0  0  0  0  0  0
   -3.7863   -1.8645    1.0537 H   0  0  0  0  0  0  0  0  0  0  0  0
   -3.4281   -2.7696   -0.4368 H   0  0  0  0  0  0  0  0  0  0  0  0
   -1.6894   -2.1707    0.6813 C   0  0  0  0  0  0  0  0  0  0  0  0
   -0.8784   -2.8585    1.2775 O   0  0  0  0  0  0  0  0  0  0  0  0
   -1.3308   -0.9829    0.0834 N   0  0  0  0  0  0  0  0  0  0  0  0
   -2.0867   -0.4016   -0.2738 H   0  0  0  0  0  0  0  0  0  0  0  0
   -0.0286   -0.3072    0.2111 C   0  0  1  0  0  0  0  0  0  0  0  0
    0.5211   -0.7127    1.0683 H   0  0  0  0  0  0  0  0  0  0  0  0
    0.7675   -0.5283   -1.0946 C   0  0  0  0  0  0  0  0  0  0  0  0
    0.6707   -1.5887   -1.3503 H   0  0  0  0  0  0  0  0  0  0  0  0
    0.3021    0.0411   -1.9056 H   0  0  0  0  0  0  0  0  0  0  0  0
    2.2885   -0.2228   -1.0684 C   0  0  0  0  0  0  0  0  0  0  0  0
    2.8170   -1.0013   -1.6266 H   0  0  0  0  0  0  0  0  0  0  0  0
    2.4524    0.7175   -1.6036 H   0  0  0  0  0  0  0  0  0  0  0  0
    2.9365   -0.0788    0.3111 C   0  0  0  0  0  0  0  0  0  0  0  0
    2.9327    1.0572    0.8477 O   0  5  0  0  0  0  0  0  0  0  0  0
    3.3745   -1.1162    0.8574 O   0  0  0  0  0  0  0  0  0  0  0  0
   -0.3064    1.1971    0.4563 C   0  0  0  0  0  0  0  0  0  0  0  0
   -1.2982    1.7114   -0.0661 O   0  0  0  0  0  0  0  0  0  0  0  0
    0.3747    1.9078    1.4229 N   0  0  0  0  0  0  0  0  0  0  0  0
    1.3382    1.5724    1.5696 H   0  0  0  0  0  0  0  0  0  0  0  0
    0.1360    3.3222    1.6622 C   0  0  0  0  0  0  0  0  0  0  0  0
   -0.9053    3.4932    1.9526 H   0  0  0  0  0  0  0  0  0  0  0  0
    0.7819    3.6764    2.4709 H   0  0  0  0  0  0  0  0  0  0  0  0
    0.3545    3.9042    0.7613 H   0  0  0  0  0  0  0  0  0  0  0  0
  1  2  1  0  0  0  0
  2  3  1  0  0  0  0
  2  4  1  0  0  0  0
  2  5  1  0  0  0  0
  5  6  2  0  0  0  0
  5  7  1  0  0  0  0
  7  8  1  0  0  0  0
  7  9  1  0  0  0  0
  9 10  1  0  0  0  0
  9 11  1  0  0  0  0
  9 20  1  0  0  0  0
 11 12  1  0  0  0  0
 11 13  1  0  0  0  0
 11 14  1  0  0  0  0
 14 15  1  0  0  0  0
 14 16  1  0  0  0  0
 14 17  1  0  0  0  0
 17 18  1  0  0  0  0
 17 19  2  0  0  0  0
 20 21  2  0  0  0  0
 20 22  1  0  0  0  0
 22 23  1  0  0  0  0
 22 24  1  0  0  0  0
 24 25  1  0  0  0  0
 24 26  1  0  0  0  0
 24 27  1  0  0  0  0
M  CHG  1  18  -1
M  END
$$$$

  -OEChem-03222214043D

 27 26  0     1  0  0  0  0  0999 V2000
   -3.2789   -3.5955    1.1363 H   0  0  0  0  0  0  0  0  0  0  0  0
   -3.1497   -2.6630    0.5796 C   0  0  0  0  0  0  0  0  0  0  0  0
   -3.8355   -1.9138    0.9830 H   0  0  0  0  0  0  0  0  0  0  0  0
   -3.3936   -2.8423   -0.4704 H   0  0  0  0  0  0  0  0  0  0  0  0
   -1.7175   -2.1724    0.7011 C   0  0  0  0  0  0  0  0  0  0  0  0
   -0.9116   -2.8294    1.3377 O   0  0  0  0  0  0  0  0  0  0  0  0
   -1.3660   -0.9865    0.0946 N   0  0  0  0  0  0  0  0  0  0  0  0
   -2.1183   -0.4348   -0.3118 H   0  0  0  0  0  0  0  0  0  0  0  0
   -0.0691   -0.3007    0.2156 C   0  0  1  0  0  0  0  0  0  0  0  0
    0.4732   -0.7014    1.0789 H   0  0  0  0  0  0  0  0  0  0  0  0
    0.7386   -0.5334   -1.0790 C   0  0  0  0  0  0  0  0  0  0  0  0
    0.6587   -1.5992   -1.3169 H   0  0  0  0  0  0  0  0  0  0  0  0
    0.2773    0.0183   -1.9044 H   0  0  0  0  0  0  0  0  0  0  0  0
    2.2529   -0.2084   -1.0343 C   0  0  0  0  0  0  0  0  0  0  0  0
    2.7647   -0.8138   -1.7884 H   0  0  0  0  0  0  0  0  0  0  0  0
    2.3781    0.8382   -1.3267 H   0  0  0  0  0  0  0  0  0  0  0  0
    2.9618   -0.3815    0.3136 C   0  0  0  0  0  0  0  0  0  0  0  0
    2.7765    0.5009    1.1916 O   0  5  0  0  0  0  0  0  0  0  0  0
    3.7007   -1.3827    0.4580 O   0  0  0  0  0  0  0  0  0  0  0  0
   -0.3112    1.2072    0.4509 C   0  0  0  0  0  0  0  0  0  0  0  0
   -1.2679    1.7569   -0.0978 O   0  0  0  0  0  0  0  0  0  0  0  0
    0.3982    1.8967    1.4111 N   0  0  0  0  0  0  0  0  0  0  0  0
    1.3078    1.4676    1.6399 H   0  0  0  0  0  0  0  0  0  0  0  0
    0.2511    3.3257    1.6317 C   0  0  0  0  0  0  0  0  0  0  0  0
   -0.7828    3.5693    1.8959 H   0  0  0  0  0  0  0  0  0  0  0  0
    0.9005    3.6443    2.4524 H   0  0  0  0  0  0  0  0  0  0  0  0
    0.5288    3.8812    0.7305 H   0  0  0  0  0  0  0  0  0  0  0  0
  1  2  1  0  0  0  0
  2  3  1  0  0  0  0
  2  4  1  0  0  0  0
  2  5  1  0  0  0  0
  5  6  2  0  0  0  0
  5  7  1  0  0  0  0
  7  8  1  0  0  0  0
  7  9  1  0  0  0  0
  9 10  1  0  0  0  0
  9 11  1  0  0  0  0
  9 20  1  0  0  0  0
 11 12  1  0  0  0  0
 11 13  1  0  0  0  0
 11 14  1  0  0  0  0
 14 15  1  0  0  0  0
 14 16  1  0  0  0  0
 14 17  1  0  0  0  0
 17 18  1  0  0  0  0
 17 19  2  0  0  0  0
 20 21  2  0  0  0  0
 20 22  1  0  0  0  0
 22 23  1  0  0  0  0
 22 24  1  0  0  0  0
 24 25  1  0  0  0  0
 24 26  1  0  0  0  0
 24 27  1  0  0  0  0
M  CHG  1  18  -1
M  END
$$$$

  -OEChem-03222214043D

 27 26  0     1  0  0  0  0  0999 V2000
   -3.2500   -3.6574    1.1384 H   0  0  0  0  0  0  0  0  0  0  0  0
   -3.1480   -2.7254    0.5756 C   0  0  0  0  0  0  0  0  0  0  0  0
   -3.8540   -1.9932    0.9752 H   0  0  0  0  0  0  0  0  0  0  0  0
   -3.3877   -2.9183   -0.4730 H   0  0  0  0  0  0  0  0  0  0  0  0
   -1.7300   -2.1943    0.6922 C   0  0  0  0  0  0  0  0  0  0  0  0
   -0.9052   -2.8278    1.3275 O   0  0  0  0  0  0  0  0  0  0  0  0
   -1.4160   -0.9980    0.0842 N   0  0  0  0  0  0  0  0  0  0  0  0
   -2.1842   -0.4778   -0.3322 H   0  0  0  0  0  0  0  0  0  0  0  0
   -0.1313   -0.2844    0.1682 C   0  0  1  0  0  0  0  0  0  0  0  0
    0.4040   -0.6836    1.0356 H   0  0  0  0  0  0  0  0  0  0  0  0
    0.7015   -0.5472   -1.1018 C   0  0  0  0  0  0  0  0  0  0  0  0
    0.6614   -1.6209   -1.3130 H   0  0  0  0  0  0  0  0  0  0  0  0
    0.2496   -0.0269   -1.9521 H   0  0  0  0  0  0  0  0  0  0  0  0
    2.1941   -0.1561   -0.9954 C   0  0  0  0  0  0  0  0  0  0  0  0
    2.7271   -0.5785   -1.8523 H   0  0  0  0  0  0  0  0  0  0  0  0
    2.2725    0.9322   -1.0755 H   0  0  0  0  0  0  0  0  0  0  0  0
    2.9104   -0.5812    0.2880 C   0  0  0  0  0  0  0  0  0  0  0  0
    2.7487    0.1591    1.2956 O   0  5  0  0  0  0  0  0  0  0  0  0
    3.6341   -1.6036    0.2581 O   0  0  0  0  0  0  0  0  0  0  0  0
   -0.3100    1.2234    0.4178 C   0  0  0  0  0  0  0  0  0  0  0  0
   -1.2508    1.8235   -0.1014 O   0  0  0  0  0  0  0  0  0  0  0  0
    0.4768    1.8560    1.3578 N   0  0  0  0  0  0  0  0  0  0  0  0
    1.3418    1.3476    1.6001 H   0  0  0  0  0  0  0  0  0  0  0  0
    0.4270    3.2867    1.6066 C   0  0  0  0  0  0  0  0  0  0  0  0
   -0.5822    3.5900    1.9026 H   0  0  0  0  0  0  0  0  0  0  0  0
    1.1166    3.5481    2.4147 H   0  0  0  0  0  0  0  0  0  0  0  0
    0.7159    3.8405    0.7078 H   0  0  0  0  0  0  0  0  0  0  0  0
  1  2  1  0  0  0  0
  2  3  1  0  0  0  0
  2  4  1  0  0  0  0
  2  5  1  0  0  0  0
  5  6  2  0  0  0  0
  5  7  1  0  0  0  0
  7  8  1  0  0  0  0
  7  9  1  0  0  0  0
  9 10  1  0  0  0  0
  9 11  1  0  0  0  0
  9 20  1  0  0  0  0
 11 12  1  0  0  0  0
 11 13  1  0  0  0  0
 11 14  1  0  0  0  0
 14 15  1  0  0  0  0
 14 16  1  0  0  0  0
 14 17  1  0  0  0  0
 17 18  1  0  0  0  0
 17 19  2  0  0  0  0
 20 21  2  0  0  0  0
 20 22  1  0  0  0  0
 22 23  1  0  0  0  0
 22 24  1  0  0  0  0
 24 25  1  0  0  0  0
 24 26  1  0  0  0  0
 24 27  1  0  0  0  0
M  CHG  1  18  -1
M  END
$$$$

  -OEChem-03222214043D

 27 26  0     1  0  0  0  0  0999 V2000
   -3.2705   -3.6268    1.2474 H   0  0  0  0  0  0  0  0  0  0  0  0
   -3.1841   -2.7078    0.6608 C   0  0  0  0  0  0  0  0  0  0  0  0
   -3.8827   -1.9683    1.0599 H   0  0  0  0  0  0  0  0  0  0  0  0
   -3.4478   -2.9258   -0.3769 H   0  0  0  0  0  0  0  0  0  0  0  0
   -1.7653   -2.1706    0.7310 C   0  0  0  0  0  0  0  0  0  0  0  0
   -0.9215   -2.7945    1.3499 O   0  0  0  0  0  0  0  0  0  0  0  0
   -1.4751   -0.9783    0.1024 N   0  0  0  0  0  0  0  0  0  0  0  0
   -2.2563   -0.4769   -0.3114 H   0  0  0  0  0  0  0  0  0  0  0  0
   -0.1880   -0.2637    0.1182 C   0  0  1  0  0  0  0  0  0  0  0  0
    0.3504   -0.6511    0.9891 H   0  0  0  0  0  0  0  0  0  0  0  0
    0.6490   -0.6061   -1.1285 C   0  0  0  0  0  0  0  0  0  0  0  0
    0.6219   -1.6891   -1.2898 H   0  0  0  0  0  0  0  0  0  0  0  0
    0.2065   -0.1264   -2.0069 H   0  0  0  0  0  0  0  0  0  0  0  0
    2.1248   -0.1741   -0.9940 C   0  0  0  0  0  0  0  0  0  0  0  0
    2.6442   -0.4429   -1.9185 H   0  0  0  0  0  0  0  0  0  0  0  0
    2.1837    0.9146   -0.9073 H   0  0  0  0  0  0  0  0  0  0  0  0
    2.8783   -0.8053    0.1722 C   0  0  0  0  0  0  0  0  0  0  0  0
    3.5668   -1.8346   -0.0213 O   0  5  0  0  0  0  0  0  0  0  0  0
    2.7765   -0.1916    1.2696 O   0  0  0  0  0  0  0  0  0  0  0  0
   -0.2889    1.2479    0.3611 C   0  0  0  0  0  0  0  0  0  0  0  0
   -1.2175    1.8972   -0.1164 O   0  0  0  0  0  0  0  0  0  0  0  0
    0.5889    1.8273    1.2557 N   0  0  0  0  0  0  0  0  0  0  0  0
    1.4107    1.2519    1.4959 H   0  0  0  0  0  0  0  0  0  0  0  0
    0.6331    3.2541    1.5256 C   0  0  0  0  0  0  0  0  0  0  0  0
   -0.3358    3.6042    1.8954 H   0  0  0  0  0  0  0  0  0  0  0  0
    1.3903    3.4662    2.2864 H   0  0  0  0  0  0  0  0  0  0  0  0
    0.8879    3.8068    0.6159 H   0  0  0  0  0  0  0  0  0  0  0  0
  1  2  1  0  0  0  0
  2  3  1  0  0  0  0
  2  4  1  0  0  0  0
  2  5  1  0  0  0  0
  5  6  2  0  0  0  0
  5  7  1  0  0  0  0
  7  8  1  0  0  0  0
  7  9  1  0  0  0  0
  9 10  1  0  0  0  0
  9 11  1  0  0  0  0
  9 20  1  0  0  0  0
 11 12  1  0  0  0  0
 11 13  1  0  0  0  0
 11 14  1  0  0  0  0
 14 15  1  0  0  0  0
 14 16  1  0  0  0  0
 14 17  1  0  0  0  0
 17 18  1  0  0  0  0
 17 19  2  0  0  0  0
 20 21  2  0  0  0  0
 20 22  1  0  0  0  0
 22 23  1  0  0  0  0
 22 24  1  0  0  0  0
 24 25  1  0  0  0  0
 24 26  1  0  0  0  0
 24 27  1  0  0  0  0
M  CHG  1  18  -1
M  END
$$$$

  -OEChem-03222214043D

 27 26  0     1  0  0  0  0  0999 V2000
   -3.2164   -3.6853    1.1290 H   0  0  0  0  0  0  0  0  0  0  0  0
   -3.1094   -2.7852    0.5170 C   0  0  0  0  0  0  0  0  0  0  0  0
   -3.8718   -2.0624    0.8176 H   0  0  0  0  0  0  0  0  0  0  0  0
   -3.2625   -3.0514   -0.5317 H   0  0  0  0  0  0  0  0  0  0  0  0
   -1.7258   -2.1867    0.7005 C   0  0  0  0  0  0  0  0  0  0  0  0
   -0.9148   -2.7627    1.4037 O   0  0  0  0  0  0  0  0  0  0  0  0
   -1.4363   -0.9826    0.0951 N   0  0  0  0  0  0  0  0  0  0  0  0
   -2.1939   -0.5216   -0.4011 H   0  0  0  0  0  0  0  0  0  0  0  0
   -0.1559   -0.2585    0.1449 C   0  0  1  0  0  0  0  0  0  0  0  0
    0.4093   -0.6568    0.9955 H   0  0  0  0  0  0  0  0  0  0  0  0
    0.6610   -0.5507   -1.1268 C   0  0  0  0  0  0  0  0  0  0  0  0
    0.6272   -1.6224   -1.3511 H   0  0  0  0  0  0  0  0  0  0  0  0
    0.2110   -0.0194   -1.9712 H   0  0  0  0  0  0  0  0  0  0  0  0
    2.1330   -0.1219   -0.9788 C   0  0  0  0  0  0  0  0  0  0  0  0
    2.5882   -0.1224   -1.9735 H   0  0  0  0  0  0  0  0  0  0  0  0
    2.2061    0.9020   -0.6038 H   0  0  0  0  0  0  0  0  0  0  0  0
    2.9518   -1.0553   -0.0973 C   0  0  0  0  0  0  0  0  0  0  0  0
    3.0039   -0.7325    1.1181 O   0  5  0  0  0  0  0  0  0  0  0  0
    3.5331   -2.0396   -0.6136 O   0  0  0  0  0  0  0  0  0  0  0  0
   -0.3058    1.2462    0.4119 C   0  0  0  0  0  0  0  0  0  0  0  0
   -1.2290    1.8843   -0.0893 O   0  0  0  0  0  0  0  0  0  0  0  0
    0.5329    1.8411    1.3346 N   0  0  0  0  0  0  0  0  0  0  0  0
    1.3433    1.2829    1.6180 H   0  0  0  0  0  0  0  0  0  0  0  0
    0.5276    3.2666    1.6203 C   0  0  0  0  0  0  0  0  0  0  0  0
   -0.4605    3.5843    1.9681 H   0  0  0  0  0  0  0  0  0  0  0  0
    1.2579    3.4940    2.4026 H   0  0  0  0  0  0  0  0  0  0  0  0
    0.7888    3.8364    0.7230 H   0  0  0  0  0  0  0  0  0  0  0  0
  1  2  1  0  0  0  0
  2  3  1  0  0  0  0
  2  4  1  0  0  0  0
  2  5  1  0  0  0  0
  5  6  2  0  0  0  0
  5  7  1  0  0  0  0
  7  8  1  0  0  0  0
  7  9  1  0  0  0  0
  9 10  1  0  0  0  0
  9 11  1  0  0  0  0
  9 20  1  0  0  0  0
 11 12  1  0  0  0  0
 11 13  1  0  0  0  0
 11 14  1  0  0  0  0
 14 15  1  0  0  0  0
 14 16  1  0  0  0  0
 14 17  1  0  0  0  0
 17 18  1  0  0  0  0
 17 19  2  0  0  0  0
 20 21  2  0  0  0  0
 20 22  1  0  0  0  0
 22 23  1  0  0  0  0
 22 24  1  0  0  0  0
 24 25  1  0  0  0  0
 24 26  1  0  0  0  0
 24 27  1  0  0  0  0
M  CHG  1  18  -1
M  END
$$$$

  -OEChem-03222214043D

 27 26  0     1  0  0  0  0  0999 V2000
   -3.2242   -3.6613    1.0980 H   0  0  0  0  0  0  0  0  0  0  0  0
   -3.0889   -2.7718    0.4763 C   0  0  0  0  0  0  0  0  0  0  0  0
   -3.8823   -2.0566    0.7067 H   0  0  0  0  0  0  0  0  0  0  0  0
   -3.1629   -3.0621   -0.5747 H   0  0  0  0  0  0  0  0  0  0  0  0
   -1.7317   -2.1454    0.7439 C   0  0  0  0  0  0  0  0  0  0  0  0
   -0.9762   -2.6691    1.5443 O   0  0  0  0  0  0  0  0  0  0  0  0
   -1.4110   -0.9576    0.1231 N   0  0  0  0  0  0  0  0  0  0  0  0
   -2.1244   -0.5320   -0.4621 H   0  0  0  0  0  0  0  0  0  0  0  0
   -0.1155   -0.2631    0.1865 C   0  0  1  0  0  0  0  0  0  0  0  0
    0.4662   -0.6684    1.0236 H   0  0  0  0  0  0  0  0  0  0  0  0
    0.6644   -0.5427   -1.1105 C   0  0  0  0  0  0  0  0  0  0  0  0
    0.5845   -1.6026   -1.3766 H   0  0  0  0  0  0  0  0  0  0  0  0
    0.2147    0.0340   -1.9251 H   0  0  0  0  0  0  0  0  0  0  0  0
    2.1526   -0.1647   -0.9824 C   0  0  0  0  0  0  0  0  0  0  0  0
    2.5246    0.1069   -1.9747 H   0  0  0  0  0  0  0  0  0  0  0  0
    2.2888    0.7130   -0.3463 H   0  0  0  0  0  0  0  0  0  0  0  0
    3.0115   -1.3159   -0.4717 C   0  0  0  0  0  0  0  0  0  0  0  0
    3.2996   -1.2875    0.7509 O   0  5  0  0  0  0  0  0  0  0  0  0
    3.3814   -2.1998   -1.2827 O   0  0  0  0  0  0  0  0  0  0  0  0
   -0.2828    1.2474    0.4308 C   0  0  0  0  0  0  0  0  0  0  0  0
   -1.1918    1.8724   -0.1110 O   0  0  0  0  0  0  0  0  0  0  0  0
    0.5202    1.8782    1.3618 N   0  0  0  0  0  0  0  0  0  0  0  0
    1.3164    1.3411    1.7044 H   0  0  0  0  0  0  0  0  0  0  0  0
    0.4652    3.3059    1.6341 C   0  0  0  0  0  0  0  0  0  0  0  0
   -0.5408    3.5971    1.9527 H   0  0  0  0  0  0  0  0  0  0  0  0
    1.1671    3.5617    2.4334 H   0  0  0  0  0  0  0  0  0  0  0  0
    0.7332    3.8760    0.7390 H   0  0  0  0  0  0  0  0  0  0  0  0
  1  2  1  0  0  0  0
  2  3  1  0  0  0  0
  2  4  1  0  0  0  0
  2  5  1  0  0  0  0
  5  6  2  0  0  0  0
  5  7  1  0  0  0  0
  7  8  1  0  0  0  0
  7  9  1  0  0  0  0
  9 10  1  0  0  0  0
  9 11  1  0  0  0  0
  9 20  1  0  0  0  0
 11 12  1  0  0  0  0
 11 13  1  0  0  0  0
 11 14  1  0  0  0  0
 14 15  1  0  0  0  0
 14 16  1  0  0  0  0
 14 17  1  0  0  0  0
 17 18  1  0  0  0  0
 17 19  2  0  0  0  0
 20 21  2  0  0  0  0
 20 22  1  0  0  0  0
 22 23  1  0  0  0  0
 22 24  1  0  0  0  0
 24 25  1  0  0  0  0
 24 26  1  0  0  0  0
 24 27  1  0  0  0  0
M  CHG  1  18  -1
M  END
$$$$

  -OEChem-03222214043D

 27 26  0     1  0  0  0  0  0999 V2000
   -3.2516   -3.6327    1.0948 H   0  0  0  0  0  0  0  0  0  0  0  0
   -3.1014   -2.7541    0.4611 C   0  0  0  0  0  0  0  0  0  0  0  0
   -3.8971   -2.0330    0.6635 H   0  0  0  0  0  0  0  0  0  0  0  0
   -3.1551   -3.0616   -0.5862 H   0  0  0  0  0  0  0  0  0  0  0  0
   -1.7481   -2.1267    0.7451 C   0  0  0  0  0  0  0  0  0  0  0  0
   -1.0091   -2.6357    1.5713 O   0  0  0  0  0  0  0  0  0  0  0  0
   -1.4126   -0.9448    0.1208 N   0  0  0  0  0  0  0  0  0  0  0  0
   -2.1057   -0.5280   -0.4947 H   0  0  0  0  0  0  0  0  0  0  0  0
   -0.1080   -0.2704    0.1962 C   0  0  1  0  0  0  0  0  0  0  0  0
    0.4681   -0.6847    1.0316 H   0  0  0  0  0  0  0  0  0  0  0  0
    0.6680   -0.5397   -1.1046 C   0  0  0  0  0  0  0  0  0  0  0  0
    0.5651   -1.5943   -1.3841 H   0  0  0  0  0  0  0  0  0  0  0  0
    0.2286    0.0529   -1.9135 H   0  0  0  0  0  0  0  0  0  0  0  0
    2.1650   -0.1879   -0.9708 C   0  0  0  0  0  0  0  0  0  0  0  0
    2.4771    0.3546   -1.8679 H   0  0  0  0  0  0  0  0  0  0  0  0
    2.3394    0.4793   -0.1230 H   0  0  0  0  0  0  0  0  0  0  0  0
    3.0610   -1.4185   -0.8426 C   0  0  0  0  0  0  0  0  0  0  0  0
    3.6595   -1.5683    0.2511 O   0  5  0  0  0  0  0  0  0  0  0  0
    3.1532   -2.1934   -1.8265 O   0  0  0  0  0  0  0  0  0  0  0  0
   -0.2717    1.2431    0.4361 C   0  0  0  0  0  0  0  0  0  0  0  0
   -1.1738    1.8691   -0.1155 O   0  0  0  0  0  0  0  0  0  0  0  0
    0.5191    1.8798    1.3742 N   0  0  0  0  0  0  0  0  0  0  0  0
    1.3085    1.3479    1.7348 H   0  0  0  0  0  0  0  0  0  0  0  0
    0.4566    3.3091    1.6387 C   0  0  0  0  0  0  0  0  0  0  0  0
   -0.5538    3.5981    1.9456 H   0  0  0  0  0  0  0  0  0  0  0  0
    1.1495    3.5718    2.4436 H   0  0  0  0  0  0  0  0  0  0  0  0
    0.7321    3.8757    0.7433 H   0  0  0  0  0  0  0  0  0  0  0  0
  1  2  1  0  0  0  0
  2  3  1  0  0  0  0
  2  4  1  0  0  0  0
  2  5  1  0  0  0  0
  5  6  2  0  0  0  0
  5  7  1  0  0  0  0
  7  8  1  0  0  0  0
  7  9  1  0  0  0  0
  9 10  1  0  0  0  0
  9 11  1  0  0  0  0
  9 20  1  0  0  0  0
 11 12  1  0  0  0  0
 11 13  1  0  0  0  0
 11 14  1  0  0  0  0
 14 15  1  0  0  0  0
 14 16  1  0  0  0  0
 14 17  1  0  0  0  0
 17 18  1  0  0  0  0
 17 19  2  0  0  0  0
 20 21  2  0  0  0  0
 20 22  1  0  0  0  0
 22 23  1  0  0  0  0
 22 24  1  0  0  0  0
 24 25  1  0  0  0  0
 24 26  1  0  0  0  0
 24 27  1  0  0  0  0
M  CHG  1  18  -1
M  END
$$$$

  -OEChem-03222214043D

 27 26  0     1  0  0  0  0  0999 V2000
   -3.2789   -3.6179    1.0768 H   0  0  0  0  0  0  0  0  0  0  0  0
   -3.1259   -2.7345    0.4505 C   0  0  0  0  0  0  0  0  0  0  0  0
   -3.9197   -2.0128    0.6585 H   0  0  0  0  0  0  0  0  0  0  0  0
   -3.1804   -3.0332   -0.5993 H   0  0  0  0  0  0  0  0  0  0  0  0
   -1.7705   -2.1140    0.7397 C   0  0  0  0  0  0  0  0  0  0  0  0
   -1.0330   -2.6293    1.5644 O   0  0  0  0  0  0  0  0  0  0  0  0
   -1.4240   -0.9354    0.1152 N   0  0  0  0  0  0  0  0  0  0  0  0
   -2.1089   -0.5152   -0.5073 H   0  0  0  0  0  0  0  0  0  0  0  0
   -0.1129   -0.2751    0.1953 C   0  0  1  0  0  0  0  0  0  0  0  0
    0.4535   -0.6966    1.0328 H   0  0  0  0  0  0  0  0  0  0  0  0
    0.6663   -0.5411   -1.1035 C   0  0  0  0  0  0  0  0  0  0  0  0
    0.5553   -1.5982   -1.3695 H   0  0  0  0  0  0  0  0  0  0  0  0
    0.2362    0.0438   -1.9232 H   0  0  0  0  0  0  0  0  0  0  0  0
    2.1679   -0.2036   -0.9593 C   0  0  0  0  0  0  0  0  0  0  0  0
    2.4278    0.5784   -1.6783 H   0  0  0  0  0  0  0  0  0  0  0  0
    2.3769    0.1976    0.0363 H   0  0  0  0  0  0  0  0  0  0  0  0
    3.0872   -1.4024   -1.2036 C   0  0  0  0  0  0  0  0  0  0  0  0
    3.9114   -1.6810   -0.2981 O   0  5  0  0  0  0  0  0  0  0  0  0
    2.9781   -2.0223   -2.2908 O   0  0  0  0  0  0  0  0  0  0  0  0
   -0.2609    1.2403    0.4348 C   0  0  0  0  0  0  0  0  0  0  0  0
   -1.1629    1.8722   -0.1100 O   0  0  0  0  0  0  0  0  0  0  0  0
    0.5322    1.8716    1.3747 N   0  0  0  0  0  0  0  0  0  0  0  0
    1.3250    1.3405    1.7267 H   0  0  0  0  0  0  0  0  0  0  0  0
    0.4747    3.3019    1.6373 C   0  0  0  0  0  0  0  0  0  0  0  0
   -0.5306    3.5931    1.9588 H   0  0  0  0  0  0  0  0  0  0  0  0
    1.1799    3.5658    2.4309 H   0  0  0  0  0  0  0  0  0  0  0  0
    0.7366    3.8665    0.7367 H   0  0  0  0  0  0  0  0  0  0  0  0
  1  2  1  0  0  0  0
  2  3  1  0  0  0  0
  2  4  1  0  0  0  0
  2  5  1  0  0  0  0
  5  6  2  0  0  0  0
  5  7  1  0  0  0  0
  7  8  1  0  0  0  0
  7  9  1  0  0  0  0
  9 10  1  0  0  0  0
  9 11  1  0  0  0  0
  9 20  1  0  0  0  0
 11 12  1  0  0  0  0
 11 13  1  0  0  0  0
 11 14  1  0  0  0  0
 14 15  1  0  0  0  0
 14 16  1  0  0  0  0
 14 17  1  0  0  0  0
 17 18  1  0  0  0  0
 17 19  2  0  0  0  0
 20 21  2  0  0  0  0
 20 22  1  0  0  0  0
 22 23  1  0  0  0  0
 22 24  1  0  0  0  0
 24 25  1  0  0  0  0
 24 26  1  0  0  0  0
 24 27  1  0  0  0  0
M  CHG  1  18  -1
M  END
$$$$

  -OEChem-03222214043D

 27 26  0     1  0  0  0  0  0999 V2000
   -3.1835   -3.6629    1.2296 H   0  0  0  0  0  0  0  0  0  0  0  0
   -3.0873   -2.7615    0.6177 C   0  0  0  0  0  0  0  0  0  0  0  0
   -3.8795   -2.0611    0.8935 H   0  0  0  0  0  0  0  0  0  0  0  0
   -3.2028   -3.0362   -0.4338 H   0  0  0  0  0  0  0  0  0  0  0  0
   -1.7283   -2.1205    0.8369 C   0  0  0  0  0  0  0  0  0  0  0  0
   -0.9505   -2.6114    1.6396 O   0  0  0  0  0  0  0  0  0  0  0  0
   -1.4182   -0.9540    0.1718 N   0  0  0  0  0  0  0  0  0  0  0  0
   -2.1311   -0.5532   -0.4322 H   0  0  0  0  0  0  0  0  0  0  0  0
   -0.1143   -0.2751    0.1945 C   0  0  1  0  0  0  0  0  0  0  0  0
    0.4765   -0.6664    1.0291 H   0  0  0  0  0  0  0  0  0  0  0  0
    0.6359   -0.5646   -1.1153 C   0  0  0  0  0  0  0  0  0  0  0  0
    0.5463   -1.6361   -1.3268 H   0  0  0  0  0  0  0  0  0  0  0  0
    0.1759   -0.0293   -1.9527 H   0  0  0  0  0  0  0  0  0  0  0  0
    2.1336   -0.2011   -1.0171 C   0  0  0  0  0  0  0  0  0  0  0  0
    2.3110    0.7405   -1.5445 H   0  0  0  0  0  0  0  0  0  0  0  0
    2.4198   -0.0492    0.0278 H   0  0  0  0  0  0  0  0  0  0  0  0
    3.0416   -1.2831   -1.6055 C   0  0  0  0  0  0  0  0  0  0  0  0
    2.8577   -1.6151   -2.8030 O   0  5  0  0  0  0  0  0  0  0  0  0
    3.9421   -1.7462   -0.8629 O   0  0  0  0  0  0  0  0  0  0  0  0
   -0.2679    1.2444    0.3991 C   0  0  0  0  0  0  0  0  0  0  0  0
   -1.2013    1.8519   -0.1192 O   0  0  0  0  0  0  0  0  0  0  0  0
    0.5501    1.9044    1.2972 N   0  0  0  0  0  0  0  0  0  0  0  0
    1.3645    1.3928    1.6270 H   0  0  0  0  0  0  0  0  0  0  0  0
    0.4814    3.3387    1.5336 C   0  0  0  0  0  0  0  0  0  0  0  0
   -0.5147    3.6212    1.8894 H   0  0  0  0  0  0  0  0  0  0  0  0
    1.2137    3.6295    2.2928 H   0  0  0  0  0  0  0  0  0  0  0  0
    0.6984    3.8884    0.6120 H   0  0  0  0  0  0  0  0  0  0  0  0
  1  2  1  0  0  0  0
  2  3  1  0  0  0  0
  2  4  1  0  0  0  0
  2  5  1  0  0  0  0
  5  6  2  0  0  0  0
  5  7  1  0  0  0  0
  7  8  1  0  0  0  0
  7  9  1  0  0  0  0
  9 10  1  0  0  0  0
  9 11  1  0  0  0  0
  9 20  1  0  0  0  0
 11 12  1  0  0  0  0
 11 13  1  0  0  0  0
 11 14  1  0  0  0  0
 14 15  1  0  0  0  0
 14 16  1  0  0  0  0
 14 17  1  0  0  0  0
 17 18  1  0  0  0  0
 17 19  2  0  0  0  0
 20 21  2  0  0  0  0
 20 22  1  0  0  0  0
 22 23  1  0  0  0  0
 22 24  1  0  0  0  0
 24 25  1  0  0  0  0
 24 26  1  0  0  0  0
 24 27  1  0  0  0  0
M  CHG  1  18  -1
M  END
$$$$

  -OEChem-03222214043D

 27 26  0     1  0  0  0  0  0999 V2000
   -3.1773   -3.6749    1.2138 H   0  0  0  0  0  0  0  0  0  0  0  0
   -3.0892   -2.7635    0.6159 C   0  0  0  0  0  0  0  0  0  0  0  0
   -3.8761   -2.0669    0.9154 H   0  0  0  0  0  0  0  0  0  0  0  0
   -3.2214   -3.0200   -0.4382 H   0  0  0  0  0  0  0  0  0  0  0  0
   -1.7263   -2.1278    0.8244 C   0  0  0  0  0  0  0  0  0  0  0  0
   -0.9361   -2.6312    1.6075 O   0  0  0  0  0  0  0  0  0  0  0  0
   -1.4205   -0.9587    0.1622 N   0  0  0  0  0  0  0  0  0  0  0  0
   -2.1408   -0.5481   -0.4266 H   0  0  0  0  0  0  0  0  0  0  0  0
   -0.1187   -0.2765    0.1847 C   0  0  1  0  0  0  0  0  0  0  0  0
    0.4687   -0.6646    1.0227 H   0  0  0  0  0  0  0  0  0  0  0  0
    0.6397   -0.5667   -1.1194 C   0  0  0  0  0  0  0  0  0  0  0  0
    0.5638   -1.6404   -1.3249 H   0  0  0  0  0  0  0  0  0  0  0  0
    0.1843   -0.0381   -1.9637 H   0  0  0  0  0  0  0  0  0  0  0  0
    2.1319   -0.1946   -1.0052 C   0  0  0  0  0  0  0  0  0  0  0  0
    2.2679    0.8542   -1.2836 H   0  0  0  0  0  0  0  0  0  0  0  0
    2.4673   -0.3105    0.0299 H   0  0  0  0  0  0  0  0  0  0  0  0
    3.0207   -1.0714   -1.8903 C   0  0  0  0  0  0  0  0  0  0  0  0
    2.7125   -1.1860   -3.1028 O   0  5  0  0  0  0  0  0  0  0  0  0
    4.0314   -1.5907   -1.3557 O   0  0  0  0  0  0  0  0  0  0  0  0
   -0.2746    1.2421    0.3934 C   0  0  0  0  0  0  0  0  0  0  0  0
   -1.2210    1.8459   -0.1051 O   0  0  0  0  0  0  0  0  0  0  0  0
    0.5452    1.8992    1.2922 N   0  0  0  0  0  0  0  0  0  0  0  0
    1.3722    1.3939    1.5985 H   0  0  0  0  0  0  0  0  0  0  0  0
    0.4777    3.3336    1.5281 C   0  0  0  0  0  0  0  0  0  0  0  0
   -0.5117    3.6145    1.9032 H   0  0  0  0  0  0  0  0  0  0  0  0
    1.2241    3.6267    2.2722 H   0  0  0  0  0  0  0  0  0  0  0  0
    0.6757    3.8827    0.6019 H   0  0  0  0  0  0  0  0  0  0  0  0
  1  2  1  0  0  0  0
  2  3  1  0  0  0  0
  2  4  1  0  0  0  0
  2  5  1  0  0  0  0
  5  6  2  0  0  0  0
  5  7  1  0  0  0  0
  7  8  1  0  0  0  0
  7  9  1  0  0  0  0
  9 10  1  0  0  0  0
  9 11  1  0  0  0  0
  9 20  1  0  0  0  0
 11 12  1  0  0  0  0
 11 13  1  0  0  0  0
 11 14  1  0  0  0  0
 14 15  1  0  0  0  0
 14 16  1  0  0  0  0
 14 17  1  0  0  0  0
 17 18  1  0  0  0  0
 17 19  2  0  0  0  0
 20 21  2  0  0  0  0
 20 22  1  0  0  0  0
 22 23  1  0  0  0  0
 22 24  1  0  0  0  0
 24 25  1  0  0  0  0
 24 26  1  0  0  0  0
 24 27  1  0  0  0  0
M  CHG  1  18  -1
M  END
$$$$

  -OEChem-03222214043D

 27 26  0     1  0  0  0  0  0999 V2000
   -3.1816   -3.6679    1.2073 H   0  0  0  0  0  0  0  0  0  0  0  0
   -3.0933   -2.7529    0.6151 C   0  0  0  0  0  0  0  0  0  0  0  0
   -3.8675   -2.0502    0.9325 H   0  0  0  0  0  0  0  0  0  0  0  0
   -3.2451   -2.9997   -0.4388 H   0  0  0  0  0  0  0  0  0  0  0  0
   -1.7205   -2.1331    0.8065 C   0  0  0  0  0  0  0  0  0  0  0  0
   -0.9191   -2.6562    1.5654 O   0  0  0  0  0  0  0  0  0  0  0  0
   -1.4130   -0.9619    0.1491 N   0  0  0  0  0  0  0  0  0  0  0  0
   -2.1425   -0.5299   -0.4130 H   0  0  0  0  0  0  0  0  0  0  0  0
   -0.1114   -0.2798    0.1760 C   0  0  1  0  0  0  0  0  0  0  0  0
    0.4746   -0.6660    1.0156 H   0  0  0  0  0  0  0  0  0  0  0  0
    0.6511   -0.5729   -1.1246 C   0  0  0  0  0  0  0  0  0  0  0  0
    0.5801   -1.6447   -1.3397 H   0  0  0  0  0  0  0  0  0  0  0  0
    0.1982   -0.0357   -1.9651 H   0  0  0  0  0  0  0  0  0  0  0  0
    2.1403   -0.2004   -0.9990 C   0  0  0  0  0  0  0  0  0  0  0  0
    2.2510    0.8873   -1.0230 H   0  0  0  0  0  0  0  0  0  0  0  0
    2.5284   -0.5588   -0.0406 H   0  0  0  0  0  0  0  0  0  0  0  0
    2.9852   -0.8079   -2.1219 C   0  0  0  0  0  0  0  0  0  0  0  0
    2.5718   -0.6909   -3.3024 O   0  5  0  0  0  0  0  0  0  0  0  0
    4.0675   -1.3532   -1.7939 O   0  0  0  0  0  0  0  0  0  0  0  0
   -0.2762    1.2380    0.3897 C   0  0  0  0  0  0  0  0  0  0  0  0
   -1.2360    1.8330   -0.0934 O   0  0  0  0  0  0  0  0  0  0  0  0
    0.5369    1.8989    1.2920 N   0  0  0  0  0  0  0  0  0  0  0  0
    1.3755    1.4053    1.5850 H   0  0  0  0  0  0  0  0  0  0  0  0
    0.4532    3.3322    1.5323 C   0  0  0  0  0  0  0  0  0  0  0  0
   -0.5300    3.5965    1.9347 H   0  0  0  0  0  0  0  0  0  0  0  0
    1.2145    3.6364    2.2564 H   0  0  0  0  0  0  0  0  0  0  0  0
    0.6174    3.8863    0.6024 H   0  0  0  0  0  0  0  0  0  0  0  0
  1  2  1  0  0  0  0
  2  3  1  0  0  0  0
  2  4  1  0  0  0  0
  2  5  1  0  0  0  0
  5  6  2  0  0  0  0
  5  7  1  0  0  0  0
  7  8  1  0  0  0  0
  7  9  1  0  0  0  0
  9 10  1  0  0  0  0
  9 11  1  0  0  0  0
  9 20  1  0  0  0  0
 11 12  1  0  0  0  0
 11 13  1  0  0  0  0
 11 14  1  0  0  0  0
 14 15  1  0  0  0  0
 14 16  1  0  0  0  0
 14 17  1  0  0  0  0
 17 18  1  0  0  0  0
 17 19  2  0  0  0  0
 20 21  2  0  0  0  0
 20 22  1  0  0  0  0
 22 23  1  0  0  0  0
 22 24  1  0  0  0  0
 24 25  1  0  0  0  0
 24 26  1  0  0  0  0
 24 27  1  0  0  0  0
M  CHG  1  18  -1
M  END
$$$$

  -OEChem-03222214043D

 27 26  0     1  0  0  0  0  0999 V2000
   -3.2425   -3.6448    1.1227 H   0  0  0  0  0  0  0  0  0  0  0  0
   -3.1388   -2.7214    0.5458 C   0  0  0  0  0  0  0  0  0  0  0  0
   -3.9137   -2.0184    0.8614 H   0  0  0  0  0  0  0  0  0  0  0  0
   -3.2756   -2.9517   -0.5139 H   0  0  0  0  0  0  0  0  0  0  0  0
   -1.7650   -2.1135    0.7680 C   0  0  0  0  0  0  0  0  0  0  0  0
   -0.9840   -2.6475    1.5408 O   0  0  0  0  0  0  0  0  0  0  0  0
   -1.4387   -0.9349    0.1326 N   0  0  0  0  0  0  0  0  0  0  0  0
   -2.1530   -0.4952   -0.4426 H   0  0  0  0  0  0  0  0  0  0  0  0
   -0.1243   -0.2777    0.1711 C   0  0  1  0  0  0  0  0  0  0  0  0
    0.4489   -0.6932    1.0058 H   0  0  0  0  0  0  0  0  0  0  0  0
    0.6432   -0.5525   -1.1329 C   0  0  0  0  0  0  0  0  0  0  0  0
    0.3534   -1.5325   -1.5282 H   0  0  0  0  0  0  0  0  0  0  0  0
    0.3891    0.1962   -1.8912 H   0  0  0  0  0  0  0  0  0  0  0  0
    2.1608   -0.5634   -0.8832 C   0  0  0  0  0  0  0  0  0  0  0  0
    2.4726    0.3990   -0.4667 H   0  0  0  0  0  0  0  0  0  0  0  0
    2.4087   -1.3419   -0.1557 H   0  0  0  0  0  0  0  0  0  0  0  0
    2.9452   -0.8343   -2.1684 C   0  0  0  0  0  0  0  0  0  0  0  0
    2.7452   -1.9218   -2.7641 O   0  5  0  0  0  0  0  0  0  0  0  0
    3.7591    0.0469   -2.5401 O   0  0  0  0  0  0  0  0  0  0  0  0
   -0.2523    1.2387    0.4151 C   0  0  0  0  0  0  0  0  0  0  0  0
   -1.1961    1.8654   -0.0591 O   0  0  0  0  0  0  0  0  0  0  0  0
    0.5779    1.8619    1.3283 N   0  0  0  0  0  0  0  0  0  0  0  0
    1.4099    1.3465    1.6014 H   0  0  0  0  0  0  0  0  0  0  0  0
    0.5288    3.2919    1.5955 C   0  0  0  0  0  0  0  0  0  0  0  0
   -0.4539    3.5750    1.9865 H   0  0  0  0  0  0  0  0  0  0  0  0
    1.2858    3.5609    2.3382 H   0  0  0  0  0  0  0  0  0  0  0  0
    0.7234    3.8591    0.6794 H   0  0  0  0  0  0  0  0  0  0  0  0
  1  2  1  0  0  0  0
  2  3  1  0  0  0  0
  2  4  1  0  0  0  0
  2  5  1  0  0  0  0
  5  6  2  0  0  0  0
  5  7  1  0  0  0  0
  7  8  1  0  0  0  0
  7  9  1  0  0  0  0
  9 10  1  0  0  0  0
  9 11  1  0  0  0  0
  9 20  1  0  0  0  0
 11 12  1  0  0  0  0
 11 13  1  0  0  0  0
 11 14  1  0  0  0  0
 14 15  1  0  0  0  0
 14 16  1  0  0  0  0
 14 17  1  0  0  0  0
 17 18  1  0  0  0  0
 17 19  2  0  0  0  0
 20 21  2  0  0  0  0
 20 22  1  0  0  0  0
 22 23  1  0  0  0  0
 22 24  1  0  0  0  0
 24 25  1  0  0  0  0
 24 26  1  0  0  0  0
 24 27  1  0  0  0  0
M  CHG  1  18  -1
M  END
$$$$

  -OEChem-03222214043D

 27 26  0     1  0  0  0  0  0999 V2000
   -3.2483   -3.6318    1.1480 H   0  0  0  0  0  0  0  0  0  0  0  0
   -3.1476   -2.7035    0.5788 C   0  0  0  0  0  0  0  0  0  0  0  0
   -3.8939   -1.9884    0.9336 H   0  0  0  0  0  0  0  0  0  0  0  0
   -3.3311   -2.9166   -0.4773 H   0  0  0  0  0  0  0  0  0  0  0  0
   -1.7538   -2.1274    0.7540 C   0  0  0  0  0  0  0  0  0  0  0  0
   -0.9513   -2.6925    1.4814 O   0  0  0  0  0  0  0  0  0  0  0  0
   -1.4304   -0.9455    0.1237 N   0  0  0  0  0  0  0  0  0  0  0  0
   -2.1613   -0.4761   -0.4057 H   0  0  0  0  0  0  0  0  0  0  0  0
   -0.1173   -0.2864    0.1597 C   0  0  1  0  0  0  0  0  0  0  0  0
    0.4595   -0.7027    0.9916 H   0  0  0  0  0  0  0  0  0  0  0  0
    0.6484   -0.5578   -1.1454 C   0  0  0  0  0  0  0  0  0  0  0  0
    0.3621   -1.5314   -1.5576 H   0  0  0  0  0  0  0  0  0  0  0  0
    0.3914    0.2027   -1.8913 H   0  0  0  0  0  0  0  0  0  0  0  0
    2.1663   -0.5660   -0.8950 C   0  0  0  0  0  0  0  0  0  0  0  0
    2.4405    0.2789   -0.2564 H   0  0  0  0  0  0  0  0  0  0  0  0
    2.4467   -1.4854   -0.3730 H   0  0  0  0  0  0  0  0  0  0  0  0
    2.9598   -0.4657   -2.1988 C   0  0  0  0  0  0  0  0  0  0  0  0
    2.7416   -1.3222   -3.0913 O   0  5  0  0  0  0  0  0  0  0  0  0
    3.7996    0.4642   -2.2871 O   0  0  0  0  0  0  0  0  0  0  0  0
   -0.2556    1.2286    0.4118 C   0  0  0  0  0  0  0  0  0  0  0  0
   -1.2189    1.8430   -0.0395 O   0  0  0  0  0  0  0  0  0  0  0  0
    0.5725    1.8551    1.3247 N   0  0  0  0  0  0  0  0  0  0  0  0
    1.4237    1.3561    1.5676 H   0  0  0  0  0  0  0  0  0  0  0  0
    0.5127    3.2851    1.5908 C   0  0  0  0  0  0  0  0  0  0  0  0
   -0.4749    3.5634    1.9726 H   0  0  0  0  0  0  0  0  0  0  0  0
    1.2612    3.5584    2.3405 H   0  0  0  0  0  0  0  0  0  0  0  0
    0.7127    3.8528    0.6763 H   0  0  0  0  0  0  0  0  0  0  0  0
  1  2  1  0  0  0  0
  2  3  1  0  0  0  0
  2  4  1  0  0  0  0
  2  5  1  0  0  0  0
  5  6  2  0  0  0  0
  5  7  1  0  0  0  0
  7  8  1  0  0  0  0
  7  9  1  0  0  0  0
  9 10  1  0  0  0  0
  9 11  1  0  0  0  0
  9 20  1  0  0  0  0
 11 12  1  0  0  0  0
 11 13  1  0  0  0  0
 11 14  1  0  0  0  0
 14 15  1  0  0  0  0
 14 16  1  0  0  0  0
 14 17  1  0  0  0  0
 17 18  1  0  0  0  0
 17 19  2  0  0  0  0
 20 21  2  0  0  0  0
 20 22  1  0  0  0  0
 22 23  1  0  0  0  0
 22 24  1  0  0  0  0
 24 25  1  0  0  0  0
 24 26  1  0  0  0  0
 24 27  1  0  0  0  0
M  CHG  1  18  -1
M  END
$$$$

  -OEChem-03222214043D

 27 26  0     1  0  0  0  0  0999 V2000
   -3.2648   -3.6117    1.1768 H   0  0  0  0  0  0  0  0  0  0  0  0
   -3.1622   -2.6836    0.6078 C   0  0  0  0  0  0  0  0  0  0  0  0
   -3.8803   -1.9538    0.9900 H   0  0  0  0  0  0  0  0  0  0  0  0
   -3.3855   -2.8876   -0.4424 H   0  0  0  0  0  0  0  0  0  0  0  0
   -1.7507   -2.1396    0.7385 C   0  0  0  0  0  0  0  0  0  0  0  0
   -0.9311   -2.7371    1.4195 O   0  0  0  0  0  0  0  0  0  0  0  0
   -1.4268   -0.9549    0.1142 N   0  0  0  0  0  0  0  0  0  0  0  0
   -2.1729   -0.4510   -0.3603 H   0  0  0  0  0  0  0  0  0  0  0  0
   -0.1127   -0.2975    0.1475 C   0  0  1  0  0  0  0  0  0  0  0  0
    0.4631   -0.7179    0.9783 H   0  0  0  0  0  0  0  0  0  0  0  0
    0.6564   -0.5576   -1.1576 C   0  0  0  0  0  0  0  0  0  0  0  0
    0.3718   -1.5245   -1.5856 H   0  0  0  0  0  0  0  0  0  0  0  0
    0.3960    0.2131   -1.8923 H   0  0  0  0  0  0  0  0  0  0  0  0
    2.1762   -0.5657   -0.9061 C   0  0  0  0  0  0  0  0  0  0  0  0
    2.4241    0.0957   -0.0707 H   0  0  0  0  0  0  0  0  0  0  0  0
    2.4976   -1.5751   -0.6339 H   0  0  0  0  0  0  0  0  0  0  0  0
    2.9566   -0.0927   -2.1320 C   0  0  0  0  0  0  0  0  0  0  0  0
    2.8977   -0.7908   -3.1740 O   0  5  0  0  0  0  0  0  0  0  0  0
    3.6150    0.9706   -2.0153 O   0  0  0  0  0  0  0  0  0  0  0  0
   -0.2543    1.2163    0.4089 C   0  0  0  0  0  0  0  0  0  0  0  0
   -1.2414    1.8183   -0.0078 O   0  0  0  0  0  0  0  0  0  0  0  0
    0.5761    1.8401    1.3212 N   0  0  0  0  0  0  0  0  0  0  0  0
    1.4552    1.3648    1.5069 H   0  0  0  0  0  0  0  0  0  0  0  0
    0.5063    3.2690    1.5902 C   0  0  0  0  0  0  0  0  0  0  0  0
   -0.4823    3.5400    1.9743 H   0  0  0  0  0  0  0  0  0  0  0  0
    1.2542    3.5460    2.3390 H   0  0  0  0  0  0  0  0  0  0  0  0
    0.7006    3.8396    0.6763 H   0  0  0  0  0  0  0  0  0  0  0  0
  1  2  1  0  0  0  0
  2  3  1  0  0  0  0
  2  4  1  0  0  0  0
  2  5  1  0  0  0  0
  5  6  2  0  0  0  0
  5  7  1  0  0  0  0
  7  8  1  0  0  0  0
  7  9  1  0  0  0  0
  9 10  1  0  0  0  0
  9 11  1  0  0  0  0
  9 20  1  0  0  0  0
 11 12  1  0  0  0  0
 11 13  1  0  0  0  0
 11 14  1  0  0  0  0
 14 15  1  0  0  0  0
 14 16  1  0  0  0  0
 14 17  1  0  0  0  0
 17 18  1  0  0  0  0
 17 19  2  0  0  0  0
 20 21  2  0  0  0  0
 20 22  1  0  0  0  0
 22 23  1  0  0  0  0
 22 24  1  0  0  0  0
 24 25  1  0  0  0  0
 24 26  1  0  0  0  0
 24 27  1  0  0  0  0
M  CHG  1  18  -1
M  END
$$$$

  -OEChem-03222214043D

 27 26  0     1  0  0  0  0  0999 V2000
   -3.2805   -3.5887    1.2204 H   0  0  0  0  0  0  0  0  0  0  0  0
   -3.1769   -2.6646    0.6451 C   0  0  0  0  0  0  0  0  0  0  0  0
   -3.8615   -1.9163    1.0522 H   0  0  0  0  0  0  0  0  0  0  0  0
   -3.4451   -2.8648   -0.3952 H   0  0  0  0  0  0  0  0  0  0  0  0
   -1.7484   -2.1552    0.7203 C   0  0  0  0  0  0  0  0  0  0  0  0
   -0.9113   -2.7889    1.3449 O   0  0  0  0  0  0  0  0  0  0  0  0
   -1.4266   -0.9669    0.1022 N   0  0  0  0  0  0  0  0  0  0  0  0
   -2.1877   -0.4257   -0.3031 H   0  0  0  0  0  0  0  0  0  0  0  0
   -0.1110   -0.3118    0.1308 C   0  0  1  0  0  0  0  0  0  0  0  0
    0.4611   -0.7383    0.9609 H   0  0  0  0  0  0  0  0  0  0  0  0
    0.6630   -0.5491   -1.1747 C   0  0  0  0  0  0  0  0  0  0  0  0
    0.3829   -1.5146   -1.6078 H   0  0  0  0  0  0  0  0  0  0  0  0
    0.3951    0.2230   -1.9053 H   0  0  0  0  0  0  0  0  0  0  0  0
    2.1848   -0.5558   -0.9193 C   0  0  0  0  0  0  0  0  0  0  0  0
    2.4189   -0.1481    0.0684 H   0  0  0  0  0  0  0  0  0  0  0  0
    2.5514   -1.5864   -0.9376 H   0  0  0  0  0  0  0  0  0  0  0  0
    2.9369    0.2671   -1.9620 C   0  0  0  0  0  0  0  0  0  0  0  0
    3.1331   -0.2390   -3.0936 O   0  5  0  0  0  0  0  0  0  0  0  0
    3.3041    1.4167   -1.6122 O   0  0  0  0  0  0  0  0  0  0  0  0
   -0.2509    1.2006    0.4036 C   0  0  0  0  0  0  0  0  0  0  0  0
   -1.2662    1.7880    0.0338 O   0  0  0  0  0  0  0  0  0  0  0  0
    0.5871    1.8169    1.3136 N   0  0  0  0  0  0  0  0  0  0  0  0
    1.5012    1.3803    1.4069 H   0  0  0  0  0  0  0  0  0  0  0  0
    0.5050    3.2443    1.5864 C   0  0  0  0  0  0  0  0  0  0  0  0
   -0.4797    3.5036    1.9885 H   0  0  0  0  0  0  0  0  0  0  0  0
    1.2628    3.5289    2.3220 H   0  0  0  0  0  0  0  0  0  0  0  0
    0.6770    3.8178    0.6696 H   0  0  0  0  0  0  0  0  0  0  0  0
  1  2  1  0  0  0  0
  2  3  1  0  0  0  0
  2  4  1  0  0  0  0
  2  5  1  0  0  0  0
  5  6  2  0  0  0  0
  5  7  1  0  0  0  0
  7  8  1  0  0  0  0
  7  9  1  0  0  0  0
  9 10  1  0  0  0  0
  9 11  1  0  0  0  0
  9 20  1  0  0  0  0
 11 12  1  0  0  0  0
 11 13  1  0  0  0  0
 11 14  1  0  0  0  0
 14 15  1  0  0  0  0
 14 16  1  0  0  0  0
 14 17  1  0  0  0  0
 17 18  1  0  0  0  0
 17 19  2  0  0  0  0
 20 21  2  0  0  0  0
 20 22  1  0  0  0  0
 22 23  1  0  0  0  0
 22 24  1  0  0  0  0
 24 25  1  0  0  0  0
 24 26  1  0  0  0  0
 24 27  1  0  0  0  0
M  CHG  1  18  -1
M  END
$$$$

  -OEChem-03222214043D

 27 26  0     1  0  0  0  0  0999 V2000
   -3.2818   -3.5587    1.2788 H   0  0  0  0  0  0  0  0  0  0  0  0
   -3.1866   -2.6302    0.7091 C   0  0  0  0  0  0  0  0  0  0  0  0
   -3.8198   -1.8673    1.1689 H   0  0  0  0  0  0  0  0  0  0  0  0
   -3.5277   -2.8076   -0.3139 H   0  0  0  0  0  0  0  0  0  0  0  0
   -1.7412   -2.1651    0.6987 C   0  0  0  0  0  0  0  0  0  0  0  0
   -0.8859   -2.8368    1.2552 O   0  0  0  0  0  0  0  0  0  0  0  0
   -1.4231   -0.9782    0.0760 N   0  0  0  0  0  0  0  0  0  0  0  0
   -2.1954   -0.3994   -0.2492 H   0  0  0  0  0  0  0  0  0  0  0  0
   -0.1036   -0.3298    0.0908 C   0  0  1  0  0  0  0  0  0  0  0  0
    0.4611   -0.7559    0.9254 H   0  0  0  0  0  0  0  0  0  0  0  0
    0.6824   -0.5443   -1.2098 C   0  0  0  0  0  0  0  0  0  0  0  0
    0.4135   -1.5161   -1.6357 H   0  0  0  0  0  0  0  0  0  0  0  0
    0.4156    0.2180   -1.9512 H   0  0  0  0  0  0  0  0  0  0  0  0
    2.2012   -0.5470   -0.9281 C   0  0  0  0  0  0  0  0  0  0  0  0
    2.4233   -0.4426    0.1377 H   0  0  0  0  0  0  0  0  0  0  0  0
    2.6183   -1.5077   -1.2446 H   0  0  0  0  0  0  0  0  0  0  0  0
    2.9124    0.5649   -1.6884 C   0  0  0  0  0  0  0  0  0  0  0  0
    3.3295    0.3456   -2.8509 O   0  5  0  0  0  0  0  0  0  0  0  0
    3.0116    1.6583   -1.0756 O   0  0  0  0  0  0  0  0  0  0  0  0
   -0.2370    1.1848    0.3650 C   0  0  0  0  0  0  0  0  0  0  0  0
   -1.2905    1.7464    0.0635 O   0  0  0  0  0  0  0  0  0  0  0  0
    0.6133    1.7987    1.2647 N   0  0  0  0  0  0  0  0  0  0  0  0
    1.5721    1.4570    1.1946 H   0  0  0  0  0  0  0  0  0  0  0  0
    0.4675    3.2079    1.5994 C   0  0  0  0  0  0  0  0  0  0  0  0
   -0.5096    3.3973    2.0549 H   0  0  0  0  0  0  0  0  0  0  0  0
    1.2424    3.5046    2.3121 H   0  0  0  0  0  0  0  0  0  0  0  0
    0.5668    3.8254    0.7006 H   0  0  0  0  0  0  0  0  0  0  0  0
  1  2  1  0  0  0  0
  2  3  1  0  0  0  0
  2  4  1  0  0  0  0
  2  5  1  0  0  0  0
  5  6  2  0  0  0  0
  5  7  1  0  0  0  0
  7  8  1  0  0  0  0
  7  9  1  0  0  0  0
  9 10  1  0  0  0  0
  9 11  1  0  0  0  0
  9 20  1  0  0  0  0
 11 12  1  0  0  0  0
 11 13  1  0  0  0  0
 11 14  1  0  0  0  0
 14 15  1  0  0  0  0
 14 16  1  0  0  0  0
 14 17  1  0  0  0  0
 17 18  1  0  0  0  0
 17 19  2  0  0  0  0
 20 21  2  0  0  0  0
 20 22  1  0  0  0  0
 22 23  1  0  0  0  0
 22 24  1  0  0  0  0
 24 25  1  0  0  0  0
 24 26  1  0  0  0  0
 24 27  1  0  0  0  0
M  CHG  1  18  -1
M  END
$$$$

  -OEChem-03222214043D

 27 26  0     1  0  0  0  0  0999 V2000
   -3.2680   -3.5231    1.3151 H   0  0  0  0  0  0  0  0  0  0  0  0
   -3.1736   -2.5931    0.7477 C   0  0  0  0  0  0  0  0  0  0  0  0
   -3.7786   -1.8222    1.2315 H   0  0  0  0  0  0  0  0  0  0  0  0
   -3.5491   -2.7580   -0.2653 H   0  0  0  0  0  0  0  0  0  0  0  0
   -1.7210   -2.1533    0.6944 C   0  0  0  0  0  0  0  0  0  0  0  0
   -0.8612   -2.8446    1.2189 O   0  0  0  0  0  0  0  0  0  0  0  0
   -1.4008   -0.9733    0.0602 N   0  0  0  0  0  0  0  0  0  0  0  0
   -2.1740   -0.3727   -0.2212 H   0  0  0  0  0  0  0  0  0  0  0  0
   -0.0774   -0.3319    0.0696 C   0  0  1  0  0  0  0  0  0  0  0  0
    0.4871   -0.7447    0.9112 H   0  0  0  0  0  0  0  0  0  0  0  0
    0.7092   -0.5519   -1.2312 C   0  0  0  0  0  0  0  0  0  0  0  0
    0.4362   -1.5299   -1.6403 H   0  0  0  0  0  0  0  0  0  0  0  0
    0.4488    0.2001   -1.9850 H   0  0  0  0  0  0  0  0  0  0  0  0
    2.2272   -0.5627   -0.9473 C   0  0  0  0  0  0  0  0  0  0  0  0
    2.4519   -0.7563    0.1053 H   0  0  0  0  0  0  0  0  0  0  0  0
    2.6779   -1.3807   -1.5171 H   0  0  0  0  0  0  0  0  0  0  0  0
    2.8962    0.7321   -1.3883 C   0  0  0  0  0  0  0  0  0  0  0  0
    3.3246    0.8417   -2.5616 O   0  5  0  0  0  0  0  0  0  0  0  0
    2.9385    1.6346   -0.5117 O   0  0  0  0  0  0  0  0  0  0  0  0
   -0.2271    1.1858    0.3324 C   0  0  0  0  0  0  0  0  0  0  0  0
   -1.3028    1.7193    0.0531 O   0  0  0  0  0  0  0  0  0  0  0  0
    0.6141    1.8160    1.2286 N   0  0  0  0  0  0  0  0  0  0  0  0
    1.5974    1.5894    1.0320 H   0  0  0  0  0  0  0  0  0  0  0  0
    0.3786    3.1914    1.6423 C   0  0  0  0  0  0  0  0  0  0  0  0
   -0.5916    3.2840    2.1406 H   0  0  0  0  0  0  0  0  0  0  0  0
    1.1570    3.5069    2.3430 H   0  0  0  0  0  0  0  0  0  0  0  0
    0.3989    3.8601    0.7757 H   0  0  0  0  0  0  0  0  0  0  0  0
  1  2  1  0  0  0  0
  2  3  1  0  0  0  0
  2  4  1  0  0  0  0
  2  5  1  0  0  0  0
  5  6  2  0  0  0  0
  5  7  1  0  0  0  0
  7  8  1  0  0  0  0
  7  9  1  0  0  0  0
  9 10  1  0  0  0  0
  9 11  1  0  0  0  0
  9 20  1  0  0  0  0
 11 12  1  0  0  0  0
 11 13  1  0  0  0  0
 11 14  1  0  0  0  0
 14 15  1  0  0  0  0
 14 16  1  0  0  0  0
 14 17  1  0  0  0  0
 17 18  1  0  0  0  0
 17 19  2  0  0  0  0
 20 21  2  0  0  0  0
 20 22  1  0  0  0  0
 22 23  1  0  0  0  0
 22 24  1  0  0  0  0
 24 25  1  0  0  0  0
 24 26  1  0  0  0  0
 24 27  1  0  0  0  0
M  CHG  1  18  -1
M  END
$$$$

  -OEChem-03222214043D

 27 26  0     1  0  0  0  0  0999 V2000
   -3.2392   -3.5350    1.2717 H   0  0  0  0  0  0  0  0  0  0  0  0
   -3.1452   -2.5869    0.7350 C   0  0  0  0  0  0  0  0  0  0  0  0
   -3.7421   -1.8298    1.2497 H   0  0  0  0  0  0  0  0  0  0  0  0
   -3.5296   -2.7155   -0.2798 H   0  0  0  0  0  0  0  0  0  0  0  0
   -1.6915   -2.1518    0.6844 C   0  0  0  0  0  0  0  0  0  0  0  0
   -0.8332   -2.8476    1.2053 O   0  0  0  0  0  0  0  0  0  0  0  0
   -1.3698   -0.9669    0.0609 N   0  0  0  0  0  0  0  0  0  0  0  0
   -2.1423   -0.3644   -0.2192 H   0  0  0  0  0  0  0  0  0  0  0  0
   -0.0494   -0.3195    0.0947 C   0  0  1  0  0  0  0  0  0  0  0  0
    0.5250   -0.7270    0.9326 H   0  0  0  0  0  0  0  0  0  0  0  0
    0.7214   -0.5539   -1.2174 C   0  0  0  0  0  0  0  0  0  0  0  0
    0.4329   -1.5314   -1.6165 H   0  0  0  0  0  0  0  0  0  0  0  0
    0.4559    0.1964   -1.9705 H   0  0  0  0  0  0  0  0  0  0  0  0
    2.2448   -0.5806   -0.9796 C   0  0  0  0  0  0  0  0  0  0  0  0
    2.4871   -1.0292   -0.0117 H   0  0  0  0  0  0  0  0  0  0  0  0
    2.6994   -1.2178   -1.7439 H   0  0  0  0  0  0  0  0  0  0  0  0
    2.8829    0.7990   -1.0950 C   0  0  0  0  0  0  0  0  0  0  0  0
    3.1951    1.2334   -2.2286 O   0  5  0  0  0  0  0  0  0  0  0  0
    3.0126    1.4349   -0.0167 O   0  0  0  0  0  0  0  0  0  0  0  0
   -0.2442    1.1930    0.3654 C   0  0  0  0  0  0  0  0  0  0  0  0
   -1.3138    1.7127    0.0390 O   0  0  0  0  0  0  0  0  0  0  0  0
    0.5559    1.8459    1.2819 N   0  0  0  0  0  0  0  0  0  0  0  0
    1.5490    1.5961    1.1681 H   0  0  0  0  0  0  0  0  0  0  0  0
    0.3046    3.2285    1.6596 C   0  0  0  0  0  0  0  0  0  0  0  0
   -0.6759    3.3258    2.1367 H   0  0  0  0  0  0  0  0  0  0  0  0
    1.0676    3.5649    2.3677 H   0  0  0  0  0  0  0  0  0  0  0  0
    0.3377    3.8774    0.7785 H   0  0  0  0  0  0  0  0  0  0  0  0
  1  2  1  0  0  0  0
  2  3  1  0  0  0  0
  2  4  1  0  0  0  0
  2  5  1  0  0  0  0
  5  6  2  0  0  0  0
  5  7  1  0  0  0  0
  7  8  1  0  0  0  0
  7  9  1  0  0  0  0
  9 10  1  0  0  0  0
  9 11  1  0  0  0  0
  9 20  1  0  0  0  0
 11 12  1  0  0  0  0
 11 13  1  0  0  0  0
 11 14  1  0  0  0  0
 14 15  1  0  0  0  0
 14 16  1  0  0  0  0
 14 17  1  0  0  0  0
 17 18  1  0  0  0  0
 17 19  2  0  0  0  0
 20 21  2  0  0  0  0
 20 22  1  0  0  0  0
 22 23  1  0  0  0  0
 22 24  1  0  0  0  0
 24 25  1  0  0  0  0
 24 26  1  0  0  0  0
 24 27  1  0  0  0  0
M  CHG  1  18  -1
M  END
$$$$

  -OEChem-03222214043D

 27 26  0     1  0  0  0  0  0999 V2000
   -3.2249   -3.5320    1.2929 H   0  0  0  0  0  0  0  0  0  0  0  0
   -3.1254   -2.6061    0.7197 C   0  0  0  0  0  0  0  0  0  0  0  0
   -3.7441   -1.8350    1.1855 H   0  0  0  0  0  0  0  0  0  0  0  0
   -3.4804   -2.7811   -0.2989 H   0  0  0  0  0  0  0  0  0  0  0  0
   -1.6746   -2.1583    0.6901 C   0  0  0  0  0  0  0  0  0  0  0  0
   -0.8160   -2.8571    1.2063 O   0  0  0  0  0  0  0  0  0  0  0  0
   -1.3551   -0.9656    0.0806 N   0  0  0  0  0  0  0  0  0  0  0  0
   -2.1290   -0.3649   -0.1998 H   0  0  0  0  0  0  0  0  0  0  0  0
   -0.0379   -0.3116    0.1261 C   0  0  1  0  0  0  0  0  0  0  0  0
    0.5525   -0.7223    0.9521 H   0  0  0  0  0  0  0  0  0  0  0  0
    0.7109   -0.5422   -1.2025 C   0  0  0  0  0  0  0  0  0  0  0  0
    0.4070   -1.5101   -1.6139 H   0  0  0  0  0  0  0  0  0  0  0  0
    0.4367    0.2248   -1.9352 H   0  0  0  0  0  0  0  0  0  0  0  0
    2.2403   -0.5791   -1.0155 C   0  0  0  0  0  0  0  0  0  0  0  0
    2.5016   -1.2466   -0.1887 H   0  0  0  0  0  0  0  0  0  0  0  0
    2.6907   -0.9985   -1.9199 H   0  0  0  0  0  0  0  0  0  0  0  0
    2.8551    0.7972   -0.7820 C   0  0  0  0  0  0  0  0  0  0  0  0
    3.0799    1.5313   -1.7726 O   0  5  0  0  0  0  0  0  0  0  0  0
    3.0382    1.1316    0.4174 O   0  0  0  0  0  0  0  0  0  0  0  0
   -0.2626    1.1950    0.4121 C   0  0  0  0  0  0  0  0  0  0  0  0
   -1.3186    1.7139    0.0427 O   0  0  0  0  0  0  0  0  0  0  0  0
    0.5124    1.8620    1.3399 N   0  0  0  0  0  0  0  0  0  0  0  0
    1.4953    1.5520    1.3333 H   0  0  0  0  0  0  0  0  0  0  0  0
    0.2937    3.2658    1.6532 C   0  0  0  0  0  0  0  0  0  0  0  0
   -0.7111    3.4184    2.0595 H   0  0  0  0  0  0  0  0  0  0  0  0
    1.0211    3.5981    2.3997 H   0  0  0  0  0  0  0  0  0  0  0  0
    0.4122    3.8803    0.7549 H   0  0  0  0  0  0  0  0  0  0  0  0
  1  2  1  0  0  0  0
  2  3  1  0  0  0  0
  2  4  1  0  0  0  0
  2  5  1  0  0  0  0
  5  6  2  0  0  0  0
  5  7  1  0  0  0  0
  7  8  1  0  0  0  0
  7  9  1  0  0  0  0
  9 10  1  0  0  0  0
  9 11  1  0  0  0  0
  9 20  1  0  0  0  0
 11 12  1  0  0  0  0
 11 13  1  0  0  0  0
 11 14  1  0  0  0  0
 14 15  1  0  0  0  0
 14 16  1  0  0  0  0
 14 17  1  0  0  0  0
 17 18  1  0  0  0  0
 17 19  2  0  0  0  0
 20 21  2  0  0  0  0
 20 22  1  0  0  0  0
 22 23  1  0  0  0  0
 22 24  1  0  0  0  0
 24 25  1  0  0  0  0
 24 26  1  0  0  0  0
 24 27  1  0  0  0  0
M  CHG  1  18  -1
M  END
$$$$

  -OEChem-03222214043D

 27 26  0     1  0  0  0  0  0999 V2000
   -3.2103   -3.5485    1.2853 H   0  0  0  0  0  0  0  0  0  0  0  0
   -3.1117   -2.6223    0.7124 C   0  0  0  0  0  0  0  0  0  0  0  0
   -3.7309   -1.8519    1.1789 H   0  0  0  0  0  0  0  0  0  0  0  0
   -3.4667   -2.7971   -0.3062 H   0  0  0  0  0  0  0  0  0  0  0  0
   -1.6618   -2.1724    0.6839 C   0  0  0  0  0  0  0  0  0  0  0  0
   -0.8021   -2.8743    1.1931 O   0  0  0  0  0  0  0  0  0  0  0  0
   -1.3469   -0.9736    0.0842 N   0  0  0  0  0  0  0  0  0  0  0  0
   -2.1237   -0.3768   -0.1962 H   0  0  0  0  0  0  0  0  0  0  0  0
   -0.0366   -0.3073    0.1473 C   0  0  1  0  0  0  0  0  0  0  0  0
    0.5572   -0.7174    0.9721 H   0  0  0  0  0  0  0  0  0  0  0  0
    0.7136   -0.5320   -1.1837 C   0  0  0  0  0  0  0  0  0  0  0  0
    0.4064   -1.4917   -1.6110 H   0  0  0  0  0  0  0  0  0  0  0  0
    0.4345    0.2486   -1.8996 H   0  0  0  0  0  0  0  0  0  0  0  0
    2.2479   -0.5655   -1.0278 C   0  0  0  0  0  0  0  0  0  0  0  0
    2.5250   -1.4040   -0.3815 H   0  0  0  0  0  0  0  0  0  0  0  0
    2.6977   -0.7497   -2.0077 H   0  0  0  0  0  0  0  0  0  0  0  0
    2.8434    0.7180   -0.4553 C   0  0  0  0  0  0  0  0  0  0  0  0
    3.0919    1.6604   -1.2425 O   0  5  0  0  0  0  0  0  0  0  0  0
    2.9620    0.7819    0.7960 O   0  0  0  0  0  0  0  0  0  0  0  0
   -0.2872    1.1944    0.4388 C   0  0  0  0  0  0  0  0  0  0  0  0
   -1.3262    1.7139    0.0245 O   0  0  0  0  0  0  0  0  0  0  0  0
    0.4634    1.8709    1.3789 N   0  0  0  0  0  0  0  0  0  0  0  0
    1.4249    1.5102    1.4673 H   0  0  0  0  0  0  0  0  0  0  0  0
    0.2785    3.2897    1.6377 C   0  0  0  0  0  0  0  0  0  0  0  0
   -0.7369    3.4871    1.9954 H   0  0  0  0  0  0  0  0  0  0  0  0
    0.9847    3.6231    2.4036 H   0  0  0  0  0  0  0  0  0  0  0  0
    0.4545    3.8692    0.7256 H   0  0  0  0  0  0  0  0  0  0  0  0
  1  2  1  0  0  0  0
  2  3  1  0  0  0  0
  2  4  1  0  0  0  0
  2  5  1  0  0  0  0
  5  6  2  0  0  0  0
  5  7  1  0  0  0  0
  7  8  1  0  0  0  0
  7  9  1  0  0  0  0
  9 10  1  0  0  0  0
  9 11  1  0  0  0  0
  9 20  1  0  0  0  0
 11 12  1  0  0  0  0
 11 13  1  0  0  0  0
 11 14  1  0  0  0  0
 14 15  1  0  0  0  0
 14 16  1  0  0  0  0
 14 17  1  0  0  0  0
 17 18  1  0  0  0  0
 17 19  2  0  0  0  0
 20 21  2  0  0  0  0
 20 22  1  0  0  0  0
 22 23  1  0  0  0  0
 22 24  1  0  0  0  0
 24 25  1  0  0  0  0
 24 26  1  0  0  0  0
 24 27  1  0  0  0  0
M  CHG  1  18  -1
M  END
$$$$

  -OEChem-03222214043D

 27 26  0     1  0  0  0  0  0999 V2000
   -3.1977   -3.5938    1.2565 H   0  0  0  0  0  0  0  0  0  0  0  0
   -3.1053   -2.6649    0.6867 C   0  0  0  0  0  0  0  0  0  0  0  0
   -3.7466   -1.9068    1.1433 H   0  0  0  0  0  0  0  0  0  0  0  0
   -3.4385   -2.8440   -0.3385 H   0  0  0  0  0  0  0  0  0  0  0  0
   -1.6628   -2.1901    0.6847 C   0  0  0  0  0  0  0  0  0  0  0  0
   -0.8007   -2.8849    1.1984 O   0  0  0  0  0  0  0  0  0  0  0  0
   -1.3587   -0.9842    0.0928 N   0  0  0  0  0  0  0  0  0  0  0  0
   -2.1414   -0.4045   -0.2044 H   0  0  0  0  0  0  0  0  0  0  0  0
   -0.0609   -0.2942    0.1692 C   0  0  1  0  0  0  0  0  0  0  0  0
    0.5213   -0.7045    1.0020 H   0  0  0  0  0  0  0  0  0  0  0  0
    0.7094   -0.5271   -1.1506 C   0  0  0  0  0  0  0  0  0  0  0  0
    0.4110   -1.4895   -1.5786 H   0  0  0  0  0  0  0  0  0  0  0  0
    0.4205    0.2501   -1.8662 H   0  0  0  0  0  0  0  0  0  0  0  0
    2.2503   -0.5383   -1.0198 C   0  0  0  0  0  0  0  0  0  0  0  0
    2.5544   -1.4902   -0.5745 H   0  0  0  0  0  0  0  0  0  0  0  0
    2.6925   -0.4939   -2.0194 H   0  0  0  0  0  0  0  0  0  0  0  0
    2.8347    0.5863   -0.1641 C   0  0  0  0  0  0  0  0  0  0  0  0
    3.1852    1.6377   -0.7478 O   0  5  0  0  0  0  0  0  0  0  0  0
    2.8272    0.4383    1.0853 O   0  0  0  0  0  0  0  0  0  0  0  0
   -0.3145    1.2046    0.4609 C   0  0  0  0  0  0  0  0  0  0  0  0
   -1.3310    1.7366    0.0098 O   0  0  0  0  0  0  0  0  0  0  0  0
    0.4314    1.8770    1.4073 N   0  0  0  0  0  0  0  0  0  0  0  0
    1.3632    1.4659    1.5656 H   0  0  0  0  0  0  0  0  0  0  0  0
    0.2962    3.3067    1.6312 C   0  0  0  0  0  0  0  0  0  0  0  0
   -0.7204    3.5516    1.9541 H   0  0  0  0  0  0  0  0  0  0  0  0
    0.9932    3.6285    2.4106 H   0  0  0  0  0  0  0  0  0  0  0  0
    0.5220    3.8588    0.7132 H   0  0  0  0  0  0  0  0  0  0  0  0
  1  2  1  0  0  0  0
  2  3  1  0  0  0  0
  2  4  1  0  0  0  0
  2  5  1  0  0  0  0
  5  6  2  0  0  0  0
  5  7  1  0  0  0  0
  7  8  1  0  0  0  0
  7  9  1  0  0  0  0
  9 10  1  0  0  0  0
  9 11  1  0  0  0  0
  9 20  1  0  0  0  0
 11 12  1  0  0  0  0
 11 13  1  0  0  0  0
 11 14  1  0  0  0  0
 14 15  1  0  0  0  0
 14 16  1  0  0  0  0
 14 17  1  0  0  0  0
 17 18  1  0  0  0  0
 17 19  2  0  0  0  0
 20 21  2  0  0  0  0
 20 22  1  0  0  0  0
 22 23  1  0  0  0  0
 22 24  1  0  0  0  0
 24 25  1  0  0  0  0
 24 26  1  0  0  0  0
 24 27  1  0  0  0  0
M  CHG  1  18  -1
M  END
$$$$

  -OEChem-03222214043D

 27 26  0     1  0  0  0  0  0999 V2000
   -3.1939   -3.6699    1.1550 H   0  0  0  0  0  0  0  0  0  0  0  0
   -3.1184   -2.7058    0.6443 C   0  0  0  0  0  0  0  0  0  0  0  0
   -3.7702   -1.9875    1.1480 H   0  0  0  0  0  0  0  0  0  0  0  0
   -3.4516   -2.8263   -0.3895 H   0  0  0  0  0  0  0  0  0  0  0  0
   -1.6842   -2.2076    0.6698 C   0  0  0  0  0  0  0  0  0  0  0  0
   -0.8219   -2.8910    1.1971 O   0  0  0  0  0  0  0  0  0  0  0  0
   -1.3912   -0.9963    0.0820 N   0  0  0  0  0  0  0  0  0  0  0  0
   -2.1797   -0.4392   -0.2397 H   0  0  0  0  0  0  0  0  0  0  0  0
   -0.1100   -0.2769    0.1746 C   0  0  1  0  0  0  0  0  0  0  0  0
    0.4319   -0.6874    1.0319 H   0  0  0  0  0  0  0  0  0  0  0  0
    0.7140   -0.5387   -1.1073 C   0  0  0  0  0  0  0  0  0  0  0  0
    0.4423   -1.5179   -1.5146 H   0  0  0  0  0  0  0  0  0  0  0  0
    0.4228    0.2098   -1.8515 H   0  0  0  0  0  0  0  0  0  0  0  0
    2.2595   -0.5134   -0.9706 C   0  0  0  0  0  0  0  0  0  0  0  0
    2.5936   -1.5266   -0.7290 H   0  0  0  0  0  0  0  0  0  0  0  0
    2.6948   -0.2568   -1.9411 H   0  0  0  0  0  0  0  0  0  0  0  0
    2.8403    0.4124    0.1054 C   0  0  0  0  0  0  0  0  0  0  0  0
    3.3371    1.4919   -0.2911 O   0  5  0  0  0  0  0  0  0  0  0  0
    2.6849    0.1164    1.3169 O   0  0  0  0  0  0  0  0  0  0  0  0
   -0.3410    1.2224    0.4578 C   0  0  0  0  0  0  0  0  0  0  0  0
   -1.3280    1.7799   -0.0240 O   0  0  0  0  0  0  0  0  0  0  0  0
    0.4158    1.8747    1.4095 N   0  0  0  0  0  0  0  0  0  0  0  0
    1.3112    1.4117    1.6251 H   0  0  0  0  0  0  0  0  0  0  0  0
    0.3344    3.3090    1.6283 C   0  0  0  0  0  0  0  0  0  0  0  0
   -0.6764    3.5948    1.9357 H   0  0  0  0  0  0  0  0  0  0  0  0
    1.0325    3.6052    2.4169 H   0  0  0  0  0  0  0  0  0  0  0  0
    0.5950    3.8491    0.7126 H   0  0  0  0  0  0  0  0  0  0  0  0
  1  2  1  0  0  0  0
  2  3  1  0  0  0  0
  2  4  1  0  0  0  0
  2  5  1  0  0  0  0
  5  6  2  0  0  0  0
  5  7  1  0  0  0  0
  7  8  1  0  0  0  0
  7  9  1  0  0  0  0
  9 10  1  0  0  0  0
  9 11  1  0  0  0  0
  9 20  1  0  0  0  0
 11 12  1  0  0  0  0
 11 13  1  0  0  0  0
 11 14  1  0  0  0  0
 14 15  1  0  0  0  0
 14 16  1  0  0  0  0
 14 17  1  0  0  0  0
 17 18  1  0  0  0  0
 17 19  2  0  0  0  0
 20 21  2  0  0  0  0
 20 22  1  0  0  0  0
 22 23  1  0  0  0  0
 22 24  1  0  0  0  0
 24 25  1  0  0  0  0
 24 26  1  0  0  0  0
 24 27  1  0  0  0  0
M  CHG  1  18  -1
M  END
$$$$

  -OEChem-03222214043D

 27 26  0     1  0  0  0  0  0999 V2000
   -3.3580   -3.4526    1.2026 H   0  0  0  0  0  0  0  0  0  0  0  0
   -3.2053   -2.5342    0.6289 C   0  0  0  0  0  0  0  0  0  0  0  0
   -3.8261   -1.7438    1.0580 H   0  0  0  0  0  0  0  0  0  0  0  0
   -3.5123   -2.7078   -0.4053 H   0  0  0  0  0  0  0  0  0  0  0  0
   -1.7436   -2.1247    0.6709 C   0  0  0  0  0  0  0  0  0  0  0  0
   -0.9354   -2.8485    1.2272 O   0  0  0  0  0  0  0  0  0  0  0  0
   -1.3672   -0.9437    0.0702 N   0  0  0  0  0  0  0  0  0  0  0  0
   -2.1173   -0.3378   -0.2572 H   0  0  0  0  0  0  0  0  0  0  0  0
   -0.0489   -0.2966    0.1817 C   0  0  1  0  0  0  0  0  0  0  0  0
    0.4768   -0.7150    1.0476 H   0  0  0  0  0  0  0  0  0  0  0  0
    0.7622   -0.5667   -1.1084 C   0  0  0  0  0  0  0  0  0  0  0  0
    0.4375   -1.5206   -1.5370 H   0  0  0  0  0  0  0  0  0  0  0  0
    0.5134    0.2106   -1.8384 H   0  0  0  0  0  0  0  0  0  0  0  0
    2.3065   -0.6330   -0.9655 C   0  0  0  0  0  0  0  0  0  0  0  0
    2.6086   -1.6819   -1.0424 H   0  0  0  0  0  0  0  0  0  0  0  0
    2.7651   -0.1080   -1.8086 H   0  0  0  0  0  0  0  0  0  0  0  0
    2.8952   -0.0801    0.3341 C   0  0  0  0  0  0  0  0  0  0  0  0
    3.1468   -0.8848    1.2592 O   0  5  0  0  0  0  0  0  0  0  0  0
    2.9791    1.1675    0.4441 O   0  0  0  0  0  0  0  0  0  0  0  0
   -0.2678    1.2158    0.4331 C   0  0  0  0  0  0  0  0  0  0  0  0
   -1.2694    1.7551   -0.0435 O   0  0  0  0  0  0  0  0  0  0  0  0
    0.4589    1.8925    1.3915 N   0  0  0  0  0  0  0  0  0  0  0  0
    1.4288    1.5537    1.4685 H   0  0  0  0  0  0  0  0  0  0  0  0
    0.2510    3.3057    1.6638 C   0  0  0  0  0  0  0  0  0  0  0  0
   -0.7755    3.4865    1.9977 H   0  0  0  0  0  0  0  0  0  0  0  0
    0.9330    3.6366    2.4526 H   0  0  0  0  0  0  0  0  0  0  0  0
    0.4435    3.8999    0.7649 H   0  0  0  0  0  0  0  0  0  0  0  0
  1  2  1  0  0  0  0
  2  3  1  0  0  0  0
  2  4  1  0  0  0  0
  2  5  1  0  0  0  0
  5  6  2  0  0  0  0
  5  7  1  0  0  0  0
  7  8  1  0  0  0  0
  7  9  1  0  0  0  0
  9 10  1  0  0  0  0
  9 11  1  0  0  0  0
  9 20  1  0  0  0  0
 11 12  1  0  0  0  0
 11 13  1  0  0  0  0
 11 14  1  0  0  0  0
 14 15  1  0  0  0  0
 14 16  1  0  0  0  0
 14 17  1  0  0  0  0
 17 18  1  0  0  0  0
 17 19  2  0  0  0  0
 20 21  2  0  0  0  0
 20 22  1  0  0  0  0
 22 23  1  0  0  0  0
 22 24  1  0  0  0  0
 24 25  1  0  0  0  0
 24 26  1  0  0  0  0
 24 27  1  0  0  0  0
M  CHG  1  18  -1
M  END
$$$$

  -OEChem-03222214043D

 27 26  0     1  0  0  0  0  0999 V2000
   -3.3013   -3.5533    1.1619 H   0  0  0  0  0  0  0  0  0  0  0  0
   -3.1620   -2.6238    0.6029 C   0  0  0  0  0  0  0  0  0  0  0  0
   -3.8301   -1.8626    1.0134 H   0  0  0  0  0  0  0  0  0  0  0  0
   -3.4211   -2.7993   -0.4441 H   0  0  0  0  0  0  0  0  0  0  0  0
   -1.7201   -2.1582    0.7071 C   0  0  0  0  0  0  0  0  0  0  0  0
   -0.9172   -2.8298    1.3319 O   0  0  0  0  0  0  0  0  0  0  0  0
   -1.3563   -0.9780    0.0971 N   0  0  0  0  0  0  0  0  0  0  0  0
   -2.1070   -0.4090   -0.2890 H   0  0  0  0  0  0  0  0  0  0  0  0
   -0.0549   -0.2999    0.2249 C   0  0  1  0  0  0  0  0  0  0  0  0
    0.4742   -0.6955    1.0987 H   0  0  0  0  0  0  0  0  0  0  0  0
    0.7678   -0.5441   -1.0640 C   0  0  0  0  0  0  0  0  0  0  0  0
    0.4670   -1.5153   -1.4704 H   0  0  0  0  0  0  0  0  0  0  0  0
    0.4878    0.2071   -1.8099 H   0  0  0  0  0  0  0  0  0  0  0  0
    2.3178   -0.5831   -0.9516 C   0  0  0  0  0  0  0  0  0  0  0  0
    2.6646   -1.5435   -1.3458 H   0  0  0  0  0  0  0  0  0  0  0  0
    2.7226    0.1927   -1.6079 H   0  0  0  0  0  0  0  0  0  0  0  0
    2.9467   -0.3793    0.4312 C   0  0  0  0  0  0  0  0  0  0  0  0
    2.8167    0.7470    0.9737 O   0  5  0  0  0  0  0  0  0  0  0  0
    3.5597   -1.3437    0.9440 O   0  0  0  0  0  0  0  0  0  0  0  0
   -0.3179    1.2093    0.4496 C   0  0  0  0  0  0  0  0  0  0  0  0
   -1.2936    1.7335   -0.0920 O   0  0  0  0  0  0  0  0  0  0  0  0
    0.3687    1.9194    1.4115 N   0  0  0  0  0  0  0  0  0  0  0  0
    1.3118    1.5438    1.5927 H   0  0  0  0  0  0  0  0  0  0  0  0
    0.1676    3.3424    1.6318 C   0  0  0  0  0  0  0  0  0  0  0  0
   -0.8716    3.5456    1.9094 H   0  0  0  0  0  0  0  0  0  0  0  0
    0.8149    3.6878    2.4433 H   0  0  0  0  0  0  0  0  0  0  0  0
    0.4113    3.9074    0.7266 H   0  0  0  0  0  0  0  0  0  0  0  0
  1  2  1  0  0  0  0
  2  3  1  0  0  0  0
  2  4  1  0  0  0  0
  2  5  1  0  0  0  0
  5  6  2  0  0  0  0
  5  7  1  0  0  0  0
  7  8  1  0  0  0  0
  7  9  1  0  0  0  0
  9 10  1  0  0  0  0
  9 11  1  0  0  0  0
  9 20  1  0  0  0  0
 11 12  1  0  0  0  0
 11 13  1  0  0  0  0
 11 14  1  0  0  0  0
 14 15  1  0  0  0  0
 14 16  1  0  0  0  0
 14 17  1  0  0  0  0
 17 18  1  0  0  0  0
 17 19  2  0  0  0  0
 20 21  2  0  0  0  0
 20 22  1  0  0  0  0
 22 23  1  0  0  0  0
 22 24  1  0  0  0  0
 24 25  1  0  0  0  0
 24 26  1  0  0  0  0
 24 27  1  0  0  0  0
M  CHG  1  18  -1
M  END
$$$$

  -OEChem-03222214043D

 27 26  0     1  0  0  0  0  0999 V2000
   -3.0589   -1.9643    1.7042 H   0  0  0  0  0  0  0  0  0  0  0  0
   -3.0930   -2.4647    0.7331 C   0  0  0  0  0  0  0  0  0  0  0  0
   -3.9857   -2.1371    0.1948 H   0  0  0  0  0  0  0  0  0  0  0  0
   -3.1534   -3.5443    0.8969 H   0  0  0  0  0  0  0  0  0  0  0  0
   -1.8503   -2.1205   -0.0692 C   0  0  0  0  0  0  0  0  0  0  0  0
   -1.2344   -3.0303   -0.6028 O   0  0  0  0  0  0  0  0  0  0  0  0
   -1.5654   -0.7821   -0.2714 N   0  0  0  0  0  0  0  0  0  0  0  0
   -2.2359   -0.1552    0.1775 H   0  0  0  0  0  0  0  0  0  0  0  0
   -0.3099   -0.0641   -0.6387 C   0  0  1  0  0  0  0  0  0  0  0  0
   -0.4078    0.4037   -1.6219 H   0  0  0  0  0  0  0  0  0  0  0  0
    0.9244   -1.0449   -0.7467 C   0  0  0  0  0  0  0  0  0  0  0  0
    0.7431   -1.7797    0.0403 H   0  0  0  0  0  0  0  0  0  0  0  0
    0.8356   -1.5649   -1.7058 H   0  0  0  0  0  0  0  0  0  0  0  0
    2.4390   -0.7821   -0.5035 C   0  0  0  0  0  0  0  0  0  0  0  0
    2.8597   -1.6521    0.0109 H   0  0  0  0  0  0  0  0  0  0  0  0
    2.9108   -0.7563   -1.4905 H   0  0  0  0  0  0  0  0  0  0  0  0
    2.9223    0.4567    0.2152 C   0  0  0  0  0  0  0  0  0  0  0  0
    3.0044    1.5151   -0.4489 O   0  5  0  0  0  0  0  0  0  0  0  0
    3.0603    0.3894    1.4597 O   0  0  0  0  0  0  0  0  0  0  0  0
   -0.4177    1.1167    0.4034 C   0  0  0  0  0  0  0  0  0  0  0  0
   -1.5311    1.6476    0.4974 O   0  0  0  0  0  0  0  0  0  0  0  0
    0.5291    1.6682    1.2416 N   0  0  0  0  0  0  0  0  0  0  0  0
    1.4808    1.2944    1.2139 H   0  0  0  0  0  0  0  0  0  0  0  0
    0.3081    2.8192    2.1044 C   0  0  0  0  0  0  0  0  0  0  0  0
   -0.4896    2.6138    2.8249 H   0  0  0  0  0  0  0  0  0  0  0  0
    1.2243    3.0459    2.6579 H   0  0  0  0  0  0  0  0  0  0  0  0
    0.0370    3.6972    1.5098 H   0  0  0  0  0  0  0  0  0  0  0  0
  1  2  1  0  0  0  0
  2  3  1  0  0  0  0
  2  4  1  0  0  0  0
  2  5  1  0  0  0  0
  5  6  2  0  0  0  0
  5  7  1  0  0  0  0
  7  8  1  0  0  0  0
  7  9  1  0  0  0  0
  9 10  1  0  0  0  0
  9 11  1  0  0  0  0
  9 20  1  0  0  0  0
 11 12  1  0  0  0  0
 11 13  1  0  0  0  0
 11 14  1  0  0  0  0
 14 15  1  0  0  0  0
 14 16  1  0  0  0  0
 14 17  1  0  0  0  0
 17 18  1  0  0  0  0
 17 19  2  0  0  0  0
 20 21  2  0  0  0  0
 20 22  1  0  0  0  0
 22 23  1  0  0  0  0
 22 24  1  0  0  0  0
 24 25  1  0  0  0  0
 24 26  1  0  0  0  0
 24 27  1  0  0  0  0
M  CHG  1  18  -1
M  END
$$$$

  -OEChem-03222214043D

 27 26  0     1  0  0  0  0  0999 V2000
   -3.2840   -3.4285    1.0181 H   0  0  0  0  0  0  0  0  0  0  0  0
   -3.1533   -2.3562    0.8478 C   0  0  0  0  0  0  0  0  0  0  0  0
   -3.0561   -1.8565    1.8150 H   0  0  0  0  0  0  0  0  0  0  0  0
   -4.0364   -1.9692    0.3335 H   0  0  0  0  0  0  0  0  0  0  0  0
   -1.9122   -2.1021    0.0101 C   0  0  0  0  0  0  0  0  0  0  0  0
   -1.3387   -3.0602   -0.4849 O   0  0  0  0  0  0  0  0  0  0  0  0
   -1.5892   -0.7897   -0.2832 N   0  0  0  0  0  0  0  0  0  0  0  0
   -2.2395   -0.1157    0.1240 H   0  0  0  0  0  0  0  0  0  0  0  0
   -0.3032   -0.1390   -0.6630 C   0  0  1  0  0  0  0  0  0  0  0  0
   -0.3856    0.2611   -1.6770 H   0  0  0  0  0  0  0  0  0  0  0  0
    0.8991   -1.1627   -0.7346 C   0  0  0  0  0  0  0  0  0  0  0  0
    0.6930   -1.8668    0.0739 H   0  0  0  0  0  0  0  0  0  0  0  0
    0.8010   -1.7089   -1.6782 H   0  0  0  0  0  0  0  0  0  0  0  0
    2.4175   -0.9406   -0.4848 C   0  0  0  0  0  0  0  0  0  0  0  0
    2.8526   -1.8981   -0.1825 H   0  0  0  0  0  0  0  0  0  0  0  0
    2.8568   -0.6937   -1.4562 H   0  0  0  0  0  0  0  0  0  0  0  0
    2.9137    0.1074    0.4873 C   0  0  0  0  0  0  0  0  0  0  0  0
    2.6907   -0.0909    1.7052 O   0  5  0  0  0  0  0  0  0  0  0  0
    3.3885    1.1681    0.0210 O   0  0  0  0  0  0  0  0  0  0  0  0
   -0.3637    1.1325    0.2615 C   0  0  0  0  0  0  0  0  0  0  0  0
   -1.4461    1.7285    0.2635 O   0  0  0  0  0  0  0  0  0  0  0  0
    0.5988    1.7108    1.0606 N   0  0  0  0  0  0  0  0  0  0  0  0
    1.4728    1.1991    1.2083 H   0  0  0  0  0  0  0  0  0  0  0  0
    0.4079    2.9175    1.8510 C   0  0  0  0  0  0  0  0  0  0  0  0
   -0.3672    2.7624    2.6078 H   0  0  0  0  0  0  0  0  0  0  0  0
    1.3416    3.1779    2.3585 H   0  0  0  0  0  0  0  0  0  0  0  0
    0.1198    3.7559    1.2091 H   0  0  0  0  0  0  0  0  0  0  0  0
  1  2  1  0  0  0  0
  2  3  1  0  0  0  0
  2  4  1  0  0  0  0
  2  5  1  0  0  0  0
  5  6  2  0  0  0  0
  5  7  1  0  0  0  0
  7  8  1  0  0  0  0
  7  9  1  0  0  0  0
  9 10  1  0  0  0  0
  9 11  1  0  0  0  0
  9 20  1  0  0  0  0
 11 12  1  0  0  0  0
 11 13  1  0  0  0  0
 11 14  1  0  0  0  0
 14 15  1  0  0  0  0
 14 16  1  0  0  0  0
 14 17  1  0  0  0  0
 17 18  1  0  0  0  0
 17 19  2  0  0  0  0
 20 21  2  0  0  0  0
 20 22  1  0  0  0  0
 22 23  1  0  0  0  0
 22 24  1  0  0  0  0
 24 25  1  0  0  0  0
 24 26  1  0  0  0  0
 24 27  1  0  0  0  0
M  CHG  1  18  -1
M  END
$$$$

  -OEChem-03222214043D

 27 26  0     1  0  0  0  0  0999 V2000
   -3.3127   -3.6408    1.2201 H   0  0  0  0  0  0  0  0  0  0  0  0
   -3.2217   -2.7255    0.6285 C   0  0  0  0  0  0  0  0  0  0  0  0
   -3.9377   -1.9907    1.0046 H   0  0  0  0  0  0  0  0  0  0  0  0
   -3.4578   -2.9546   -0.4134 H   0  0  0  0  0  0  0  0  0  0  0  0
   -1.8103   -2.1735    0.7300 C   0  0  0  0  0  0  0  0  0  0  0  0
   -0.9787   -2.7853    1.3749 O   0  0  0  0  0  0  0  0  0  0  0  0
   -1.5178   -0.9795    0.1050 N   0  0  0  0  0  0  0  0  0  0  0  0
   -2.2931   -0.4955   -0.3385 H   0  0  0  0  0  0  0  0  0  0  0  0
   -0.2346   -0.2559    0.1254 C   0  0  1  0  0  0  0  0  0  0  0  0
    0.2673   -0.6451    1.0141 H   0  0  0  0  0  0  0  0  0  0  0  0
    0.6314   -0.6001   -1.1043 C   0  0  0  0  0  0  0  0  0  0  0  0
    0.4180   -1.6358   -1.3890 H   0  0  0  0  0  0  0  0  0  0  0  0
    0.3475    0.0366   -1.9479 H   0  0  0  0  0  0  0  0  0  0  0  0
    2.1571   -0.5045   -0.8682 C   0  0  0  0  0  0  0  0  0  0  0  0
    2.6653   -0.9734   -1.7159 H   0  0  0  0  0  0  0  0  0  0  0  0
    2.4371    0.5531   -0.8780 H   0  0  0  0  0  0  0  0  0  0  0  0
    2.7061   -1.1141    0.4196 C   0  0  0  0  0  0  0  0  0  0  0  0
    3.2494   -2.2428    0.3821 O   0  5  0  0  0  0  0  0  0  0  0  0
    2.6332   -0.3739    1.4396 O   0  0  0  0  0  0  0  0  0  0  0  0
   -0.2999    1.2560    0.3643 C   0  0  0  0  0  0  0  0  0  0  0  0
   -1.1978    1.9331   -0.1319 O   0  0  0  0  0  0  0  0  0  0  0  0
    0.5948    1.8101    1.2578 N   0  0  0  0  0  0  0  0  0  0  0  0
    1.3748    1.1964    1.5389 H   0  0  0  0  0  0  0  0  0  0  0  0
    0.6855    3.2338    1.5309 C   0  0  0  0  0  0  0  0  0  0  0  0
   -0.2711    3.6141    1.9025 H   0  0  0  0  0  0  0  0  0  0  0  0
    1.4502    3.4193    2.2909 H   0  0  0  0  0  0  0  0  0  0  0  0
    0.9572    3.7801    0.6223 H   0  0  0  0  0  0  0  0  0  0  0  0
  1  2  1  0  0  0  0
  2  3  1  0  0  0  0
  2  4  1  0  0  0  0
  2  5  1  0  0  0  0
  5  6  2  0  0  0  0
  5  7  1  0  0  0  0
  7  8  1  0  0  0  0
  7  9  1  0  0  0  0
  9 10  1  0  0  0  0
  9 11  1  0  0  0  0
  9 20  1  0  0  0  0
 11 12  1  0  0  0  0
 11 13  1  0  0  0  0
 11 14  1  0  0  0  0
 14 15  1  0  0  0  0
 14 16  1  0  0  0  0
 14 17  1  0  0  0  0
 17 18  1  0  0  0  0
 17 19  2  0  0  0  0
 20 21  2  0  0  0  0
 20 22  1  0  0  0  0
 22 23  1  0  0  0  0
 22 24  1  0  0  0  0
 24 25  1  0  0  0  0
 24 26  1  0  0  0  0
 24 27  1  0  0  0  0
M  CHG  1  18  -1
M  END
$$$$

  -OEChem-03222214043D

 27 26  0     1  0  0  0  0  0999 V2000
   -3.2593   -3.6665    1.2161 H   0  0  0  0  0  0  0  0  0  0  0  0
   -3.1518   -2.7682    0.6017 C   0  0  0  0  0  0  0  0  0  0  0  0
   -3.9329   -2.0560    0.8789 H   0  0  0  0  0  0  0  0  0  0  0  0
   -3.2747   -3.0435   -0.4486 H   0  0  0  0  0  0  0  0  0  0  0  0
   -1.7830   -2.1461    0.8157 C   0  0  0  0  0  0  0  0  0  0  0  0
   -1.0044   -2.6710    1.5907 O   0  0  0  0  0  0  0  0  0  0  0  0
   -1.4856   -0.9632    0.1729 N   0  0  0  0  0  0  0  0  0  0  0  0
   -2.2233   -0.5504   -0.3899 H   0  0  0  0  0  0  0  0  0  0  0  0
   -0.1956   -0.2528    0.1775 C   0  0  1  0  0  0  0  0  0  0  0  0
    0.3630   -0.6430    1.0340 H   0  0  0  0  0  0  0  0  0  0  0  0
    0.5939   -0.5720   -1.1094 C   0  0  0  0  0  0  0  0  0  0  0  0
    0.3459   -1.5872   -1.4370 H   0  0  0  0  0  0  0  0  0  0  0  0
    0.2925    0.1134   -1.9079 H   0  0  0  0  0  0  0  0  0  0  0  0
    2.1216   -0.5105   -0.9190 C   0  0  0  0  0  0  0  0  0  0  0  0
    2.5968   -0.7310   -1.8792 H   0  0  0  0  0  0  0  0  0  0  0  0
    2.4072    0.5108   -0.6502 H   0  0  0  0  0  0  0  0  0  0  0  0
    2.6911   -1.4699    0.1204 C   0  0  0  0  0  0  0  0  0  0  0  0
    3.0338   -2.6219   -0.2380 O   0  5  0  0  0  0  0  0  0  0  0  0
    2.8247   -0.9967    1.2794 O   0  0  0  0  0  0  0  0  0  0  0  0
   -0.2846    1.2616    0.4024 C   0  0  0  0  0  0  0  0  0  0  0  0
   -1.1756    1.9268   -0.1208 O   0  0  0  0  0  0  0  0  0  0  0  0
    0.5984    1.8478    1.2877 N   0  0  0  0  0  0  0  0  0  0  0  0
    1.3642    1.2522    1.6148 H   0  0  0  0  0  0  0  0  0  0  0  0
    0.6543    3.2778    1.5435 C   0  0  0  0  0  0  0  0  0  0  0  0
   -0.3107    3.6393    1.9129 H   0  0  0  0  0  0  0  0  0  0  0  0
    1.4157    3.4928    2.2992 H   0  0  0  0  0  0  0  0  0  0  0  0
    0.9098    3.8195    0.6272 H   0  0  0  0  0  0  0  0  0  0  0  0
  1  2  1  0  0  0  0
  2  3  1  0  0  0  0
  2  4  1  0  0  0  0
  2  5  1  0  0  0  0
  5  6  2  0  0  0  0
  5  7  1  0  0  0  0
  7  8  1  0  0  0  0
  7  9  1  0  0  0  0
  9 10  1  0  0  0  0
  9 11  1  0  0  0  0
  9 20  1  0  0  0  0
 11 12  1  0  0  0  0
 11 13  1  0  0  0  0
 11 14  1  0  0  0  0
 14 15  1  0  0  0  0
 14 16  1  0  0  0  0
 14 17  1  0  0  0  0
 17 18  1  0  0  0  0
 17 19  2  0  0  0  0
 20 21  2  0  0  0  0
 20 22  1  0  0  0  0
 22 23  1  0  0  0  0
 22 24  1  0  0  0  0
 24 25  1  0  0  0  0
 24 26  1  0  0  0  0
 24 27  1  0  0  0  0
M  CHG  1  18  -1
M  END
$$$$

  -OEChem-03222214043D

 27 26  0     1  0  0  0  0  0999 V2000
   -3.1936   -3.6741    1.2354 H   0  0  0  0  0  0  0  0  0  0  0  0
   -3.0708   -2.8041    0.5844 C   0  0  0  0  0  0  0  0  0  0  0  0
   -3.9026   -2.1161    0.7535 H   0  0  0  0  0  0  0  0  0  0  0  0
   -3.0880   -3.1380   -0.4559 H   0  0  0  0  0  0  0  0  0  0  0  0
   -1.7535   -2.1091    0.8809 C   0  0  0  0  0  0  0  0  0  0  0  0
   -1.0295   -2.5466    1.7577 O   0  0  0  0  0  0  0  0  0  0  0  0
   -1.4540   -0.9377    0.2187 N   0  0  0  0  0  0  0  0  0  0  0  0
   -2.1474   -0.5922   -0.4376 H   0  0  0  0  0  0  0  0  0  0  0  0
   -0.1527   -0.2497    0.2169 C   0  0  1  0  0  0  0  0  0  0  0  0
    0.4468   -0.6497    1.0433 H   0  0  0  0  0  0  0  0  0  0  0  0
    0.5752   -0.5500   -1.1095 C   0  0  0  0  0  0  0  0  0  0  0  0
    0.2839   -1.5397   -1.4785 H   0  0  0  0  0  0  0  0  0  0  0  0
    0.2743    0.1808   -1.8672 H   0  0  0  0  0  0  0  0  0  0  0  0
    2.1045   -0.5315   -0.9511 C   0  0  0  0  0  0  0  0  0  0  0  0
    2.5547   -0.4900   -1.9470 H   0  0  0  0  0  0  0  0  0  0  0  0
    2.4153    0.3735   -0.4208 H   0  0  0  0  0  0  0  0  0  0  0  0
    2.6589   -1.7629   -0.2423 C   0  0  0  0  0  0  0  0  0  0  0  0
    2.7855   -2.8255   -0.8984 O   0  5  0  0  0  0  0  0  0  0  0  0
    2.9846   -1.6100    0.9614 O   0  0  0  0  0  0  0  0  0  0  0  0
   -0.2646    1.2689    0.4300 C   0  0  0  0  0  0  0  0  0  0  0  0
   -1.1509    1.9189   -0.1192 O   0  0  0  0  0  0  0  0  0  0  0  0
    0.5968    1.8922    1.3120 N   0  0  0  0  0  0  0  0  0  0  0  0
    1.3541    1.3208    1.6854 H   0  0  0  0  0  0  0  0  0  0  0  0
    0.6011    3.3254    1.5591 C   0  0  0  0  0  0  0  0  0  0  0  0
   -0.3794    3.6551    1.9173 H   0  0  0  0  0  0  0  0  0  0  0  0
    1.3473    3.5728    2.3201 H   0  0  0  0  0  0  0  0  0  0  0  0
    0.8460    3.8701    0.6418 H   0  0  0  0  0  0  0  0  0  0  0  0
  1  2  1  0  0  0  0
  2  3  1  0  0  0  0
  2  4  1  0  0  0  0
  2  5  1  0  0  0  0
  5  6  2  0  0  0  0
  5  7  1  0  0  0  0
  7  8  1  0  0  0  0
  7  9  1  0  0  0  0
  9 10  1  0  0  0  0
  9 11  1  0  0  0  0
  9 20  1  0  0  0  0
 11 12  1  0  0  0  0
 11 13  1  0  0  0  0
 11 14  1  0  0  0  0
 14 15  1  0  0  0  0
 14 16  1  0  0  0  0
 14 17  1  0  0  0  0
 17 18  1  0  0  0  0
 17 19  2  0  0  0  0
 20 21  2  0  0  0  0
 20 22  1  0  0  0  0
 22 23  1  0  0  0  0
 22 24  1  0  0  0  0
 24 25  1  0  0  0  0
 24 26  1  0  0  0  0
 24 27  1  0  0  0  0
M  CHG  1  18  -1
M  END
$$$$

  -OEChem-03222214043D

 27 26  0     1  0  0  0  0  0999 V2000
   -3.1590   -3.6877    1.2404 H   0  0  0  0  0  0  0  0  0  0  0  0
   -3.0376   -2.8270    0.5768 C   0  0  0  0  0  0  0  0  0  0  0  0
   -3.8899   -2.1562    0.7090 H   0  0  0  0  0  0  0  0  0  0  0  0
   -3.0174   -3.1808   -0.4570 H   0  0  0  0  0  0  0  0  0  0  0  0
   -1.7451   -2.0960    0.8962 C   0  0  0  0  0  0  0  0  0  0  0  0
   -1.0326   -2.4995    1.7998 O   0  0  0  0  0  0  0  0  0  0  0  0
   -1.4518   -0.9270    0.2270 N   0  0  0  0  0  0  0  0  0  0  0  0
   -2.1258   -0.6132   -0.4647 H   0  0  0  0  0  0  0  0  0  0  0  0
   -0.1468   -0.2471    0.2248 C   0  0  1  0  0  0  0  0  0  0  0  0
    0.4619   -0.6520    1.0422 H   0  0  0  0  0  0  0  0  0  0  0  0
    0.5687   -0.5437   -1.1076 C   0  0  0  0  0  0  0  0  0  0  0  0
    0.2571   -1.5198   -1.4961 H   0  0  0  0  0  0  0  0  0  0  0  0
    0.2763    0.2044   -1.8514 H   0  0  0  0  0  0  0  0  0  0  0  0
    2.0999   -0.5380   -0.9480 C   0  0  0  0  0  0  0  0  0  0  0  0
    2.5430   -0.2410   -1.9029 H   0  0  0  0  0  0  0  0  0  0  0  0
    2.4073    0.2063   -0.2074 H   0  0  0  0  0  0  0  0  0  0  0  0
    2.6735   -1.9068   -0.5889 C   0  0  0  0  0  0  0  0  0  0  0  0
    2.6247   -2.8176   -1.4524 O   0  5  0  0  0  0  0  0  0  0  0  0
    3.1960   -2.0164    0.5474 O   0  0  0  0  0  0  0  0  0  0  0  0
   -0.2638    1.2732    0.4363 C   0  0  0  0  0  0  0  0  0  0  0  0
   -1.1509    1.9204   -0.1146 O   0  0  0  0  0  0  0  0  0  0  0  0
    0.5916    1.9056    1.3184 N   0  0  0  0  0  0  0  0  0  0  0  0
    1.3487    1.3427    1.7009 H   0  0  0  0  0  0  0  0  0  0  0  0
    0.5838    3.3397    1.5611 C   0  0  0  0  0  0  0  0  0  0  0  0
   -0.3975    3.6616    1.9241 H   0  0  0  0  0  0  0  0  0  0  0  0
    1.3322    3.5954    2.3169 H   0  0  0  0  0  0  0  0  0  0  0  0
    0.8186    3.8839    0.6408 H   0  0  0  0  0  0  0  0  0  0  0  0
  1  2  1  0  0  0  0
  2  3  1  0  0  0  0
  2  4  1  0  0  0  0
  2  5  1  0  0  0  0
  5  6  2  0  0  0  0
  5  7  1  0  0  0  0
  7  8  1  0  0  0  0
  7  9  1  0  0  0  0
  9 10  1  0  0  0  0
  9 11  1  0  0  0  0
  9 20  1  0  0  0  0
 11 12  1  0  0  0  0
 11 13  1  0  0  0  0
 11 14  1  0  0  0  0
 14 15  1  0  0  0  0
 14 16  1  0  0  0  0
 14 17  1  0  0  0  0
 17 18  1  0  0  0  0
 17 19  2  0  0  0  0
 20 21  2  0  0  0  0
 20 22  1  0  0  0  0
 22 23  1  0  0  0  0
 22 24  1  0  0  0  0
 24 25  1  0  0  0  0
 24 26  1  0  0  0  0
 24 27  1  0  0  0  0
M  CHG  1  18  -1
M  END
$$$$

  -OEChem-03222214043D

 27 26  0     1  0  0  0  0  0999 V2000
   -3.1782   -3.6642    1.2676 H   0  0  0  0  0  0  0  0  0  0  0  0
   -3.0461   -2.8180    0.5875 C   0  0  0  0  0  0  0  0  0  0  0  0
   -3.8871   -2.1314    0.7107 H   0  0  0  0  0  0  0  0  0  0  0  0
   -3.0352   -3.1907   -0.4398 H   0  0  0  0  0  0  0  0  0  0  0  0
   -1.7418   -2.1014    0.8881 C   0  0  0  0  0  0  0  0  0  0  0  0
   -1.0139   -2.5185    1.7738 O   0  0  0  0  0  0  0  0  0  0  0  0
   -1.4478   -0.9328    0.2187 N   0  0  0  0  0  0  0  0  0  0  0  0
   -2.1262   -0.6099   -0.4650 H   0  0  0  0  0  0  0  0  0  0  0  0
   -0.1427   -0.2541    0.2208 C   0  0  1  0  0  0  0  0  0  0  0  0
    0.4600   -0.6582    1.0421 H   0  0  0  0  0  0  0  0  0  0  0  0
    0.5817   -0.5466   -1.1074 C   0  0  0  0  0  0  0  0  0  0  0  0
    0.2662   -1.5215   -1.4953 H   0  0  0  0  0  0  0  0  0  0  0  0
    0.2925    0.2000   -1.8546 H   0  0  0  0  0  0  0  0  0  0  0  0
    2.1160   -0.5421   -0.9422 C   0  0  0  0  0  0  0  0  0  0  0  0
    2.5502    0.0080   -1.7820 H   0  0  0  0  0  0  0  0  0  0  0  0
    2.4077   -0.0127   -0.0304 H   0  0  0  0  0  0  0  0  0  0  0  0
    2.7307   -1.9421   -0.9497 C   0  0  0  0  0  0  0  0  0  0  0  0
    2.6089   -2.6361   -1.9898 O   0  5  0  0  0  0  0  0  0  0  0  0
    3.3648   -2.2899    0.0762 O   0  0  0  0  0  0  0  0  0  0  0  0
   -0.2659    1.2664    0.4317 C   0  0  0  0  0  0  0  0  0  0  0  0
   -1.1622    1.9062   -0.1122 O   0  0  0  0  0  0  0  0  0  0  0  0
    0.5821    1.9057    1.3162 N   0  0  0  0  0  0  0  0  0  0  0  0
    1.3503    1.3538    1.6901 H   0  0  0  0  0  0  0  0  0  0  0  0
    0.5597    3.3403    1.5583 C   0  0  0  0  0  0  0  0  0  0  0  0
   -0.4281    3.6545    1.9105 H   0  0  0  0  0  0  0  0  0  0  0  0
    1.2975    3.6032    2.3221 H   0  0  0  0  0  0  0  0  0  0  0  0
    0.7994    3.8863    0.6403 H   0  0  0  0  0  0  0  0  0  0  0  0
  1  2  1  0  0  0  0
  2  3  1  0  0  0  0
  2  4  1  0  0  0  0
  2  5  1  0  0  0  0
  5  6  2  0  0  0  0
  5  7  1  0  0  0  0
  7  8  1  0  0  0  0
  7  9  1  0  0  0  0
  9 10  1  0  0  0  0
  9 11  1  0  0  0  0
  9 20  1  0  0  0  0
 11 12  1  0  0  0  0
 11 13  1  0  0  0  0
 11 14  1  0  0  0  0
 14 15  1  0  0  0  0
 14 16  1  0  0  0  0
 14 17  1  0  0  0  0
 17 18  1  0  0  0  0
 17 19  2  0  0  0  0
 20 21  2  0  0  0  0
 20 22  1  0  0  0  0
 22 23  1  0  0  0  0
 22 24  1  0  0  0  0
 24 25  1  0  0  0  0
 24 26  1  0  0  0  0
 24 27  1  0  0  0  0
M  CHG  1  18  -1
M  END
$$$$

  -OEChem-03222214043D

 27 26  0     1  0  0  0  0  0999 V2000
   -3.1781   -3.6690    1.2540 H   0  0  0  0  0  0  0  0  0  0  0  0
   -3.0614   -2.8046    0.5943 C   0  0  0  0  0  0  0  0  0  0  0  0
   -3.8927   -2.1159    0.7640 H   0  0  0  0  0  0  0  0  0  0  0  0
   -3.0865   -3.1475   -0.4432 H   0  0  0  0  0  0  0  0  0  0  0  0
   -1.7427   -2.1056    0.8737 C   0  0  0  0  0  0  0  0  0  0  0  0
   -1.0005   -2.5395    1.7401 O   0  0  0  0  0  0  0  0  0  0  0  0
   -1.4444   -0.9383    0.2036 N   0  0  0  0  0  0  0  0  0  0  0  0
   -2.1283   -0.6006   -0.4678 H   0  0  0  0  0  0  0  0  0  0  0  0
   -0.1397   -0.2590    0.2139 C   0  0  1  0  0  0  0  0  0  0  0  0
    0.4507   -0.6584    1.0450 H   0  0  0  0  0  0  0  0  0  0  0  0
    0.6008   -0.5508   -1.1057 C   0  0  0  0  0  0  0  0  0  0  0  0
    0.2907   -1.5356   -1.4728 H   0  0  0  0  0  0  0  0  0  0  0  0
    0.3104    0.1765   -1.8713 H   0  0  0  0  0  0  0  0  0  0  0  0
    2.1374   -0.5455   -0.9348 C   0  0  0  0  0  0  0  0  0  0  0  0
    2.5571    0.2271   -1.5852 H   0  0  0  0  0  0  0  0  0  0  0  0
    2.4129   -0.2831    0.0907 H   0  0  0  0  0  0  0  0  0  0  0  0
    2.7936   -1.8790   -1.3012 C   0  0  0  0  0  0  0  0  0  0  0  0
    2.5964   -2.3341   -2.4558 O   0  5  0  0  0  0  0  0  0  0  0  0
    3.5368   -2.4088   -0.4392 O   0  0  0  0  0  0  0  0  0  0  0  0
   -0.2676    1.2617    0.4200 C   0  0  0  0  0  0  0  0  0  0  0  0
   -1.1720    1.8947   -0.1182 O   0  0  0  0  0  0  0  0  0  0  0  0
    0.5722    1.9054    1.3094 N   0  0  0  0  0  0  0  0  0  0  0  0
    1.3487    1.3623    1.6778 H   0  0  0  0  0  0  0  0  0  0  0  0
    0.5358    3.3393    1.5545 C   0  0  0  0  0  0  0  0  0  0  0  0
   -0.4530    3.6417    1.9141 H   0  0  0  0  0  0  0  0  0  0  0  0
    1.2758    3.6084    2.3140 H   0  0  0  0  0  0  0  0  0  0  0  0
    0.7633    3.8900    0.6361 H   0  0  0  0  0  0  0  0  0  0  0  0
  1  2  1  0  0  0  0
  2  3  1  0  0  0  0
  2  4  1  0  0  0  0
  2  5  1  0  0  0  0
  5  6  2  0  0  0  0
  5  7  1  0  0  0  0
  7  8  1  0  0  0  0
  7  9  1  0  0  0  0
  9 10  1  0  0  0  0
  9 11  1  0  0  0  0
  9 20  1  0  0  0  0
 11 12  1  0  0  0  0
 11 13  1  0  0  0  0
 11 14  1  0  0  0  0
 14 15  1  0  0  0  0
 14 16  1  0  0  0  0
 14 17  1  0  0  0  0
 17 18  1  0  0  0  0
 17 19  2  0  0  0  0
 20 21  2  0  0  0  0
 20 22  1  0  0  0  0
 22 23  1  0  0  0  0
 22 24  1  0  0  0  0
 24 25  1  0  0  0  0
 24 26  1  0  0  0  0
 24 27  1  0  0  0  0
M  CHG  1  18  -1
M  END
$$$$

  -OEChem-03222214043D

 27 26  0     1  0  0  0  0  0999 V2000
   -3.1547   -3.7007    1.2040 H   0  0  0  0  0  0  0  0  0  0  0  0
   -3.0615   -2.8029    0.5867 C   0  0  0  0  0  0  0  0  0  0  0  0
   -3.8923   -2.1302    0.8128 H   0  0  0  0  0  0  0  0  0  0  0  0
   -3.1125   -3.0931   -0.4657 H   0  0  0  0  0  0  0  0  0  0  0  0
   -1.7406   -2.1082    0.8657 C   0  0  0  0  0  0  0  0  0  0  0  0
   -0.9910   -2.5523    1.7210 O   0  0  0  0  0  0  0  0  0  0  0  0
   -1.4399   -0.9416    0.1958 N   0  0  0  0  0  0  0  0  0  0  0  0
   -2.1277   -0.5944   -0.4671 H   0  0  0  0  0  0  0  0  0  0  0  0
   -0.1369   -0.2600    0.2111 C   0  0  1  0  0  0  0  0  0  0  0  0
    0.4445   -0.6532    1.0506 H   0  0  0  0  0  0  0  0  0  0  0  0
    0.6151   -0.5524   -1.1013 C   0  0  0  0  0  0  0  0  0  0  0  0
    0.3176   -1.5493   -1.4459 H   0  0  0  0  0  0  0  0  0  0  0  0
    0.3238    0.1544   -1.8855 H   0  0  0  0  0  0  0  0  0  0  0  0
    2.1498   -0.5434   -0.9216 C   0  0  0  0  0  0  0  0  0  0  0  0
    2.5509    0.3903   -1.3255 H   0  0  0  0  0  0  0  0  0  0  0  0
    2.4127   -0.5775    0.1395 H   0  0  0  0  0  0  0  0  0  0  0  0
    2.8342   -1.7226   -1.6187 C   0  0  0  0  0  0  0  0  0  0  0  0
    2.5923   -1.9020   -2.8386 O   0  5  0  0  0  0  0  0  0  0  0  0
    3.6333   -2.4116   -0.9384 O   0  0  0  0  0  0  0  0  0  0  0  0
   -0.2696    1.2607    0.4138 C   0  0  0  0  0  0  0  0  0  0  0  0
   -1.1856    1.8857   -0.1137 O   0  0  0  0  0  0  0  0  0  0  0  0
    0.5640    1.9095    1.3056 N   0  0  0  0  0  0  0  0  0  0  0  0
    1.3533    1.3768    1.6611 H   0  0  0  0  0  0  0  0  0  0  0  0
    0.5189    3.3445    1.5438 C   0  0  0  0  0  0  0  0  0  0  0  0
   -0.4685    3.6404    1.9124 H   0  0  0  0  0  0  0  0  0  0  0  0
    1.2650    3.6237    2.2935 H   0  0  0  0  0  0  0  0  0  0  0  0
    0.7319    3.8925    0.6203 H   0  0  0  0  0  0  0  0  0  0  0  0
  1  2  1  0  0  0  0
  2  3  1  0  0  0  0
  2  4  1  0  0  0  0
  2  5  1  0  0  0  0
  5  6  2  0  0  0  0
  5  7  1  0  0  0  0
  7  8  1  0  0  0  0
  7  9  1  0  0  0  0
  9 10  1  0  0  0  0
  9 11  1  0  0  0  0
  9 20  1  0  0  0  0
 11 12  1  0  0  0  0
 11 13  1  0  0  0  0
 11 14  1  0  0  0  0
 14 15  1  0  0  0  0
 14 16  1  0  0  0  0
 14 17  1  0  0  0  0
 17 18  1  0  0  0  0
 17 19  2  0  0  0  0
 20 21  2  0  0  0  0
 20 22  1  0  0  0  0
 22 23  1  0  0  0  0
 22 24  1  0  0  0  0
 24 25  1  0  0  0  0
 24 26  1  0  0  0  0
 24 27  1  0  0  0  0
M  CHG  1  18  -1
M  END
$$$$

  -OEChem-03222214043D

 27 26  0     1  0  0  0  0  0999 V2000
   -3.1633   -3.6974    1.1955 H   0  0  0  0  0  0  0  0  0  0  0  0
   -3.0762   -2.7897    0.5915 C   0  0  0  0  0  0  0  0  0  0  0  0
   -3.8902   -2.1100    0.8551 H   0  0  0  0  0  0  0  0  0  0  0  0
   -3.1641   -3.0600   -0.4639 H   0  0  0  0  0  0  0  0  0  0  0  0
   -1.7375   -2.1182    0.8416 C   0  0  0  0  0  0  0  0  0  0  0  0
   -0.9668   -2.5901    1.6629 O   0  0  0  0  0  0  0  0  0  0  0  0
   -1.4359   -0.9490    0.1770 N   0  0  0  0  0  0  0  0  0  0  0  0
   -2.1385   -0.5744   -0.4553 H   0  0  0  0  0  0  0  0  0  0  0  0
   -0.1344   -0.2650    0.1967 C   0  0  1  0  0  0  0  0  0  0  0  0
    0.4434   -0.6542    1.0403 H   0  0  0  0  0  0  0  0  0  0  0  0
    0.6281   -0.5564   -1.1088 C   0  0  0  0  0  0  0  0  0  0  0  0
    0.3460   -1.5591   -1.4492 H   0  0  0  0  0  0  0  0  0  0  0  0
    0.3413    0.1449   -1.8998 H   0  0  0  0  0  0  0  0  0  0  0  0
    2.1579   -0.5404   -0.9078 C   0  0  0  0  0  0  0  0  0  0  0  0
    2.5304    0.4787   -1.0433 H   0  0  0  0  0  0  0  0  0  0  0  0
    2.4065   -0.8538    0.1104 H   0  0  0  0  0  0  0  0  0  0  0  0
    2.8866   -1.4786   -1.8748 C   0  0  0  0  0  0  0  0  0  0  0  0
    2.5649   -1.4370   -3.0888 O   0  5  0  0  0  0  0  0  0  0  0  0
    3.8000   -2.1984   -1.4011 O   0  0  0  0  0  0  0  0  0  0  0  0
   -0.2734    1.2548    0.4037 C   0  0  0  0  0  0  0  0  0  0  0  0
   -1.2036    1.8729   -0.1065 O   0  0  0  0  0  0  0  0  0  0  0  0
    0.5564    1.9039    1.2990 N   0  0  0  0  0  0  0  0  0  0  0  0
    1.3619    1.3810    1.6314 H   0  0  0  0  0  0  0  0  0  0  0  0
    0.5028    3.3379    1.5416 C   0  0  0  0  0  0  0  0  0  0  0  0
   -0.4828    3.6256    1.9217 H   0  0  0  0  0  0  0  0  0  0  0  0
    1.2546    3.6210    2.2843 H   0  0  0  0  0  0  0  0  0  0  0  0
    0.7023    3.8896    0.6172 H   0  0  0  0  0  0  0  0  0  0  0  0
  1  2  1  0  0  0  0
  2  3  1  0  0  0  0
  2  4  1  0  0  0  0
  2  5  1  0  0  0  0
  5  6  2  0  0  0  0
  5  7  1  0  0  0  0
  7  8  1  0  0  0  0
  7  9  1  0  0  0  0
  9 10  1  0  0  0  0
  9 11  1  0  0  0  0
  9 20  1  0  0  0  0
 11 12  1  0  0  0  0
 11 13  1  0  0  0  0
 11 14  1  0  0  0  0
 14 15  1  0  0  0  0
 14 16  1  0  0  0  0
 14 17  1  0  0  0  0
 17 18  1  0  0  0  0
 17 19  2  0  0  0  0
 20 21  2  0  0  0  0
 20 22  1  0  0  0  0
 22 23  1  0  0  0  0
 22 24  1  0  0  0  0
 24 25  1  0  0  0  0
 24 26  1  0  0  0  0
 24 27  1  0  0  0  0
M  CHG  1  18  -1
M  END
$$$$

  -OEChem-03222214043D

 27 26  0     1  0  0  0  0  0999 V2000
   -3.1782   -3.6778    1.2117 H   0  0  0  0  0  0  0  0  0  0  0  0
   -3.0882   -2.7720    0.6054 C   0  0  0  0  0  0  0  0  0  0  0  0
   -3.8795   -2.0747    0.8911 H   0  0  0  0  0  0  0  0  0  0  0  0
   -3.2111   -3.0395   -0.4471 H   0  0  0  0  0  0  0  0  0  0  0  0
   -1.7291   -2.1296    0.8179 C   0  0  0  0  0  0  0  0  0  0  0  0
   -0.9373   -2.6314    1.6008 O   0  0  0  0  0  0  0  0  0  0  0  0
   -1.4278   -0.9578    0.1581 N   0  0  0  0  0  0  0  0  0  0  0  0
   -2.1493   -0.5497   -0.4312 H   0  0  0  0  0  0  0  0  0  0  0  0
   -0.1267   -0.2736    0.1777 C   0  0  1  0  0  0  0  0  0  0  0  0
    0.4529   -0.6613    1.0211 H   0  0  0  0  0  0  0  0  0  0  0  0
    0.6405   -0.5627   -1.1241 C   0  0  0  0  0  0  0  0  0  0  0  0
    0.3689   -1.5625   -1.4803 H   0  0  0  0  0  0  0  0  0  0  0  0
    0.3607    0.1501   -1.9076 H   0  0  0  0  0  0  0  0  0  0  0  0
    2.1637   -0.5407   -0.8963 C   0  0  0  0  0  0  0  0  0  0  0  0
    2.4992    0.4916   -0.7646 H   0  0  0  0  0  0  0  0  0  0  0  0
    2.4071   -1.0952    0.0152 H   0  0  0  0  0  0  0  0  0  0  0  0
    2.9340   -1.1725   -2.0593 C   0  0  0  0  0  0  0  0  0  0  0  0
    2.6061   -0.8494   -3.2283 O   0  5  0  0  0  0  0  0  0  0  0  0
    3.8839   -1.9410   -1.7704 O   0  0  0  0  0  0  0  0  0  0  0  0
   -0.2749    1.2450    0.3914 C   0  0  0  0  0  0  0  0  0  0  0  0
   -1.2261    1.8520   -0.0932 O   0  0  0  0  0  0  0  0  0  0  0  0
    0.5515    1.8972    1.2878 N   0  0  0  0  0  0  0  0  0  0  0  0
    1.3768    1.3890    1.5932 H   0  0  0  0  0  0  0  0  0  0  0  0
    0.4785    3.3289    1.5398 C   0  0  0  0  0  0  0  0  0  0  0  0
   -0.5060    3.5980    1.9357 H   0  0  0  0  0  0  0  0  0  0  0  0
    1.2363    3.6205    2.2728 H   0  0  0  0  0  0  0  0  0  0  0  0
    0.6548    3.8891    0.6158 H   0  0  0  0  0  0  0  0  0  0  0  0
  1  2  1  0  0  0  0
  2  3  1  0  0  0  0
  2  4  1  0  0  0  0
  2  5  1  0  0  0  0
  5  6  2  0  0  0  0
  5  7  1  0  0  0  0
  7  8  1  0  0  0  0
  7  9  1  0  0  0  0
  9 10  1  0  0  0  0
  9 11  1  0  0  0  0
  9 20  1  0  0  0  0
 11 12  1  0  0  0  0
 11 13  1  0  0  0  0
 11 14  1  0  0  0  0
 14 15  1  0  0  0  0
 14 16  1  0  0  0  0
 14 17  1  0  0  0  0
 17 18  1  0  0  0  0
 17 19  2  0  0  0  0
 20 21  2  0  0  0  0
 20 22  1  0  0  0  0
 22 23  1  0  0  0  0
 22 24  1  0  0  0  0
 24 25  1  0  0  0  0
 24 26  1  0  0  0  0
 24 27  1  0  0  0  0
M  CHG  1  18  -1
M  END
$$$$

  -OEChem-03222214043D

 27 26  0     1  0  0  0  0  0999 V2000
   -3.2243   -3.6630    1.1006 H   0  0  0  0  0  0  0  0  0  0  0  0
   -3.1243   -2.7395    0.5236 C   0  0  0  0  0  0  0  0  0  0  0  0
   -3.9217   -2.0518    0.8157 H   0  0  0  0  0  0  0  0  0  0  0  0
   -3.2273   -2.9759   -0.5386 H   0  0  0  0  0  0  0  0  0  0  0  0
   -1.7698   -2.1034    0.7810 C   0  0  0  0  0  0  0  0  0  0  0  0
   -1.0039   -2.6133    1.5847 O   0  0  0  0  0  0  0  0  0  0  0  0
   -1.4464   -0.9254    0.1426 N   0  0  0  0  0  0  0  0  0  0  0  0
   -2.1449   -0.5160   -0.4724 H   0  0  0  0  0  0  0  0  0  0  0  0
   -0.1313   -0.2691    0.1809 C   0  0  1  0  0  0  0  0  0  0  0  0
    0.4373   -0.6804    1.0207 H   0  0  0  0  0  0  0  0  0  0  0  0
    0.6409   -0.5468   -1.1232 C   0  0  0  0  0  0  0  0  0  0  0  0
    0.1731   -1.3786   -1.6614 H   0  0  0  0  0  0  0  0  0  0  0  0
    0.6091    0.3258   -1.7849 H   0  0  0  0  0  0  0  0  0  0  0  0
    2.1000   -0.9255   -0.8254 C   0  0  0  0  0  0  0  0  0  0  0  0
    2.5848   -0.1151   -0.2724 H   0  0  0  0  0  0  0  0  0  0  0  0
    2.1275   -1.8231   -0.2002 H   0  0  0  0  0  0  0  0  0  0  0  0
    2.8806   -1.2029   -2.1114 C   0  0  0  0  0  0  0  0  0  0  0  0
    2.5176   -2.1697   -2.8265 O   0  5  0  0  0  0  0  0  0  0  0  0
    3.8441   -0.4404   -2.3720 O   0  0  0  0  0  0  0  0  0  0  0  0
   -0.2514    1.2481    0.4230 C   0  0  0  0  0  0  0  0  0  0  0  0
   -1.1781    1.8861   -0.0689 O   0  0  0  0  0  0  0  0  0  0  0  0
    0.5826    1.8673    1.3353 N   0  0  0  0  0  0  0  0  0  0  0  0
    1.3946    1.3365    1.6375 H   0  0  0  0  0  0  0  0  0  0  0  0
    0.5454    3.2976    1.6028 C   0  0  0  0  0  0  0  0  0  0  0  0
   -0.4291    3.5856    2.0103 H   0  0  0  0  0  0  0  0  0  0  0  0
    1.3167    3.5628    2.3320 H   0  0  0  0  0  0  0  0  0  0  0  0
    0.7270    3.8638    0.6835 H   0  0  0  0  0  0  0  0  0  0  0  0
  1  2  1  0  0  0  0
  2  3  1  0  0  0  0
  2  4  1  0  0  0  0
  2  5  1  0  0  0  0
  5  6  2  0  0  0  0
  5  7  1  0  0  0  0
  7  8  1  0  0  0  0
  7  9  1  0  0  0  0
  9 10  1  0  0  0  0
  9 11  1  0  0  0  0
  9 20  1  0  0  0  0
 11 12  1  0  0  0  0
 11 13  1  0  0  0  0
 11 14  1  0  0  0  0
 14 15  1  0  0  0  0
 14 16  1  0  0  0  0
 14 17  1  0  0  0  0
 17 18  1  0  0  0  0
 17 19  2  0  0  0  0
 20 21  2  0  0  0  0
 20 22  1  0  0  0  0
 22 23  1  0  0  0  0
 22 24  1  0  0  0  0
 24 25  1  0  0  0  0
 24 26  1  0  0  0  0
 24 27  1  0  0  0  0
M  CHG  1  18  -1
M  END
$$$$

  -OEChem-03222214043D

 27 26  0     1  0  0  0  0  0999 V2000
   -3.2490   -3.6447    1.1242 H   0  0  0  0  0  0  0  0  0  0  0  0
   -3.1475   -2.7150    0.5575 C   0  0  0  0  0  0  0  0  0  0  0  0
   -3.9071   -2.0076    0.8992 H   0  0  0  0  0  0  0  0  0  0  0  0
   -3.3103   -2.9295   -0.5016 H   0  0  0  0  0  0  0  0  0  0  0  0
   -1.7626   -2.1252    0.7574 C   0  0  0  0  0  0  0  0  0  0  0  0
   -0.9697   -2.6798    1.5029 O   0  0  0  0  0  0  0  0  0  0  0  0
   -1.4396   -0.9417    0.1297 N   0  0  0  0  0  0  0  0  0  0  0  0
   -2.1650   -0.4847   -0.4174 H   0  0  0  0  0  0  0  0  0  0  0  0
   -0.1263   -0.2818    0.1651 C   0  0  1  0  0  0  0  0  0  0  0  0
    0.4426   -0.6972    1.0030 H   0  0  0  0  0  0  0  0  0  0  0  0
    0.6497   -0.5501   -1.1378 C   0  0  0  0  0  0  0  0  0  0  0  0
    0.1921   -1.3751   -1.6942 H   0  0  0  0  0  0  0  0  0  0  0  0
    0.6144    0.3344   -1.7838 H   0  0  0  0  0  0  0  0  0  0  0  0
    2.1100   -0.9217   -0.8355 C   0  0  0  0  0  0  0  0  0  0  0  0
    2.5164   -0.2414   -0.0808 H   0  0  0  0  0  0  0  0  0  0  0  0
    2.1571   -1.9373   -0.4314 H   0  0  0  0  0  0  0  0  0  0  0  0
    2.9784   -0.8319   -2.0900 C   0  0  0  0  0  0  0  0  0  0  0  0
    2.7574   -1.6477   -3.0187 O   0  5  0  0  0  0  0  0  0  0  0  0
    3.8602    0.0624   -2.1148 O   0  0  0  0  0  0  0  0  0  0  0  0
   -0.2527    1.2329    0.4202 C   0  0  0  0  0  0  0  0  0  0  0  0
   -1.2053    1.8591   -0.0372 O   0  0  0  0  0  0  0  0  0  0  0  0
    0.5833    1.8502    1.3319 N   0  0  0  0  0  0  0  0  0  0  0  0
    1.4270    1.3402    1.5793 H   0  0  0  0  0  0  0  0  0  0  0  0
    0.5364    3.2796    1.6023 C   0  0  0  0  0  0  0  0  0  0  0  0
   -0.4438    3.5626    1.9995 H   0  0  0  0  0  0  0  0  0  0  0  0
    1.2979    3.5468    2.3408 H   0  0  0  0  0  0  0  0  0  0  0  0
    0.7258    3.8486    0.6863 H   0  0  0  0  0  0  0  0  0  0  0  0
  1  2  1  0  0  0  0
  2  3  1  0  0  0  0
  2  4  1  0  0  0  0
  2  5  1  0  0  0  0
  5  6  2  0  0  0  0
  5  7  1  0  0  0  0
  7  8  1  0  0  0  0
  7  9  1  0  0  0  0
  9 10  1  0  0  0  0
  9 11  1  0  0  0  0
  9 20  1  0  0  0  0
 11 12  1  0  0  0  0
 11 13  1  0  0  0  0
 11 14  1  0  0  0  0
 14 15  1  0  0  0  0
 14 16  1  0  0  0  0
 14 17  1  0  0  0  0
 17 18  1  0  0  0  0
 17 19  2  0  0  0  0
 20 21  2  0  0  0  0
 20 22  1  0  0  0  0
 22 23  1  0  0  0  0
 22 24  1  0  0  0  0
 24 25  1  0  0  0  0
 24 26  1  0  0  0  0
 24 27  1  0  0  0  0
M  CHG  1  18  -1
M  END
$$$$

  -OEChem-03222214043D

 27 26  0     1  0  0  0  0  0999 V2000
   -3.2661   -3.6246    1.1546 H   0  0  0  0  0  0  0  0  0  0  0  0
   -3.1647   -2.6944    0.5887 C   0  0  0  0  0  0  0  0  0  0  0  0
   -3.8923   -1.9709    0.9647 H   0  0  0  0  0  0  0  0  0  0  0  0
   -3.3747   -2.8981   -0.4644 H   0  0  0  0  0  0  0  0  0  0  0  0
   -1.7591   -2.1393    0.7366 C   0  0  0  0  0  0  0  0  0  0  0  0
   -0.9453   -2.7297    1.4302 O   0  0  0  0  0  0  0  0  0  0  0  0
   -1.4374   -0.9516    0.1164 N   0  0  0  0  0  0  0  0  0  0  0  0
   -2.1808   -0.4574   -0.3716 H   0  0  0  0  0  0  0  0  0  0  0  0
   -0.1242   -0.2915    0.1512 C   0  0  1  0  0  0  0  0  0  0  0  0
    0.4395   -0.7106    0.9904 H   0  0  0  0  0  0  0  0  0  0  0  0
    0.6585   -0.5495   -1.1498 C   0  0  0  0  0  0  0  0  0  0  0  0
    0.2042   -1.3670   -1.7194 H   0  0  0  0  0  0  0  0  0  0  0  0
    0.6186    0.3437   -1.7841 H   0  0  0  0  0  0  0  0  0  0  0  0
    2.1228   -0.9197   -0.8512 C   0  0  0  0  0  0  0  0  0  0  0  0
    2.4586   -0.4319    0.0689 H   0  0  0  0  0  0  0  0  0  0  0  0
    2.2091   -2.0001   -0.7021 H   0  0  0  0  0  0  0  0  0  0  0  0
    3.0480   -0.4734   -1.9815 C   0  0  0  0  0  0  0  0  0  0  0  0
    3.0778   -1.1646   -3.0289 O   0  5  0  0  0  0  0  0  0  0  0  0
    3.7087    0.5788   -1.7946 O   0  0  0  0  0  0  0  0  0  0  0  0
   -0.2529    1.2213    0.4172 C   0  0  0  0  0  0  0  0  0  0  0  0
   -1.2296    1.8366   -0.0040 O   0  0  0  0  0  0  0  0  0  0  0  0
    0.5865    1.8320    1.3299 N   0  0  0  0  0  0  0  0  0  0  0  0
    1.4593    1.3442    1.5151 H   0  0  0  0  0  0  0  0  0  0  0  0
    0.5320    3.2595    1.6089 C   0  0  0  0  0  0  0  0  0  0  0  0
   -0.4513    3.5365    2.0027 H   0  0  0  0  0  0  0  0  0  0  0  0
    1.2883    3.5243    2.3537 H   0  0  0  0  0  0  0  0  0  0  0  0
    0.7243    3.8352    0.6976 H   0  0  0  0  0  0  0  0  0  0  0  0
  1  2  1  0  0  0  0
  2  3  1  0  0  0  0
  2  4  1  0  0  0  0
  2  5  1  0  0  0  0
  5  6  2  0  0  0  0
  5  7  1  0  0  0  0
  7  8  1  0  0  0  0
  7  9  1  0  0  0  0
  9 10  1  0  0  0  0
  9 11  1  0  0  0  0
  9 20  1  0  0  0  0
 11 12  1  0  0  0  0
 11 13  1  0  0  0  0
 11 14  1  0  0  0  0
 14 15  1  0  0  0  0
 14 16  1  0  0  0  0
 14 17  1  0  0  0  0
 17 18  1  0  0  0  0
 17 19  2  0  0  0  0
 20 21  2  0  0  0  0
 20 22  1  0  0  0  0
 22 23  1  0  0  0  0
 22 24  1  0  0  0  0
 24 25  1  0  0  0  0
 24 26  1  0  0  0  0
 24 27  1  0  0  0  0
M  CHG  1  18  -1
M  END
$$$$

  -OEChem-03222214043D

 27 26  0     1  0  0  0  0  0999 V2000
   -3.2822   -3.6057    1.1930 H   0  0  0  0  0  0  0  0  0  0  0  0
   -3.1803   -2.6770    0.6245 C   0  0  0  0  0  0  0  0  0  0  0  0
   -3.8758   -1.9373    1.0289 H   0  0  0  0  0  0  0  0  0  0  0  0
   -3.4359   -2.8734   -0.4199 H   0  0  0  0  0  0  0  0  0  0  0  0
   -1.7572   -2.1556    0.7188 C   0  0  0  0  0  0  0  0  0  0  0  0
   -0.9250   -2.7814    1.3573 O   0  0  0  0  0  0  0  0  0  0  0  0
   -1.4376   -0.9638    0.1055 N   0  0  0  0  0  0  0  0  0  0  0  0
   -2.1975   -0.4323   -0.3137 H   0  0  0  0  0  0  0  0  0  0  0  0
   -0.1234   -0.3046    0.1366 C   0  0  1  0  0  0  0  0  0  0  0  0
    0.4341   -0.7284    0.9771 H   0  0  0  0  0  0  0  0  0  0  0  0
    0.6672   -0.5411   -1.1633 C   0  0  0  0  0  0  0  0  0  0  0  0
    0.2168   -1.3589   -1.7348 H   0  0  0  0  0  0  0  0  0  0  0  0
    0.6135    0.3531   -1.7954 H   0  0  0  0  0  0  0  0  0  0  0  0
    2.1376   -0.9096   -0.8722 C   0  0  0  0  0  0  0  0  0  0  0  0
    2.4095   -0.6797    0.1619 H   0  0  0  0  0  0  0  0  0  0  0  0
    2.2808   -1.9850   -1.0132 H   0  0  0  0  0  0  0  0  0  0  0  0
    3.0893   -0.1373   -1.7809 C   0  0  0  0  0  0  0  0  0  0  0  0
    3.4433   -0.6598   -2.8656 O   0  5  0  0  0  0  0  0  0  0  0  0
    3.4378    1.0021   -1.3806 O   0  0  0  0  0  0  0  0  0  0  0  0
   -0.2500    1.2069    0.4139 C   0  0  0  0  0  0  0  0  0  0  0  0
   -1.2544    1.8090    0.0389 O   0  0  0  0  0  0  0  0  0  0  0  0
    0.5966    1.8099    1.3246 N   0  0  0  0  0  0  0  0  0  0  0  0
    1.5048    1.3596    1.4182 H   0  0  0  0  0  0  0  0  0  0  0  0
    0.5279    3.2348    1.6141 C   0  0  0  0  0  0  0  0  0  0  0  0
   -0.4539    3.4981    2.0207 H   0  0  0  0  0  0  0  0  0  0  0  0
    1.2893    3.5034    2.3524 H   0  0  0  0  0  0  0  0  0  0  0  0
    0.7035    3.8184    0.7043 H   0  0  0  0  0  0  0  0  0  0  0  0
  1  2  1  0  0  0  0
  2  3  1  0  0  0  0
  2  4  1  0  0  0  0
  2  5  1  0  0  0  0
  5  6  2  0  0  0  0
  5  7  1  0  0  0  0
  7  8  1  0  0  0  0
  7  9  1  0  0  0  0
  9 10  1  0  0  0  0
  9 11  1  0  0  0  0
  9 20  1  0  0  0  0
 11 12  1  0  0  0  0
 11 13  1  0  0  0  0
 11 14  1  0  0  0  0
 14 15  1  0  0  0  0
 14 16  1  0  0  0  0
 14 17  1  0  0  0  0
 17 18  1  0  0  0  0
 17 19  2  0  0  0  0
 20 21  2  0  0  0  0
 20 22  1  0  0  0  0
 22 23  1  0  0  0  0
 22 24  1  0  0  0  0
 24 25  1  0  0  0  0
 24 26  1  0  0  0  0
 24 27  1  0  0  0  0
M  CHG  1  18  -1
M  END
$$$$

  -OEChem-03222214043D

 27 26  0     1  0  0  0  0  0999 V2000
   -3.2889   -3.5828    1.2554 H   0  0  0  0  0  0  0  0  0  0  0  0
   -3.1948   -2.6540    0.6858 C   0  0  0  0  0  0  0  0  0  0  0  0
   -3.8440   -1.8979    1.1344 H   0  0  0  0  0  0  0  0  0  0  0  0
   -3.5171   -2.8368   -0.3423 H   0  0  0  0  0  0  0  0  0  0  0  0
   -1.7545   -2.1728    0.6970 C   0  0  0  0  0  0  0  0  0  0  0  0
   -0.9003   -2.8382    1.2617 O   0  0  0  0  0  0  0  0  0  0  0  0
   -1.4424   -0.9810    0.0803 N   0  0  0  0  0  0  0  0  0  0  0  0
   -2.2175   -0.4137   -0.2564 H   0  0  0  0  0  0  0  0  0  0  0  0
   -0.1270   -0.3229    0.0945 C   0  0  1  0  0  0  0  0  0  0  0  0
    0.4218   -0.7414    0.9428 H   0  0  0  0  0  0  0  0  0  0  0  0
    0.6857   -0.5329   -1.1933 C   0  0  0  0  0  0  0  0  0  0  0  0
    0.2536   -1.3668   -1.7553 H   0  0  0  0  0  0  0  0  0  0  0  0
    0.6227    0.3498   -1.8410 H   0  0  0  0  0  0  0  0  0  0  0  0
    2.1556   -0.8874   -0.8714 C   0  0  0  0  0  0  0  0  0  0  0  0
    2.3495   -0.9655    0.2015 H   0  0  0  0  0  0  0  0  0  0  0  0
    2.3894   -1.8635   -1.3066 H   0  0  0  0  0  0  0  0  0  0  0  0
    3.0966    0.1546   -1.4613 C   0  0  0  0  0  0  0  0  0  0  0  0
    3.7019   -0.0889   -2.5328 O   0  5  0  0  0  0  0  0  0  0  0  0
    3.1729    1.2299   -0.8113 O   0  0  0  0  0  0  0  0  0  0  0  0
   -0.2390    1.1902    0.3736 C   0  0  0  0  0  0  0  0  0  0  0  0
   -1.2792    1.7735    0.0682 O   0  0  0  0  0  0  0  0  0  0  0  0
    0.6286    1.7832    1.2704 N   0  0  0  0  0  0  0  0  0  0  0  0
    1.5808    1.4182    1.1944 H   0  0  0  0  0  0  0  0  0  0  0  0
    0.5127    3.1915    1.6189 C   0  0  0  0  0  0  0  0  0  0  0  0
   -0.4582    3.3957    2.0813 H   0  0  0  0  0  0  0  0  0  0  0  0
    1.2971    3.4651    2.3305 H   0  0  0  0  0  0  0  0  0  0  0  0
    0.6197    3.8156    0.7258 H   0  0  0  0  0  0  0  0  0  0  0  0
  1  2  1  0  0  0  0
  2  3  1  0  0  0  0
  2  4  1  0  0  0  0
  2  5  1  0  0  0  0
  5  6  2  0  0  0  0
  5  7  1  0  0  0  0
  7  8  1  0  0  0  0
  7  9  1  0  0  0  0
  9 10  1  0  0  0  0
  9 11  1  0  0  0  0
  9 20  1  0  0  0  0
 11 12  1  0  0  0  0
 11 13  1  0  0  0  0
 11 14  1  0  0  0  0
 14 15  1  0  0  0  0
 14 16  1  0  0  0  0
 14 17  1  0  0  0  0
 17 18  1  0  0  0  0
 17 19  2  0  0  0  0
 20 21  2  0  0  0  0
 20 22  1  0  0  0  0
 22 23  1  0  0  0  0
 22 24  1  0  0  0  0
 24 25  1  0  0  0  0
 24 26  1  0  0  0  0
 24 27  1  0  0  0  0
M  CHG  1  18  -1
M  END
$$$$

  -OEChem-03222214043D

 27 26  0     1  0  0  0  0  0999 V2000
   -3.3051   -3.5317    1.2671 H   0  0  0  0  0  0  0  0  0  0  0  0
   -3.1949   -2.6142    0.6822 C   0  0  0  0  0  0  0  0  0  0  0  0
   -3.8320   -1.8399    1.1170 H   0  0  0  0  0  0  0  0  0  0  0  0
   -3.5188   -2.8083   -0.3433 H   0  0  0  0  0  0  0  0  0  0  0  0
   -1.7469   -2.1568    0.6884 C   0  0  0  0  0  0  0  0  0  0  0  0
   -0.9093   -2.8146    1.2859 O   0  0  0  0  0  0  0  0  0  0  0  0
   -1.4098   -0.9962    0.0272 N   0  0  0  0  0  0  0  0  0  0  0  0
   -2.1748   -0.4249   -0.3262 H   0  0  0  0  0  0  0  0  0  0  0  0
   -0.0976   -0.3336    0.0783 C   0  0  1  0  0  0  0  0  0  0  0  0
    0.4116   -0.6965    0.9758 H   0  0  0  0  0  0  0  0  0  0  0  0
    0.7831   -0.5965   -1.1554 C   0  0  0  0  0  0  0  0  0  0  0  0
    0.3822   -1.4641   -1.6889 H   0  0  0  0  0  0  0  0  0  0  0  0
    0.7569    0.2475   -1.8547 H   0  0  0  0  0  0  0  0  0  0  0  0
    2.2309   -0.9306   -0.7336 C   0  0  0  0  0  0  0  0  0  0  0  0
    2.3080   -1.2484    0.3095 H   0  0  0  0  0  0  0  0  0  0  0  0
    2.5858   -1.7677   -1.3423 H   0  0  0  0  0  0  0  0  0  0  0  0
    3.1477    0.2602   -0.9848 C   0  0  0  0  0  0  0  0  0  0  0  0
    3.0600    1.1875   -0.1359 O   0  5  0  0  0  0  0  0  0  0  0  0
    3.8928    0.2716   -1.9934 O   0  0  0  0  0  0  0  0  0  0  0  0
   -0.2499    1.1905    0.2745 C   0  0  0  0  0  0  0  0  0  0  0  0
   -1.2911    1.7302   -0.1033 O   0  0  0  0  0  0  0  0  0  0  0  0
    0.5549    1.8447    1.1860 N   0  0  0  0  0  0  0  0  0  0  0  0
    1.5366    1.5430    1.1081 H   0  0  0  0  0  0  0  0  0  0  0  0
    0.3549    3.2508    1.5021 C   0  0  0  0  0  0  0  0  0  0  0  0
   -0.6348    3.4096    1.9420 H   0  0  0  0  0  0  0  0  0  0  0  0
    1.1091    3.5812    2.2223 H   0  0  0  0  0  0  0  0  0  0  0  0
    0.4451    3.8627    0.5988 H   0  0  0  0  0  0  0  0  0  0  0  0
  1  2  1  0  0  0  0
  2  3  1  0  0  0  0
  2  4  1  0  0  0  0
  2  5  1  0  0  0  0
  5  6  2  0  0  0  0
  5  7  1  0  0  0  0
  7  8  1  0  0  0  0
  7  9  1  0  0  0  0
  9 10  1  0  0  0  0
  9 11  1  0  0  0  0
  9 20  1  0  0  0  0
 11 12  1  0  0  0  0
 11 13  1  0  0  0  0
 11 14  1  0  0  0  0
 14 15  1  0  0  0  0
 14 16  1  0  0  0  0
 14 17  1  0  0  0  0
 17 18  1  0  0  0  0
 17 19  2  0  0  0  0
 20 21  2  0  0  0  0
 20 22  1  0  0  0  0
 22 23  1  0  0  0  0
 22 24  1  0  0  0  0
 24 25  1  0  0  0  0
 24 26  1  0  0  0  0
 24 27  1  0  0  0  0
M  CHG  1  18  -1
M  END
$$$$

  -OEChem-03222214043D

 27 26  0     1  0  0  0  0  0999 V2000
   -3.3022   -3.5190    1.2436 H   0  0  0  0  0  0  0  0  0  0  0  0
   -3.1825   -2.6003    0.6625 C   0  0  0  0  0  0  0  0  0  0  0  0
   -3.8218   -1.8250    1.0924 H   0  0  0  0  0  0  0  0  0  0  0  0
   -3.4956   -2.7904   -0.3672 H   0  0  0  0  0  0  0  0  0  0  0  0
   -1.7330   -2.1481    0.6867 C   0  0  0  0  0  0  0  0  0  0  0  0
   -0.9037   -2.8151    1.2854 O   0  0  0  0  0  0  0  0  0  0  0  0
   -1.3850   -0.9833    0.0391 N   0  0  0  0  0  0  0  0  0  0  0  0
   -2.1436   -0.4066   -0.3200 H   0  0  0  0  0  0  0  0  0  0  0  0
   -0.0714   -0.3249    0.1128 C   0  0  1  0  0  0  0  0  0  0  0  0
    0.4543   -0.6942    0.9995 H   0  0  0  0  0  0  0  0  0  0  0  0
    0.7828   -0.5959   -1.1419 C   0  0  0  0  0  0  0  0  0  0  0  0
    0.3565   -1.4501   -1.6771 H   0  0  0  0  0  0  0  0  0  0  0  0
    0.7628    0.2571   -1.8299 H   0  0  0  0  0  0  0  0  0  0  0  0
    2.2325   -0.9588   -0.7636 C   0  0  0  0  0  0  0  0  0  0  0  0
    2.2758   -1.5257    0.1710 H   0  0  0  0  0  0  0  0  0  0  0  0
    2.6438   -1.6051   -1.5447 H   0  0  0  0  0  0  0  0  0  0  0  0
    3.1115    0.2853   -0.6715 C   0  0  0  0  0  0  0  0  0  0  0  0
    3.0271    0.9422    0.3997 O   0  5  0  0  0  0  0  0  0  0  0  0
    3.8156    0.6077   -1.6577 O   0  0  0  0  0  0  0  0  0  0  0  0
   -0.2580    1.1950    0.3196 C   0  0  0  0  0  0  0  0  0  0  0  0
   -1.2772    1.7322   -0.1180 O   0  0  0  0  0  0  0  0  0  0  0  0
    0.5101    1.8678    1.2479 N   0  0  0  0  0  0  0  0  0  0  0  0
    1.4801    1.5185    1.2802 H   0  0  0  0  0  0  0  0  0  0  0  0
    0.3339    3.2891    1.5011 C   0  0  0  0  0  0  0  0  0  0  0  0
   -0.6716    3.4901    1.8840 H   0  0  0  0  0  0  0  0  0  0  0  0
    1.0606    3.6270    2.2456 H   0  0  0  0  0  0  0  0  0  0  0  0
    0.4858    3.8625    0.5810 H   0  0  0  0  0  0  0  0  0  0  0  0
  1  2  1  0  0  0  0
  2  3  1  0  0  0  0
  2  4  1  0  0  0  0
  2  5  1  0  0  0  0
  5  6  2  0  0  0  0
  5  7  1  0  0  0  0
  7  8  1  0  0  0  0
  7  9  1  0  0  0  0
  9 10  1  0  0  0  0
  9 11  1  0  0  0  0
  9 20  1  0  0  0  0
 11 12  1  0  0  0  0
 11 13  1  0  0  0  0
 11 14  1  0  0  0  0
 14 15  1  0  0  0  0
 14 16  1  0  0  0  0
 14 17  1  0  0  0  0
 17 18  1  0  0  0  0
 17 19  2  0  0  0  0
 20 21  2  0  0  0  0
 20 22  1  0  0  0  0
 22 23  1  0  0  0  0
 22 24  1  0  0  0  0
 24 25  1  0  0  0  0
 24 26  1  0  0  0  0
 24 27  1  0  0  0  0
M  CHG  1  18  -1
M  END
$$$$

  -OEChem-03222214043D

 27 26  0     1  0  0  0  0  0999 V2000
   -3.2942   -3.5454    1.1883 H   0  0  0  0  0  0  0  0  0  0  0  0
   -3.1777   -2.6024    0.6470 C   0  0  0  0  0  0  0  0  0  0  0  0
   -3.8205   -1.8489    1.1088 H   0  0  0  0  0  0  0  0  0  0  0  0
   -3.4894   -2.7501   -0.3900 H   0  0  0  0  0  0  0  0  0  0  0  0
   -1.7303   -2.1448    0.6920 C   0  0  0  0  0  0  0  0  0  0  0  0
   -0.9059   -2.8149    1.2934 O   0  0  0  0  0  0  0  0  0  0  0  0
   -1.3793   -0.9757    0.0536 N   0  0  0  0  0  0  0  0  0  0  0  0
   -2.1356   -0.4031   -0.3163 H   0  0  0  0  0  0  0  0  0  0  0  0
   -0.0672   -0.3144    0.1376 C   0  0  1  0  0  0  0  0  0  0  0  0
    0.4688   -0.6903    1.0165 H   0  0  0  0  0  0  0  0  0  0  0  0
    0.7710   -0.5971   -1.1274 C   0  0  0  0  0  0  0  0  0  0  0  0
    0.3313   -1.4428   -1.6654 H   0  0  0  0  0  0  0  0  0  0  0  0
    0.7534    0.2632   -1.8056 H   0  0  0  0  0  0  0  0  0  0  0  0
    2.2250   -0.9696   -0.7819 C   0  0  0  0  0  0  0  0  0  0  0  0
    2.2468   -1.7282    0.0064 H   0  0  0  0  0  0  0  0  0  0  0  0
    2.6958   -1.4093   -1.6662 H   0  0  0  0  0  0  0  0  0  0  0  0
    3.0440    0.2472   -0.3541 C   0  0  0  0  0  0  0  0  0  0  0  0
    2.9353    0.6114    0.8461 O   0  5  0  0  0  0  0  0  0  0  0  0
    3.7129    0.8517   -1.2249 O   0  0  0  0  0  0  0  0  0  0  0  0
   -0.2663    1.2033    0.3515 C   0  0  0  0  0  0  0  0  0  0  0  0
   -1.2584    1.7503   -0.1333 O   0  0  0  0  0  0  0  0  0  0  0  0
    0.4864    1.8826    1.2871 N   0  0  0  0  0  0  0  0  0  0  0  0
    1.4230    1.4741    1.4285 H   0  0  0  0  0  0  0  0  0  0  0  0
    0.3582    3.3159    1.4949 C   0  0  0  0  0  0  0  0  0  0  0  0
   -0.6502    3.5657    1.8395 H   0  0  0  0  0  0  0  0  0  0  0  0
    1.0741    3.6469    2.2530 H   0  0  0  0  0  0  0  0  0  0  0  0
    0.5613    3.8566    0.5650 H   0  0  0  0  0  0  0  0  0  0  0  0
  1  2  1  0  0  0  0
  2  3  1  0  0  0  0
  2  4  1  0  0  0  0
  2  5  1  0  0  0  0
  5  6  2  0  0  0  0
  5  7  1  0  0  0  0
  7  8  1  0  0  0  0
  7  9  1  0  0  0  0
  9 10  1  0  0  0  0
  9 11  1  0  0  0  0
  9 20  1  0  0  0  0
 11 12  1  0  0  0  0
 11 13  1  0  0  0  0
 11 14  1  0  0  0  0
 14 15  1  0  0  0  0
 14 16  1  0  0  0  0
 14 17  1  0  0  0  0
 17 18  1  0  0  0  0
 17 19  2  0  0  0  0
 20 21  2  0  0  0  0
 20 22  1  0  0  0  0
 22 23  1  0  0  0  0
 22 24  1  0  0  0  0
 24 25  1  0  0  0  0
 24 26  1  0  0  0  0
 24 27  1  0  0  0  0
M  CHG  1  18  -1
M  END
$$$$

  -OEChem-03222214043D

 27 26  0     1  0  0  0  0  0999 V2000
   -3.2821   -3.5856    1.1416 H   0  0  0  0  0  0  0  0  0  0  0  0
   -3.1794   -2.6176    0.6434 C   0  0  0  0  0  0  0  0  0  0  0  0
   -3.8157   -1.8894    1.1523 H   0  0  0  0  0  0  0  0  0  0  0  0
   -3.5099   -2.7179   -0.3934 H   0  0  0  0  0  0  0  0  0  0  0  0
   -1.7330   -2.1559    0.6830 C   0  0  0  0  0  0  0  0  0  0  0  0
   -0.9020   -2.8348    1.2643 O   0  0  0  0  0  0  0  0  0  0  0  0
   -1.3917   -0.9788    0.0537 N   0  0  0  0  0  0  0  0  0  0  0  0
   -2.1548   -0.4097   -0.3065 H   0  0  0  0  0  0  0  0  0  0  0  0
   -0.0878   -0.3018    0.1443 C   0  0  1  0  0  0  0  0  0  0  0  0
    0.4365   -0.6865    1.0261 H   0  0  0  0  0  0  0  0  0  0  0  0
    0.7612   -0.6003   -1.1116 C   0  0  0  0  0  0  0  0  0  0  0  0
    0.3267   -1.4479   -1.6510 H   0  0  0  0  0  0  0  0  0  0  0  0
    0.7388    0.2604   -1.7886 H   0  0  0  0  0  0  0  0  0  0  0  0
    2.2259   -0.9562   -0.7841 C   0  0  0  0  0  0  0  0  0  0  0  0
    2.2496   -1.8596   -0.1672 H   0  0  0  0  0  0  0  0  0  0  0  0
    2.7567   -1.1811   -1.7139 H   0  0  0  0  0  0  0  0  0  0  0  0
    2.9637    0.1659   -0.0478 C   0  0  0  0  0  0  0  0  0  0  0  0
    2.7806    0.2776    1.1924 O   0  5  0  0  0  0  0  0  0  0  0  0
    3.6326    0.9697   -0.7384 O   0  0  0  0  0  0  0  0  0  0  0  0
   -0.2819    1.2134    0.3664 C   0  0  0  0  0  0  0  0  0  0  0  0
   -1.2503    1.7768   -0.1454 O   0  0  0  0  0  0  0  0  0  0  0  0
    0.4737    1.8821    1.3069 N   0  0  0  0  0  0  0  0  0  0  0  0
    1.3691    1.4199    1.5272 H   0  0  0  0  0  0  0  0  0  0  0  0
    0.4000    3.3214    1.4930 C   0  0  0  0  0  0  0  0  0  0  0  0
   -0.6104    3.6194    1.7900 H   0  0  0  0  0  0  0  0  0  0  0  0
    1.0967    3.6310    2.2776 H   0  0  0  0  0  0  0  0  0  0  0  0
    0.6672    3.8397    0.5665 H   0  0  0  0  0  0  0  0  0  0  0  0
  1  2  1  0  0  0  0
  2  3  1  0  0  0  0
  2  4  1  0  0  0  0
  2  5  1  0  0  0  0
  5  6  2  0  0  0  0
  5  7  1  0  0  0  0
  7  8  1  0  0  0  0
  7  9  1  0  0  0  0
  9 10  1  0  0  0  0
  9 11  1  0  0  0  0
  9 20  1  0  0  0  0
 11 12  1  0  0  0  0
 11 13  1  0  0  0  0
 11 14  1  0  0  0  0
 14 15  1  0  0  0  0
 14 16  1  0  0  0  0
 14 17  1  0  0  0  0
 17 18  1  0  0  0  0
 17 19  2  0  0  0  0
 20 21  2  0  0  0  0
 20 22  1  0  0  0  0
 22 23  1  0  0  0  0
 22 24  1  0  0  0  0
 24 25  1  0  0  0  0
 24 26  1  0  0  0  0
 24 27  1  0  0  0  0
M  CHG  1  18  -1
M  END
$$$$

  -OEChem-03222214043D

 27 26  0     1  0  0  0  0  0999 V2000
   -3.1720   -3.7292    1.0993 H   0  0  0  0  0  0  0  0  0  0  0  0
   -3.1215   -2.7333    0.6504 C   0  0  0  0  0  0  0  0  0  0  0  0
   -3.7676   -2.0577    1.2163 H   0  0  0  0  0  0  0  0  0  0  0  0
   -3.4816   -2.7927   -0.3796 H   0  0  0  0  0  0  0  0  0  0  0  0
   -1.6926   -2.2189    0.6704 C   0  0  0  0  0  0  0  0  0  0  0  0
   -0.8218   -2.8942    1.1937 O   0  0  0  0  0  0  0  0  0  0  0  0
   -1.4159   -1.0034    0.0822 N   0  0  0  0  0  0  0  0  0  0  0  0
   -2.2120   -0.4588   -0.2412 H   0  0  0  0  0  0  0  0  0  0  0  0
   -0.1376   -0.2752    0.1493 C   0  0  1  0  0  0  0  0  0  0  0  0
    0.3996   -0.6879    1.0075 H   0  0  0  0  0  0  0  0  0  0  0  0
    0.6958   -0.5369   -1.1264 C   0  0  0  0  0  0  0  0  0  0  0  0
    0.2716   -1.3872   -1.6697 H   0  0  0  0  0  0  0  0  0  0  0  0
    0.6123    0.3356   -1.7830 H   0  0  0  0  0  0  0  0  0  0  0  0
    2.1971   -0.8377   -0.8983 C   0  0  0  0  0  0  0  0  0  0  0  0
    2.2913   -1.8584   -0.5160 H   0  0  0  0  0  0  0  0  0  0  0  0
    2.7152   -0.8040   -1.8615 H   0  0  0  0  0  0  0  0  0  0  0  0
    2.9087    0.0946    0.0948 C   0  0  0  0  0  0  0  0  0  0  0  0
    3.6394    0.9823   -0.4037 O   0  5  0  0  0  0  0  0  0  0  0  0
    2.6508    0.0072    1.3225 O   0  0  0  0  0  0  0  0  0  0  0  0
   -0.3304    1.2246    0.4408 C   0  0  0  0  0  0  0  0  0  0  0  0
   -1.3071    1.8119   -0.0243 O   0  0  0  0  0  0  0  0  0  0  0  0
    0.4697    1.8502    1.3742 N   0  0  0  0  0  0  0  0  0  0  0  0
    1.3435    1.3475    1.5925 H   0  0  0  0  0  0  0  0  0  0  0  0
    0.4244    3.2805    1.6258 C   0  0  0  0  0  0  0  0  0  0  0  0
   -0.5677    3.5767    1.9806 H   0  0  0  0  0  0  0  0  0  0  0  0
    1.1593    3.5475    2.3910 H   0  0  0  0  0  0  0  0  0  0  0  0
    0.6569    3.8359    0.7116 H   0  0  0  0  0  0  0  0  0  0  0  0
  1  2  1  0  0  0  0
  2  3  1  0  0  0  0
  2  4  1  0  0  0  0
  2  5  1  0  0  0  0
  5  6  2  0  0  0  0
  5  7  1  0  0  0  0
  7  8  1  0  0  0  0
  7  9  1  0  0  0  0
  9 10  1  0  0  0  0
  9 11  1  0  0  0  0
  9 20  1  0  0  0  0
 11 12  1  0  0  0  0
 11 13  1  0  0  0  0
 11 14  1  0  0  0  0
 14 15  1  0  0  0  0
 14 16  1  0  0  0  0
 14 17  1  0  0  0  0
 17 18  1  0  0  0  0
 17 19  2  0  0  0  0
 20 21  2  0  0  0  0
 20 22  1  0  0  0  0
 22 23  1  0  0  0  0
 22 24  1  0  0  0  0
 24 25  1  0  0  0  0
 24 26  1  0  0  0  0
 24 27  1  0  0  0  0
M  CHG  1  18  -1
M  END
$$$$

  -OEChem-03222214043D

 27 26  0     1  0  0  0  0  0999 V2000
   -3.2874   -3.5277    1.2228 H   0  0  0  0  0  0  0  0  0  0  0  0
   -3.1586   -2.6040    0.6515 C   0  0  0  0  0  0  0  0  0  0  0  0
   -3.8016   -1.8316    1.0812 H   0  0  0  0  0  0  0  0  0  0  0  0
   -3.4594   -2.7834   -0.3836 H   0  0  0  0  0  0  0  0  0  0  0  0
   -1.7087   -2.1547    0.6978 C   0  0  0  0  0  0  0  0  0  0  0  0
   -0.8868   -2.8389    1.2838 O   0  0  0  0  0  0  0  0  0  0  0  0
   -1.3583   -0.9726    0.0837 N   0  0  0  0  0  0  0  0  0  0  0  0
   -2.1186   -0.3922   -0.2651 H   0  0  0  0  0  0  0  0  0  0  0  0
   -0.0529   -0.2993    0.1892 C   0  0  1  0  0  0  0  0  0  0  0  0
    0.4847   -0.6901    1.0598 H   0  0  0  0  0  0  0  0  0  0  0  0
    0.7703   -0.5500   -1.0993 C   0  0  0  0  0  0  0  0  0  0  0  0
    0.2982   -1.3429   -1.6881 H   0  0  0  0  0  0  0  0  0  0  0  0
    0.7355    0.3583   -1.7102 H   0  0  0  0  0  0  0  0  0  0  0  0
    2.2601   -0.9369   -0.9034 C   0  0  0  0  0  0  0  0  0  0  0  0
    2.3110   -2.0289   -0.8502 H   0  0  0  0  0  0  0  0  0  0  0  0
    2.8200   -0.6279   -1.7903 H   0  0  0  0  0  0  0  0  0  0  0  0
    2.9766   -0.3850    0.3352 C   0  0  0  0  0  0  0  0  0  0  0  0
    2.8223    0.8315    0.6108 O   0  5  0  0  0  0  0  0  0  0  0  0
    3.6828   -1.1744    1.0040 O   0  0  0  0  0  0  0  0  0  0  0  0
   -0.3082    1.2099    0.4254 C   0  0  0  0  0  0  0  0  0  0  0  0
   -1.3102    1.7316   -0.0692 O   0  0  0  0  0  0  0  0  0  0  0  0
    0.4039    1.9067    1.3788 N   0  0  0  0  0  0  0  0  0  0  0  0
    1.3681    1.5556    1.4778 H   0  0  0  0  0  0  0  0  0  0  0  0
    0.1959    3.3248    1.6233 C   0  0  0  0  0  0  0  0  0  0  0  0
   -0.8342    3.5132    1.9417 H   0  0  0  0  0  0  0  0  0  0  0  0
    0.8692    3.6684    2.4142 H   0  0  0  0  0  0  0  0  0  0  0  0
    0.3993    3.9026    0.7160 H   0  0  0  0  0  0  0  0  0  0  0  0
  1  2  1  0  0  0  0
  2  3  1  0  0  0  0
  2  4  1  0  0  0  0
  2  5  1  0  0  0  0
  5  6  2  0  0  0  0
  5  7  1  0  0  0  0
  7  8  1  0  0  0  0
  7  9  1  0  0  0  0
  9 10  1  0  0  0  0
  9 11  1  0  0  0  0
  9 20  1  0  0  0  0
 11 12  1  0  0  0  0
 11 13  1  0  0  0  0
 11 14  1  0  0  0  0
 14 15  1  0  0  0  0
 14 16  1  0  0  0  0
 14 17  1  0  0  0  0
 17 18  1  0  0  0  0
 17 19  2  0  0  0  0
 20 21  2  0  0  0  0
 20 22  1  0  0  0  0
 22 23  1  0  0  0  0
 22 24  1  0  0  0  0
 24 25  1  0  0  0  0
 24 26  1  0  0  0  0
 24 27  1  0  0  0  0
M  CHG  1  18  -1
M  END
$$$$

  -OEChem-03222214043D

 27 26  0     1  0  0  0  0  0999 V2000
   -3.3023   -3.5733    1.1814 H   0  0  0  0  0  0  0  0  0  0  0  0
   -3.1734   -2.6497    0.6102 C   0  0  0  0  0  0  0  0  0  0  0  0
   -3.8553   -1.8930    1.0057 H   0  0  0  0  0  0  0  0  0  0  0  0
   -3.4227   -2.8435   -0.4358 H   0  0  0  0  0  0  0  0  0  0  0  0
   -1.7393   -2.1613    0.7173 C   0  0  0  0  0  0  0  0  0  0  0  0
   -0.9297   -2.8160    1.3510 O   0  0  0  0  0  0  0  0  0  0  0  0
   -1.3912   -0.9798    0.1000 N   0  0  0  0  0  0  0  0  0  0  0  0
   -2.1469   -0.4302   -0.3028 H   0  0  0  0  0  0  0  0  0  0  0  0
   -0.0951   -0.2895    0.2112 C   0  0  1  0  0  0  0  0  0  0  0  0
    0.4206   -0.6763    1.0957 H   0  0  0  0  0  0  0  0  0  0  0  0
    0.7514   -0.5526   -1.0608 C   0  0  0  0  0  0  0  0  0  0  0  0
    0.2927   -1.3678   -1.6295 H   0  0  0  0  0  0  0  0  0  0  0  0
    0.6973    0.3368   -1.6974 H   0  0  0  0  0  0  0  0  0  0  0  0
    2.2516   -0.9166   -0.8744 C   0  0  0  0  0  0  0  0  0  0  0  0
    2.3579   -1.9852   -1.0858 H   0  0  0  0  0  0  0  0  0  0  0  0
    2.8319   -0.3808   -1.6306 H   0  0  0  0  0  0  0  0  0  0  0  0
    2.9019   -0.6554    0.4913 C   0  0  0  0  0  0  0  0  0  0  0  0
    2.7401    0.4802    1.0097 O   0  5  0  0  0  0  0  0  0  0  0  0
    3.6017   -1.5666    0.9913 O   0  0  0  0  0  0  0  0  0  0  0  0
   -0.3263    1.2219    0.4342 C   0  0  0  0  0  0  0  0  0  0  0  0
   -1.2901    1.7708   -0.1027 O   0  0  0  0  0  0  0  0  0  0  0  0
    0.3963    1.9080    1.3870 N   0  0  0  0  0  0  0  0  0  0  0  0
    1.3166    1.4827    1.5780 H   0  0  0  0  0  0  0  0  0  0  0  0
    0.2572    3.3384    1.6049 C   0  0  0  0  0  0  0  0  0  0  0  0
   -0.7725    3.5862    1.8809 H   0  0  0  0  0  0  0  0  0  0  0  0
    0.9180    3.6571    2.4165 H   0  0  0  0  0  0  0  0  0  0  0  0
    0.5257    3.8904    0.6987 H   0  0  0  0  0  0  0  0  0  0  0  0
  1  2  1  0  0  0  0
  2  3  1  0  0  0  0
  2  4  1  0  0  0  0
  2  5  1  0  0  0  0
  5  6  2  0  0  0  0
  5  7  1  0  0  0  0
  7  8  1  0  0  0  0
  7  9  1  0  0  0  0
  9 10  1  0  0  0  0
  9 11  1  0  0  0  0
  9 20  1  0  0  0  0
 11 12  1  0  0  0  0
 11 13  1  0  0  0  0
 11 14  1  0  0  0  0
 14 15  1  0  0  0  0
 14 16  1  0  0  0  0
 14 17  1  0  0  0  0
 17 18  1  0  0  0  0
 17 19  2  0  0  0  0
 20 21  2  0  0  0  0
 20 22  1  0  0  0  0
 22 23  1  0  0  0  0
 22 24  1  0  0  0  0
 24 25  1  0  0  0  0
 24 26  1  0  0  0  0
 24 27  1  0  0  0  0
M  CHG  1  18  -1
M  END
$$$$

  -OEChem-03222214043D

 27 26  0     1  0  0  0  0  0999 V2000
   -3.2133   -3.4913    1.0156 H   0  0  0  0  0  0  0  0  0  0  0  0
   -3.0987   -2.4183    0.8380 C   0  0  0  0  0  0  0  0  0  0  0  0
   -2.9583   -1.9172    1.7993 H   0  0  0  0  0  0  0  0  0  0  0  0
   -4.0082   -2.0373    0.3670 H   0  0  0  0  0  0  0  0  0  0  0  0
   -1.9013   -2.1568   -0.0589 C   0  0  0  0  0  0  0  0  0  0  0  0
   -1.3942   -3.1051   -0.6389 O   0  0  0  0  0  0  0  0  0  0  0  0
   -1.5729   -0.8403   -0.3262 N   0  0  0  0  0  0  0  0  0  0  0  0
   -2.2195   -0.1824    0.1137 H   0  0  0  0  0  0  0  0  0  0  0  0
   -0.2919   -0.1565   -0.6782 C   0  0  1  0  0  0  0  0  0  0  0  0
   -0.3823    0.2729   -1.6798 H   0  0  0  0  0  0  0  0  0  0  0  0
    0.9495   -1.1446   -0.7852 C   0  0  0  0  0  0  0  0  0  0  0  0
    0.6522   -2.0475   -0.2611 H   0  0  0  0  0  0  0  0  0  0  0  0
    1.0224   -1.4104   -1.8445 H   0  0  0  0  0  0  0  0  0  0  0  0
    2.4118   -1.0376   -0.2563 C   0  0  0  0  0  0  0  0  0  0  0  0
    2.6147   -1.9153    0.3664 H   0  0  0  0  0  0  0  0  0  0  0  0
    3.0724   -1.1247   -1.1243 H   0  0  0  0  0  0  0  0  0  0  0  0
    2.8840    0.1709    0.5158 C   0  0  0  0  0  0  0  0  0  0  0  0
    3.1285    1.2090   -0.1404 O   0  5  0  0  0  0  0  0  0  0  0  0
    2.8421    0.1226    1.7670 O   0  0  0  0  0  0  0  0  0  0  0  0
   -0.3995    1.0943    0.2776 C   0  0  0  0  0  0  0  0  0  0  0  0
   -1.5098    1.6375    0.3076 O   0  0  0  0  0  0  0  0  0  0  0  0
    0.5240    1.6894    1.1107 N   0  0  0  0  0  0  0  0  0  0  0  0
    1.4745    1.3131    1.1315 H   0  0  0  0  0  0  0  0  0  0  0  0
    0.2721    2.8649    1.9309 C   0  0  0  0  0  0  0  0  0  0  0  0
   -0.5363    2.6710    2.6427 H   0  0  0  0  0  0  0  0  0  0  0  0
    1.1744    3.1215    2.4942 H   0  0  0  0  0  0  0  0  0  0  0  0
    0.0010    3.7195    1.3033 H   0  0  0  0  0  0  0  0  0  0  0  0
  1  2  1  0  0  0  0
  2  3  1  0  0  0  0
  2  4  1  0  0  0  0
  2  5  1  0  0  0  0
  5  6  2  0  0  0  0
  5  7  1  0  0  0  0
  7  8  1  0  0  0  0
  7  9  1  0  0  0  0
  9 10  1  0  0  0  0
  9 11  1  0  0  0  0
  9 20  1  0  0  0  0
 11 12  1  0  0  0  0
 11 13  1  0  0  0  0
 11 14  1  0  0  0  0
 14 15  1  0  0  0  0
 14 16  1  0  0  0  0
 14 17  1  0  0  0  0
 17 18  1  0  0  0  0
 17 19  2  0  0  0  0
 20 21  2  0  0  0  0
 20 22  1  0  0  0  0
 22 23  1  0  0  0  0
 22 24  1  0  0  0  0
 24 25  1  0  0  0  0
 24 26  1  0  0  0  0
 24 27  1  0  0  0  0
M  CHG  1  18  -1
M  END
$$$$

  -OEChem-03222214043D

 27 26  0     1  0  0  0  0  0999 V2000
   -3.2996   -3.4305    1.0338 H   0  0  0  0  0  0  0  0  0  0  0  0
   -3.1291   -2.3572    0.9121 C   0  0  0  0  0  0  0  0  0  0  0  0
   -2.8939   -1.9268    1.8890 H   0  0  0  0  0  0  0  0  0  0  0  0
   -4.0418   -1.8945    0.5289 H   0  0  0  0  0  0  0  0  0  0  0  0
   -1.9790   -2.1100   -0.0484 C   0  0  0  0  0  0  0  0  0  0  0  0
   -1.5431   -3.0547   -0.6893 O   0  0  0  0  0  0  0  0  0  0  0  0
   -1.6314   -0.7987   -0.3147 N   0  0  0  0  0  0  0  0  0  0  0  0
   -2.2381   -0.1339    0.1682 H   0  0  0  0  0  0  0  0  0  0  0  0
   -0.3362   -0.1501   -0.6716 C   0  0  1  0  0  0  0  0  0  0  0  0
   -0.4550    0.2903   -1.6652 H   0  0  0  0  0  0  0  0  0  0  0  0
    0.8659   -1.1691   -0.8800 C   0  0  0  0  0  0  0  0  0  0  0  0
    0.5565   -2.0745   -0.3669 H   0  0  0  0  0  0  0  0  0  0  0  0
    0.8892   -1.4078   -1.9479 H   0  0  0  0  0  0  0  0  0  0  0  0
    2.3425   -1.1381   -0.3899 C   0  0  0  0  0  0  0  0  0  0  0  0
    2.6268   -2.1504   -0.0850 H   0  0  0  0  0  0  0  0  0  0  0  0
    2.9565   -0.9010   -1.2643 H   0  0  0  0  0  0  0  0  0  0  0  0
    2.7826   -0.1966    0.7066 C   0  0  0  0  0  0  0  0  0  0  0  0
    2.4649   -0.4848    1.8824 O   0  5  0  0  0  0  0  0  0  0  0  0
    3.2920    0.8959    0.3628 O   0  0  0  0  0  0  0  0  0  0  0  0
   -0.3472    1.1187    0.2588 C   0  0  0  0  0  0  0  0  0  0  0  0
   -1.4318    1.7074    0.3119 O   0  0  0  0  0  0  0  0  0  0  0  0
    0.6305    1.6771    1.0543 N   0  0  0  0  0  0  0  0  0  0  0  0
    1.5560    1.2416    1.0677 H   0  0  0  0  0  0  0  0  0  0  0  0
    0.4459    2.8425    1.9057 C   0  0  0  0  0  0  0  0  0  0  0  0
   -0.3327    2.6539    2.6513 H   0  0  0  0  0  0  0  0  0  0  0  0
    1.3794    3.0673    2.4304 H   0  0  0  0  0  0  0  0  0  0  0  0
    0.1661    3.7152    1.3075 H   0  0  0  0  0  0  0  0  0  0  0  0
  1  2  1  0  0  0  0
  2  3  1  0  0  0  0
  2  4  1  0  0  0  0
  2  5  1  0  0  0  0
  5  6  2  0  0  0  0
  5  7  1  0  0  0  0
  7  8  1  0  0  0  0
  7  9  1  0  0  0  0
  9 10  1  0  0  0  0
  9 11  1  0  0  0  0
  9 20  1  0  0  0  0
 11 12  1  0  0  0  0
 11 13  1  0  0  0  0
 11 14  1  0  0  0  0
 14 15  1  0  0  0  0
 14 16  1  0  0  0  0
 14 17  1  0  0  0  0
 17 18  1  0  0  0  0
 17 19  2  0  0  0  0
 20 21  2  0  0  0  0
 20 22  1  0  0  0  0
 22 23  1  0  0  0  0
 22 24  1  0  0  0  0
 24 25  1  0  0  0  0
 24 26  1  0  0  0  0
 24 27  1  0  0  0  0
M  CHG  1  18  -1
M  END
$$$$

  -OEChem-03222214043D

 27 26  0     1  0  0  0  0  0999 V2000
   -3.3583   -3.6401    1.1820 H   0  0  0  0  0  0  0  0  0  0  0  0
   -3.2529   -2.7307    0.5837 C   0  0  0  0  0  0  0  0  0  0  0  0
   -4.0017   -2.0055    0.9112 H   0  0  0  0  0  0  0  0  0  0  0  0
   -3.4285   -2.9776   -0.4661 H   0  0  0  0  0  0  0  0  0  0  0  0
   -1.8593   -2.1506    0.7512 C   0  0  0  0  0  0  0  0  0  0  0  0
   -1.0589   -2.7278    1.4627 O   0  0  0  0  0  0  0  0  0  0  0  0
   -1.5544   -0.9655    0.1148 N   0  0  0  0  0  0  0  0  0  0  0  0
   -2.3112   -0.5144   -0.3902 H   0  0  0  0  0  0  0  0  0  0  0  0
   -0.2707   -0.2406    0.1364 C   0  0  1  0  0  0  0  0  0  0  0  0
    0.1966   -0.6124    1.0480 H   0  0  0  0  0  0  0  0  0  0  0  0
    0.6259   -0.6117   -1.0692 C   0  0  0  0  0  0  0  0  0  0  0  0
    0.2362   -1.5448   -1.4890 H   0  0  0  0  0  0  0  0  0  0  0  0
    0.5322    0.1500   -1.8499 H   0  0  0  0  0  0  0  0  0  0  0  0
    2.1267   -0.8685   -0.7774 C   0  0  0  0  0  0  0  0  0  0  0  0
    2.5150   -1.5411   -1.5482 H   0  0  0  0  0  0  0  0  0  0  0  0
    2.6528    0.0833   -0.8979 H   0  0  0  0  0  0  0  0  0  0  0  0
    2.5243   -1.4192    0.5916 C   0  0  0  0  0  0  0  0  0  0  0  0
    2.9293   -2.6020    0.6819 O   0  5  0  0  0  0  0  0  0  0  0  0
    2.5199   -0.5767    1.5331 O   0  0  0  0  0  0  0  0  0  0  0  0
   -0.3109    1.2740    0.3522 C   0  0  0  0  0  0  0  0  0  0  0  0
   -1.1823    1.9662   -0.1689 O   0  0  0  0  0  0  0  0  0  0  0  0
    0.5920    1.8159    1.2448 N   0  0  0  0  0  0  0  0  0  0  0  0
    1.3371    1.1796    1.5640 H   0  0  0  0  0  0  0  0  0  0  0  0
    0.7035    3.2369    1.5249 C   0  0  0  0  0  0  0  0  0  0  0  0
   -0.2509    3.6314    1.8875 H   0  0  0  0  0  0  0  0  0  0  0  0
    1.4623    3.4065    2.2946 H   0  0  0  0  0  0  0  0  0  0  0  0
    0.9945    3.7825    0.6217 H   0  0  0  0  0  0  0  0  0  0  0  0
  1  2  1  0  0  0  0
  2  3  1  0  0  0  0
  2  4  1  0  0  0  0
  2  5  1  0  0  0  0
  5  6  2  0  0  0  0
  5  7  1  0  0  0  0
  7  8  1  0  0  0  0
  7  9  1  0  0  0  0
  9 10  1  0  0  0  0
  9 11  1  0  0  0  0
  9 20  1  0  0  0  0
 11 12  1  0  0  0  0
 11 13  1  0  0  0  0
 11 14  1  0  0  0  0
 14 15  1  0  0  0  0
 14 16  1  0  0  0  0
 14 17  1  0  0  0  0
 17 18  1  0  0  0  0
 17 19  2  0  0  0  0
 20 21  2  0  0  0  0
 20 22  1  0  0  0  0
 22 23  1  0  0  0  0
 22 24  1  0  0  0  0
 24 25  1  0  0  0  0
 24 26  1  0  0  0  0
 24 27  1  0  0  0  0
M  CHG  1  18  -1
M  END
$$$$

  -OEChem-03222214043D

 27 26  0     1  0  0  0  0  0999 V2000
   -3.2266   -3.6884    1.1771 H   0  0  0  0  0  0  0  0  0  0  0  0
   -3.0935   -2.8171    0.5296 C   0  0  0  0  0  0  0  0  0  0  0  0
   -3.9609   -2.1613    0.6361 H   0  0  0  0  0  0  0  0  0  0  0  0
   -3.0259   -3.1570   -0.5068 H   0  0  0  0  0  0  0  0  0  0  0  0
   -1.8275   -2.0694    0.9105 C   0  0  0  0  0  0  0  0  0  0  0  0
   -1.1789   -2.4431    1.8712 O   0  0  0  0  0  0  0  0  0  0  0  0
   -1.5099   -0.9093    0.2358 N   0  0  0  0  0  0  0  0  0  0  0  0
   -2.1545   -0.6201   -0.4927 H   0  0  0  0  0  0  0  0  0  0  0  0
   -0.2030   -0.2293    0.2524 C   0  0  1  0  0  0  0  0  0  0  0  0
    0.3501   -0.6132    1.1138 H   0  0  0  0  0  0  0  0  0  0  0  0
    0.5621   -0.5503   -1.0580 C   0  0  0  0  0  0  0  0  0  0  0  0
    0.0881   -1.4198   -1.5255 H   0  0  0  0  0  0  0  0  0  0  0  0
    0.4652    0.2800   -1.7653 H   0  0  0  0  0  0  0  0  0  0  0  0
    2.0528   -0.9104   -0.8964 C   0  0  0  0  0  0  0  0  0  0  0  0
    2.4176   -1.3222   -1.8420 H   0  0  0  0  0  0  0  0  0  0  0  0
    2.6090    0.0142   -0.7153 H   0  0  0  0  0  0  0  0  0  0  0  0
    2.3943   -1.8893    0.2233 C   0  0  0  0  0  0  0  0  0  0  0  0
    2.3872   -3.1165   -0.0360 O   0  5  0  0  0  0  0  0  0  0  0  0
    2.7069   -1.3810    1.3313 O   0  0  0  0  0  0  0  0  0  0  0  0
   -0.2783    1.2928    0.4400 C   0  0  0  0  0  0  0  0  0  0  0  0
   -1.1205    1.9661   -0.1494 O   0  0  0  0  0  0  0  0  0  0  0  0
    0.5885    1.8935    1.3316 N   0  0  0  0  0  0  0  0  0  0  0  0
    1.3079    1.2917    1.7359 H   0  0  0  0  0  0  0  0  0  0  0  0
    0.6461    3.3272    1.5651 C   0  0  0  0  0  0  0  0  0  0  0  0
   -0.3244    3.6979    1.9102 H   0  0  0  0  0  0  0  0  0  0  0  0
    1.3938    3.5516    2.3315 H   0  0  0  0  0  0  0  0  0  0  0  0
    0.9213    3.8532    0.6455 H   0  0  0  0  0  0  0  0  0  0  0  0
  1  2  1  0  0  0  0
  2  3  1  0  0  0  0
  2  4  1  0  0  0  0
  2  5  1  0  0  0  0
  5  6  2  0  0  0  0
  5  7  1  0  0  0  0
  7  8  1  0  0  0  0
  7  9  1  0  0  0  0
  9 10  1  0  0  0  0
  9 11  1  0  0  0  0
  9 20  1  0  0  0  0
 11 12  1  0  0  0  0
 11 13  1  0  0  0  0
 11 14  1  0  0  0  0
 14 15  1  0  0  0  0
 14 16  1  0  0  0  0
 14 17  1  0  0  0  0
 17 18  1  0  0  0  0
 17 19  2  0  0  0  0
 20 21  2  0  0  0  0
 20 22  1  0  0  0  0
 22 23  1  0  0  0  0
 22 24  1  0  0  0  0
 24 25  1  0  0  0  0
 24 26  1  0  0  0  0
 24 27  1  0  0  0  0
M  CHG  1  18  -1
M  END
$$$$

  -OEChem-03222214043D

 27 26  0     1  0  0  0  0  0999 V2000
   -3.0225   -3.7766    1.1396 H   0  0  0  0  0  0  0  0  0  0  0  0
   -2.9450   -2.8916    0.5018 C   0  0  0  0  0  0  0  0  0  0  0  0
   -3.8824   -2.3330    0.5529 H   0  0  0  0  0  0  0  0  0  0  0  0
   -2.7762   -3.2166   -0.5279 H   0  0  0  0  0  0  0  0  0  0  0  0
   -1.7926   -2.0161    0.9607 C   0  0  0  0  0  0  0  0  0  0  0  0
   -1.2360   -2.2566    2.0192 O   0  0  0  0  0  0  0  0  0  0  0  0
   -1.5027   -0.8628    0.2623 N   0  0  0  0  0  0  0  0  0  0  0  0
   -2.0718   -0.6917   -0.5598 H   0  0  0  0  0  0  0  0  0  0  0  0
   -0.1829   -0.2112    0.2703 C   0  0  1  0  0  0  0  0  0  0  0  0
    0.4063   -0.6137    1.1020 H   0  0  0  0  0  0  0  0  0  0  0  0
    0.5250   -0.5230   -1.0730 C   0  0  0  0  0  0  0  0  0  0  0  0
    0.0135   -1.3543   -1.5704 H   0  0  0  0  0  0  0  0  0  0  0  0
    0.4573    0.3380   -1.7462 H   0  0  0  0  0  0  0  0  0  0  0  0
    1.9991   -0.9268   -0.9147 C   0  0  0  0  0  0  0  0  0  0  0  0
    2.4236   -1.1133   -1.9053 H   0  0  0  0  0  0  0  0  0  0  0  0
    2.5537   -0.0931   -0.4731 H   0  0  0  0  0  0  0  0  0  0  0  0
    2.2019   -2.1764   -0.0623 C   0  0  0  0  0  0  0  0  0  0  0  0
    1.8394   -3.2797   -0.5394 O   0  5  0  0  0  0  0  0  0  0  0  0
    2.7275   -2.0113    1.0664 O   0  0  0  0  0  0  0  0  0  0  0  0
   -0.2553    1.3145    0.4564 C   0  0  0  0  0  0  0  0  0  0  0  0
   -1.0776    1.9941   -0.1532 O   0  0  0  0  0  0  0  0  0  0  0  0
    0.6102    1.9259    1.3430 N   0  0  0  0  0  0  0  0  0  0  0  0
    1.2956    1.3263    1.7993 H   0  0  0  0  0  0  0  0  0  0  0  0
    0.6485    3.3603    1.5795 C   0  0  0  0  0  0  0  0  0  0  0  0
   -0.3125    3.7089    1.9712 H   0  0  0  0  0  0  0  0  0  0  0  0
    1.4272    3.5988    2.3100 H   0  0  0  0  0  0  0  0  0  0  0  0
    0.8689    3.8952    0.6501 H   0  0  0  0  0  0  0  0  0  0  0  0
  1  2  1  0  0  0  0
  2  3  1  0  0  0  0
  2  4  1  0  0  0  0
  2  5  1  0  0  0  0
  5  6  2  0  0  0  0
  5  7  1  0  0  0  0
  7  8  1  0  0  0  0
  7  9  1  0  0  0  0
  9 10  1  0  0  0  0
  9 11  1  0  0  0  0
  9 20  1  0  0  0  0
 11 12  1  0  0  0  0
 11 13  1  0  0  0  0
 11 14  1  0  0  0  0
 14 15  1  0  0  0  0
 14 16  1  0  0  0  0
 14 17  1  0  0  0  0
 17 18  1  0  0  0  0
 17 19  2  0  0  0  0
 20 21  2  0  0  0  0
 20 22  1  0  0  0  0
 22 23  1  0  0  0  0
 22 24  1  0  0  0  0
 24 25  1  0  0  0  0
 24 26  1  0  0  0  0
 24 27  1  0  0  0  0
M  CHG  1  18  -1
M  END
$$$$

  -OEChem-03222214043D

 27 26  0     1  0  0  0  0  0999 V2000
   -2.9650   -3.7969    1.1410 H   0  0  0  0  0  0  0  0  0  0  0  0
   -2.9016   -2.9142    0.4986 C   0  0  0  0  0  0  0  0  0  0  0  0
   -3.8506   -2.3748    0.5402 H   0  0  0  0  0  0  0  0  0  0  0  0
   -2.7190   -3.2418   -0.5281 H   0  0  0  0  0  0  0  0  0  0  0  0
   -1.7704   -2.0126    0.9587 C   0  0  0  0  0  0  0  0  0  0  0  0
   -1.2052   -2.2398    2.0166 O   0  0  0  0  0  0  0  0  0  0  0  0
   -1.4979   -0.8562    0.2584 N   0  0  0  0  0  0  0  0  0  0  0  0
   -2.0608   -0.7035   -0.5720 H   0  0  0  0  0  0  0  0  0  0  0  0
   -0.1774   -0.2075    0.2611 C   0  0  1  0  0  0  0  0  0  0  0  0
    0.4241   -0.6185    1.0802 H   0  0  0  0  0  0  0  0  0  0  0  0
    0.5166   -0.5196   -1.0858 C   0  0  0  0  0  0  0  0  0  0  0  0
   -0.0065   -1.3296   -1.6058 H   0  0  0  0  0  0  0  0  0  0  0  0
    0.4673    0.3558   -1.7416 H   0  0  0  0  0  0  0  0  0  0  0  0
    1.9871   -0.9268   -0.9036 C   0  0  0  0  0  0  0  0  0  0  0  0
    2.4841   -0.8841   -1.8768 H   0  0  0  0  0  0  0  0  0  0  0  0
    2.4922   -0.2122   -0.2464 H   0  0  0  0  0  0  0  0  0  0  0  0
    2.1503   -2.3466   -0.3614 C   0  0  0  0  0  0  0  0  0  0  0  0
    1.6472   -3.2928   -1.0174 O   0  5  0  0  0  0  0  0  0  0  0  0
    2.8069   -2.4743    0.7006 O   0  0  0  0  0  0  0  0  0  0  0  0
   -0.2532    1.3184    0.4551 C   0  0  0  0  0  0  0  0  0  0  0  0
   -1.0794    1.9982   -0.1482 O   0  0  0  0  0  0  0  0  0  0  0  0
    0.6134    1.9331    1.3389 N   0  0  0  0  0  0  0  0  0  0  0  0
    1.2956    1.3375    1.8026 H   0  0  0  0  0  0  0  0  0  0  0  0
    0.6368    3.3667    1.5843 C   0  0  0  0  0  0  0  0  0  0  0  0
   -0.3259    3.7016    1.9836 H   0  0  0  0  0  0  0  0  0  0  0  0
    1.4168    3.6099    2.3116 H   0  0  0  0  0  0  0  0  0  0  0  0
    0.8458    3.9098    0.6570 H   0  0  0  0  0  0  0  0  0  0  0  0
  1  2  1  0  0  0  0
  2  3  1  0  0  0  0
  2  4  1  0  0  0  0
  2  5  1  0  0  0  0
  5  6  2  0  0  0  0
  5  7  1  0  0  0  0
  7  8  1  0  0  0  0
  7  9  1  0  0  0  0
  9 10  1  0  0  0  0
  9 11  1  0  0  0  0
  9 20  1  0  0  0  0
 11 12  1  0  0  0  0
 11 13  1  0  0  0  0
 11 14  1  0  0  0  0
 14 15  1  0  0  0  0
 14 16  1  0  0  0  0
 14 17  1  0  0  0  0
 17 18  1  0  0  0  0
 17 19  2  0  0  0  0
 20 21  2  0  0  0  0
 20 22  1  0  0  0  0
 22 23  1  0  0  0  0
 22 24  1  0  0  0  0
 24 25  1  0  0  0  0
 24 26  1  0  0  0  0
 24 27  1  0  0  0  0
M  CHG  1  18  -1
M  END
$$$$

  -OEChem-03222214043D

 27 26  0     1  0  0  0  0  0999 V2000
   -3.0399   -3.7557    1.1898 H   0  0  0  0  0  0  0  0  0  0  0  0
   -2.9343   -2.9006    0.5162 C   0  0  0  0  0  0  0  0  0  0  0  0
   -3.8572   -2.3162    0.5382 H   0  0  0  0  0  0  0  0  0  0  0  0
   -2.7693   -3.2725   -0.4983 H   0  0  0  0  0  0  0  0  0  0  0  0
   -1.7600   -2.0382    0.9437 C   0  0  0  0  0  0  0  0  0  0  0  0
   -1.1436   -2.3134    1.9609 O   0  0  0  0  0  0  0  0  0  0  0  0
   -1.4852   -0.8767    0.2530 N   0  0  0  0  0  0  0  0  0  0  0  0
   -2.0722   -0.6902   -0.5538 H   0  0  0  0  0  0  0  0  0  0  0  0
   -0.1694   -0.2188    0.2560 C   0  0  1  0  0  0  0  0  0  0  0  0
    0.4337   -0.6285    1.0742 H   0  0  0  0  0  0  0  0  0  0  0  0
    0.5304   -0.5246   -1.0877 C   0  0  0  0  0  0  0  0  0  0  0  0
    0.0058   -1.3244   -1.6212 H   0  0  0  0  0  0  0  0  0  0  0  0
    0.4830    0.3584   -1.7335 H   0  0  0  0  0  0  0  0  0  0  0  0
    2.0065   -0.9206   -0.8992 C   0  0  0  0  0  0  0  0  0  0  0  0
    2.5550   -0.6322   -1.8004 H   0  0  0  0  0  0  0  0  0  0  0  0
    2.4452   -0.3674   -0.0632 H   0  0  0  0  0  0  0  0  0  0  0  0
    2.2143   -2.4249   -0.7099 C   0  0  0  0  0  0  0  0  0  0  0  0
    1.7399   -3.2059   -1.5728 O   0  5  0  0  0  0  0  0  0  0  0  0
    2.8975   -2.7800    0.2811 O   0  0  0  0  0  0  0  0  0  0  0  0
   -0.2612    1.3056    0.4576 C   0  0  0  0  0  0  0  0  0  0  0  0
   -1.1031    1.9764   -0.1335 O   0  0  0  0  0  0  0  0  0  0  0  0
    0.5988    1.9288    1.3422 N   0  0  0  0  0  0  0  0  0  0  0  0
    1.3022    1.3454    1.7880 H   0  0  0  0  0  0  0  0  0  0  0  0
    0.6111    3.3640    1.5808 C   0  0  0  0  0  0  0  0  0  0  0  0
   -0.3575    3.6958    1.9681 H   0  0  0  0  0  0  0  0  0  0  0  0
    1.3819    3.6160    2.3150 H   0  0  0  0  0  0  0  0  0  0  0  0
    0.8262    3.9033    0.6528 H   0  0  0  0  0  0  0  0  0  0  0  0
  1  2  1  0  0  0  0
  2  3  1  0  0  0  0
  2  4  1  0  0  0  0
  2  5  1  0  0  0  0
  5  6  2  0  0  0  0
  5  7  1  0  0  0  0
  7  8  1  0  0  0  0
  7  9  1  0  0  0  0
  9 10  1  0  0  0  0
  9 11  1  0  0  0  0
  9 20  1  0  0  0  0
 11 12  1  0  0  0  0
 11 13  1  0  0  0  0
 11 14  1  0  0  0  0
 14 15  1  0  0  0  0
 14 16  1  0  0  0  0
 14 17  1  0  0  0  0
 17 18  1  0  0  0  0
 17 19  2  0  0  0  0
 20 21  2  0  0  0  0
 20 22  1  0  0  0  0
 22 23  1  0  0  0  0
 22 24  1  0  0  0  0
 24 25  1  0  0  0  0
 24 26  1  0  0  0  0
 24 27  1  0  0  0  0
M  CHG  1  18  -1
M  END
$$$$

  -OEChem-03222214043D

 27 26  0     1  0  0  0  0  0999 V2000
   -3.1058   -3.6977    1.2473 H   0  0  0  0  0  0  0  0  0  0  0  0
   -2.9679   -2.8717    0.5441 C   0  0  0  0  0  0  0  0  0  0  0  0
   -3.8626   -2.2446    0.5556 H   0  0  0  0  0  0  0  0  0  0  0  0
   -2.8316   -3.2836   -0.4591 H   0  0  0  0  0  0  0  0  0  0  0  0
   -1.7506   -2.0512    0.9314 C   0  0  0  0  0  0  0  0  0  0  0  0
   -1.0926   -2.3671    1.9103 O   0  0  0  0  0  0  0  0  0  0  0  0
   -1.4688   -0.8905    0.2422 N   0  0  0  0  0  0  0  0  0  0  0  0
   -2.0823   -0.6676   -0.5357 H   0  0  0  0  0  0  0  0  0  0  0  0
   -0.1550   -0.2284    0.2433 C   0  0  1  0  0  0  0  0  0  0  0  0
    0.4412   -0.6306    1.0687 H   0  0  0  0  0  0  0  0  0  0  0  0
    0.5568   -0.5365   -1.0943 C   0  0  0  0  0  0  0  0  0  0  0  0
    0.0336   -1.3431   -1.6194 H   0  0  0  0  0  0  0  0  0  0  0  0
    0.5025    0.3396   -1.7493 H   0  0  0  0  0  0  0  0  0  0  0  0
    2.0391   -0.9260   -0.9067 C   0  0  0  0  0  0  0  0  0  0  0  0
    2.6270   -0.4064   -1.6687 H   0  0  0  0  0  0  0  0  0  0  0  0
    2.4108   -0.5894    0.0655 H   0  0  0  0  0  0  0  0  0  0  0  0
    2.3037   -2.4244   -1.0785 C   0  0  0  0  0  0  0  0  0  0  0  0
    1.9271   -2.9748   -2.1441 O   0  5  0  0  0  0  0  0  0  0  0  0
    2.9374   -3.0000   -0.1607 O   0  0  0  0  0  0  0  0  0  0  0  0
   -0.2587    1.2961    0.4420 C   0  0  0  0  0  0  0  0  0  0  0  0
   -1.1241    1.9535   -0.1295 O   0  0  0  0  0  0  0  0  0  0  0  0
    0.5955    1.9294    1.3253 N   0  0  0  0  0  0  0  0  0  0  0  0
    1.3166    1.3587    1.7581 H   0  0  0  0  0  0  0  0  0  0  0  0
    0.5691    3.3601    1.5894 C   0  0  0  0  0  0  0  0  0  0  0  0
   -0.4171    3.6640    1.9549 H   0  0  0  0  0  0  0  0  0  0  0  0
    1.3125    3.6147    2.3506 H   0  0  0  0  0  0  0  0  0  0  0  0
    0.7983    3.9211    0.6779 H   0  0  0  0  0  0  0  0  0  0  0  0
  1  2  1  0  0  0  0
  2  3  1  0  0  0  0
  2  4  1  0  0  0  0
  2  5  1  0  0  0  0
  5  6  2  0  0  0  0
  5  7  1  0  0  0  0
  7  8  1  0  0  0  0
  7  9  1  0  0  0  0
  9 10  1  0  0  0  0
  9 11  1  0  0  0  0
  9 20  1  0  0  0  0
 11 12  1  0  0  0  0
 11 13  1  0  0  0  0
 11 14  1  0  0  0  0
 14 15  1  0  0  0  0
 14 16  1  0  0  0  0
 14 17  1  0  0  0  0
 17 18  1  0  0  0  0
 17 19  2  0  0  0  0
 20 21  2  0  0  0  0
 20 22  1  0  0  0  0
 22 23  1  0  0  0  0
 22 24  1  0  0  0  0
 24 25  1  0  0  0  0
 24 26  1  0  0  0  0
 24 27  1  0  0  0  0
M  CHG  1  18  -1
M  END
$$$$

  -OEChem-03222214043D

 27 26  0     1  0  0  0  0  0999 V2000
   -3.1273   -3.6853    1.1244 H   0  0  0  0  0  0  0  0  0  0  0  0
   -2.9227   -2.8929    0.3992 C   0  0  0  0  0  0  0  0  0  0  0  0
   -3.8307   -2.3029    0.2537 H   0  0  0  0  0  0  0  0  0  0  0  0
   -2.6369   -3.3516   -0.5511 H   0  0  0  0  0  0  0  0  0  0  0  0
   -1.7967   -2.0039    0.8956 C   0  0  0  0  0  0  0  0  0  0  0  0
   -1.2481   -2.2515    1.9600 O   0  0  0  0  0  0  0  0  0  0  0  0
   -1.4923   -0.8482    0.2066 N   0  0  0  0  0  0  0  0  0  0  0  0
   -2.0209   -0.6897   -0.6455 H   0  0  0  0  0  0  0  0  0  0  0  0
   -0.1668   -0.2137    0.2648 C   0  0  1  0  0  0  0  0  0  0  0  0
    0.3888   -0.6289    1.1108 H   0  0  0  0  0  0  0  0  0  0  0  0
    0.5823   -0.5220   -1.0543 C   0  0  0  0  0  0  0  0  0  0  0  0
    0.0553   -1.3165   -1.5945 H   0  0  0  0  0  0  0  0  0  0  0  0
    0.5625    0.3532   -1.7124 H   0  0  0  0  0  0  0  0  0  0  0  0
    2.0510   -0.9515   -0.8363 C   0  0  0  0  0  0  0  0  0  0  0  0
    2.7058   -0.2333   -1.3394 H   0  0  0  0  0  0  0  0  0  0  0  0
    2.3159   -0.9387    0.2238 H   0  0  0  0  0  0  0  0  0  0  0  0
    2.3313   -2.3550   -1.3828 C   0  0  0  0  0  0  0  0  0  0  0  0
    1.6132   -3.2999   -0.9712 O   0  5  0  0  0  0  0  0  0  0  0  0
    3.2687   -2.4768   -2.2092 O   0  0  0  0  0  0  0  0  0  0  0  0
   -0.2508    1.3130    0.4594 C   0  0  0  0  0  0  0  0  0  0  0  0
   -1.0646    1.9899   -0.1629 O   0  0  0  0  0  0  0  0  0  0  0  0
    0.5746    1.9336    1.3788 N   0  0  0  0  0  0  0  0  0  0  0  0
    1.2583    1.3505    1.8525 H   0  0  0  0  0  0  0  0  0  0  0  0
    0.5811    3.3697    1.6154 C   0  0  0  0  0  0  0  0  0  0  0  0
   -0.4077    3.7084    1.9414 H   0  0  0  0  0  0  0  0  0  0  0  0
    1.3061    3.6190    2.3958 H   0  0  0  0  0  0  0  0  0  0  0  0
    0.8564    3.9058    0.7015 H   0  0  0  0  0  0  0  0  0  0  0  0
  1  2  1  0  0  0  0
  2  3  1  0  0  0  0
  2  4  1  0  0  0  0
  2  5  1  0  0  0  0
  5  6  2  0  0  0  0
  5  7  1  0  0  0  0
  7  8  1  0  0  0  0
  7  9  1  0  0  0  0
  9 10  1  0  0  0  0
  9 11  1  0  0  0  0
  9 20  1  0  0  0  0
 11 12  1  0  0  0  0
 11 13  1  0  0  0  0
 11 14  1  0  0  0  0
 14 15  1  0  0  0  0
 14 16  1  0  0  0  0
 14 17  1  0  0  0  0
 17 18  1  0  0  0  0
 17 19  2  0  0  0  0
 20 21  2  0  0  0  0
 20 22  1  0  0  0  0
 22 23  1  0  0  0  0
 22 24  1  0  0  0  0
 24 25  1  0  0  0  0
 24 26  1  0  0  0  0
 24 27  1  0  0  0  0
M  CHG  1  18  -1
M  END
$$$$

  -OEChem-03222214043D

 27 26  0     1  0  0  0  0  0999 V2000
   -3.1452   -3.6920    1.2324 H   0  0  0  0  0  0  0  0  0  0  0  0
   -3.0338   -2.8253    0.5748 C   0  0  0  0  0  0  0  0  0  0  0  0
   -3.8871   -2.1584    0.7209 H   0  0  0  0  0  0  0  0  0  0  0  0
   -3.0224   -3.1699   -0.4623 H   0  0  0  0  0  0  0  0  0  0  0  0
   -1.7416   -2.0918    0.8871 C   0  0  0  0  0  0  0  0  0  0  0  0
   -1.0186   -2.4927    1.7860 O   0  0  0  0  0  0  0  0  0  0  0  0
   -1.4451   -0.9284    0.2096 N   0  0  0  0  0  0  0  0  0  0  0  0
   -2.1062   -0.6244   -0.4999 H   0  0  0  0  0  0  0  0  0  0  0  0
   -0.1386   -0.2522    0.2251 C   0  0  1  0  0  0  0  0  0  0  0  0
    0.4379   -0.6376    1.0707 H   0  0  0  0  0  0  0  0  0  0  0  0
    0.6150   -0.5459   -1.0925 C   0  0  0  0  0  0  0  0  0  0  0  0
    0.1234   -1.3928   -1.5844 H   0  0  0  0  0  0  0  0  0  0  0  0
    0.5394    0.2993   -1.7847 H   0  0  0  0  0  0  0  0  0  0  0  0
    2.1023   -0.9122   -0.8821 C   0  0  0  0  0  0  0  0  0  0  0  0
    2.7232   -0.0525   -1.1486 H   0  0  0  0  0  0  0  0  0  0  0  0
    2.2996   -1.1432    0.1684 H   0  0  0  0  0  0  0  0  0  0  0  0
    2.5365   -2.1195   -1.7195 C   0  0  0  0  0  0  0  0  0  0  0  0
    2.2979   -2.0899   -2.9532 O   0  5  0  0  0  0  0  0  0  0  0  0
    3.1489   -3.0448   -1.1321 O   0  0  0  0  0  0  0  0  0  0  0  0
   -0.2701    1.2698    0.4231 C   0  0  0  0  0  0  0  0  0  0  0  0
   -1.1700    1.9017   -0.1230 O   0  0  0  0  0  0  0  0  0  0  0  0
    0.5630    1.9183    1.3157 N   0  0  0  0  0  0  0  0  0  0  0  0
    1.3280    1.3754    1.7063 H   0  0  0  0  0  0  0  0  0  0  0  0
    0.5133    3.3510    1.5658 C   0  0  0  0  0  0  0  0  0  0  0  0
   -0.4769    3.6420    1.9308 H   0  0  0  0  0  0  0  0  0  0  0  0
    1.2540    3.6253    2.3226 H   0  0  0  0  0  0  0  0  0  0  0  0
    0.7314    3.9068    0.6483 H   0  0  0  0  0  0  0  0  0  0  0  0
  1  2  1  0  0  0  0
  2  3  1  0  0  0  0
  2  4  1  0  0  0  0
  2  5  1  0  0  0  0
  5  6  2  0  0  0  0
  5  7  1  0  0  0  0
  7  8  1  0  0  0  0
  7  9  1  0  0  0  0
  9 10  1  0  0  0  0
  9 11  1  0  0  0  0
  9 20  1  0  0  0  0
 11 12  1  0  0  0  0
 11 13  1  0  0  0  0
 11 14  1  0  0  0  0
 14 15  1  0  0  0  0
 14 16  1  0  0  0  0
 14 17  1  0  0  0  0
 17 18  1  0  0  0  0
 17 19  2  0  0  0  0
 20 21  2  0  0  0  0
 20 22  1  0  0  0  0
 22 23  1  0  0  0  0
 22 24  1  0  0  0  0
 24 25  1  0  0  0  0
 24 26  1  0  0  0  0
 24 27  1  0  0  0  0
M  CHG  1  18  -1
M  END
$$$$

  -OEChem-03222214043D

 27 26  0     1  0  0  0  0  0999 V2000
   -3.1579   -3.6908    1.2165 H   0  0  0  0  0  0  0  0  0  0  0  0
   -3.0580   -2.8045    0.5837 C   0  0  0  0  0  0  0  0  0  0  0  0
   -3.8899   -2.1267    0.7905 H   0  0  0  0  0  0  0  0  0  0  0  0
   -3.1009   -3.1143   -0.4636 H   0  0  0  0  0  0  0  0  0  0  0  0
   -1.7376   -2.1072    0.8603 C   0  0  0  0  0  0  0  0  0  0  0  0
   -0.9864   -2.5482    1.7163 O   0  0  0  0  0  0  0  0  0  0  0  0
   -1.4374   -0.9409    0.1898 N   0  0  0  0  0  0  0  0  0  0  0  0
   -2.1230   -0.5949   -0.4760 H   0  0  0  0  0  0  0  0  0  0  0  0
   -0.1330   -0.2614    0.2077 C   0  0  1  0  0  0  0  0  0  0  0  0
    0.4432   -0.6433    1.0554 H   0  0  0  0  0  0  0  0  0  0  0  0
    0.6320   -0.5504   -1.1024 C   0  0  0  0  0  0  0  0  0  0  0  0
    0.1589   -1.4082   -1.5938 H   0  0  0  0  0  0  0  0  0  0  0  0
    0.5591    0.2913   -1.7997 H   0  0  0  0  0  0  0  0  0  0  0  0
    2.1138   -0.9065   -0.8611 C   0  0  0  0  0  0  0  0  0  0  0  0
    2.7100    0.0099   -0.8411 H   0  0  0  0  0  0  0  0  0  0  0  0
    2.2297   -1.4016    0.1074 H   0  0  0  0  0  0  0  0  0  0  0  0
    2.6645   -1.8525   -1.9330 C   0  0  0  0  0  0  0  0  0  0  0  0
    2.4562   -1.5552   -3.1362 O   0  5  0  0  0  0  0  0  0  0  0  0
    3.3320   -2.8433   -1.5472 O   0  0  0  0  0  0  0  0  0  0  0  0
   -0.2732    1.2589    0.4108 C   0  0  0  0  0  0  0  0  0  0  0  0
   -1.1902    1.8818   -0.1169 O   0  0  0  0  0  0  0  0  0  0  0  0
    0.5554    1.9102    1.3054 N   0  0  0  0  0  0  0  0  0  0  0  0
    1.3395    1.3789    1.6728 H   0  0  0  0  0  0  0  0  0  0  0  0
    0.4964    3.3427    1.5547 C   0  0  0  0  0  0  0  0  0  0  0  0
   -0.4925    3.6256    1.9296 H   0  0  0  0  0  0  0  0  0  0  0  0
    1.2429    3.6247    2.3031 H   0  0  0  0  0  0  0  0  0  0  0  0
    0.6996    3.8992    0.6341 H   0  0  0  0  0  0  0  0  0  0  0  0
  1  2  1  0  0  0  0
  2  3  1  0  0  0  0
  2  4  1  0  0  0  0
  2  5  1  0  0  0  0
  5  6  2  0  0  0  0
  5  7  1  0  0  0  0
  7  8  1  0  0  0  0
  7  9  1  0  0  0  0
  9 10  1  0  0  0  0
  9 11  1  0  0  0  0
  9 20  1  0  0  0  0
 11 12  1  0  0  0  0
 11 13  1  0  0  0  0
 11 14  1  0  0  0  0
 14 15  1  0  0  0  0
 14 16  1  0  0  0  0
 14 17  1  0  0  0  0
 17 18  1  0  0  0  0
 17 19  2  0  0  0  0
 20 21  2  0  0  0  0
 20 22  1  0  0  0  0
 22 23  1  0  0  0  0
 22 24  1  0  0  0  0
 24 25  1  0  0  0  0
 24 26  1  0  0  0  0
 24 27  1  0  0  0  0
M  CHG  1  18  -1
M  END
$$$$

  -OEChem-03222214043D

 27 26  0     1  0  0  0  0  0999 V2000
   -3.1883   -3.6928    1.1474 H   0  0  0  0  0  0  0  0  0  0  0  0
   -3.1051   -2.7690    0.5682 C   0  0  0  0  0  0  0  0  0  0  0  0
   -3.9078   -2.0905    0.8670 H   0  0  0  0  0  0  0  0  0  0  0  0
   -3.2159   -3.0080   -0.4925 H   0  0  0  0  0  0  0  0  0  0  0  0
   -1.7565   -2.1152    0.8115 C   0  0  0  0  0  0  0  0  0  0  0  0
   -0.9824   -2.6038    1.6205 O   0  0  0  0  0  0  0  0  0  0  0  0
   -1.4517   -0.9391    0.1608 N   0  0  0  0  0  0  0  0  0  0  0  0
   -2.1525   -0.5552   -0.4678 H   0  0  0  0  0  0  0  0  0  0  0  0
   -0.1438   -0.2669    0.1829 C   0  0  1  0  0  0  0  0  0  0  0  0
    0.4333   -0.6643    1.0232 H   0  0  0  0  0  0  0  0  0  0  0  0
    0.6218   -0.5442   -1.1270 C   0  0  0  0  0  0  0  0  0  0  0  0
    0.1483   -1.3930   -1.6322 H   0  0  0  0  0  0  0  0  0  0  0  0
    0.5634    0.3103   -1.8100 H   0  0  0  0  0  0  0  0  0  0  0  0
    2.0964   -0.9051   -0.8531 C   0  0  0  0  0  0  0  0  0  0  0  0
    2.6315   -0.0034   -0.5417 H   0  0  0  0  0  0  0  0  0  0  0  0
    2.1423   -1.6284   -0.0338 H   0  0  0  0  0  0  0  0  0  0  0  0
    2.8295   -1.5362   -2.0446 C   0  0  0  0  0  0  0  0  0  0  0  0
    2.1864   -1.8355   -3.0825 O   0  5  0  0  0  0  0  0  0  0  0  0
    4.0664   -1.6992   -1.9028 O   0  0  0  0  0  0  0  0  0  0  0  0
   -0.2735    1.2506    0.4126 C   0  0  0  0  0  0  0  0  0  0  0  0
   -1.1961    1.8843   -0.0920 O   0  0  0  0  0  0  0  0  0  0  0  0
    0.5642    1.8819    1.3131 N   0  0  0  0  0  0  0  0  0  0  0  0
    1.3617    1.3464    1.6444 H   0  0  0  0  0  0  0  0  0  0  0  0
    0.5255    3.3139    1.5697 C   0  0  0  0  0  0  0  0  0  0  0  0
   -0.4619    3.6106    1.9379 H   0  0  0  0  0  0  0  0  0  0  0  0
    1.2698    3.5797    2.3261 H   0  0  0  0  0  0  0  0  0  0  0  0
    0.7451    3.8722    0.6539 H   0  0  0  0  0  0  0  0  0  0  0  0
  1  2  1  0  0  0  0
  2  3  1  0  0  0  0
  2  4  1  0  0  0  0
  2  5  1  0  0  0  0
  5  6  2  0  0  0  0
  5  7  1  0  0  0  0
  7  8  1  0  0  0  0
  7  9  1  0  0  0  0
  9 10  1  0  0  0  0
  9 11  1  0  0  0  0
  9 20  1  0  0  0  0
 11 12  1  0  0  0  0
 11 13  1  0  0  0  0
 11 14  1  0  0  0  0
 14 15  1  0  0  0  0
 14 16  1  0  0  0  0
 14 17  1  0  0  0  0
 17 18  1  0  0  0  0
 17 19  2  0  0  0  0
 20 21  2  0  0  0  0
 20 22  1  0  0  0  0
 22 23  1  0  0  0  0
 22 24  1  0  0  0  0
 24 25  1  0  0  0  0
 24 26  1  0  0  0  0
 24 27  1  0  0  0  0
M  CHG  1  18  -1
M  END
$$$$

  -OEChem-03222214043D

 27 26  0     1  0  0  0  0  0999 V2000
   -3.2207   -3.6521    1.1004 H   0  0  0  0  0  0  0  0  0  0  0  0
   -3.1087   -2.7413    0.5057 C   0  0  0  0  0  0  0  0  0  0  0  0
   -3.9214   -2.0543    0.7538 H   0  0  0  0  0  0  0  0  0  0  0  0
   -3.1727   -3.0030   -0.5536 H   0  0  0  0  0  0  0  0  0  0  0  0
   -1.7695   -2.0869    0.7945 C   0  0  0  0  0  0  0  0  0  0  0  0
   -1.0262   -2.5715    1.6346 O   0  0  0  0  0  0  0  0  0  0  0  0
   -1.4390   -0.9142    0.1502 N   0  0  0  0  0  0  0  0  0  0  0  0
   -2.1153   -0.5304   -0.5046 H   0  0  0  0  0  0  0  0  0  0  0  0
   -0.1197   -0.2670    0.1958 C   0  0  1  0  0  0  0  0  0  0  0  0
    0.4488   -0.6700    1.0399 H   0  0  0  0  0  0  0  0  0  0  0  0
    0.6504   -0.5491   -1.1113 C   0  0  0  0  0  0  0  0  0  0  0  0
    0.0392   -1.1569   -1.7875 H   0  0  0  0  0  0  0  0  0  0  0  0
    0.8737    0.3870   -1.6355 H   0  0  0  0  0  0  0  0  0  0  0  0
    1.9646   -1.2904   -0.8274 C   0  0  0  0  0  0  0  0  0  0  0  0
    2.5901   -0.6934   -0.1567 H   0  0  0  0  0  0  0  0  0  0  0  0
    1.7520   -2.2420   -0.3309 H   0  0  0  0  0  0  0  0  0  0  0  0
    2.7282   -1.5690   -2.1218 C   0  0  0  0  0  0  0  0  0  0  0  0
    2.2649   -2.4369   -2.9028 O   0  5  0  0  0  0  0  0  0  0  0  0
    3.7683   -0.8968   -2.3320 O   0  0  0  0  0  0  0  0  0  0  0  0
   -0.2443    1.2517    0.4295 C   0  0  0  0  0  0  0  0  0  0  0  0
   -1.1530    1.8931   -0.0907 O   0  0  0  0  0  0  0  0  0  0  0  0
    0.5802    1.8757    1.3473 N   0  0  0  0  0  0  0  0  0  0  0  0
    1.3710    1.3368    1.6887 H   0  0  0  0  0  0  0  0  0  0  0  0
    0.5370    3.3051    1.6183 C   0  0  0  0  0  0  0  0  0  0  0  0
   -0.4460    3.5922    2.0052 H   0  0  0  0  0  0  0  0  0  0  0  0
    1.2918    3.5680    2.3653 H   0  0  0  0  0  0  0  0  0  0  0  0
    0.7390    3.8744    0.7051 H   0  0  0  0  0  0  0  0  0  0  0  0
  1  2  1  0  0  0  0
  2  3  1  0  0  0  0
  2  4  1  0  0  0  0
  2  5  1  0  0  0  0
  5  6  2  0  0  0  0
  5  7  1  0  0  0  0
  7  8  1  0  0  0  0
  7  9  1  0  0  0  0
  9 10  1  0  0  0  0
  9 11  1  0  0  0  0
  9 20  1  0  0  0  0
 11 12  1  0  0  0  0
 11 13  1  0  0  0  0
 11 14  1  0  0  0  0
 14 15  1  0  0  0  0
 14 16  1  0  0  0  0
 14 17  1  0  0  0  0
 17 18  1  0  0  0  0
 17 19  2  0  0  0  0
 20 21  2  0  0  0  0
 20 22  1  0  0  0  0
 22 23  1  0  0  0  0
 22 24  1  0  0  0  0
 24 25  1  0  0  0  0
 24 26  1  0  0  0  0
 24 27  1  0  0  0  0
M  CHG  1  18  -1
M  END
$$$$

  -OEChem-03222214043D

 27 26  0     1  0  0  0  0  0999 V2000
   -3.2459   -3.6411    1.1070 H   0  0  0  0  0  0  0  0  0  0  0  0
   -3.1372   -2.7163    0.5336 C   0  0  0  0  0  0  0  0  0  0  0  0
   -3.9152   -2.0143    0.8436 H   0  0  0  0  0  0  0  0  0  0  0  0
   -3.2632   -2.9436   -0.5281 H   0  0  0  0  0  0  0  0  0  0  0  0
   -1.7662   -2.1088    0.7709 C   0  0  0  0  0  0  0  0  0  0  0  0
   -0.9934   -2.6433    1.5516 O   0  0  0  0  0  0  0  0  0  0  0  0
   -1.4339   -0.9300    0.1391 N   0  0  0  0  0  0  0  0  0  0  0  0
   -2.1405   -0.4918   -0.4464 H   0  0  0  0  0  0  0  0  0  0  0  0
   -0.1160   -0.2803    0.1849 C   0  0  1  0  0  0  0  0  0  0  0  0
    0.4496   -0.6874    1.0288 H   0  0  0  0  0  0  0  0  0  0  0  0
    0.6586   -0.5499   -1.1216 C   0  0  0  0  0  0  0  0  0  0  0  0
    0.0568   -1.1459   -1.8159 H   0  0  0  0  0  0  0  0  0  0  0  0
    0.8811    0.3986   -1.6239 H   0  0  0  0  0  0  0  0  0  0  0  0
    1.9766   -1.2874   -0.8419 C   0  0  0  0  0  0  0  0  0  0  0  0
    2.4906   -0.8277    0.0079 H   0  0  0  0  0  0  0  0  0  0  0  0
    1.7702   -2.3304   -0.5833 H   0  0  0  0  0  0  0  0  0  0  0  0
    2.9027   -1.2290   -2.0557 C   0  0  0  0  0  0  0  0  0  0  0  0
    2.6707   -2.0101   -3.0111 O   0  5  0  0  0  0  0  0  0  0  0  0
    3.8269   -0.3782   -2.0315 O   0  0  0  0  0  0  0  0  0  0  0  0
   -0.2470    1.2352    0.4331 C   0  0  0  0  0  0  0  0  0  0  0  0
   -1.1808    1.8666   -0.0547 O   0  0  0  0  0  0  0  0  0  0  0  0
    0.5782    1.8553    1.3525 N   0  0  0  0  0  0  0  0  0  0  0  0
    1.4035    1.3352    1.6378 H   0  0  0  0  0  0  0  0  0  0  0  0
    0.5317    3.2853    1.6198 C   0  0  0  0  0  0  0  0  0  0  0  0
   -0.4517    3.5704    2.0072 H   0  0  0  0  0  0  0  0  0  0  0  0
    1.2867    3.5525    2.3649 H   0  0  0  0  0  0  0  0  0  0  0  0
    0.7307    3.8521    0.7045 H   0  0  0  0  0  0  0  0  0  0  0  0
  1  2  1  0  0  0  0
  2  3  1  0  0  0  0
  2  4  1  0  0  0  0
  2  5  1  0  0  0  0
  5  6  2  0  0  0  0
  5  7  1  0  0  0  0
  7  8  1  0  0  0  0
  7  9  1  0  0  0  0
  9 10  1  0  0  0  0
  9 11  1  0  0  0  0
  9 20  1  0  0  0  0
 11 12  1  0  0  0  0
 11 13  1  0  0  0  0
 11 14  1  0  0  0  0
 14 15  1  0  0  0  0
 14 16  1  0  0  0  0
 14 17  1  0  0  0  0
 17 18  1  0  0  0  0
 17 19  2  0  0  0  0
 20 21  2  0  0  0  0
 20 22  1  0  0  0  0
 22 23  1  0  0  0  0
 22 24  1  0  0  0  0
 24 25  1  0  0  0  0
 24 26  1  0  0  0  0
 24 27  1  0  0  0  0
M  CHG  1  18  -1
M  END
$$$$

  -OEChem-03222214043D

 27 26  0     1  0  0  0  0  0999 V2000
   -3.2709   -3.6223    1.1304 H   0  0  0  0  0  0  0  0  0  0  0  0
   -3.1600   -2.6935    0.5638 C   0  0  0  0  0  0  0  0  0  0  0  0
   -3.9044   -1.9745    0.9146 H   0  0  0  0  0  0  0  0  0  0  0  0
   -3.3374   -2.9034   -0.4940 H   0  0  0  0  0  0  0  0  0  0  0  0
   -1.7637   -2.1266    0.7509 C   0  0  0  0  0  0  0  0  0  0  0  0
   -0.9707   -2.6999    1.4818 O   0  0  0  0  0  0  0  0  0  0  0  0
   -1.4303   -0.9430    0.1292 N   0  0  0  0  0  0  0  0  0  0  0  0
   -2.1580   -0.4629   -0.3947 H   0  0  0  0  0  0  0  0  0  0  0  0
   -0.1131   -0.2914    0.1754 C   0  0  1  0  0  0  0  0  0  0  0  0
    0.4473   -0.7017    1.0207 H   0  0  0  0  0  0  0  0  0  0  0  0
    0.6674   -0.5485   -1.1310 C   0  0  0  0  0  0  0  0  0  0  0  0
    0.0685   -1.1358   -1.8348 H   0  0  0  0  0  0  0  0  0  0  0  0
    0.8783    0.4099   -1.6196 H   0  0  0  0  0  0  0  0  0  0  0  0
    1.9951   -1.2841   -0.8697 C   0  0  0  0  0  0  0  0  0  0  0  0
    2.3974   -1.0178    0.1121 H   0  0  0  0  0  0  0  0  0  0  0  0
    1.8274   -2.3651   -0.8744 H   0  0  0  0  0  0  0  0  0  0  0  0
    3.0452   -0.9064   -1.9125 C   0  0  0  0  0  0  0  0  0  0  0  0
    3.1358   -1.6137   -2.9457 O   0  5  0  0  0  0  0  0  0  0  0  0
    3.7347    0.1183   -1.6789 O   0  0  0  0  0  0  0  0  0  0  0  0
   -0.2485    1.2221    0.4358 C   0  0  0  0  0  0  0  0  0  0  0  0
   -1.2060    1.8435   -0.0193 O   0  0  0  0  0  0  0  0  0  0  0  0
    0.5785    1.8369    1.3572 N   0  0  0  0  0  0  0  0  0  0  0  0
    1.4359    1.3383    1.5816 H   0  0  0  0  0  0  0  0  0  0  0  0
    0.5233    3.2649    1.6332 C   0  0  0  0  0  0  0  0  0  0  0  0
   -0.4685    3.5463    2.0014 H   0  0  0  0  0  0  0  0  0  0  0  0
    1.2612    3.5278    2.3967 H   0  0  0  0  0  0  0  0  0  0  0  0
    0.7413    3.8380    0.7262 H   0  0  0  0  0  0  0  0  0  0  0  0
  1  2  1  0  0  0  0
  2  3  1  0  0  0  0
  2  4  1  0  0  0  0
  2  5  1  0  0  0  0
  5  6  2  0  0  0  0
  5  7  1  0  0  0  0
  7  8  1  0  0  0  0
  7  9  1  0  0  0  0
  9 10  1  0  0  0  0
  9 11  1  0  0  0  0
  9 20  1  0  0  0  0
 11 12  1  0  0  0  0
 11 13  1  0  0  0  0
 11 14  1  0  0  0  0
 14 15  1  0  0  0  0
 14 16  1  0  0  0  0
 14 17  1  0  0  0  0
 17 18  1  0  0  0  0
 17 19  2  0  0  0  0
 20 21  2  0  0  0  0
 20 22  1  0  0  0  0
 22 23  1  0  0  0  0
 22 24  1  0  0  0  0
 24 25  1  0  0  0  0
 24 26  1  0  0  0  0
 24 27  1  0  0  0  0
M  CHG  1  18  -1
M  END
$$$$

  -OEChem-03222214043D

 27 26  0     1  0  0  0  0  0999 V2000
   -3.2873   -3.6063    1.1733 H   0  0  0  0  0  0  0  0  0  0  0  0
   -3.1771   -2.6826    0.5985 C   0  0  0  0  0  0  0  0  0  0  0  0
   -3.8910   -1.9455    0.9744 H   0  0  0  0  0  0  0  0  0  0  0  0
   -3.3989   -2.8916   -0.4510 H   0  0  0  0  0  0  0  0  0  0  0  0
   -1.7622   -2.1480    0.7299 C   0  0  0  0  0  0  0  0  0  0  0  0
   -0.9451   -2.7597    1.4004 O   0  0  0  0  0  0  0  0  0  0  0  0
   -1.4353   -0.9583    0.1168 N   0  0  0  0  0  0  0  0  0  0  0  0
   -2.1840   -0.4398   -0.3368 H   0  0  0  0  0  0  0  0  0  0  0  0
   -0.1193   -0.3037    0.1602 C   0  0  1  0  0  0  0  0  0  0  0  0
    0.4353   -0.7148    1.0082 H   0  0  0  0  0  0  0  0  0  0  0  0
    0.6742   -0.5374   -1.1421 C   0  0  0  0  0  0  0  0  0  0  0  0
    0.0813   -1.1282   -1.8476 H   0  0  0  0  0  0  0  0  0  0  0  0
    0.8658    0.4262   -1.6291 H   0  0  0  0  0  0  0  0  0  0  0  0
    2.0124   -1.2661   -0.8900 C   0  0  0  0  0  0  0  0  0  0  0  0
    2.2873   -1.2548    0.1680 H   0  0  0  0  0  0  0  0  0  0  0  0
    1.9176   -2.3148   -1.1870 H   0  0  0  0  0  0  0  0  0  0  0  0
    3.1490   -0.6051   -1.6652 C   0  0  0  0  0  0  0  0  0  0  0  0
    3.5428   -1.1402   -2.7300 O   0  5  0  0  0  0  0  0  0  0  0  0
    3.5981    0.4683   -1.1880 O   0  0  0  0  0  0  0  0  0  0  0  0
   -0.2525    1.2074    0.4343 C   0  0  0  0  0  0  0  0  0  0  0  0
   -1.2353    1.8194    0.0204 O   0  0  0  0  0  0  0  0  0  0  0  0
    0.5826    1.8125    1.3542 N   0  0  0  0  0  0  0  0  0  0  0  0
    1.4749    1.3425    1.4949 H   0  0  0  0  0  0  0  0  0  0  0  0
    0.5221    3.2392    1.6354 C   0  0  0  0  0  0  0  0  0  0  0  0
   -0.4591    3.5103    2.0382 H   0  0  0  0  0  0  0  0  0  0  0  0
    1.2835    3.5079    2.3736 H   0  0  0  0  0  0  0  0  0  0  0  0
    0.7032    3.8164    0.7228 H   0  0  0  0  0  0  0  0  0  0  0  0
  1  2  1  0  0  0  0
  2  3  1  0  0  0  0
  2  4  1  0  0  0  0
  2  5  1  0  0  0  0
  5  6  2  0  0  0  0
  5  7  1  0  0  0  0
  7  8  1  0  0  0  0
  7  9  1  0  0  0  0
  9 10  1  0  0  0  0
  9 11  1  0  0  0  0
  9 20  1  0  0  0  0
 11 12  1  0  0  0  0
 11 13  1  0  0  0  0
 11 14  1  0  0  0  0
 14 15  1  0  0  0  0
 14 16  1  0  0  0  0
 14 17  1  0  0  0  0
 17 18  1  0  0  0  0
 17 19  2  0  0  0  0
 20 21  2  0  0  0  0
 20 22  1  0  0  0  0
 22 23  1  0  0  0  0
 22 24  1  0  0  0  0
 24 25  1  0  0  0  0
 24 26  1  0  0  0  0
 24 27  1  0  0  0  0
M  CHG  1  18  -1
M  END
$$$$

  -OEChem-03222214043D

 27 26  0     1  0  0  0  0  0999 V2000
   -3.2806   -3.6223    1.2001 H   0  0  0  0  0  0  0  0  0  0  0  0
   -3.1912   -2.6779    0.6563 C   0  0  0  0  0  0  0  0  0  0  0  0
   -3.8590   -1.9431    1.1130 H   0  0  0  0  0  0  0  0  0  0  0  0
   -3.4934   -2.8392   -0.3814 H   0  0  0  0  0  0  0  0  0  0  0  0
   -1.7585   -2.1766    0.7046 C   0  0  0  0  0  0  0  0  0  0  0  0
   -0.9130   -2.8233    1.3027 O   0  0  0  0  0  0  0  0  0  0  0  0
   -1.4474   -0.9817    0.0932 N   0  0  0  0  0  0  0  0  0  0  0  0
   -2.2185   -0.4316   -0.2783 H   0  0  0  0  0  0  0  0  0  0  0  0
   -0.1345   -0.3193    0.1167 C   0  0  1  0  0  0  0  0  0  0  0  0
    0.4178   -0.7246    0.9689 H   0  0  0  0  0  0  0  0  0  0  0  0
    0.6835   -0.5217   -1.1719 C   0  0  0  0  0  0  0  0  0  0  0  0
    0.1106   -1.1430   -1.8673 H   0  0  0  0  0  0  0  0  0  0  0  0
    0.8488    0.4361   -1.6797 H   0  0  0  0  0  0  0  0  0  0  0  0
    2.0296   -1.2269   -0.8893 C   0  0  0  0  0  0  0  0  0  0  0  0
    2.1584   -1.5013    0.1605 H   0  0  0  0  0  0  0  0  0  0  0  0
    2.0703   -2.1566   -1.4650 H   0  0  0  0  0  0  0  0  0  0  0  0
    3.1891   -0.3304   -1.3108 C   0  0  0  0  0  0  0  0  0  0  0  0
    3.8846   -0.6456   -2.3065 O   0  5  0  0  0  0  0  0  0  0  0  0
    3.3463    0.7085   -0.6154 O   0  0  0  0  0  0  0  0  0  0  0  0
   -0.2515    1.1908    0.3999 C   0  0  0  0  0  0  0  0  0  0  0  0
   -1.2670    1.7927    0.0529 O   0  0  0  0  0  0  0  0  0  0  0  0
    0.6117    1.7779    1.3047 N   0  0  0  0  0  0  0  0  0  0  0  0
    1.5448    1.3602    1.3040 H   0  0  0  0  0  0  0  0  0  0  0  0
    0.5278    3.1922    1.6368 C   0  0  0  0  0  0  0  0  0  0  0  0
   -0.4435    3.4249    2.0849 H   0  0  0  0  0  0  0  0  0  0  0  0
    1.3099    3.4542    2.3555 H   0  0  0  0  0  0  0  0  0  0  0  0
    0.6608    3.8042    0.7387 H   0  0  0  0  0  0  0  0  0  0  0  0
  1  2  1  0  0  0  0
  2  3  1  0  0  0  0
  2  4  1  0  0  0  0
  2  5  1  0  0  0  0
  5  6  2  0  0  0  0
  5  7  1  0  0  0  0
  7  8  1  0  0  0  0
  7  9  1  0  0  0  0
  9 10  1  0  0  0  0
  9 11  1  0  0  0  0
  9 20  1  0  0  0  0
 11 12  1  0  0  0  0
 11 13  1  0  0  0  0
 11 14  1  0  0  0  0
 14 15  1  0  0  0  0
 14 16  1  0  0  0  0
 14 17  1  0  0  0  0
 17 18  1  0  0  0  0
 17 19  2  0  0  0  0
 20 21  2  0  0  0  0
 20 22  1  0  0  0  0
 22 23  1  0  0  0  0
 22 24  1  0  0  0  0
 24 25  1  0  0  0  0
 24 26  1  0  0  0  0
 24 27  1  0  0  0  0
M  CHG  1  18  -1
M  END
$$$$

  -OEChem-03222214043D

 27 26  0     1  0  0  0  0  0999 V2000
   -3.3045   -3.5727    1.2699 H   0  0  0  0  0  0  0  0  0  0  0  0
   -3.2017   -2.6639    0.6703 C   0  0  0  0  0  0  0  0  0  0  0  0
   -3.8662   -1.8969    1.0760 H   0  0  0  0  0  0  0  0  0  0  0  0
   -3.4972   -2.8843   -0.3585 H   0  0  0  0  0  0  0  0  0  0  0  0
   -1.7649   -2.1733    0.7007 C   0  0  0  0  0  0  0  0  0  0  0  0
   -0.9232   -2.8128    1.3115 O   0  0  0  0  0  0  0  0  0  0  0  0
   -1.4464   -1.0025    0.0478 N   0  0  0  0  0  0  0  0  0  0  0  0
   -2.2175   -0.4559   -0.3287 H   0  0  0  0  0  0  0  0  0  0  0  0
   -0.1401   -0.3274    0.0825 C   0  0  1  0  0  0  0  0  0  0  0  0
    0.3779   -0.6830    0.9781 H   0  0  0  0  0  0  0  0  0  0  0  0
    0.7475   -0.5806   -1.1485 C   0  0  0  0  0  0  0  0  0  0  0  0
    0.2208   -1.2619   -1.8238 H   0  0  0  0  0  0  0  0  0  0  0  0
    0.9296    0.3415   -1.7135 H   0  0  0  0  0  0  0  0  0  0  0  0
    2.0763   -1.2457   -0.7320 C   0  0  0  0  0  0  0  0  0  0  0  0
    2.0332   -1.7150    0.2544 H   0  0  0  0  0  0  0  0  0  0  0  0
    2.3105   -2.0386   -1.4486 H   0  0  0  0  0  0  0  0  0  0  0  0
    3.1928   -0.2070   -0.7803 C   0  0  0  0  0  0  0  0  0  0  0  0
    3.0948    0.7231    0.0675 O   0  5  0  0  0  0  0  0  0  0  0  0
    4.1024   -0.3093   -1.6378 O   0  0  0  0  0  0  0  0  0  0  0  0
   -0.2617    1.1934    0.2962 C   0  0  0  0  0  0  0  0  0  0  0  0
   -1.2758    1.7742   -0.0911 O   0  0  0  0  0  0  0  0  0  0  0  0
    0.5799    1.8120    1.1993 N   0  0  0  0  0  0  0  0  0  0  0  0
    1.5316    1.4180    1.1758 H   0  0  0  0  0  0  0  0  0  0  0  0
    0.4806    3.2344    1.4865 C   0  0  0  0  0  0  0  0  0  0  0  0
   -0.5044    3.4767    1.8981 H   0  0  0  0  0  0  0  0  0  0  0  0
    1.2401    3.5199    2.2203 H   0  0  0  0  0  0  0  0  0  0  0  0
    0.6390    3.8202    0.5753 H   0  0  0  0  0  0  0  0  0  0  0  0
  1  2  1  0  0  0  0
  2  3  1  0  0  0  0
  2  4  1  0  0  0  0
  2  5  1  0  0  0  0
  5  6  2  0  0  0  0
  5  7  1  0  0  0  0
  7  8  1  0  0  0  0
  7  9  1  0  0  0  0
  9 10  1  0  0  0  0
  9 11  1  0  0  0  0
  9 20  1  0  0  0  0
 11 12  1  0  0  0  0
 11 13  1  0  0  0  0
 11 14  1  0  0  0  0
 14 15  1  0  0  0  0
 14 16  1  0  0  0  0
 14 17  1  0  0  0  0
 17 18  1  0  0  0  0
 17 19  2  0  0  0  0
 20 21  2  0  0  0  0
 20 22  1  0  0  0  0
 22 23  1  0  0  0  0
 22 24  1  0  0  0  0
 24 25  1  0  0  0  0
 24 26  1  0  0  0  0
 24 27  1  0  0  0  0
M  CHG  1  18  -1
M  END
$$$$

  -OEChem-03222214043D

 27 26  0     1  0  0  0  0  0999 V2000
   -3.2993   -3.5522    1.2499 H   0  0  0  0  0  0  0  0  0  0  0  0
   -3.1850   -2.6428    0.6535 C   0  0  0  0  0  0  0  0  0  0  0  0
   -3.8479   -1.8725    1.0554 H   0  0  0  0  0  0  0  0  0  0  0  0
   -3.4728   -2.8587   -0.3783 H   0  0  0  0  0  0  0  0  0  0  0  0
   -1.7453   -2.1618    0.6974 C   0  0  0  0  0  0  0  0  0  0  0  0
   -0.9117   -2.8133    1.3063 O   0  0  0  0  0  0  0  0  0  0  0  0
   -1.4154   -0.9889    0.0547 N   0  0  0  0  0  0  0  0  0  0  0  0
   -2.1806   -0.4333   -0.3209 H   0  0  0  0  0  0  0  0  0  0  0  0
   -0.1075   -0.3182    0.1108 C   0  0  1  0  0  0  0  0  0  0  0  0
    0.4278   -0.6827    0.9943 H   0  0  0  0  0  0  0  0  0  0  0  0
    0.7512   -0.5811   -1.1424 C   0  0  0  0  0  0  0  0  0  0  0  0
    0.1994   -1.2425   -1.8176 H   0  0  0  0  0  0  0  0  0  0  0  0
    0.9497    0.3450   -1.6939 H   0  0  0  0  0  0  0  0  0  0  0  0
    2.0752   -1.2722   -0.7636 C   0  0  0  0  0  0  0  0  0  0  0  0
    1.9496   -1.9480    0.0874 H   0  0  0  0  0  0  0  0  0  0  0  0
    2.4075   -1.8806   -1.6104 H   0  0  0  0  0  0  0  0  0  0  0  0
    3.1538   -0.2298   -0.4655 C   0  0  0  0  0  0  0  0  0  0  0  0
    2.9481    0.5190    0.5282 O   0  5  0  0  0  0  0  0  0  0  0  0
    4.1497   -0.1548   -1.2240 O   0  0  0  0  0  0  0  0  0  0  0  0
   -0.2670    1.1990    0.3315 C   0  0  0  0  0  0  0  0  0  0  0  0
   -1.2622    1.7728   -0.1125 O   0  0  0  0  0  0  0  0  0  0  0  0
    0.5376    1.8385    1.2518 N   0  0  0  0  0  0  0  0  0  0  0  0
    1.4762    1.4149    1.3182 H   0  0  0  0  0  0  0  0  0  0  0  0
    0.4423    3.2673    1.5027 C   0  0  0  0  0  0  0  0  0  0  0  0
   -0.5559    3.5278    1.8687 H   0  0  0  0  0  0  0  0  0  0  0  0
    1.1748    3.5617    2.2599 H   0  0  0  0  0  0  0  0  0  0  0  0
    0.6433    3.8303    0.5857 H   0  0  0  0  0  0  0  0  0  0  0  0
  1  2  1  0  0  0  0
  2  3  1  0  0  0  0
  2  4  1  0  0  0  0
  2  5  1  0  0  0  0
  5  6  2  0  0  0  0
  5  7  1  0  0  0  0
  7  8  1  0  0  0  0
  7  9  1  0  0  0  0
  9 10  1  0  0  0  0
  9 11  1  0  0  0  0
  9 20  1  0  0  0  0
 11 12  1  0  0  0  0
 11 13  1  0  0  0  0
 11 14  1  0  0  0  0
 14 15  1  0  0  0  0
 14 16  1  0  0  0  0
 14 17  1  0  0  0  0
 17 18  1  0  0  0  0
 17 19  2  0  0  0  0
 20 21  2  0  0  0  0
 20 22  1  0  0  0  0
 22 23  1  0  0  0  0
 22 24  1  0  0  0  0
 24 25  1  0  0  0  0
 24 26  1  0  0  0  0
 24 27  1  0  0  0  0
M  CHG  1  18  -1
M  END
$$$$

  -OEChem-03222214043D

 27 26  0     1  0  0  0  0  0999 V2000
   -3.2947   -3.5642    1.2211 H   0  0  0  0  0  0  0  0  0  0  0  0
   -3.1835   -2.6396    0.6478 C   0  0  0  0  0  0  0  0  0  0  0  0
   -3.8400   -1.8783    1.0764 H   0  0  0  0  0  0  0  0  0  0  0  0
   -3.4822   -2.8277   -0.3864 H   0  0  0  0  0  0  0  0  0  0  0  0
   -1.7419   -2.1637    0.6911 C   0  0  0  0  0  0  0  0  0  0  0  0
   -0.9098   -2.8257    1.2898 O   0  0  0  0  0  0  0  0  0  0  0  0
   -1.4104   -0.9856    0.0583 N   0  0  0  0  0  0  0  0  0  0  0  0
   -2.1763   -0.4298   -0.3158 H   0  0  0  0  0  0  0  0  0  0  0  0
   -0.1067   -0.3061    0.1298 C   0  0  1  0  0  0  0  0  0  0  0  0
    0.4251   -0.6822    1.0109 H   0  0  0  0  0  0  0  0  0  0  0  0
    0.7474   -0.5837   -1.1268 C   0  0  0  0  0  0  0  0  0  0  0  0
    0.1889   -1.2365   -1.8048 H   0  0  0  0  0  0  0  0  0  0  0  0
    0.9493    0.3460   -1.6700 H   0  0  0  0  0  0  0  0  0  0  0  0
    2.0816   -1.2737   -0.7818 C   0  0  0  0  0  0  0  0  0  0  0  0
    1.9078   -2.1089   -0.0968 H   0  0  0  0  0  0  0  0  0  0  0  0
    2.5110   -1.6865   -1.6996 H   0  0  0  0  0  0  0  0  0  0  0  0
    3.0922   -0.3016   -0.1591 C   0  0  0  0  0  0  0  0  0  0  0  0
    2.7855    0.2493    0.9319 O   0  5  0  0  0  0  0  0  0  0  0  0
    4.1504   -0.0764   -0.7933 O   0  0  0  0  0  0  0  0  0  0  0  0
   -0.2818    1.2084    0.3559 C   0  0  0  0  0  0  0  0  0  0  0  0
   -1.2502    1.7885   -0.1363 O   0  0  0  0  0  0  0  0  0  0  0  0
    0.5036    1.8556    1.2864 N   0  0  0  0  0  0  0  0  0  0  0  0
    1.4065    1.3846    1.4545 H   0  0  0  0  0  0  0  0  0  0  0  0
    0.4398    3.2907    1.5068 C   0  0  0  0  0  0  0  0  0  0  0  0
   -0.5599    3.5832    1.8430 H   0  0  0  0  0  0  0  0  0  0  0  0
    1.1616    3.5816    2.2756 H   0  0  0  0  0  0  0  0  0  0  0  0
    0.6770    3.8296    0.5841 H   0  0  0  0  0  0  0  0  0  0  0  0
  1  2  1  0  0  0  0
  2  3  1  0  0  0  0
  2  4  1  0  0  0  0
  2  5  1  0  0  0  0
  5  6  2  0  0  0  0
  5  7  1  0  0  0  0
  7  8  1  0  0  0  0
  7  9  1  0  0  0  0
  9 10  1  0  0  0  0
  9 11  1  0  0  0  0
  9 20  1  0  0  0  0
 11 12  1  0  0  0  0
 11 13  1  0  0  0  0
 11 14  1  0  0  0  0
 14 15  1  0  0  0  0
 14 16  1  0  0  0  0
 14 17  1  0  0  0  0
 17 18  1  0  0  0  0
 17 19  2  0  0  0  0
 20 21  2  0  0  0  0
 20 22  1  0  0  0  0
 22 23  1  0  0  0  0
 22 24  1  0  0  0  0
 24 25  1  0  0  0  0
 24 26  1  0  0  0  0
 24 27  1  0  0  0  0
M  CHG  1  18  -1
M  END
$$$$

  -OEChem-03222214043D

 27 26  0     1  0  0  0  0  0999 V2000
   -3.2889   -3.5452    1.2337 H   0  0  0  0  0  0  0  0  0  0  0  0
   -3.1719   -2.6258    0.6535 C   0  0  0  0  0  0  0  0  0  0  0  0
   -3.8310   -1.8600    1.0699 H   0  0  0  0  0  0  0  0  0  0  0  0
   -3.4617   -2.8223   -0.3815 H   0  0  0  0  0  0  0  0  0  0  0  0
   -1.7304   -2.1512    0.7055 C   0  0  0  0  0  0  0  0  0  0  0  0
   -0.9021   -2.8134    1.3088 O   0  0  0  0  0  0  0  0  0  0  0  0
   -1.3947   -0.9722    0.0769 N   0  0  0  0  0  0  0  0  0  0  0  0
   -2.1582   -0.4120   -0.2958 H   0  0  0  0  0  0  0  0  0  0  0  0
   -0.0917   -0.2928    0.1638 C   0  0  1  0  0  0  0  0  0  0  0  0
    0.4446   -0.6730    1.0398 H   0  0  0  0  0  0  0  0  0  0  0  0
    0.7483   -0.5584   -1.1077 C   0  0  0  0  0  0  0  0  0  0  0  0
    0.1702   -1.1741   -1.8037 H   0  0  0  0  0  0  0  0  0  0  0  0
    0.9513    0.3905   -1.6157 H   0  0  0  0  0  0  0  0  0  0  0  0
    2.1002   -1.2648   -0.8478 C   0  0  0  0  0  0  0  0  0  0  0  0
    1.8929   -2.2425   -0.4030 H   0  0  0  0  0  0  0  0  0  0  0  0
    2.5818   -1.4370   -1.8149 H   0  0  0  0  0  0  0  0  0  0  0  0
    3.1070   -0.5420    0.0650 C   0  0  0  0  0  0  0  0  0  0  0  0
    2.7041    0.3472    0.8604 O   0  5  0  0  0  0  0  0  0  0  0  0
    4.3072   -0.8854   -0.0545 O   0  0  0  0  0  0  0  0  0  0  0  0
   -0.3071    1.2192    0.3904 C   0  0  0  0  0  0  0  0  0  0  0  0
   -1.2826    1.7767   -0.1154 O   0  0  0  0  0  0  0  0  0  0  0  0
    0.4443    1.8896    1.3314 N   0  0  0  0  0  0  0  0  0  0  0  0
    1.3636    1.4495    1.4916 H   0  0  0  0  0  0  0  0  0  0  0  0
    0.3299    3.3205    1.5582 C   0  0  0  0  0  0  0  0  0  0  0  0
   -0.6841    3.5779    1.8802 H   0  0  0  0  0  0  0  0  0  0  0  0
    1.0291    3.6305    2.3404 H   0  0  0  0  0  0  0  0  0  0  0  0
    0.5636    3.8726    0.6423 H   0  0  0  0  0  0  0  0  0  0  0  0
  1  2  1  0  0  0  0
  2  3  1  0  0  0  0
  2  4  1  0  0  0  0
  2  5  1  0  0  0  0
  5  6  2  0  0  0  0
  5  7  1  0  0  0  0
  7  8  1  0  0  0  0
  7  9  1  0  0  0  0
  9 10  1  0  0  0  0
  9 11  1  0  0  0  0
  9 20  1  0  0  0  0
 11 12  1  0  0  0  0
 11 13  1  0  0  0  0
 11 14  1  0  0  0  0
 14 15  1  0  0  0  0
 14 16  1  0  0  0  0
 14 17  1  0  0  0  0
 17 18  1  0  0  0  0
 17 19  2  0  0  0  0
 20 21  2  0  0  0  0
 20 22  1  0  0  0  0
 22 23  1  0  0  0  0
 22 24  1  0  0  0  0
 24 25  1  0  0  0  0
 24 26  1  0  0  0  0
 24 27  1  0  0  0  0
M  CHG  1  18  -1
M  END
$$$$

  -OEChem-03222214043D

 27 26  0     1  0  0  0  0  0999 V2000
   -3.2782   -3.5702    1.2269 H   0  0  0  0  0  0  0  0  0  0  0  0
   -3.1631   -2.6534    0.6419 C   0  0  0  0  0  0  0  0  0  0  0  0
   -3.8388   -1.8932    1.0413 H   0  0  0  0  0  0  0  0  0  0  0  0
   -3.4323   -2.8612   -0.3964 H   0  0  0  0  0  0  0  0  0  0  0  0
   -1.7286   -2.1609    0.7134 C   0  0  0  0  0  0  0  0  0  0  0  0
   -0.9004   -2.8147    1.3248 O   0  0  0  0  0  0  0  0  0  0  0  0
   -1.3989   -0.9769    0.0912 N   0  0  0  0  0  0  0  0  0  0  0  0
   -2.1645   -0.4242   -0.2879 H   0  0  0  0  0  0  0  0  0  0  0  0
   -0.0993   -0.2911    0.1764 C   0  0  1  0  0  0  0  0  0  0  0  0
    0.4373   -0.6729    1.0509 H   0  0  0  0  0  0  0  0  0  0  0  0
    0.7382   -0.5441   -1.1005 C   0  0  0  0  0  0  0  0  0  0  0  0
    0.1603   -1.1444   -1.8101 H   0  0  0  0  0  0  0  0  0  0  0  0
    0.9382    0.4161   -1.5881 H   0  0  0  0  0  0  0  0  0  0  0  0
    2.0995   -1.2440   -0.8648 C   0  0  0  0  0  0  0  0  0  0  0  0
    1.8990   -2.3029   -0.6757 H   0  0  0  0  0  0  0  0  0  0  0  0
    2.6868   -1.1760   -1.7845 H   0  0  0  0  0  0  0  0  0  0  0  0
    2.9638   -0.7252    0.2963 C   0  0  0  0  0  0  0  0  0  0  0  0
    2.7435    0.4293    0.7500 O   0  5  0  0  0  0  0  0  0  0  0  0
    3.8807   -1.4775    0.7016 O   0  0  0  0  0  0  0  0  0  0  0  0
   -0.3133    1.2199    0.4123 C   0  0  0  0  0  0  0  0  0  0  0  0
   -1.2932    1.7789   -0.0829 O   0  0  0  0  0  0  0  0  0  0  0  0
    0.4440    1.8843    1.3534 N   0  0  0  0  0  0  0  0  0  0  0  0
    1.3728    1.4550    1.4843 H   0  0  0  0  0  0  0  0  0  0  0  0
    0.3295    3.3150    1.5835 C   0  0  0  0  0  0  0  0  0  0  0  0
   -0.6887    3.5749    1.8898 H   0  0  0  0  0  0  0  0  0  0  0  0
    1.0169    3.6207    2.3777 H   0  0  0  0  0  0  0  0  0  0  0  0
    0.5793    3.8692    0.6732 H   0  0  0  0  0  0  0  0  0  0  0  0
  1  2  1  0  0  0  0
  2  3  1  0  0  0  0
  2  4  1  0  0  0  0
  2  5  1  0  0  0  0
  5  6  2  0  0  0  0
  5  7  1  0  0  0  0
  7  8  1  0  0  0  0
  7  9  1  0  0  0  0
  9 10  1  0  0  0  0
  9 11  1  0  0  0  0
  9 20  1  0  0  0  0
 11 12  1  0  0  0  0
 11 13  1  0  0  0  0
 11 14  1  0  0  0  0
 14 15  1  0  0  0  0
 14 16  1  0  0  0  0
 14 17  1  0  0  0  0
 17 18  1  0  0  0  0
 17 19  2  0  0  0  0
 20 21  2  0  0  0  0
 20 22  1  0  0  0  0
 22 23  1  0  0  0  0
 22 24  1  0  0  0  0
 24 25  1  0  0  0  0
 24 26  1  0  0  0  0
 24 27  1  0  0  0  0
M  CHG  1  18  -1
M  END
$$$$

  -OEChem-03222214043D

 27 26  0     1  0  0  0  0  0999 V2000
   -3.2889   -3.6108    1.1934 H   0  0  0  0  0  0  0  0  0  0  0  0
   -3.1774   -2.6881    0.6171 C   0  0  0  0  0  0  0  0  0  0  0  0
   -3.8698   -1.9405    1.0119 H   0  0  0  0  0  0  0  0  0  0  0  0
   -3.4276   -2.8915   -0.4269 H   0  0  0  0  0  0  0  0  0  0  0  0
   -1.7512   -2.1758    0.7154 C   0  0  0  0  0  0  0  0  0  0  0  0
   -0.9277   -2.8160    1.3455 O   0  0  0  0  0  0  0  0  0  0  0  0
   -1.4284   -0.9881    0.0959 N   0  0  0  0  0  0  0  0  0  0  0  0
   -2.1961   -0.4560   -0.3063 H   0  0  0  0  0  0  0  0  0  0  0  0
   -0.1397   -0.2814    0.1820 C   0  0  1  0  0  0  0  0  0  0  0  0
    0.3688   -0.6598    1.0730 H   0  0  0  0  0  0  0  0  0  0  0  0
    0.7257   -0.5526   -1.0752 C   0  0  0  0  0  0  0  0  0  0  0  0
    0.1631   -1.1695   -1.7829 H   0  0  0  0  0  0  0  0  0  0  0  0
    0.9097    0.4044   -1.5748 H   0  0  0  0  0  0  0  0  0  0  0  0
    2.1076   -1.2199   -0.8446 C   0  0  0  0  0  0  0  0  0  0  0  0
    1.9614   -2.3030   -0.8998 H   0  0  0  0  0  0  0  0  0  0  0  0
    2.7740   -0.9362   -1.6638 H   0  0  0  0  0  0  0  0  0  0  0  0
    2.8202   -0.9250    0.4853 C   0  0  0  0  0  0  0  0  0  0  0  0
    2.6998    0.2313    0.9752 O   0  5  0  0  0  0  0  0  0  0  0  0
    3.5451   -1.8254    0.9697 O   0  0  0  0  0  0  0  0  0  0  0  0
   -0.3306    1.2298    0.4140 C   0  0  0  0  0  0  0  0  0  0  0  0
   -1.2885    1.8108   -0.0969 O   0  0  0  0  0  0  0  0  0  0  0  0
    0.4442    1.8758    1.3537 N   0  0  0  0  0  0  0  0  0  0  0  0
    1.3429    1.4010    1.5325 H   0  0  0  0  0  0  0  0  0  0  0  0
    0.3750    3.3093    1.5828 C   0  0  0  0  0  0  0  0  0  0  0  0
   -0.6360    3.6022    1.8834 H   0  0  0  0  0  0  0  0  0  0  0  0
    1.0676    3.5928    2.3808 H   0  0  0  0  0  0  0  0  0  0  0  0
    0.6475    3.8545    0.6737 H   0  0  0  0  0  0  0  0  0  0  0  0
  1  2  1  0  0  0  0
  2  3  1  0  0  0  0
  2  4  1  0  0  0  0
  2  5  1  0  0  0  0
  5  6  2  0  0  0  0
  5  7  1  0  0  0  0
  7  8  1  0  0  0  0
  7  9  1  0  0  0  0
  9 10  1  0  0  0  0
  9 11  1  0  0  0  0
  9 20  1  0  0  0  0
 11 12  1  0  0  0  0
 11 13  1  0  0  0  0
 11 14  1  0  0  0  0
 14 15  1  0  0  0  0
 14 16  1  0  0  0  0
 14 17  1  0  0  0  0
 17 18  1  0  0  0  0
 17 19  2  0  0  0  0
 20 21  2  0  0  0  0
 20 22  1  0  0  0  0
 22 23  1  0  0  0  0
 22 24  1  0  0  0  0
 24 25  1  0  0  0  0
 24 26  1  0  0  0  0
 24 27  1  0  0  0  0
M  CHG  1  18  -1
M  END
$$$$

  -OEChem-03222214043D

 27 26  0     1  0  0  0  0  0999 V2000
   -3.2942   -3.6637    1.1541 H   0  0  0  0  0  0  0  0  0  0  0  0
   -3.1933   -2.7400    0.5770 C   0  0  0  0  0  0  0  0  0  0  0  0
   -3.9166   -2.0109    0.9501 H   0  0  0  0  0  0  0  0  0  0  0  0
   -3.4096   -2.9543   -0.4724 H   0  0  0  0  0  0  0  0  0  0  0  0
   -1.7850   -2.1879    0.7120 C   0  0  0  0  0  0  0  0  0  0  0  0
   -0.9656   -2.8021    1.3708 O   0  0  0  0  0  0  0  0  0  0  0  0
   -1.4775   -0.9943    0.0949 N   0  0  0  0  0  0  0  0  0  0  0  0
   -2.2457   -0.4968   -0.3471 H   0  0  0  0  0  0  0  0  0  0  0  0
   -0.2014   -0.2627    0.1755 C   0  0  1  0  0  0  0  0  0  0  0  0
    0.2748   -0.6360    1.0838 H   0  0  0  0  0  0  0  0  0  0  0  0
    0.6982   -0.5595   -1.0536 C   0  0  0  0  0  0  0  0  0  0  0  0
    0.1576   -1.2194   -1.7395 H   0  0  0  0  0  0  0  0  0  0  0  0
    0.8549    0.3802   -1.5936 H   0  0  0  0  0  0  0  0  0  0  0  0
    2.0992   -1.1855   -0.8050 C   0  0  0  0  0  0  0  0  0  0  0  0
    2.0460   -2.2377   -1.1009 H   0  0  0  0  0  0  0  0  0  0  0  0
    2.8196   -0.6989   -1.4683 H   0  0  0  0  0  0  0  0  0  0  0  0
    2.6630   -1.1419    0.6228 C   0  0  0  0  0  0  0  0  0  0  0  0
    2.6113   -0.0319    1.2237 O   0  5  0  0  0  0  0  0  0  0  0  0
    3.2385   -2.1632    1.0661 O   0  0  0  0  0  0  0  0  0  0  0  0
   -0.3512    1.2489    0.4069 C   0  0  0  0  0  0  0  0  0  0  0  0
   -1.2745    1.8685   -0.1193 O   0  0  0  0  0  0  0  0  0  0  0  0
    0.4583    1.8591    1.3418 N   0  0  0  0  0  0  0  0  0  0  0  0
    1.3077    1.3204    1.5748 H   0  0  0  0  0  0  0  0  0  0  0  0
    0.4609    3.2920    1.5816 C   0  0  0  0  0  0  0  0  0  0  0  0
   -0.5374    3.6346    1.8716 H   0  0  0  0  0  0  0  0  0  0  0  0
    1.1568    3.5325    2.3908 H   0  0  0  0  0  0  0  0  0  0  0  0
    0.7736    3.8288    0.6805 H   0  0  0  0  0  0  0  0  0  0  0  0
  1  2  1  0  0  0  0
  2  3  1  0  0  0  0
  2  4  1  0  0  0  0
  2  5  1  0  0  0  0
  5  6  2  0  0  0  0
  5  7  1  0  0  0  0
  7  8  1  0  0  0  0
  7  9  1  0  0  0  0
  9 10  1  0  0  0  0
  9 11  1  0  0  0  0
  9 20  1  0  0  0  0
 11 12  1  0  0  0  0
 11 13  1  0  0  0  0
 11 14  1  0  0  0  0
 14 15  1  0  0  0  0
 14 16  1  0  0  0  0
 14 17  1  0  0  0  0
 17 18  1  0  0  0  0
 17 19  2  0  0  0  0
 20 21  2  0  0  0  0
 20 22  1  0  0  0  0
 22 23  1  0  0  0  0
 22 24  1  0  0  0  0
 24 25  1  0  0  0  0
 24 26  1  0  0  0  0
 24 27  1  0  0  0  0
M  CHG  1  18  -1
M  END
$$$$

  -OEChem-03222214043D

 27 26  0     1  0  0  0  0  0999 V2000
   -3.3039   -3.6306    1.0285 H   0  0  0  0  0  0  0  0  0  0  0  0
   -3.2302   -2.5602    0.8163 C   0  0  0  0  0  0  0  0  0  0  0  0
   -3.3081   -2.0108    1.7580 H   0  0  0  0  0  0  0  0  0  0  0  0
   -4.0577   -2.2709    0.1642 H   0  0  0  0  0  0  0  0  0  0  0  0
   -1.9045   -2.2441    0.1445 C   0  0  0  0  0  0  0  0  0  0  0  0
   -1.1844   -3.1811   -0.1553 O   0  0  0  0  0  0  0  0  0  0  0  0
   -1.6444   -0.9144   -0.1374 N   0  0  0  0  0  0  0  0  0  0  0  0
   -2.3567   -0.2811    0.2225 H   0  0  0  0  0  0  0  0  0  0  0  0
   -0.3884   -0.2010   -0.4742 C   0  0  1  0  0  0  0  0  0  0  0  0
   -0.6982    0.2670   -1.4132 H   0  0  0  0  0  0  0  0  0  0  0  0
    0.8040   -1.0437   -1.0775 C   0  0  0  0  0  0  0  0  0  0  0  0
    0.4556   -2.0329   -1.3653 H   0  0  0  0  0  0  0  0  0  0  0  0
    1.0170   -0.5534   -2.0338 H   0  0  0  0  0  0  0  0  0  0  0  0
    2.2205   -1.2213   -0.4644 C   0  0  0  0  0  0  0  0  0  0  0  0
    2.3823   -2.2924   -0.3120 H   0  0  0  0  0  0  0  0  0  0  0  0
    2.9571   -0.9009   -1.2081 H   0  0  0  0  0  0  0  0  0  0  0  0
    2.5561   -0.5439    0.8493 C   0  0  0  0  0  0  0  0  0  0  0  0
    3.3116    0.4561    0.7994 O   0  5  0  0  0  0  0  0  0  0  0  0
    1.9246   -0.8923    1.8725 O   0  0  0  0  0  0  0  0  0  0  0  0
   -0.3257    1.1208    0.3587 C   0  0  0  0  0  0  0  0  0  0  0  0
   -1.3891    1.7449    0.3979 O   0  0  0  0  0  0  0  0  0  0  0  0
    0.7184    1.6799    1.0671 N   0  0  0  0  0  0  0  0  0  0  0  0
    1.5663    1.1157    1.1849 H   0  0  0  0  0  0  0  0  0  0  0  0
    0.6023    2.8681    1.8978 C   0  0  0  0  0  0  0  0  0  0  0  0
   -0.0991    2.6933    2.7197 H   0  0  0  0  0  0  0  0  0  0  0  0
    1.5791    3.1186    2.3222 H   0  0  0  0  0  0  0  0  0  0  0  0
    0.2550    3.7203    1.3055 H   0  0  0  0  0  0  0  0  0  0  0  0
  1  2  1  0  0  0  0
  2  3  1  0  0  0  0
  2  4  1  0  0  0  0
  2  5  1  0  0  0  0
  5  6  2  0  0  0  0
  5  7  1  0  0  0  0
  7  8  1  0  0  0  0
  7  9  1  0  0  0  0
  9 10  1  0  0  0  0
  9 11  1  0  0  0  0
  9 20  1  0  0  0  0
 11 12  1  0  0  0  0
 11 13  1  0  0  0  0
 11 14  1  0  0  0  0
 14 15  1  0  0  0  0
 14 16  1  0  0  0  0
 14 17  1  0  0  0  0
 17 18  1  0  0  0  0
 17 19  2  0  0  0  0
 20 21  2  0  0  0  0
 20 22  1  0  0  0  0
 22 23  1  0  0  0  0
 22 24  1  0  0  0  0
 24 25  1  0  0  0  0
 24 26  1  0  0  0  0
 24 27  1  0  0  0  0
M  CHG  1  18  -1
M  END
$$$$

  -OEChem-03222214043D

 27 26  0     1  0  0  0  0  0999 V2000
   -2.8821   -3.6381    1.0378 H   0  0  0  0  0  0  0  0  0  0  0  0
   -2.7459   -2.5536    1.0123 C   0  0  0  0  0  0  0  0  0  0  0  0
   -2.1969   -2.2486    1.9078 H   0  0  0  0  0  0  0  0  0  0  0  0
   -3.7262   -2.0713    1.0121 H   0  0  0  0  0  0  0  0  0  0  0  0
   -1.9627   -2.1495   -0.2237 C   0  0  0  0  0  0  0  0  0  0  0  0
   -1.7649   -2.9806   -1.0993 O   0  0  0  0  0  0  0  0  0  0  0  0
   -1.7446   -0.8071   -0.4570 N   0  0  0  0  0  0  0  0  0  0  0  0
   -2.3155   -0.2279    0.1563 H   0  0  0  0  0  0  0  0  0  0  0  0
   -0.4279   -0.1601   -0.6600 C   0  0  1  0  0  0  0  0  0  0  0  0
   -0.6062    0.3135   -1.6299 H   0  0  0  0  0  0  0  0  0  0  0  0
    0.7768   -1.0827   -1.1012 C   0  0  0  0  0  0  0  0  0  0  0  0
    0.4116   -2.0839   -1.3129 H   0  0  0  0  0  0  0  0  0  0  0  0
    1.1086   -0.6986   -2.0715 H   0  0  0  0  0  0  0  0  0  0  0  0
    2.0818   -1.2905   -0.2910 C   0  0  0  0  0  0  0  0  0  0  0  0
    2.3576   -2.3481   -0.3320 H   0  0  0  0  0  0  0  0  0  0  0  0
    2.8783   -0.7381   -0.7994 H   0  0  0  0  0  0  0  0  0  0  0  0
    2.0875   -0.8636    1.1666 C   0  0  0  0  0  0  0  0  0  0  0  0
    2.9411   -0.0130    1.5157 O   0  5  0  0  0  0  0  0  0  0  0  0
    1.1361   -1.2466    1.8875 O   0  0  0  0  0  0  0  0  0  0  0  0
   -0.3437    1.1588    0.1765 C   0  0  0  0  0  0  0  0  0  0  0  0
   -1.3605    1.8532    0.1400 O   0  0  0  0  0  0  0  0  0  0  0  0
    0.6764    1.6444    0.9725 N   0  0  0  0  0  0  0  0  0  0  0  0
    1.4531    1.0123    1.1874 H   0  0  0  0  0  0  0  0  0  0  0  0
    0.5600    2.8317    1.8054 C   0  0  0  0  0  0  0  0  0  0  0  0
   -0.2507    2.7128    2.5312 H   0  0  0  0  0  0  0  0  0  0  0  0
    1.4939    2.9926    2.3524 H   0  0  0  0  0  0  0  0  0  0  0  0
    0.3633    3.7153    1.1904 H   0  0  0  0  0  0  0  0  0  0  0  0
  1  2  1  0  0  0  0
  2  3  1  0  0  0  0
  2  4  1  0  0  0  0
  2  5  1  0  0  0  0
  5  6  2  0  0  0  0
  5  7  1  0  0  0  0
  7  8  1  0  0  0  0
  7  9  1  0  0  0  0
  9 10  1  0  0  0  0
  9 11  1  0  0  0  0
  9 20  1  0  0  0  0
 11 12  1  0  0  0  0
 11 13  1  0  0  0  0
 11 14  1  0  0  0  0
 14 15  1  0  0  0  0
 14 16  1  0  0  0  0
 14 17  1  0  0  0  0
 17 18  1  0  0  0  0
 17 19  2  0  0  0  0
 20 21  2  0  0  0  0
 20 22  1  0  0  0  0
 22 23  1  0  0  0  0
 22 24  1  0  0  0  0
 24 25  1  0  0  0  0
 24 26  1  0  0  0  0
 24 27  1  0  0  0  0
M  CHG  1  18  -1
M  END
$$$$

  -OEChem-03222214043D

 27 26  0     1  0  0  0  0  0999 V2000
   -3.0545   -3.7151    1.2084 H   0  0  0  0  0  0  0  0  0  0  0  0
   -2.8483   -2.9434    0.4614 C   0  0  0  0  0  0  0  0  0  0  0  0
   -3.7833   -2.4414    0.2022 H   0  0  0  0  0  0  0  0  0  0  0  0
   -2.4365   -3.4215   -0.4312 H   0  0  0  0  0  0  0  0  0  0  0  0
   -1.8495   -1.9396    1.0085 C   0  0  0  0  0  0  0  0  0  0  0  0
   -1.4504   -2.0430    2.1576 O   0  0  0  0  0  0  0  0  0  0  0  0
   -1.5543   -0.8059    0.2805 N   0  0  0  0  0  0  0  0  0  0  0  0
   -2.0347   -0.7328   -0.6094 H   0  0  0  0  0  0  0  0  0  0  0  0
   -0.2189   -0.1882    0.3195 C   0  0  1  0  0  0  0  0  0  0  0  0
    0.3376   -0.5713    1.1797 H   0  0  0  0  0  0  0  0  0  0  0  0
    0.5088   -0.5103   -1.0214 C   0  0  0  0  0  0  0  0  0  0  0  0
   -0.1657   -1.1094   -1.6417 H   0  0  0  0  0  0  0  0  0  0  0  0
    0.6992    0.4110   -1.5821 H   0  0  0  0  0  0  0  0  0  0  0  0
    1.8335   -1.2959   -0.9335 C   0  0  0  0  0  0  0  0  0  0  0  0
    1.9851   -1.8481   -1.8656 H   0  0  0  0  0  0  0  0  0  0  0  0
    2.6518   -0.5742   -0.8518 H   0  0  0  0  0  0  0  0  0  0  0  0
    1.9500   -2.2618    0.2415 C   0  0  0  0  0  0  0  0  0  0  0  0
    1.4229   -3.3937    0.1154 O   0  5  0  0  0  0  0  0  0  0  0  0
    2.5429   -1.8463    1.2690 O   0  0  0  0  0  0  0  0  0  0  0  0
   -0.2757    1.3423    0.4770 C   0  0  0  0  0  0  0  0  0  0  0  0
   -1.0431    2.0308   -0.1920 O   0  0  0  0  0  0  0  0  0  0  0  0
    0.5710    1.9513    1.3831 N   0  0  0  0  0  0  0  0  0  0  0  0
    1.2137    1.3414    1.8864 H   0  0  0  0  0  0  0  0  0  0  0  0
    0.6385    3.3887    1.5939 C   0  0  0  0  0  0  0  0  0  0  0  0
   -0.3363    3.7754    1.9076 H   0  0  0  0  0  0  0  0  0  0  0  0
    1.3696    3.6183    2.3748 H   0  0  0  0  0  0  0  0  0  0  0  0
    0.9429    3.8963    0.6731 H   0  0  0  0  0  0  0  0  0  0  0  0
  1  2  1  0  0  0  0
  2  3  1  0  0  0  0
  2  4  1  0  0  0  0
  2  5  1  0  0  0  0
  5  6  2  0  0  0  0
  5  7  1  0  0  0  0
  7  8  1  0  0  0  0
  7  9  1  0  0  0  0
  9 10  1  0  0  0  0
  9 11  1  0  0  0  0
  9 20  1  0  0  0  0
 11 12  1  0  0  0  0
 11 13  1  0  0  0  0
 11 14  1  0  0  0  0
 14 15  1  0  0  0  0
 14 16  1  0  0  0  0
 14 17  1  0  0  0  0
 17 18  1  0  0  0  0
 17 19  2  0  0  0  0
 20 21  2  0  0  0  0
 20 22  1  0  0  0  0
 22 23  1  0  0  0  0
 22 24  1  0  0  0  0
 24 25  1  0  0  0  0
 24 26  1  0  0  0  0
 24 27  1  0  0  0  0
M  CHG  1  18  -1
M  END
$$$$

  -OEChem-03222214043D

 27 26  0     1  0  0  0  0  0999 V2000
   -2.8753   -3.7592    1.2162 H   0  0  0  0  0  0  0  0  0  0  0  0
   -2.7039   -2.9870    0.4615 C   0  0  0  0  0  0  0  0  0  0  0  0
   -3.6654   -2.5752    0.1469 H   0  0  0  0  0  0  0  0  0  0  0  0
   -2.2076   -3.4448   -0.3987 H   0  0  0  0  0  0  0  0  0  0  0  0
   -1.8218   -1.8897    1.0281 C   0  0  0  0  0  0  0  0  0  0  0  0
   -1.4945   -1.9073    2.2064 O   0  0  0  0  0  0  0  0  0  0  0  0
   -1.5589   -0.7603    0.2807 N   0  0  0  0  0  0  0  0  0  0  0  0
   -1.9928   -0.7652   -0.6355 H   0  0  0  0  0  0  0  0  0  0  0  0
   -0.2100   -0.1749    0.3067 C   0  0  1  0  0  0  0  0  0  0  0  0
    0.3687   -0.5820    1.1436 H   0  0  0  0  0  0  0  0  0  0  0  0
    0.4763   -0.4996   -1.0529 C   0  0  0  0  0  0  0  0  0  0  0  0
   -0.2194   -1.0669   -1.6806 H   0  0  0  0  0  0  0  0  0  0  0  0
    0.7038    0.4222   -1.5988 H   0  0  0  0  0  0  0  0  0  0  0  0
    1.7703   -1.3241   -0.9466 C   0  0  0  0  0  0  0  0  0  0  0  0
    2.0465   -1.6936   -1.9381 H   0  0  0  0  0  0  0  0  0  0  0  0
    2.5769   -0.6699   -0.6020 H   0  0  0  0  0  0  0  0  0  0  0  0
    1.6553   -2.5081    0.0112 C   0  0  0  0  0  0  0  0  0  0  0  0
    0.8165   -3.3998   -0.2732 O   0  5  0  0  0  0  0  0  0  0  0  0
    2.3801   -2.4961    1.0355 O   0  0  0  0  0  0  0  0  0  0  0  0
   -0.2435    1.3576    0.4690 C   0  0  0  0  0  0  0  0  0  0  0  0
   -0.9912    2.0629   -0.2044 O   0  0  0  0  0  0  0  0  0  0  0  0
    0.6184    1.9571    1.3679 N   0  0  0  0  0  0  0  0  0  0  0  0
    1.2099    1.3382    1.9177 H   0  0  0  0  0  0  0  0  0  0  0  0
    0.6644    3.3901    1.6128 C   0  0  0  0  0  0  0  0  0  0  0  0
   -0.3055    3.7468    1.9741 H   0  0  0  0  0  0  0  0  0  0  0  0
    1.4213    3.6178    2.3691 H   0  0  0  0  0  0  0  0  0  0  0  0
    0.9206    3.9263    0.6935 H   0  0  0  0  0  0  0  0  0  0  0  0
  1  2  1  0  0  0  0
  2  3  1  0  0  0  0
  2  4  1  0  0  0  0
  2  5  1  0  0  0  0
  5  6  2  0  0  0  0
  5  7  1  0  0  0  0
  7  8  1  0  0  0  0
  7  9  1  0  0  0  0
  9 10  1  0  0  0  0
  9 11  1  0  0  0  0
  9 20  1  0  0  0  0
 11 12  1  0  0  0  0
 11 13  1  0  0  0  0
 11 14  1  0  0  0  0
 14 15  1  0  0  0  0
 14 16  1  0  0  0  0
 14 17  1  0  0  0  0
 17 18  1  0  0  0  0
 17 19  2  0  0  0  0
 20 21  2  0  0  0  0
 20 22  1  0  0  0  0
 22 23  1  0  0  0  0
 22 24  1  0  0  0  0
 24 25  1  0  0  0  0
 24 26  1  0  0  0  0
 24 27  1  0  0  0  0
M  CHG  1  18  -1
M  END
$$$$

  -OEChem-03222214043D

 27 26  0     1  0  0  0  0  0999 V2000
   -2.8566   -3.7843    1.2034 H   0  0  0  0  0  0  0  0  0  0  0  0
   -2.7250   -2.9872    0.4668 C   0  0  0  0  0  0  0  0  0  0  0  0
   -3.6984   -2.5484    0.2373 H   0  0  0  0  0  0  0  0  0  0  0  0
   -2.3007   -3.4208   -0.4431 H   0  0  0  0  0  0  0  0  0  0  0  0
   -1.7851   -1.9251    1.0075 C   0  0  0  0  0  0  0  0  0  0  0  0
   -1.3953   -1.9773    2.1664 O   0  0  0  0  0  0  0  0  0  0  0  0
   -1.5343   -0.7859    0.2703 N   0  0  0  0  0  0  0  0  0  0  0  0
   -1.9820   -0.7803   -0.6397 H   0  0  0  0  0  0  0  0  0  0  0  0
   -0.1923   -0.1855    0.2912 C   0  0  1  0  0  0  0  0  0  0  0  0
    0.4029   -0.6009    1.1126 H   0  0  0  0  0  0  0  0  0  0  0  0
    0.4859   -0.4974   -1.0704 C   0  0  0  0  0  0  0  0  0  0  0  0
   -0.2016   -1.0517   -1.7186 H   0  0  0  0  0  0  0  0  0  0  0  0
    0.7255    0.4321   -1.5972 H   0  0  0  0  0  0  0  0  0  0  0  0
    1.7824   -1.3084   -0.9263 C   0  0  0  0  0  0  0  0  0  0  0  0
    2.2089   -1.4800   -1.9184 H   0  0  0  0  0  0  0  0  0  0  0  0
    2.5075   -0.7285   -0.3471 H   0  0  0  0  0  0  0  0  0  0  0  0
    1.5591   -2.6647   -0.2533 C   0  0  0  0  0  0  0  0  0  0  0  0
    0.6105   -3.3785   -0.6696 O   0  5  0  0  0  0  0  0  0  0  0  0
    2.3490   -2.9833    0.6674 O   0  0  0  0  0  0  0  0  0  0  0  0
   -0.2443    1.3457    0.4674 C   0  0  0  0  0  0  0  0  0  0  0  0
   -1.0016    2.0471   -0.1987 O   0  0  0  0  0  0  0  0  0  0  0  0
    0.6154    1.9516    1.3647 N   0  0  0  0  0  0  0  0  0  0  0  0
    1.2072    1.3382    1.9188 H   0  0  0  0  0  0  0  0  0  0  0  0
    0.6529    3.3858    1.6078 C   0  0  0  0  0  0  0  0  0  0  0  0
   -0.3107    3.7336    1.9937 H   0  0  0  0  0  0  0  0  0  0  0  0
    1.4271    3.6212    2.3440 H   0  0  0  0  0  0  0  0  0  0  0  0
    0.8805    3.9248    0.6825 H   0  0  0  0  0  0  0  0  0  0  0  0
  1  2  1  0  0  0  0
  2  3  1  0  0  0  0
  2  4  1  0  0  0  0
  2  5  1  0  0  0  0
  5  6  2  0  0  0  0
  5  7  1  0  0  0  0
  7  8  1  0  0  0  0
  7  9  1  0  0  0  0
  9 10  1  0  0  0  0
  9 11  1  0  0  0  0
  9 20  1  0  0  0  0
 11 12  1  0  0  0  0
 11 13  1  0  0  0  0
 11 14  1  0  0  0  0
 14 15  1  0  0  0  0
 14 16  1  0  0  0  0
 14 17  1  0  0  0  0
 17 18  1  0  0  0  0
 17 19  2  0  0  0  0
 20 21  2  0  0  0  0
 20 22  1  0  0  0  0
 22 23  1  0  0  0  0
 22 24  1  0  0  0  0
 24 25  1  0  0  0  0
 24 26  1  0  0  0  0
 24 27  1  0  0  0  0
M  CHG  1  18  -1
M  END
$$$$

  -OEChem-03222214043D

 27 26  0     1  0  0  0  0  0999 V2000
   -2.8791   -3.7816    1.1896 H   0  0  0  0  0  0  0  0  0  0  0  0
   -2.7483   -2.9794    0.4585 C   0  0  0  0  0  0  0  0  0  0  0  0
   -3.7166   -2.5136    0.2627 H   0  0  0  0  0  0  0  0  0  0  0  0
   -2.3623   -3.4122   -0.4688 H   0  0  0  0  0  0  0  0  0  0  0  0
   -1.7666   -1.9471    0.9827 C   0  0  0  0  0  0  0  0  0  0  0  0
   -1.3194   -2.0414    2.1187 O   0  0  0  0  0  0  0  0  0  0  0  0
   -1.5197   -0.8013    0.2542 N   0  0  0  0  0  0  0  0  0  0  0  0
   -1.9753   -0.7851   -0.6523 H   0  0  0  0  0  0  0  0  0  0  0  0
   -0.1841   -0.1881    0.2791 C   0  0  1  0  0  0  0  0  0  0  0  0
    0.4127   -0.6019    1.0991 H   0  0  0  0  0  0  0  0  0  0  0  0
    0.4945   -0.5047   -1.0772 C   0  0  0  0  0  0  0  0  0  0  0  0
   -0.1880   -1.0391   -1.7470 H   0  0  0  0  0  0  0  0  0  0  0  0
    0.7488    0.4300   -1.5878 H   0  0  0  0  0  0  0  0  0  0  0  0
    1.7949   -1.3070   -0.9010 C   0  0  0  0  0  0  0  0  0  0  0  0
    2.3501   -1.2772   -1.8423 H   0  0  0  0  0  0  0  0  0  0  0  0
    2.4187   -0.8388   -0.1335 H   0  0  0  0  0  0  0  0  0  0  0  0
    1.5552   -2.7813   -0.5500 C   0  0  0  0  0  0  0  0  0  0  0  0
    0.5069   -3.3416   -0.9644 O   0  5  0  0  0  0  0  0  0  0  0  0
    2.4554   -3.3513    0.1123 O   0  0  0  0  0  0  0  0  0  0  0  0
   -0.2488    1.3419    0.4625 C   0  0  0  0  0  0  0  0  0  0  0  0
   -1.0164    2.0386   -0.1959 O   0  0  0  0  0  0  0  0  0  0  0  0
    0.6045    1.9529    1.3629 N   0  0  0  0  0  0  0  0  0  0  0  0
    1.2080    1.3456    1.9101 H   0  0  0  0  0  0  0  0  0  0  0  0
    0.6291    3.3870    1.6075 C   0  0  0  0  0  0  0  0  0  0  0  0
   -0.3390    3.7259    1.9901 H   0  0  0  0  0  0  0  0  0  0  0  0
    1.3985    3.6286    2.3467 H   0  0  0  0  0  0  0  0  0  0  0  0
    0.8553    3.9283    0.6832 H   0  0  0  0  0  0  0  0  0  0  0  0
  1  2  1  0  0  0  0
  2  3  1  0  0  0  0
  2  4  1  0  0  0  0
  2  5  1  0  0  0  0
  5  6  2  0  0  0  0
  5  7  1  0  0  0  0
  7  8  1  0  0  0  0
  7  9  1  0  0  0  0
  9 10  1  0  0  0  0
  9 11  1  0  0  0  0
  9 20  1  0  0  0  0
 11 12  1  0  0  0  0
 11 13  1  0  0  0  0
 11 14  1  0  0  0  0
 14 15  1  0  0  0  0
 14 16  1  0  0  0  0
 14 17  1  0  0  0  0
 17 18  1  0  0  0  0
 17 19  2  0  0  0  0
 20 21  2  0  0  0  0
 20 22  1  0  0  0  0
 22 23  1  0  0  0  0
 22 24  1  0  0  0  0
 24 25  1  0  0  0  0
 24 26  1  0  0  0  0
 24 27  1  0  0  0  0
M  CHG  1  18  -1
M  END
$$$$

  -OEChem-03222214043D

 27 26  0     1  0  0  0  0  0999 V2000
   -2.8959   -3.7762    1.1570 H   0  0  0  0  0  0  0  0  0  0  0  0
   -2.7686   -2.9651    0.4352 C   0  0  0  0  0  0  0  0  0  0  0  0
   -3.7356   -2.4895    0.2576 H   0  0  0  0  0  0  0  0  0  0  0  0
   -2.3976   -3.3880   -0.5028 H   0  0  0  0  0  0  0  0  0  0  0  0
   -1.7730   -1.9468    0.9604 C   0  0  0  0  0  0  0  0  0  0  0  0
   -1.3214   -2.0536    2.0946 O   0  0  0  0  0  0  0  0  0  0  0  0
   -1.5152   -0.8025    0.2327 N   0  0  0  0  0  0  0  0  0  0  0  0
   -1.9600   -0.7866   -0.6792 H   0  0  0  0  0  0  0  0  0  0  0  0
   -0.1797   -0.1913    0.2752 C   0  0  1  0  0  0  0  0  0  0  0  0
    0.4004   -0.6017    1.1074 H   0  0  0  0  0  0  0  0  0  0  0  0
    0.5204   -0.5157   -1.0689 C   0  0  0  0  0  0  0  0  0  0  0  0
   -0.1543   -1.0328   -1.7598 H   0  0  0  0  0  0  0  0  0  0  0  0
    0.7920    0.4216   -1.5657 H   0  0  0  0  0  0  0  0  0  0  0  0
    1.8203   -1.3218   -0.8740 C   0  0  0  0  0  0  0  0  0  0  0  0
    2.4927   -1.0813   -1.7025 H   0  0  0  0  0  0  0  0  0  0  0  0
    2.3220   -1.0239    0.0510 H   0  0  0  0  0  0  0  0  0  0  0  0
    1.6168   -2.8449   -0.8828 C   0  0  0  0  0  0  0  0  0  0  0  0
    0.4507   -3.3142   -0.9553 O   0  5  0  0  0  0  0  0  0  0  0  0
    2.6603   -3.5396   -0.8251 O   0  0  0  0  0  0  0  0  0  0  0  0
   -0.2506    1.3396    0.4546 C   0  0  0  0  0  0  0  0  0  0  0  0
   -1.0139    2.0321   -0.2129 O   0  0  0  0  0  0  0  0  0  0  0  0
    0.5868    1.9578    1.3653 N   0  0  0  0  0  0  0  0  0  0  0  0
    1.1885    1.3564    1.9201 H   0  0  0  0  0  0  0  0  0  0  0  0
    0.5964    3.3926    1.6098 C   0  0  0  0  0  0  0  0  0  0  0  0
   -0.3810    3.7250    1.9741 H   0  0  0  0  0  0  0  0  0  0  0  0
    1.3497    3.6398    2.3637 H   0  0  0  0  0  0  0  0  0  0  0  0
    0.8363    3.9361    0.6902 H   0  0  0  0  0  0  0  0  0  0  0  0
  1  2  1  0  0  0  0
  2  3  1  0  0  0  0
  2  4  1  0  0  0  0
  2  5  1  0  0  0  0
  5  6  2  0  0  0  0
  5  7  1  0  0  0  0
  7  8  1  0  0  0  0
  7  9  1  0  0  0  0
  9 10  1  0  0  0  0
  9 11  1  0  0  0  0
  9 20  1  0  0  0  0
 11 12  1  0  0  0  0
 11 13  1  0  0  0  0
 11 14  1  0  0  0  0
 14 15  1  0  0  0  0
 14 16  1  0  0  0  0
 14 17  1  0  0  0  0
 17 18  1  0  0  0  0
 17 19  2  0  0  0  0
 20 21  2  0  0  0  0
 20 22  1  0  0  0  0
 22 23  1  0  0  0  0
 22 24  1  0  0  0  0
 24 25  1  0  0  0  0
 24 26  1  0  0  0  0
 24 27  1  0  0  0  0
M  CHG  1  18  -1
M  END
$$$$

  -OEChem-03222214043D

 27 26  0     1  0  0  0  0  0999 V2000
   -2.9260   -3.7551    1.1305 H   0  0  0  0  0  0  0  0  0  0  0  0
   -2.7506   -2.9693    0.3910 C   0  0  0  0  0  0  0  0  0  0  0  0
   -3.7028   -2.4969    0.1396 H   0  0  0  0  0  0  0  0  0  0  0  0
   -2.3260   -3.4243   -0.5085 H   0  0  0  0  0  0  0  0  0  0  0  0
   -1.7821   -1.9379    0.9405 C   0  0  0  0  0  0  0  0  0  0  0  0
   -1.3469   -2.0463    2.0810 O   0  0  0  0  0  0  0  0  0  0  0  0
   -1.5122   -0.7953    0.2143 N   0  0  0  0  0  0  0  0  0  0  0  0
   -1.9446   -0.7762   -0.7036 H   0  0  0  0  0  0  0  0  0  0  0  0
   -0.1766   -0.1861    0.2785 C   0  0  1  0  0  0  0  0  0  0  0  0
    0.3834   -0.5915    1.1258 H   0  0  0  0  0  0  0  0  0  0  0  0
    0.5433   -0.5235   -1.0522 C   0  0  0  0  0  0  0  0  0  0  0  0
   -0.1267   -1.0453   -1.7448 H   0  0  0  0  0  0  0  0  0  0  0  0
    0.8198    0.4091   -1.5556 H   0  0  0  0  0  0  0  0  0  0  0  0
    1.8402   -1.3340   -0.8432 C   0  0  0  0  0  0  0  0  0  0  0  0
    2.6180   -0.9118   -1.4868 H   0  0  0  0  0  0  0  0  0  0  0  0
    2.1986   -1.2610    0.1867 H   0  0  0  0  0  0  0  0  0  0  0  0
    1.6606   -2.8114   -1.2176 C   0  0  0  0  0  0  0  0  0  0  0  0
    0.5642   -3.3674   -0.9477 O   0  5  0  0  0  0  0  0  0  0  0  0
    2.6322   -3.3823   -1.7703 O   0  0  0  0  0  0  0  0  0  0  0  0
   -0.2465    1.3451    0.4530 C   0  0  0  0  0  0  0  0  0  0  0  0
   -1.0032    2.0367   -0.2227 O   0  0  0  0  0  0  0  0  0  0  0  0
    0.5767    1.9634    1.3764 N   0  0  0  0  0  0  0  0  0  0  0  0
    1.1767    1.3635    1.9344 H   0  0  0  0  0  0  0  0  0  0  0  0
    0.5868    3.3989    1.6155 C   0  0  0  0  0  0  0  0  0  0  0  0
   -0.3973    3.7371    1.9557 H   0  0  0  0  0  0  0  0  0  0  0  0
    1.3233    3.6462    2.3856 H   0  0  0  0  0  0  0  0  0  0  0  0
    0.8498    3.9370    0.6990 H   0  0  0  0  0  0  0  0  0  0  0  0
  1  2  1  0  0  0  0
  2  3  1  0  0  0  0
  2  4  1  0  0  0  0
  2  5  1  0  0  0  0
  5  6  2  0  0  0  0
  5  7  1  0  0  0  0
  7  8  1  0  0  0  0
  7  9  1  0  0  0  0
  9 10  1  0  0  0  0
  9 11  1  0  0  0  0
  9 20  1  0  0  0  0
 11 12  1  0  0  0  0
 11 13  1  0  0  0  0
 11 14  1  0  0  0  0
 14 15  1  0  0  0  0
 14 16  1  0  0  0  0
 14 17  1  0  0  0  0
 17 18  1  0  0  0  0
 17 19  2  0  0  0  0
 20 21  2  0  0  0  0
 20 22  1  0  0  0  0
 22 23  1  0  0  0  0
 22 24  1  0  0  0  0
 24 25  1  0  0  0  0
 24 26  1  0  0  0  0
 24 27  1  0  0  0  0
M  CHG  1  18  -1
M  END
$$$$

  -OEChem-03222214043D

 27 26  0     1  0  0  0  0  0999 V2000
   -3.0063   -3.7301    1.1004 H   0  0  0  0  0  0  0  0  0  0  0  0
   -2.8321   -2.9244    0.3821 C   0  0  0  0  0  0  0  0  0  0  0  0
   -3.7727   -2.3984    0.2030 H   0  0  0  0  0  0  0  0  0  0  0  0
   -2.4805   -3.3622   -0.5564 H   0  0  0  0  0  0  0  0  0  0  0  0
   -1.7871   -1.9614    0.9153 C   0  0  0  0  0  0  0  0  0  0  0  0
   -1.2869   -2.1459    2.0175 O   0  0  0  0  0  0  0  0  0  0  0  0
   -1.4905   -0.8165    0.2047 N   0  0  0  0  0  0  0  0  0  0  0  0
   -1.9591   -0.7356   -0.6923 H   0  0  0  0  0  0  0  0  0  0  0  0
   -0.1584   -0.1999    0.2776 C   0  0  1  0  0  0  0  0  0  0  0  0
    0.3932   -0.5959    1.1345 H   0  0  0  0  0  0  0  0  0  0  0  0
    0.5800   -0.5349   -1.0423 C   0  0  0  0  0  0  0  0  0  0  0  0
   -0.0867   -1.0770   -1.7222 H   0  0  0  0  0  0  0  0  0  0  0  0
    0.8424    0.3920   -1.5636 H   0  0  0  0  0  0  0  0  0  0  0  0
    1.8835   -1.3358   -0.8257 C   0  0  0  0  0  0  0  0  0  0  0  0
    2.7266   -0.7562   -1.2140 H   0  0  0  0  0  0  0  0  0  0  0  0
    2.0760   -1.5156    0.2347 H   0  0  0  0  0  0  0  0  0  0  0  0
    1.8307   -2.6912   -1.5386 C   0  0  0  0  0  0  0  0  0  0  0  0
    0.8470   -3.4393   -1.3040 O   0  5  0  0  0  0  0  0  0  0  0  0
    2.7734   -2.9730   -2.3183 O   0  0  0  0  0  0  0  0  0  0  0  0
   -0.2407    1.3302    0.4534 C   0  0  0  0  0  0  0  0  0  0  0  0
   -1.0155    2.0109   -0.2124 O   0  0  0  0  0  0  0  0  0  0  0  0
    0.5707    1.9573    1.3812 N   0  0  0  0  0  0  0  0  0  0  0  0
    1.2001    1.3688    1.9185 H   0  0  0  0  0  0  0  0  0  0  0  0
    0.5690    3.3940    1.6135 C   0  0  0  0  0  0  0  0  0  0  0  0
   -0.4222    3.7277    1.9372 H   0  0  0  0  0  0  0  0  0  0  0  0
    1.2923    3.6499    2.3933 H   0  0  0  0  0  0  0  0  0  0  0  0
    0.8424    3.9292    0.6984 H   0  0  0  0  0  0  0  0  0  0  0  0
  1  2  1  0  0  0  0
  2  3  1  0  0  0  0
  2  4  1  0  0  0  0
  2  5  1  0  0  0  0
  5  6  2  0  0  0  0
  5  7  1  0  0  0  0
  7  8  1  0  0  0  0
  7  9  1  0  0  0  0
  9 10  1  0  0  0  0
  9 11  1  0  0  0  0
  9 20  1  0  0  0  0
 11 12  1  0  0  0  0
 11 13  1  0  0  0  0
 11 14  1  0  0  0  0
 14 15  1  0  0  0  0
 14 16  1  0  0  0  0
 14 17  1  0  0  0  0
 17 18  1  0  0  0  0
 17 19  2  0  0  0  0
 20 21  2  0  0  0  0
 20 22  1  0  0  0  0
 22 23  1  0  0  0  0
 22 24  1  0  0  0  0
 24 25  1  0  0  0  0
 24 26  1  0  0  0  0
 24 27  1  0  0  0  0
M  CHG  1  18  -1
M  END
$$$$

  -OEChem-03222214043D

 27 26  0     1  0  0  0  0  0999 V2000
   -3.1279   -3.6783    1.1106 H   0  0  0  0  0  0  0  0  0  0  0  0
   -2.9598   -2.8496    0.4174 C   0  0  0  0  0  0  0  0  0  0  0  0
   -3.8652   -2.2399    0.3675 H   0  0  0  0  0  0  0  0  0  0  0  0
   -2.7482   -3.2591   -0.5740 H   0  0  0  0  0  0  0  0  0  0  0  0
   -1.7867   -2.0055    0.8816 C   0  0  0  0  0  0  0  0  0  0  0  0
   -1.1931   -2.2972    1.9107 O   0  0  0  0  0  0  0  0  0  0  0  0
   -1.4652   -0.8552    0.1924 N   0  0  0  0  0  0  0  0  0  0  0  0
   -2.0019   -0.6747   -0.6509 H   0  0  0  0  0  0  0  0  0  0  0  0
   -0.1375   -0.2282    0.2606 C   0  0  1  0  0  0  0  0  0  0  0  0
    0.4157   -0.6187    1.1192 H   0  0  0  0  0  0  0  0  0  0  0  0
    0.6215   -0.5426   -1.0521 C   0  0  0  0  0  0  0  0  0  0  0  0
   -0.0335   -1.1189   -1.7152 H   0  0  0  0  0  0  0  0  0  0  0  0
    0.8593    0.3806   -1.5912 H   0  0  0  0  0  0  0  0  0  0  0  0
    1.9343   -1.3229   -0.8221 C   0  0  0  0  0  0  0  0  0  0  0  0
    2.7851   -0.6398   -0.9053 H   0  0  0  0  0  0  0  0  0  0  0  0
    1.9593   -1.7577    0.1805 H   0  0  0  0  0  0  0  0  0  0  0  0
    2.0862   -2.4797   -1.8138 C   0  0  0  0  0  0  0  0  0  0  0  0
    1.2228   -3.3930   -1.7889 O   0  5  0  0  0  0  0  0  0  0  0  0
    3.0658   -2.4420   -2.5987 O   0  0  0  0  0  0  0  0  0  0  0  0
   -0.2399    1.2991    0.4463 C   0  0  0  0  0  0  0  0  0  0  0  0
   -1.0544    1.9646   -0.1867 O   0  0  0  0  0  0  0  0  0  0  0  0
    0.5676    1.9335    1.3725 N   0  0  0  0  0  0  0  0  0  0  0  0
    1.2445    1.3598    1.8665 H   0  0  0  0  0  0  0  0  0  0  0  0
    0.5479    3.3698    1.6076 C   0  0  0  0  0  0  0  0  0  0  0  0
   -0.4483    3.6912    1.9285 H   0  0  0  0  0  0  0  0  0  0  0  0
    1.2645    3.6322    2.3914 H   0  0  0  0  0  0  0  0  0  0  0  0
    0.8188    3.9102    0.6948 H   0  0  0  0  0  0  0  0  0  0  0  0
  1  2  1  0  0  0  0
  2  3  1  0  0  0  0
  2  4  1  0  0  0  0
  2  5  1  0  0  0  0
  5  6  2  0  0  0  0
  5  7  1  0  0  0  0
  7  8  1  0  0  0  0
  7  9  1  0  0  0  0
  9 10  1  0  0  0  0
  9 11  1  0  0  0  0
  9 20  1  0  0  0  0
 11 12  1  0  0  0  0
 11 13  1  0  0  0  0
 11 14  1  0  0  0  0
 14 15  1  0  0  0  0
 14 16  1  0  0  0  0
 14 17  1  0  0  0  0
 17 18  1  0  0  0  0
 17 19  2  0  0  0  0
 20 21  2  0  0  0  0
 20 22  1  0  0  0  0
 22 23  1  0  0  0  0
 22 24  1  0  0  0  0
 24 25  1  0  0  0  0
 24 26  1  0  0  0  0
 24 27  1  0  0  0  0
M  CHG  1  18  -1
M  END
$$$$

  -OEChem-03222214043D

 27 26  0     1  0  0  0  0  0999 V2000
   -3.2035   -3.6397    1.1364 H   0  0  0  0  0  0  0  0  0  0  0  0
   -3.0430   -2.7967    0.4585 C   0  0  0  0  0  0  0  0  0  0  0  0
   -3.9069   -2.1298    0.5127 H   0  0  0  0  0  0  0  0  0  0  0  0
   -2.9493   -3.1787   -0.5615 H   0  0  0  0  0  0  0  0  0  0  0  0
   -1.7810   -2.0455    0.8438 C   0  0  0  0  0  0  0  0  0  0  0  0
   -1.1140   -2.4251    1.7956 O   0  0  0  0  0  0  0  0  0  0  0  0
   -1.4529   -0.8857    0.1743 N   0  0  0  0  0  0  0  0  0  0  0  0
   -2.0546   -0.6158   -0.5988 H   0  0  0  0  0  0  0  0  0  0  0  0
   -0.1294   -0.2479    0.2320 C   0  0  1  0  0  0  0  0  0  0  0  0
    0.4308   -0.6405    1.0854 H   0  0  0  0  0  0  0  0  0  0  0  0
    0.6398   -0.5435   -1.0765 C   0  0  0  0  0  0  0  0  0  0  0  0
    0.0027   -1.1452   -1.7341 H   0  0  0  0  0  0  0  0  0  0  0  0
    0.8639    0.3799   -1.6213 H   0  0  0  0  0  0  0  0  0  0  0  0
    1.9556   -1.3029   -0.8200 C   0  0  0  0  0  0  0  0  0  0  0  0
    2.7598   -0.5909   -0.6118 H   0  0  0  0  0  0  0  0  0  0  0  0
    1.8514   -1.9531    0.0536 H   0  0  0  0  0  0  0  0  0  0  0  0
    2.3281   -2.2025   -2.0007 C   0  0  0  0  0  0  0  0  0  0  0  0
    1.5858   -3.1849   -2.2516 O   0  5  0  0  0  0  0  0  0  0  0  0
    3.3570   -1.8979   -2.6530 O   0  0  0  0  0  0  0  0  0  0  0  0
   -0.2434    1.2757    0.4365 C   0  0  0  0  0  0  0  0  0  0  0  0
   -1.0973    1.9321   -0.1524 O   0  0  0  0  0  0  0  0  0  0  0  0
    0.5711    1.9067    1.3588 N   0  0  0  0  0  0  0  0  0  0  0  0
    1.2986    1.3447    1.7907 H   0  0  0  0  0  0  0  0  0  0  0  0
    0.5441    3.3404    1.6081 C   0  0  0  0  0  0  0  0  0  0  0  0
   -0.4549    3.6554    1.9266 H   0  0  0  0  0  0  0  0  0  0  0  0
    1.2550    3.5966    2.3991 H   0  0  0  0  0  0  0  0  0  0  0  0
    0.8178    3.8911    0.7024 H   0  0  0  0  0  0  0  0  0  0  0  0
  1  2  1  0  0  0  0
  2  3  1  0  0  0  0
  2  4  1  0  0  0  0
  2  5  1  0  0  0  0
  5  6  2  0  0  0  0
  5  7  1  0  0  0  0
  7  8  1  0  0  0  0
  7  9  1  0  0  0  0
  9 10  1  0  0  0  0
  9 11  1  0  0  0  0
  9 20  1  0  0  0  0
 11 12  1  0  0  0  0
 11 13  1  0  0  0  0
 11 14  1  0  0  0  0
 14 15  1  0  0  0  0
 14 16  1  0  0  0  0
 14 17  1  0  0  0  0
 17 18  1  0  0  0  0
 17 19  2  0  0  0  0
 20 21  2  0  0  0  0
 20 22  1  0  0  0  0
 22 23  1  0  0  0  0
 22 24  1  0  0  0  0
 24 25  1  0  0  0  0
 24 26  1  0  0  0  0
 24 27  1  0  0  0  0
M  CHG  1  18  -1
M  END
$$$$

  -OEChem-03222214043D

 27 26  0     1  0  0  0  0  0999 V2000
   -3.2289   -3.6376    1.1201 H   0  0  0  0  0  0  0  0  0  0  0  0
   -3.0869   -2.7610    0.4820 C   0  0  0  0  0  0  0  0  0  0  0  0
   -3.9201   -2.0713    0.6378 H   0  0  0  0  0  0  0  0  0  0  0  0
   -3.0803   -3.0833   -0.5624 H   0  0  0  0  0  0  0  0  0  0  0  0
   -1.7749   -2.0738    0.8162 C   0  0  0  0  0  0  0  0  0  0  0  0
   -1.0623   -2.5204    1.7029 O   0  0  0  0  0  0  0  0  0  0  0  0
   -1.4417   -0.9063    0.1639 N   0  0  0  0  0  0  0  0  0  0  0  0
   -2.0884   -0.5658   -0.5423 H   0  0  0  0  0  0  0  0  0  0  0  0
   -0.1211   -0.2628    0.2160 C   0  0  1  0  0  0  0  0  0  0  0  0
    0.4455   -0.6628    1.0625 H   0  0  0  0  0  0  0  0  0  0  0  0
    0.6485   -0.5459   -1.0923 C   0  0  0  0  0  0  0  0  0  0  0  0
    0.0253   -1.1547   -1.7570 H   0  0  0  0  0  0  0  0  0  0  0  0
    0.8705    0.3836   -1.6279 H   0  0  0  0  0  0  0  0  0  0  0  0
    1.9628   -1.2946   -0.8202 C   0  0  0  0  0  0  0  0  0  0  0  0
    2.6886   -0.6167   -0.3612 H   0  0  0  0  0  0  0  0  0  0  0  0
    1.7828   -2.1171   -0.1212 H   0  0  0  0  0  0  0  0  0  0  0  0
    2.5379   -1.8918   -2.1054 C   0  0  0  0  0  0  0  0  0  0  0  0
    1.9327   -2.8610   -2.6278 O   0  5  0  0  0  0  0  0  0  0  0  0
    3.5801   -1.3644   -2.5673 O   0  0  0  0  0  0  0  0  0  0  0  0
   -0.2441    1.2574    0.4384 C   0  0  0  0  0  0  0  0  0  0  0  0
   -1.1289    1.9041   -0.1150 O   0  0  0  0  0  0  0  0  0  0  0  0
    0.5730    1.8876    1.3587 N   0  0  0  0  0  0  0  0  0  0  0  0
    1.3396    1.3409    1.7398 H   0  0  0  0  0  0  0  0  0  0  0  0
    0.5406    3.3215    1.6068 C   0  0  0  0  0  0  0  0  0  0  0  0
   -0.4537    3.6293    1.9459 H   0  0  0  0  0  0  0  0  0  0  0  0
    1.2661    3.5846    2.3821 H   0  0  0  0  0  0  0  0  0  0  0  0
    0.7909    3.8728    0.6946 H   0  0  0  0  0  0  0  0  0  0  0  0
  1  2  1  0  0  0  0
  2  3  1  0  0  0  0
  2  4  1  0  0  0  0
  2  5  1  0  0  0  0
  5  6  2  0  0  0  0
  5  7  1  0  0  0  0
  7  8  1  0  0  0  0
  7  9  1  0  0  0  0
  9 10  1  0  0  0  0
  9 11  1  0  0  0  0
  9 20  1  0  0  0  0
 11 12  1  0  0  0  0
 11 13  1  0  0  0  0
 11 14  1  0  0  0  0
 14 15  1  0  0  0  0
 14 16  1  0  0  0  0
 14 17  1  0  0  0  0
 17 18  1  0  0  0  0
 17 19  2  0  0  0  0
 20 21  2  0  0  0  0
 20 22  1  0  0  0  0
 22 23  1  0  0  0  0
 22 24  1  0  0  0  0
 24 25  1  0  0  0  0
 24 26  1  0  0  0  0
 24 27  1  0  0  0  0
M  CHG  1  18  -1
M  END
$$$$

  -OEChem-03222214043D

 27 26  0     1  0  0  0  0  0999 V2000
   -3.2478   -3.6151    1.1204 H   0  0  0  0  0  0  0  0  0  0  0  0
   -3.1006   -2.7367    0.4859 C   0  0  0  0  0  0  0  0  0  0  0  0
   -3.9204   -2.0348    0.6578 H   0  0  0  0  0  0  0  0  0  0  0  0
   -3.1138   -3.0525   -0.5605 H   0  0  0  0  0  0  0  0  0  0  0  0
   -1.7728   -2.0733    0.8058 C   0  0  0  0  0  0  0  0  0  0  0  0
   -1.0532   -2.5415    1.6757 O   0  0  0  0  0  0  0  0  0  0  0  0
   -1.4273   -0.9077    0.1566 N   0  0  0  0  0  0  0  0  0  0  0  0
   -2.0801   -0.5423   -0.5318 H   0  0  0  0  0  0  0  0  0  0  0  0
   -0.1027   -0.2735    0.2174 C   0  0  1  0  0  0  0  0  0  0  0  0
    0.4670   -0.6721    1.0628 H   0  0  0  0  0  0  0  0  0  0  0  0
    0.6616   -0.5546   -1.0920 C   0  0  0  0  0  0  0  0  0  0  0  0
   -0.0289   -0.8835   -1.8764 H   0  0  0  0  0  0  0  0  0  0  0  0
    1.1433    0.3618   -1.4513 H   0  0  0  0  0  0  0  0  0  0  0  0
    1.7497   -1.6160   -0.8814 C   0  0  0  0  0  0  0  0  0  0  0  0
    2.4602   -1.2807   -0.1200 H   0  0  0  0  0  0  0  0  0  0  0  0
    1.2957   -2.5471   -0.5285 H   0  0  0  0  0  0  0  0  0  0  0  0
    2.4987   -1.8839   -2.1854 C   0  0  0  0  0  0  0  0  0  0  0  0
    2.0355   -2.7566   -2.9608 O   0  5  0  0  0  0  0  0  0  0  0  0
    3.5157   -1.1836   -2.4177 O   0  0  0  0  0  0  0  0  0  0  0  0
   -0.2319    1.2468    0.4402 C   0  0  0  0  0  0  0  0  0  0  0  0
   -1.1190    1.8909   -0.1125 O   0  0  0  0  0  0  0  0  0  0  0  0
    0.5771    1.8771    1.3678 N   0  0  0  0  0  0  0  0  0  0  0  0
    1.3438    1.3323    1.7512 H   0  0  0  0  0  0  0  0  0  0  0  0
    0.5358    3.3095    1.6241 C   0  0  0  0  0  0  0  0  0  0  0  0
   -0.4581    3.6077    1.9735 H   0  0  0  0  0  0  0  0  0  0  0  0
    1.2662    3.5741    2.3945 H   0  0  0  0  0  0  0  0  0  0  0  0
    0.7746    3.8681    0.7132 H   0  0  0  0  0  0  0  0  0  0  0  0
  1  2  1  0  0  0  0
  2  3  1  0  0  0  0
  2  4  1  0  0  0  0
  2  5  1  0  0  0  0
  5  6  2  0  0  0  0
  5  7  1  0  0  0  0
  7  8  1  0  0  0  0
  7  9  1  0  0  0  0
  9 10  1  0  0  0  0
  9 11  1  0  0  0  0
  9 20  1  0  0  0  0
 11 12  1  0  0  0  0
 11 13  1  0  0  0  0
 11 14  1  0  0  0  0
 14 15  1  0  0  0  0
 14 16  1  0  0  0  0
 14 17  1  0  0  0  0
 17 18  1  0  0  0  0
 17 19  2  0  0  0  0
 20 21  2  0  0  0  0
 20 22  1  0  0  0  0
 22 23  1  0  0  0  0
 22 24  1  0  0  0  0
 24 25  1  0  0  0  0
 24 26  1  0  0  0  0
 24 27  1  0  0  0  0
M  CHG  1  18  -1
M  END
$$$$

  -OEChem-03222214043D

 27 26  0     1  0  0  0  0  0999 V2000
   -3.2547   -3.6242    1.1109 H   0  0  0  0  0  0  0  0  0  0  0  0
   -3.1272   -2.7174    0.5130 C   0  0  0  0  0  0  0  0  0  0  0  0
   -3.9206   -2.0110    0.7688 H   0  0  0  0  0  0  0  0  0  0  0  0
   -3.2091   -2.9791   -0.5450 H   0  0  0  0  0  0  0  0  0  0  0  0
   -1.7698   -2.0942    0.7858 C   0  0  0  0  0  0  0  0  0  0  0  0
   -1.0209   -2.6061    1.6043 O   0  0  0  0  0  0  0  0  0  0  0  0
   -1.4255   -0.9223    0.1480 N   0  0  0  0  0  0  0  0  0  0  0  0
   -2.1095   -0.5061   -0.4788 H   0  0  0  0  0  0  0  0  0  0  0  0
   -0.1031   -0.2837    0.2060 C   0  0  1  0  0  0  0  0  0  0  0  0
    0.4649   -0.6840    1.0512 H   0  0  0  0  0  0  0  0  0  0  0  0
    0.6655   -0.5516   -1.1036 C   0  0  0  0  0  0  0  0  0  0  0  0
   -0.0152   -0.8683   -1.9010 H   0  0  0  0  0  0  0  0  0  0  0  0
    1.1437    0.3757   -1.4398 H   0  0  0  0  0  0  0  0  0  0  0  0
    1.7629   -1.6080   -0.9036 C   0  0  0  0  0  0  0  0  0  0  0  0
    2.3246   -1.4020    0.0124 H   0  0  0  0  0  0  0  0  0  0  0  0
    1.3095   -2.5985   -0.8011 H   0  0  0  0  0  0  0  0  0  0  0  0
    2.7425   -1.6011   -2.0755 C   0  0  0  0  0  0  0  0  0  0  0  0
    2.5028   -2.3581   -3.0483 O   0  5  0  0  0  0  0  0  0  0  0  0
    3.7121   -0.8046   -2.0066 O   0  0  0  0  0  0  0  0  0  0  0  0
   -0.2382    1.2338    0.4429 C   0  0  0  0  0  0  0  0  0  0  0  0
   -1.1527    1.8689   -0.0755 O   0  0  0  0  0  0  0  0  0  0  0  0
    0.5740    1.8595    1.3704 N   0  0  0  0  0  0  0  0  0  0  0  0
    1.3775    1.3304    1.6977 H   0  0  0  0  0  0  0  0  0  0  0  0
    0.5275    3.2909    1.6314 C   0  0  0  0  0  0  0  0  0  0  0  0
   -0.4641    3.5818    1.9926 H   0  0  0  0  0  0  0  0  0  0  0  0
    1.2644    3.5573    2.3948 H   0  0  0  0  0  0  0  0  0  0  0  0
    0.7524    3.8541    0.7199 H   0  0  0  0  0  0  0  0  0  0  0  0
  1  2  1  0  0  0  0
  2  3  1  0  0  0  0
  2  4  1  0  0  0  0
  2  5  1  0  0  0  0
  5  6  2  0  0  0  0
  5  7  1  0  0  0  0
  7  8  1  0  0  0  0
  7  9  1  0  0  0  0
  9 10  1  0  0  0  0
  9 11  1  0  0  0  0
  9 20  1  0  0  0  0
 11 12  1  0  0  0  0
 11 13  1  0  0  0  0
 11 14  1  0  0  0  0
 14 15  1  0  0  0  0
 14 16  1  0  0  0  0
 14 17  1  0  0  0  0
 17 18  1  0  0  0  0
 17 19  2  0  0  0  0
 20 21  2  0  0  0  0
 20 22  1  0  0  0  0
 22 23  1  0  0  0  0
 22 24  1  0  0  0  0
 24 25  1  0  0  0  0
 24 26  1  0  0  0  0
 24 27  1  0  0  0  0
M  CHG  1  18  -1
M  END
$$$$

  -OEChem-03222214043D

 27 26  0     1  0  0  0  0  0999 V2000
   -3.2790   -3.6113    1.1286 H   0  0  0  0  0  0  0  0  0  0  0  0
   -3.1534   -2.6948    0.5452 C   0  0  0  0  0  0  0  0  0  0  0  0
   -3.9121   -1.9720    0.8551 H   0  0  0  0  0  0  0  0  0  0  0  0
   -3.2943   -2.9292   -0.5129 H   0  0  0  0  0  0  0  0  0  0  0  0
   -1.7666   -2.1166    0.7655 C   0  0  0  0  0  0  0  0  0  0  0  0
   -0.9946   -2.6697    1.5336 O   0  0  0  0  0  0  0  0  0  0  0  0
   -1.4218   -0.9392    0.1384 N   0  0  0  0  0  0  0  0  0  0  0  0
   -2.1313   -0.4771   -0.4248 H   0  0  0  0  0  0  0  0  0  0  0  0
   -0.1012   -0.2964    0.1973 C   0  0  1  0  0  0  0  0  0  0  0  0
    0.4638   -0.6964    1.0443 H   0  0  0  0  0  0  0  0  0  0  0  0
    0.6740   -0.5475   -1.1125 C   0  0  0  0  0  0  0  0  0  0  0  0
   -0.0013   -0.8542   -1.9179 H   0  0  0  0  0  0  0  0  0  0  0  0
    1.1389    0.3925   -1.4320 H   0  0  0  0  0  0  0  0  0  0  0  0
    1.7852   -1.5996   -0.9355 C   0  0  0  0  0  0  0  0  0  0  0  0
    2.1858   -1.5755    0.0817 H   0  0  0  0  0  0  0  0  0  0  0  0
    1.3767   -2.6005   -1.1030 H   0  0  0  0  0  0  0  0  0  0  0  0
    2.9483   -1.3338   -1.8895 C   0  0  0  0  0  0  0  0  0  0  0  0
    3.0156   -2.0092   -2.9456 O   0  5  0  0  0  0  0  0  0  0  0  0
    3.7496   -0.4199   -1.5680 O   0  0  0  0  0  0  0  0  0  0  0  0
   -0.2442    1.2185    0.4464 C   0  0  0  0  0  0  0  0  0  0  0  0
   -1.1792    1.8445   -0.0470 O   0  0  0  0  0  0  0  0  0  0  0  0
    0.5682    1.8402    1.3763 N   0  0  0  0  0  0  0  0  0  0  0  0
    1.4030    1.3288    1.6509 H   0  0  0  0  0  0  0  0  0  0  0  0
    0.5139    3.2698    1.6441 C   0  0  0  0  0  0  0  0  0  0  0  0
   -0.4827    3.5569    1.9945 H   0  0  0  0  0  0  0  0  0  0  0  0
    1.2402    3.5340    2.4185 H   0  0  0  0  0  0  0  0  0  0  0  0
    0.7490    3.8378    0.7382 H   0  0  0  0  0  0  0  0  0  0  0  0
  1  2  1  0  0  0  0
  2  3  1  0  0  0  0
  2  4  1  0  0  0  0
  2  5  1  0  0  0  0
  5  6  2  0  0  0  0
  5  7  1  0  0  0  0
  7  8  1  0  0  0  0
  7  9  1  0  0  0  0
  9 10  1  0  0  0  0
  9 11  1  0  0  0  0
  9 20  1  0  0  0  0
 11 12  1  0  0  0  0
 11 13  1  0  0  0  0
 11 14  1  0  0  0  0
 14 15  1  0  0  0  0
 14 16  1  0  0  0  0
 14 17  1  0  0  0  0
 17 18  1  0  0  0  0
 17 19  2  0  0  0  0
 20 21  2  0  0  0  0
 20 22  1  0  0  0  0
 22 23  1  0  0  0  0
 22 24  1  0  0  0  0
 24 25  1  0  0  0  0
 24 26  1  0  0  0  0
 24 27  1  0  0  0  0
M  CHG  1  18  -1
M  END
$$$$

  -OEChem-03222214043D

 27 26  0     1  0  0  0  0  0999 V2000
   -3.2824   -3.6148    1.1458 H   0  0  0  0  0  0  0  0  0  0  0  0
   -3.1623   -2.6935    0.5688 C   0  0  0  0  0  0  0  0  0  0  0  0
   -3.9028   -1.9653    0.9089 H   0  0  0  0  0  0  0  0  0  0  0  0
   -3.3370   -2.9143   -0.4872 H   0  0  0  0  0  0  0  0  0  0  0  0
   -1.7622   -2.1353    0.7537 C   0  0  0  0  0  0  0  0  0  0  0  0
   -0.9712   -2.7157    1.4807 O   0  0  0  0  0  0  0  0  0  0  0  0
   -1.4237   -0.9524    0.1338 N   0  0  0  0  0  0  0  0  0  0  0  0
   -2.1525   -0.4617   -0.3785 H   0  0  0  0  0  0  0  0  0  0  0  0
   -0.1054   -0.3038    0.1886 C   0  0  1  0  0  0  0  0  0  0  0  0
    0.4608   -0.7012    1.0360 H   0  0  0  0  0  0  0  0  0  0  0  0
    0.6767   -0.5353   -1.1209 C   0  0  0  0  0  0  0  0  0  0  0  0
    0.0011   -0.8474   -1.9237 H   0  0  0  0  0  0  0  0  0  0  0  0
    1.1204    0.4146   -1.4418 H   0  0  0  0  0  0  0  0  0  0  0  0
    1.8021   -1.5807   -0.9590 C   0  0  0  0  0  0  0  0  0  0  0  0
    2.0196   -1.7796    0.0936 H   0  0  0  0  0  0  0  0  0  0  0  0
    1.4841   -2.5278   -1.4049 H   0  0  0  0  0  0  0  0  0  0  0  0
    3.0973   -1.1041   -1.6145 C   0  0  0  0  0  0  0  0  0  0  0  0
    3.4614   -1.6470   -2.6862 O   0  5  0  0  0  0  0  0  0  0  0  0
    3.7023   -0.1603   -1.0435 O   0  0  0  0  0  0  0  0  0  0  0  0
   -0.2519    1.2089    0.4486 C   0  0  0  0  0  0  0  0  0  0  0  0
   -1.2064    1.8273   -0.0177 O   0  0  0  0  0  0  0  0  0  0  0  0
    0.5655    1.8262    1.3768 N   0  0  0  0  0  0  0  0  0  0  0  0
    1.4280    1.3326    1.5972 H   0  0  0  0  0  0  0  0  0  0  0  0
    0.5050    3.2543    1.6511 C   0  0  0  0  0  0  0  0  0  0  0  0
   -0.4846    3.5311    2.0285 H   0  0  0  0  0  0  0  0  0  0  0  0
    1.2489    3.5220    2.4072 H   0  0  0  0  0  0  0  0  0  0  0  0
    0.7115    3.8275    0.7415 H   0  0  0  0  0  0  0  0  0  0  0  0
  1  2  1  0  0  0  0
  2  3  1  0  0  0  0
  2  4  1  0  0  0  0
  2  5  1  0  0  0  0
  5  6  2  0  0  0  0
  5  7  1  0  0  0  0
  7  8  1  0  0  0  0
  7  9  1  0  0  0  0
  9 10  1  0  0  0  0
  9 11  1  0  0  0  0
  9 20  1  0  0  0  0
 11 12  1  0  0  0  0
 11 13  1  0  0  0  0
 11 14  1  0  0  0  0
 14 15  1  0  0  0  0
 14 16  1  0  0  0  0
 14 17  1  0  0  0  0
 17 18  1  0  0  0  0
 17 19  2  0  0  0  0
 20 21  2  0  0  0  0
 20 22  1  0  0  0  0
 22 23  1  0  0  0  0
 22 24  1  0  0  0  0
 24 25  1  0  0  0  0
 24 26  1  0  0  0  0
 24 27  1  0  0  0  0
M  CHG  1  18  -1
M  END
$$$$

  -OEChem-03222214043D

 27 26  0     1  0  0  0  0  0999 V2000
   -3.2603   -3.6324    1.2126 H   0  0  0  0  0  0  0  0  0  0  0  0
   -3.1627   -2.7073    0.6375 C   0  0  0  0  0  0  0  0  0  0  0  0
   -3.8919   -1.9827    1.0080 H   0  0  0  0  0  0  0  0  0  0  0  0
   -3.3742   -2.9222   -0.4129 H   0  0  0  0  0  0  0  0  0  0  0  0
   -1.7580   -2.1471    0.7766 C   0  0  0  0  0  0  0  0  0  0  0  0
   -0.9512   -2.7148    1.4958 O   0  0  0  0  0  0  0  0  0  0  0  0
   -1.4317   -0.9838    0.1140 N   0  0  0  0  0  0  0  0  0  0  0  0
   -2.1767   -0.4969   -0.3782 H   0  0  0  0  0  0  0  0  0  0  0  0
   -0.1256   -0.3096    0.1561 C   0  0  1  0  0  0  0  0  0  0  0  0
    0.4238   -0.6567    1.0365 H   0  0  0  0  0  0  0  0  0  0  0  0
    0.7096   -0.5772   -1.1102 C   0  0  0  0  0  0  0  0  0  0  0  0
    0.0629   -0.9722   -1.8999 H   0  0  0  0  0  0  0  0  0  0  0  0
    1.1245    0.3624   -1.4938 H   0  0  0  0  0  0  0  0  0  0  0  0
    1.8513   -1.5827   -0.8441 C   0  0  0  0  0  0  0  0  0  0  0  0
    1.8456   -1.9559    0.1833 H   0  0  0  0  0  0  0  0  0  0  0  0
    1.7227   -2.4501   -1.4984 H   0  0  0  0  0  0  0  0  0  0  0  0
    3.2044   -0.9347   -1.1298 C   0  0  0  0  0  0  0  0  0  0  0  0
    3.5310    0.0173   -0.3722 O   0  5  0  0  0  0  0  0  0  0  0  0
    3.8923   -1.3595   -2.0898 O   0  0  0  0  0  0  0  0  0  0  0  0
   -0.2788    1.2102    0.3526 C   0  0  0  0  0  0  0  0  0  0  0  0
   -1.2476    1.7981   -0.1249 O   0  0  0  0  0  0  0  0  0  0  0  0
    0.5335    1.8595    1.2625 N   0  0  0  0  0  0  0  0  0  0  0  0
    1.4257    1.3968    1.4407 H   0  0  0  0  0  0  0  0  0  0  0  0
    0.4609    3.2953    1.4870 C   0  0  0  0  0  0  0  0  0  0  0  0
   -0.5344    3.5780    1.8443 H   0  0  0  0  0  0  0  0  0  0  0  0
    1.1949    3.5935    2.2414 H   0  0  0  0  0  0  0  0  0  0  0  0
    0.6733    3.8384    0.5605 H   0  0  0  0  0  0  0  0  0  0  0  0
  1  2  1  0  0  0  0
  2  3  1  0  0  0  0
  2  4  1  0  0  0  0
  2  5  1  0  0  0  0
  5  6  2  0  0  0  0
  5  7  1  0  0  0  0
  7  8  1  0  0  0  0
  7  9  1  0  0  0  0
  9 10  1  0  0  0  0
  9 11  1  0  0  0  0
  9 20  1  0  0  0  0
 11 12  1  0  0  0  0
 11 13  1  0  0  0  0
 11 14  1  0  0  0  0
 14 15  1  0  0  0  0
 14 16  1  0  0  0  0
 14 17  1  0  0  0  0
 17 18  1  0  0  0  0
 17 19  2  0  0  0  0
 20 21  2  0  0  0  0
 20 22  1  0  0  0  0
 22 23  1  0  0  0  0
 22 24  1  0  0  0  0
 24 25  1  0  0  0  0
 24 26  1  0  0  0  0
 24 27  1  0  0  0  0
M  CHG  1  18  -1
M  END
$$$$

  -OEChem-03222214043D

 27 26  0     1  0  0  0  0  0999 V2000
   -3.2878   -3.6235    1.2544 H   0  0  0  0  0  0  0  0  0  0  0  0
   -3.1952   -2.7137    0.6547 C   0  0  0  0  0  0  0  0  0  0  0  0
   -3.8942   -1.9662    1.0380 H   0  0  0  0  0  0  0  0  0  0  0  0
   -3.4536   -2.9463   -0.3813 H   0  0  0  0  0  0  0  0  0  0  0  0
   -1.7753   -2.1801    0.7242 C   0  0  0  0  0  0  0  0  0  0  0  0
   -0.9366   -2.7881    1.3695 O   0  0  0  0  0  0  0  0  0  0  0  0
   -1.4741   -1.0024    0.0752 N   0  0  0  0  0  0  0  0  0  0  0  0
   -2.2466   -0.4905   -0.3434 H   0  0  0  0  0  0  0  0  0  0  0  0
   -0.1745   -0.3138    0.0929 C   0  0  1  0  0  0  0  0  0  0  0  0
    0.3648   -0.6650    0.9790 H   0  0  0  0  0  0  0  0  0  0  0  0
    0.7044   -0.5685   -1.1418 C   0  0  0  0  0  0  0  0  0  0  0  0
    0.0888   -1.0217   -1.9246 H   0  0  0  0  0  0  0  0  0  0  0  0
    1.0984    0.3667   -1.5580 H   0  0  0  0  0  0  0  0  0  0  0  0
    1.8523   -1.5343   -0.7895 C   0  0  0  0  0  0  0  0  0  0  0  0
    1.6658   -2.1034    0.1255 H   0  0  0  0  0  0  0  0  0  0  0  0
    1.9678   -2.2593   -1.6007 H   0  0  0  0  0  0  0  0  0  0  0  0
    3.1433   -0.7254   -0.6671 C   0  0  0  0  0  0  0  0  0  0  0  0
    3.1246    0.2020    0.1915 O   0  5  0  0  0  0  0  0  0  0  0  0
    4.1146   -0.9969   -1.4134 O   0  0  0  0  0  0  0  0  0  0  0  0
   -0.2791    1.2033    0.3160 C   0  0  0  0  0  0  0  0  0  0  0  0
   -1.2643    1.8175   -0.0906 O   0  0  0  0  0  0  0  0  0  0  0  0
    0.5908    1.7960    1.2099 N   0  0  0  0  0  0  0  0  0  0  0  0
    1.5029    1.3238    1.2596 H   0  0  0  0  0  0  0  0  0  0  0  0
    0.5674    3.2246    1.4800 C   0  0  0  0  0  0  0  0  0  0  0  0
   -0.4103    3.5268    1.8687 H   0  0  0  0  0  0  0  0  0  0  0  0
    1.3270    3.4754    2.2262 H   0  0  0  0  0  0  0  0  0  0  0  0
    0.7763    3.7894    0.5658 H   0  0  0  0  0  0  0  0  0  0  0  0
  1  2  1  0  0  0  0
  2  3  1  0  0  0  0
  2  4  1  0  0  0  0
  2  5  1  0  0  0  0
  5  6  2  0  0  0  0
  5  7  1  0  0  0  0
  7  8  1  0  0  0  0
  7  9  1  0  0  0  0
  9 10  1  0  0  0  0
  9 11  1  0  0  0  0
  9 20  1  0  0  0  0
 11 12  1  0  0  0  0
 11 13  1  0  0  0  0
 11 14  1  0  0  0  0
 14 15  1  0  0  0  0
 14 16  1  0  0  0  0
 14 17  1  0  0  0  0
 17 18  1  0  0  0  0
 17 19  2  0  0  0  0
 20 21  2  0  0  0  0
 20 22  1  0  0  0  0
 22 23  1  0  0  0  0
 22 24  1  0  0  0  0
 24 25  1  0  0  0  0
 24 26  1  0  0  0  0
 24 27  1  0  0  0  0
M  CHG  1  18  -1
M  END
$$$$

  -OEChem-03222214043D

 27 26  0     1  0  0  0  0  0999 V2000
   -3.2829   -3.6221    1.2319 H   0  0  0  0  0  0  0  0  0  0  0  0
   -3.1869   -2.7103    0.6356 C   0  0  0  0  0  0  0  0  0  0  0  0
   -3.8843   -1.9624    1.0210 H   0  0  0  0  0  0  0  0  0  0  0  0
   -3.4449   -2.9384   -0.4014 H   0  0  0  0  0  0  0  0  0  0  0  0
   -1.7653   -2.1809    0.7095 C   0  0  0  0  0  0  0  0  0  0  0  0
   -0.9279   -2.8028    1.3424 O   0  0  0  0  0  0  0  0  0  0  0  0
   -1.4622   -0.9965    0.0735 N   0  0  0  0  0  0  0  0  0  0  0  0
   -2.2352   -0.4780   -0.3356 H   0  0  0  0  0  0  0  0  0  0  0  0
   -0.1643   -0.3033    0.1026 C   0  0  1  0  0  0  0  0  0  0  0  0
    0.3805   -0.6672    0.9813 H   0  0  0  0  0  0  0  0  0  0  0  0
    0.7024   -0.5645   -1.1431 C   0  0  0  0  0  0  0  0  0  0  0  0
    0.0780   -1.0095   -1.9236 H   0  0  0  0  0  0  0  0  0  0  0  0
    1.1095    0.3671   -1.5532 H   0  0  0  0  0  0  0  0  0  0  0  0
    1.8482   -1.5341   -0.8022 C   0  0  0  0  0  0  0  0  0  0  0  0
    1.5489   -2.2634   -0.0439 H   0  0  0  0  0  0  0  0  0  0  0  0
    2.1206   -2.0912   -1.7036 H   0  0  0  0  0  0  0  0  0  0  0  0
    3.0700   -0.7368   -0.3288 C   0  0  0  0  0  0  0  0  0  0  0  0
    2.8752    0.1261    0.5740 O   0  5  0  0  0  0  0  0  0  0  0  0
    4.1778   -0.9641   -0.8714 O   0  0  0  0  0  0  0  0  0  0  0  0
   -0.2830    1.2108    0.3389 C   0  0  0  0  0  0  0  0  0  0  0  0
   -1.2552    1.8282   -0.0943 O   0  0  0  0  0  0  0  0  0  0  0  0
    0.5748    1.8041    1.2424 N   0  0  0  0  0  0  0  0  0  0  0  0
    1.4755    1.3081    1.3271 H   0  0  0  0  0  0  0  0  0  0  0  0
    0.5676    3.2342    1.5032 C   0  0  0  0  0  0  0  0  0  0  0  0
   -0.4140    3.5537    1.8675 H   0  0  0  0  0  0  0  0  0  0  0  0
    1.3137    3.4776    2.2655 H   0  0  0  0  0  0  0  0  0  0  0  0
    0.8066    3.7899    0.5909 H   0  0  0  0  0  0  0  0  0  0  0  0
  1  2  1  0  0  0  0
  2  3  1  0  0  0  0
  2  4  1  0  0  0  0
  2  5  1  0  0  0  0
  5  6  2  0  0  0  0
  5  7  1  0  0  0  0
  7  8  1  0  0  0  0
  7  9  1  0  0  0  0
  9 10  1  0  0  0  0
  9 11  1  0  0  0  0
  9 20  1  0  0  0  0
 11 12  1  0  0  0  0
 11 13  1  0  0  0  0
 11 14  1  0  0  0  0
 14 15  1  0  0  0  0
 14 16  1  0  0  0  0
 14 17  1  0  0  0  0
 17 18  1  0  0  0  0
 17 19  2  0  0  0  0
 20 21  2  0  0  0  0
 20 22  1  0  0  0  0
 22 23  1  0  0  0  0
 22 24  1  0  0  0  0
 24 25  1  0  0  0  0
 24 26  1  0  0  0  0
 24 27  1  0  0  0  0
M  CHG  1  18  -1
M  END
$$$$

  -OEChem-03222214043D

 27 26  0     1  0  0  0  0  0999 V2000
   -3.2772   -3.6223    1.2153 H   0  0  0  0  0  0  0  0  0  0  0  0
   -3.1781   -2.7048    0.6284 C   0  0  0  0  0  0  0  0  0  0  0  0
   -3.8738   -1.9589    1.0205 H   0  0  0  0  0  0  0  0  0  0  0  0
   -3.4350   -2.9216   -0.4113 H   0  0  0  0  0  0  0  0  0  0  0  0
   -1.7556   -2.1791    0.7096 C   0  0  0  0  0  0  0  0  0  0  0  0
   -0.9204   -2.8074    1.3386 O   0  0  0  0  0  0  0  0  0  0  0  0
   -1.4504   -0.9906    0.0822 N   0  0  0  0  0  0  0  0  0  0  0  0
   -2.2232   -0.4700   -0.3245 H   0  0  0  0  0  0  0  0  0  0  0  0
   -0.1561   -0.2909    0.1280 C   0  0  1  0  0  0  0  0  0  0  0  0
    0.3846   -0.6667    1.0033 H   0  0  0  0  0  0  0  0  0  0  0  0
    0.7003   -0.5530   -1.1288 C   0  0  0  0  0  0  0  0  0  0  0  0
    0.0670   -0.9744   -1.9153 H   0  0  0  0  0  0  0  0  0  0  0  0
    1.1138    0.3842   -1.5178 H   0  0  0  0  0  0  0  0  0  0  0  0
    1.8599   -1.5258   -0.8397 C   0  0  0  0  0  0  0  0  0  0  0  0
    1.4889   -2.3927   -0.2852 H   0  0  0  0  0  0  0  0  0  0  0  0
    2.2581   -1.8852   -1.7932 H   0  0  0  0  0  0  0  0  0  0  0  0
    3.0071   -0.8689   -0.0494 C   0  0  0  0  0  0  0  0  0  0  0  0
    2.7389    0.0754    0.7456 O   0  5  0  0  0  0  0  0  0  0  0  0
    4.1637   -1.3051   -0.2621 O   0  0  0  0  0  0  0  0  0  0  0  0
   -0.2999    1.2209    0.3698 C   0  0  0  0  0  0  0  0  0  0  0  0
   -1.2624    1.8320   -0.0938 O   0  0  0  0  0  0  0  0  0  0  0  0
    0.5344    1.8270    1.2855 N   0  0  0  0  0  0  0  0  0  0  0  0
    1.4261    1.3228    1.4104 H   0  0  0  0  0  0  0  0  0  0  0  0
    0.5246    3.2596    1.5302 C   0  0  0  0  0  0  0  0  0  0  0  0
   -0.4640    3.5850    1.8692 H   0  0  0  0  0  0  0  0  0  0  0  0
    1.2544    3.5101    2.3058 H   0  0  0  0  0  0  0  0  0  0  0  0
    0.7846    3.8043    0.6170 H   0  0  0  0  0  0  0  0  0  0  0  0
  1  2  1  0  0  0  0
  2  3  1  0  0  0  0
  2  4  1  0  0  0  0
  2  5  1  0  0  0  0
  5  6  2  0  0  0  0
  5  7  1  0  0  0  0
  7  8  1  0  0  0  0
  7  9  1  0  0  0  0
  9 10  1  0  0  0  0
  9 11  1  0  0  0  0
  9 20  1  0  0  0  0
 11 12  1  0  0  0  0
 11 13  1  0  0  0  0
 11 14  1  0  0  0  0
 14 15  1  0  0  0  0
 14 16  1  0  0  0  0
 14 17  1  0  0  0  0
 17 18  1  0  0  0  0
 17 19  2  0  0  0  0
 20 21  2  0  0  0  0
 20 22  1  0  0  0  0
 22 23  1  0  0  0  0
 22 24  1  0  0  0  0
 24 25  1  0  0  0  0
 24 26  1  0  0  0  0
 24 27  1  0  0  0  0
M  CHG  1  18  -1
M  END
$$$$

  -OEChem-03222214043D

 27 26  0     1  0  0  0  0  0999 V2000
   -3.2685   -3.6332    1.2001 H   0  0  0  0  0  0  0  0  0  0  0  0
   -3.1735   -2.7062    0.6278 C   0  0  0  0  0  0  0  0  0  0  0  0
   -3.8680   -1.9676    1.0358 H   0  0  0  0  0  0  0  0  0  0  0  0
   -3.4347   -2.9066   -0.4142 H   0  0  0  0  0  0  0  0  0  0  0  0
   -1.7515   -2.1801    0.7114 C   0  0  0  0  0  0  0  0  0  0  0  0
   -0.9173   -2.8075    1.3414 O   0  0  0  0  0  0  0  0  0  0  0  0
   -1.4468   -0.9898    0.0879 N   0  0  0  0  0  0  0  0  0  0  0  0
   -2.2203   -0.4702   -0.3188 H   0  0  0  0  0  0  0  0  0  0  0  0
   -0.1563   -0.2843    0.1410 C   0  0  1  0  0  0  0  0  0  0  0  0
    0.3775   -0.6611    1.0192 H   0  0  0  0  0  0  0  0  0  0  0  0
    0.7012   -0.5437   -1.1177 C   0  0  0  0  0  0  0  0  0  0  0  0
    0.0690   -0.9475   -1.9143 H   0  0  0  0  0  0  0  0  0  0  0  0
    1.1150    0.4016   -1.4859 H   0  0  0  0  0  0  0  0  0  0  0  0
    1.8764   -1.5121   -0.8656 C   0  0  0  0  0  0  0  0  0  0  0  0
    1.4732   -2.4790   -0.5504 H   0  0  0  0  0  0  0  0  0  0  0  0
    2.4128   -1.6624   -1.8067 H   0  0  0  0  0  0  0  0  0  0  0  0
    2.8868   -1.0364    0.1970 C   0  0  0  0  0  0  0  0  0  0  0  0
    2.7161    0.0858    0.7521 O   0  5  0  0  0  0  0  0  0  0  0  0
    3.8661   -1.7880    0.4157 O   0  0  0  0  0  0  0  0  0  0  0  0
   -0.3121    1.2260    0.3839 C   0  0  0  0  0  0  0  0  0  0  0  0
   -1.2761    1.8314   -0.0844 O   0  0  0  0  0  0  0  0  0  0  0  0
    0.5129    1.8362    1.3051 N   0  0  0  0  0  0  0  0  0  0  0  0
    1.4070    1.3380    1.4353 H   0  0  0  0  0  0  0  0  0  0  0  0
    0.4863    3.2665    1.5604 C   0  0  0  0  0  0  0  0  0  0  0  0
   -0.5053    3.5766    1.9052 H   0  0  0  0  0  0  0  0  0  0  0  0
    1.2157    3.5202    2.3353 H   0  0  0  0  0  0  0  0  0  0  0  0
    0.7362    3.8212    0.6504 H   0  0  0  0  0  0  0  0  0  0  0  0
  1  2  1  0  0  0  0
  2  3  1  0  0  0  0
  2  4  1  0  0  0  0
  2  5  1  0  0  0  0
  5  6  2  0  0  0  0
  5  7  1  0  0  0  0
  7  8  1  0  0  0  0
  7  9  1  0  0  0  0
  9 10  1  0  0  0  0
  9 11  1  0  0  0  0
  9 20  1  0  0  0  0
 11 12  1  0  0  0  0
 11 13  1  0  0  0  0
 11 14  1  0  0  0  0
 14 15  1  0  0  0  0
 14 16  1  0  0  0  0
 14 17  1  0  0  0  0
 17 18  1  0  0  0  0
 17 19  2  0  0  0  0
 20 21  2  0  0  0  0
 20 22  1  0  0  0  0
 22 23  1  0  0  0  0
 22 24  1  0  0  0  0
 24 25  1  0  0  0  0
 24 26  1  0  0  0  0
 24 27  1  0  0  0  0
M  CHG  1  18  -1
M  END
$$$$

  -OEChem-03222214043D

 27 26  0     1  0  0  0  0  0999 V2000
   -3.2687   -3.6648    1.1869 H   0  0  0  0  0  0  0  0  0  0  0  0
   -3.1772   -2.7423    0.6067 C   0  0  0  0  0  0  0  0  0  0  0  0
   -3.8966   -2.0134    0.9880 H   0  0  0  0  0  0  0  0  0  0  0  0
   -3.4075   -2.9595   -0.4392 H   0  0  0  0  0  0  0  0  0  0  0  0
   -1.7676   -2.1882    0.7200 C   0  0  0  0  0  0  0  0  0  0  0  0
   -0.9366   -2.7998    1.3678 O   0  0  0  0  0  0  0  0  0  0  0  0
   -1.4712   -0.9935    0.1000 N   0  0  0  0  0  0  0  0  0  0  0  0
   -2.2445   -0.4950   -0.3317 H   0  0  0  0  0  0  0  0  0  0  0  0
   -0.1895   -0.2709    0.1557 C   0  0  1  0  0  0  0  0  0  0  0  0
    0.3217   -0.6436    1.0469 H   0  0  0  0  0  0  0  0  0  0  0  0
    0.6834   -0.5447   -1.0932 C   0  0  0  0  0  0  0  0  0  0  0  0
    0.0599   -0.9483   -1.8968 H   0  0  0  0  0  0  0  0  0  0  0  0
    1.0886    0.4067   -1.4545 H   0  0  0  0  0  0  0  0  0  0  0  0
    1.8859   -1.4899   -0.8652 C   0  0  0  0  0  0  0  0  0  0  0  0
    1.5053   -2.5130   -0.7910 H   0  0  0  0  0  0  0  0  0  0  0  0
    2.5454   -1.4397   -1.7359 H   0  0  0  0  0  0  0  0  0  0  0  0
    2.7172   -1.2033    0.3997 C   0  0  0  0  0  0  0  0  0  0  0  0
    2.6756   -0.0396    0.8924 O   0  5  0  0  0  0  0  0  0  0  0  0
    3.4614   -2.1210    0.8186 O   0  0  0  0  0  0  0  0  0  0  0  0
   -0.3318    1.2392    0.3981 C   0  0  0  0  0  0  0  0  0  0  0  0
   -1.2769    1.8613   -0.0852 O   0  0  0  0  0  0  0  0  0  0  0  0
    0.5032    1.8361    1.3193 N   0  0  0  0  0  0  0  0  0  0  0  0
    1.3747    1.3082    1.4821 H   0  0  0  0  0  0  0  0  0  0  0  0
    0.5107    3.2676    1.5686 C   0  0  0  0  0  0  0  0  0  0  0  0
   -0.4799    3.6071    1.8873 H   0  0  0  0  0  0  0  0  0  0  0  0
    1.2274    3.5040    2.3607 H   0  0  0  0  0  0  0  0  0  0  0  0
    0.7987    3.8112    0.6632 H   0  0  0  0  0  0  0  0  0  0  0  0
  1  2  1  0  0  0  0
  2  3  1  0  0  0  0
  2  4  1  0  0  0  0
  2  5  1  0  0  0  0
  5  6  2  0  0  0  0
  5  7  1  0  0  0  0
  7  8  1  0  0  0  0
  7  9  1  0  0  0  0
  9 10  1  0  0  0  0
  9 11  1  0  0  0  0
  9 20  1  0  0  0  0
 11 12  1  0  0  0  0
 11 13  1  0  0  0  0
 11 14  1  0  0  0  0
 14 15  1  0  0  0  0
 14 16  1  0  0  0  0
 14 17  1  0  0  0  0
 17 18  1  0  0  0  0
 17 19  2  0  0  0  0
 20 21  2  0  0  0  0
 20 22  1  0  0  0  0
 22 23  1  0  0  0  0
 22 24  1  0  0  0  0
 24 25  1  0  0  0  0
 24 26  1  0  0  0  0
 24 27  1  0  0  0  0
M  CHG  1  18  -1
M  END
$$$$

  -OEChem-03222214043D

 27 26  0     1  0  0  0  0  0999 V2000
   -3.2762   -3.6938    1.1582 H   0  0  0  0  0  0  0  0  0  0  0  0
   -3.1887   -2.7711    0.5776 C   0  0  0  0  0  0  0  0  0  0  0  0
   -3.9328   -2.0564    0.9379 H   0  0  0  0  0  0  0  0  0  0  0  0
   -3.3872   -2.9958   -0.4732 H   0  0  0  0  0  0  0  0  0  0  0  0
   -1.7942   -2.1881    0.7268 C   0  0  0  0  0  0  0  0  0  0  0  0
   -0.9751   -2.7735    1.4112 O   0  0  0  0  0  0  0  0  0  0  0  0
   -1.5041   -0.9931    0.1037 N   0  0  0  0  0  0  0  0  0  0  0  0
   -2.2727   -0.5240   -0.3666 H   0  0  0  0  0  0  0  0  0  0  0  0
   -0.2323   -0.2521    0.1586 C   0  0  1  0  0  0  0  0  0  0  0  0
    0.2472   -0.6113    1.0700 H   0  0  0  0  0  0  0  0  0  0  0  0
    0.6654   -0.5587   -1.0691 C   0  0  0  0  0  0  0  0  0  0  0  0
    0.0541   -0.9812   -1.8723 H   0  0  0  0  0  0  0  0  0  0  0  0
    1.0571    0.3927   -1.4445 H   0  0  0  0  0  0  0  0  0  0  0  0
    1.8948   -1.4752   -0.8447 C   0  0  0  0  0  0  0  0  0  0  0  0
    1.5733   -2.5081   -1.0091 H   0  0  0  0  0  0  0  0  0  0  0  0
    2.6548   -1.2415   -1.5952 H   0  0  0  0  0  0  0  0  0  0  0  0
    2.5415   -1.4123    0.5492 C   0  0  0  0  0  0  0  0  0  0  0  0
    2.6004   -0.2768    1.1050 O   0  5  0  0  0  0  0  0  0  0  0  0
    3.0910   -2.4483    0.9920 O   0  0  0  0  0  0  0  0  0  0  0  0
   -0.3519    1.2591    0.3900 C   0  0  0  0  0  0  0  0  0  0  0  0
   -1.2697    1.9035   -0.1143 O   0  0  0  0  0  0  0  0  0  0  0  0
    0.4995    1.8368    1.3090 N   0  0  0  0  0  0  0  0  0  0  0  0
    1.3313    1.2681    1.5285 H   0  0  0  0  0  0  0  0  0  0  0  0
    0.5390    3.2641    1.5769 C   0  0  0  0  0  0  0  0  0  0  0  0
   -0.4471    3.6235    1.8878 H   0  0  0  0  0  0  0  0  0  0  0  0
    1.2508    3.4727    2.3811 H   0  0  0  0  0  0  0  0  0  0  0  0
    0.8516    3.8121    0.6824 H   0  0  0  0  0  0  0  0  0  0  0  0
  1  2  1  0  0  0  0
  2  3  1  0  0  0  0
  2  4  1  0  0  0  0
  2  5  1  0  0  0  0
  5  6  2  0  0  0  0
  5  7  1  0  0  0  0
  7  8  1  0  0  0  0
  7  9  1  0  0  0  0
  9 10  1  0  0  0  0
  9 11  1  0  0  0  0
  9 20  1  0  0  0  0
 11 12  1  0  0  0  0
 11 13  1  0  0  0  0
 11 14  1  0  0  0  0
 14 15  1  0  0  0  0
 14 16  1  0  0  0  0
 14 17  1  0  0  0  0
 17 18  1  0  0  0  0
 17 19  2  0  0  0  0
 20 21  2  0  0  0  0
 20 22  1  0  0  0  0
 22 23  1  0  0  0  0
 22 24  1  0  0  0  0
 24 25  1  0  0  0  0
 24 26  1  0  0  0  0
 24 27  1  0  0  0  0
M  CHG  1  18  -1
M  END
$$$$

  -OEChem-03222214043D

 27 26  0     1  0  0  0  0  0999 V2000
   -3.2207   -3.6943    0.9498 H   0  0  0  0  0  0  0  0  0  0  0  0
   -3.1590   -2.6109    0.8131 C   0  0  0  0  0  0  0  0  0  0  0  0
   -3.1374   -2.1342    1.7966 H   0  0  0  0  0  0  0  0  0  0  0  0
   -4.0448   -2.2717    0.2706 H   0  0  0  0  0  0  0  0  0  0  0  0
   -1.9036   -2.2465    0.0391 C   0  0  0  0  0  0  0  0  0  0  0  0
   -1.2109   -3.1563   -0.3863 O   0  0  0  0  0  0  0  0  0  0  0  0
   -1.6850   -0.9043   -0.2169 N   0  0  0  0  0  0  0  0  0  0  0  0
   -2.3725   -0.2947    0.2227 H   0  0  0  0  0  0  0  0  0  0  0  0
   -0.4348   -0.1832   -0.5478 C   0  0  1  0  0  0  0  0  0  0  0  0
   -0.7358    0.2830   -1.4904 H   0  0  0  0  0  0  0  0  0  0  0  0
    0.7506   -1.0355   -1.1260 C   0  0  0  0  0  0  0  0  0  0  0  0
    0.3686   -1.9061   -1.6605 H   0  0  0  0  0  0  0  0  0  0  0  0
    1.1650   -0.3941   -1.9111 H   0  0  0  0  0  0  0  0  0  0  0  0
    2.0142   -1.4595   -0.3305 C   0  0  0  0  0  0  0  0  0  0  0  0
    1.9082   -2.5242   -0.1016 H   0  0  0  0  0  0  0  0  0  0  0  0
    2.8848   -1.3688   -0.9875 H   0  0  0  0  0  0  0  0  0  0  0  0
    2.3283   -0.7736    0.9846 C   0  0  0  0  0  0  0  0  0  0  0  0
    3.1639    0.1625    0.9478 O   0  5  0  0  0  0  0  0  0  0  0  0
    1.6233   -1.0468    1.9830 O   0  0  0  0  0  0  0  0  0  0  0  0
   -0.3348    1.1322    0.2866 C   0  0  0  0  0  0  0  0  0  0  0  0
   -1.3848    1.7749    0.3523 O   0  0  0  0  0  0  0  0  0  0  0  0
    0.7408    1.6596    0.9722 N   0  0  0  0  0  0  0  0  0  0  0  0
    1.5750    1.0710    1.0672 H   0  0  0  0  0  0  0  0  0  0  0  0
    0.6601    2.8227    1.8411 C   0  0  0  0  0  0  0  0  0  0  0  0
   -0.0241    2.6311    2.6736 H   0  0  0  0  0  0  0  0  0  0  0  0
    1.6497    3.0470    2.2500 H   0  0  0  0  0  0  0  0  0  0  0  0
    0.3103    3.6973    1.2839 H   0  0  0  0  0  0  0  0  0  0  0  0
  1  2  1  0  0  0  0
  2  3  1  0  0  0  0
  2  4  1  0  0  0  0
  2  5  1  0  0  0  0
  5  6  2  0  0  0  0
  5  7  1  0  0  0  0
  7  8  1  0  0  0  0
  7  9  1  0  0  0  0
  9 10  1  0  0  0  0
  9 11  1  0  0  0  0
  9 20  1  0  0  0  0
 11 12  1  0  0  0  0
 11 13  1  0  0  0  0
 11 14  1  0  0  0  0
 14 15  1  0  0  0  0
 14 16  1  0  0  0  0
 14 17  1  0  0  0  0
 17 18  1  0  0  0  0
 17 19  2  0  0  0  0
 20 21  2  0  0  0  0
 20 22  1  0  0  0  0
 22 23  1  0  0  0  0
 22 24  1  0  0  0  0
 24 25  1  0  0  0  0
 24 26  1  0  0  0  0
 24 27  1  0  0  0  0
M  CHG  1  18  -1
M  END
$$$$

  -OEChem-03222214043D

 27 26  0     1  0  0  0  0  0999 V2000
   -3.0528   -3.6876    0.9282 H   0  0  0  0  0  0  0  0  0  0  0  0
   -2.9506   -2.5995    0.8917 C   0  0  0  0  0  0  0  0  0  0  0  0
   -2.6046   -2.2477    1.8676 H   0  0  0  0  0  0  0  0  0  0  0  0
   -3.9265   -2.1578    0.6771 H   0  0  0  0  0  0  0  0  0  0  0  0
   -1.9491   -2.1987   -0.1773 C   0  0  0  0  0  0  0  0  0  0  0  0
   -1.5206   -3.0651   -0.9253 O   0  0  0  0  0  0  0  0  0  0  0  0
   -1.7460   -0.8491   -0.3976 N   0  0  0  0  0  0  0  0  0  0  0  0
   -2.3465   -0.2759    0.1920 H   0  0  0  0  0  0  0  0  0  0  0  0
   -0.4572   -0.1661   -0.6460 C   0  0  1  0  0  0  0  0  0  0  0  0
   -0.6934    0.3076   -1.6032 H   0  0  0  0  0  0  0  0  0  0  0  0
    0.7468   -1.0389   -1.1467 C   0  0  0  0  0  0  0  0  0  0  0  0
    0.3924   -1.9155   -1.6868 H   0  0  0  0  0  0  0  0  0  0  0  0
    1.2251   -0.4235   -1.9159 H   0  0  0  0  0  0  0  0  0  0  0  0
    1.9264   -1.4720   -0.2361 C   0  0  0  0  0  0  0  0  0  0  0  0
    1.9672   -2.5651   -0.2372 H   0  0  0  0  0  0  0  0  0  0  0  0
    2.8587   -1.1249   -0.6930 H   0  0  0  0  0  0  0  0  0  0  0  0
    1.9140   -1.0349    1.2198 C   0  0  0  0  0  0  0  0  0  0  0  0
    2.8114   -0.2337    1.5786 O   0  5  0  0  0  0  0  0  0  0  0  0
    0.9266   -1.3524    1.9241 O   0  0  0  0  0  0  0  0  0  0  0  0
   -0.3323    1.1432    0.1935 C   0  0  0  0  0  0  0  0  0  0  0  0
   -1.3394    1.8521    0.2001 O   0  0  0  0  0  0  0  0  0  0  0  0
    0.7441    1.6064    0.9264 N   0  0  0  0  0  0  0  0  0  0  0  0
    1.4967    0.9383    1.1209 H   0  0  0  0  0  0  0  0  0  0  0  0
    0.6816    2.7731    1.7932 C   0  0  0  0  0  0  0  0  0  0  0  0
   -0.0395    2.6102    2.6003 H   0  0  0  0  0  0  0  0  0  0  0  0
    1.6644    2.9568    2.2376 H   0  0  0  0  0  0  0  0  0  0  0  0
    0.3886    3.6618    1.2256 H   0  0  0  0  0  0  0  0  0  0  0  0
  1  2  1  0  0  0  0
  2  3  1  0  0  0  0
  2  4  1  0  0  0  0
  2  5  1  0  0  0  0
  5  6  2  0  0  0  0
  5  7  1  0  0  0  0
  7  8  1  0  0  0  0
  7  9  1  0  0  0  0
  9 10  1  0  0  0  0
  9 11  1  0  0  0  0
  9 20  1  0  0  0  0
 11 12  1  0  0  0  0
 11 13  1  0  0  0  0
 11 14  1  0  0  0  0
 14 15  1  0  0  0  0
 14 16  1  0  0  0  0
 14 17  1  0  0  0  0
 17 18  1  0  0  0  0
 17 19  2  0  0  0  0
 20 21  2  0  0  0  0
 20 22  1  0  0  0  0
 22 23  1  0  0  0  0
 22 24  1  0  0  0  0
 24 25  1  0  0  0  0
 24 26  1  0  0  0  0
 24 27  1  0  0  0  0
M  CHG  1  18  -1
M  END
$$$$

  -OEChem-03222214043D

 27 26  0     1  0  0  0  0  0999 V2000
   -2.9246   -3.7511    1.1745 H   0  0  0  0  0  0  0  0  0  0  0  0
   -2.6894   -3.0101    0.4060 C   0  0  0  0  0  0  0  0  0  0  0  0
   -3.6202   -2.6224   -0.0133 H   0  0  0  0  0  0  0  0  0  0  0  0
   -2.1131   -3.4996   -0.3838 H   0  0  0  0  0  0  0  0  0  0  0  0
   -1.8704   -1.8808    1.0041 C   0  0  0  0  0  0  0  0  0  0  0  0
   -1.6543   -1.8443    2.2071 O   0  0  0  0  0  0  0  0  0  0  0  0
   -1.5629   -0.7703    0.2455 N   0  0  0  0  0  0  0  0  0  0  0  0
   -1.9341   -0.8026   -0.6970 H   0  0  0  0  0  0  0  0  0  0  0  0
   -0.2181   -0.1830    0.3434 C   0  0  1  0  0  0  0  0  0  0  0  0
    0.3163   -0.5549    1.2236 H   0  0  0  0  0  0  0  0  0  0  0  0
    0.5399   -0.5046   -0.9817 C   0  0  0  0  0  0  0  0  0  0  0  0
   -0.1933   -0.7809   -1.7465 H   0  0  0  0  0  0  0  0  0  0  0  0
    1.0327    0.4016   -1.3503 H   0  0  0  0  0  0  0  0  0  0  0  0
    1.6224   -1.6065   -0.9437 C   0  0  0  0  0  0  0  0  0  0  0  0
    1.5379   -2.2219   -1.8443 H   0  0  0  0  0  0  0  0  0  0  0  0
    2.6043   -1.1248   -0.9795 H   0  0  0  0  0  0  0  0  0  0  0  0
    1.6014   -2.5172    0.2794 C   0  0  0  0  0  0  0  0  0  0  0  0
    2.3052   -2.1815    1.2642 O   0  5  0  0  0  0  0  0  0  0  0  0
    0.8402   -3.5149    0.2380 O   0  0  0  0  0  0  0  0  0  0  0  0
   -0.2858    1.3526    0.4646 C   0  0  0  0  0  0  0  0  0  0  0  0
   -0.9845    2.0308   -0.2855 O   0  0  0  0  0  0  0  0  0  0  0  0
    0.5067    1.9857    1.4032 N   0  0  0  0  0  0  0  0  0  0  0  0
    1.0710    1.3871    2.0029 H   0  0  0  0  0  0  0  0  0  0  0  0
    0.5442    3.4270    1.5950 C   0  0  0  0  0  0  0  0  0  0  0  0
   -0.4483    3.8023    1.8644 H   0  0  0  0  0  0  0  0  0  0  0  0
    1.2409    3.6800    2.3997 H   0  0  0  0  0  0  0  0  0  0  0  0
    0.8766    3.9260    0.6790 H   0  0  0  0  0  0  0  0  0  0  0  0
  1  2  1  0  0  0  0
  2  3  1  0  0  0  0
  2  4  1  0  0  0  0
  2  5  1  0  0  0  0
  5  6  2  0  0  0  0
  5  7  1  0  0  0  0
  7  8  1  0  0  0  0
  7  9  1  0  0  0  0
  9 10  1  0  0  0  0
  9 11  1  0  0  0  0
  9 20  1  0  0  0  0
 11 12  1  0  0  0  0
 11 13  1  0  0  0  0
 11 14  1  0  0  0  0
 14 15  1  0  0  0  0
 14 16  1  0  0  0  0
 14 17  1  0  0  0  0
 17 18  1  0  0  0  0
 17 19  2  0  0  0  0
 20 21  2  0  0  0  0
 20 22  1  0  0  0  0
 22 23  1  0  0  0  0
 22 24  1  0  0  0  0
 24 25  1  0  0  0  0
 24 26  1  0  0  0  0
 24 27  1  0  0  0  0
M  CHG  1  18  -1
M  END
$$$$

  -OEChem-03222214043D

 27 26  0     1  0  0  0  0  0999 V2000
   -2.8706   -3.7884    1.2291 H   0  0  0  0  0  0  0  0  0  0  0  0
   -2.7315   -3.0031    0.4811 C   0  0  0  0  0  0  0  0  0  0  0  0
   -3.7045   -2.5831    0.2172 H   0  0  0  0  0  0  0  0  0  0  0  0
   -2.2766   -3.4478   -0.4081 H   0  0  0  0  0  0  0  0  0  0  0  0
   -1.8209   -1.9186    1.0286 C   0  0  0  0  0  0  0  0  0  0  0  0
   -1.5410   -1.8924    2.2196 O   0  0  0  0  0  0  0  0  0  0  0  0
   -1.5275   -0.8087    0.2630 N   0  0  0  0  0  0  0  0  0  0  0  0
   -1.9225   -0.8429   -0.6700 H   0  0  0  0  0  0  0  0  0  0  0  0
   -0.1866   -0.2068    0.3307 C   0  0  1  0  0  0  0  0  0  0  0  0
    0.3805   -0.5809    1.1909 H   0  0  0  0  0  0  0  0  0  0  0  0
    0.5554   -0.5082   -1.0061 C   0  0  0  0  0  0  0  0  0  0  0  0
   -0.1850   -0.8062   -1.7557 H   0  0  0  0  0  0  0  0  0  0  0  0
    1.0289    0.4027   -1.3880 H   0  0  0  0  0  0  0  0  0  0  0  0
    1.6482   -1.5944   -0.9649 C   0  0  0  0  0  0  0  0  0  0  0  0
    1.7521   -2.0425   -1.9572 H   0  0  0  0  0  0  0  0  0  0  0  0
    2.6014   -1.1112   -0.7293 H   0  0  0  0  0  0  0  0  0  0  0  0
    1.4207   -2.7005    0.0607 C   0  0  0  0  0  0  0  0  0  0  0  0
    2.0996   -2.6635    1.1156 O   0  5  0  0  0  0  0  0  0  0  0  0
    0.5423   -3.5582   -0.2071 O   0  0  0  0  0  0  0  0  0  0  0  0
   -0.2802    1.3286    0.4462 C   0  0  0  0  0  0  0  0  0  0  0  0
   -0.9989    1.9916   -0.2983 O   0  0  0  0  0  0  0  0  0  0  0  0
    0.5177    1.9833    1.3657 N   0  0  0  0  0  0  0  0  0  0  0  0
    1.0697    1.3991    1.9889 H   0  0  0  0  0  0  0  0  0  0  0  0
    0.5081    3.4245    1.5640 C   0  0  0  0  0  0  0  0  0  0  0  0
   -0.4855    3.7607    1.8770 H   0  0  0  0  0  0  0  0  0  0  0  0
    1.2286    3.7015    2.3393 H   0  0  0  0  0  0  0  0  0  0  0  0
    0.7819    3.9396    0.6376 H   0  0  0  0  0  0  0  0  0  0  0  0
  1  2  1  0  0  0  0
  2  3  1  0  0  0  0
  2  4  1  0  0  0  0
  2  5  1  0  0  0  0
  5  6  2  0  0  0  0
  5  7  1  0  0  0  0
  7  8  1  0  0  0  0
  7  9  1  0  0  0  0
  9 10  1  0  0  0  0
  9 11  1  0  0  0  0
  9 20  1  0  0  0  0
 11 12  1  0  0  0  0
 11 13  1  0  0  0  0
 11 14  1  0  0  0  0
 14 15  1  0  0  0  0
 14 16  1  0  0  0  0
 14 17  1  0  0  0  0
 17 18  1  0  0  0  0
 17 19  2  0  0  0  0
 20 21  2  0  0  0  0
 20 22  1  0  0  0  0
 22 23  1  0  0  0  0
 22 24  1  0  0  0  0
 24 25  1  0  0  0  0
 24 26  1  0  0  0  0
 24 27  1  0  0  0  0
M  CHG  1  18  -1
M  END
$$$$

  -OEChem-03222214043D

 27 26  0     1  0  0  0  0  0999 V2000
   -2.8419   -3.8200    1.1138 H   0  0  0  0  0  0  0  0  0  0  0  0
   -2.8108   -2.9463    0.4574 C   0  0  0  0  0  0  0  0  0  0  0  0
   -3.8063   -2.5008    0.4039 H   0  0  0  0  0  0  0  0  0  0  0  0
   -2.5087   -3.2741   -0.5409 H   0  0  0  0  0  0  0  0  0  0  0  0
   -1.8119   -1.9341    0.9885 C   0  0  0  0  0  0  0  0  0  0  0  0
   -1.4676   -1.9679    2.1629 O   0  0  0  0  0  0  0  0  0  0  0  0
   -1.5079   -0.8084    0.2503 N   0  0  0  0  0  0  0  0  0  0  0  0
   -1.9192   -0.8104   -0.6769 H   0  0  0  0  0  0  0  0  0  0  0  0
   -0.1603   -0.2215    0.3172 C   0  0  1  0  0  0  0  0  0  0  0  0
    0.4154   -0.6310    1.1555 H   0  0  0  0  0  0  0  0  0  0  0  0
    0.5712   -0.4955   -1.0282 C   0  0  0  0  0  0  0  0  0  0  0  0
   -0.1685   -0.7690   -1.7882 H   0  0  0  0  0  0  0  0  0  0  0  0
    1.0612    0.4170   -1.3849 H   0  0  0  0  0  0  0  0  0  0  0  0
    1.6474   -1.5938   -0.9841 C   0  0  0  0  0  0  0  0  0  0  0  0
    1.9297   -1.8605   -2.0066 H   0  0  0  0  0  0  0  0  0  0  0  0
    2.5373   -1.1894   -0.4921 H   0  0  0  0  0  0  0  0  0  0  0  0
    1.2174   -2.8592   -0.2461 C   0  0  0  0  0  0  0  0  0  0  0  0
    0.2465   -3.5014   -0.7216 O   0  5  0  0  0  0  0  0  0  0  0  0
    1.8689   -3.1869    0.7742 O   0  0  0  0  0  0  0  0  0  0  0  0
   -0.2405    1.3116    0.4722 C   0  0  0  0  0  0  0  0  0  0  0  0
   -0.9640    1.9988   -0.2446 O   0  0  0  0  0  0  0  0  0  0  0  0
    0.5723    1.9390    1.3982 N   0  0  0  0  0  0  0  0  0  0  0  0
    1.1150    1.3367    2.0113 H   0  0  0  0  0  0  0  0  0  0  0  0
    0.5597    3.3735    1.6421 C   0  0  0  0  0  0  0  0  0  0  0  0
   -0.4288    3.6939    1.9870 H   0  0  0  0  0  0  0  0  0  0  0  0
    1.2955    3.6298    2.4101 H   0  0  0  0  0  0  0  0  0  0  0  0
    0.8106    3.9194    0.7269 H   0  0  0  0  0  0  0  0  0  0  0  0
  1  2  1  0  0  0  0
  2  3  1  0  0  0  0
  2  4  1  0  0  0  0
  2  5  1  0  0  0  0
  5  6  2  0  0  0  0
  5  7  1  0  0  0  0
  7  8  1  0  0  0  0
  7  9  1  0  0  0  0
  9 10  1  0  0  0  0
  9 11  1  0  0  0  0
  9 20  1  0  0  0  0
 11 12  1  0  0  0  0
 11 13  1  0  0  0  0
 11 14  1  0  0  0  0
 14 15  1  0  0  0  0
 14 16  1  0  0  0  0
 14 17  1  0  0  0  0
 17 18  1  0  0  0  0
 17 19  2  0  0  0  0
 20 21  2  0  0  0  0
 20 22  1  0  0  0  0
 22 23  1  0  0  0  0
 22 24  1  0  0  0  0
 24 25  1  0  0  0  0
 24 26  1  0  0  0  0
 24 27  1  0  0  0  0
M  CHG  1  18  -1
M  END
$$$$

  -OEChem-03222214043D

 27 26  0     1  0  0  0  0  0999 V2000
   -2.8251   -3.8192    1.1477 H   0  0  0  0  0  0  0  0  0  0  0  0
   -2.8338   -2.9243    0.5202 C   0  0  0  0  0  0  0  0  0  0  0  0
   -3.8225   -2.4626    0.5643 H   0  0  0  0  0  0  0  0  0  0  0  0
   -2.6220   -3.2228   -0.5099 H   0  0  0  0  0  0  0  0  0  0  0  0
   -1.7777   -1.9443    0.9988 C   0  0  0  0  0  0  0  0  0  0  0  0
   -1.3512   -2.0126    2.1450 O   0  0  0  0  0  0  0  0  0  0  0  0
   -1.4891   -0.8195    0.2528 N   0  0  0  0  0  0  0  0  0  0  0  0
   -1.9217   -0.8235   -0.6653 H   0  0  0  0  0  0  0  0  0  0  0  0
   -0.1436   -0.2266    0.2934 C   0  0  1  0  0  0  0  0  0  0  0  0
    0.4478   -0.6301    1.1224 H   0  0  0  0  0  0  0  0  0  0  0  0
    0.5658   -0.5166   -1.0566 C   0  0  0  0  0  0  0  0  0  0  0  0
   -0.1741   -0.7872   -1.8177 H   0  0  0  0  0  0  0  0  0  0  0  0
    1.0656    0.3893   -1.4160 H   0  0  0  0  0  0  0  0  0  0  0  0
    1.6382   -1.6158   -0.9774 C   0  0  0  0  0  0  0  0  0  0  0  0
    2.0909   -1.7399   -1.9651 H   0  0  0  0  0  0  0  0  0  0  0  0
    2.4261   -1.2974   -0.2881 H   0  0  0  0  0  0  0  0  0  0  0  0
    1.0909   -2.9717   -0.5267 C   0  0  0  0  0  0  0  0  0  0  0  0
    0.0407   -3.3921   -1.0779 O   0  5  0  0  0  0  0  0  0  0  0  0
    1.7521   -3.6032    0.3314 O   0  0  0  0  0  0  0  0  0  0  0  0
   -0.2261    1.3072    0.4441 C   0  0  0  0  0  0  0  0  0  0  0  0
   -0.9691    1.9893   -0.2567 O   0  0  0  0  0  0  0  0  0  0  0  0
    0.6006    1.9422    1.3530 N   0  0  0  0  0  0  0  0  0  0  0  0
    1.1533    1.3458    1.9620 H   0  0  0  0  0  0  0  0  0  0  0  0
    0.5723    3.3759    1.6016 C   0  0  0  0  0  0  0  0  0  0  0  0
   -0.4166    3.6824    1.9577 H   0  0  0  0  0  0  0  0  0  0  0  0
    1.3125    3.6400    2.3626 H   0  0  0  0  0  0  0  0  0  0  0  0
    0.8066    3.9278    0.6857 H   0  0  0  0  0  0  0  0  0  0  0  0
  1  2  1  0  0  0  0
  2  3  1  0  0  0  0
  2  4  1  0  0  0  0
  2  5  1  0  0  0  0
  5  6  2  0  0  0  0
  5  7  1  0  0  0  0
  7  8  1  0  0  0  0
  7  9  1  0  0  0  0
  9 10  1  0  0  0  0
  9 11  1  0  0  0  0
  9 20  1  0  0  0  0
 11 12  1  0  0  0  0
 11 13  1  0  0  0  0
 11 14  1  0  0  0  0
 14 15  1  0  0  0  0
 14 16  1  0  0  0  0
 14 17  1  0  0  0  0
 17 18  1  0  0  0  0
 17 19  2  0  0  0  0
 20 21  2  0  0  0  0
 20 22  1  0  0  0  0
 22 23  1  0  0  0  0
 22 24  1  0  0  0  0
 24 25  1  0  0  0  0
 24 26  1  0  0  0  0
 24 27  1  0  0  0  0
M  CHG  1  18  -1
M  END
$$$$

  -OEChem-03222214043D

 27 26  0     1  0  0  0  0  0999 V2000
   -2.8334   -3.8249    1.1333 H   0  0  0  0  0  0  0  0  0  0  0  0
   -2.8338   -2.9301    0.5051 C   0  0  0  0  0  0  0  0  0  0  0  0
   -3.8150   -2.4534    0.5587 H   0  0  0  0  0  0  0  0  0  0  0  0
   -2.6375   -3.2317   -0.5273 H   0  0  0  0  0  0  0  0  0  0  0  0
   -1.7585   -1.9652    0.9718 C   0  0  0  0  0  0  0  0  0  0  0  0
   -1.2780   -2.0777    2.0934 O   0  0  0  0  0  0  0  0  0  0  0  0
   -1.4815   -0.8313    0.2350 N   0  0  0  0  0  0  0  0  0  0  0  0
   -1.9177   -0.8302   -0.6821 H   0  0  0  0  0  0  0  0  0  0  0  0
   -0.1445   -0.2220    0.2801 C   0  0  1  0  0  0  0  0  0  0  0  0
    0.4475   -0.6196    1.1106 H   0  0  0  0  0  0  0  0  0  0  0  0
    0.5606   -0.5209   -1.0660 C   0  0  0  0  0  0  0  0  0  0  0  0
   -0.1685   -0.7762   -1.8427 H   0  0  0  0  0  0  0  0  0  0  0  0
    1.0721    0.3834   -1.4126 H   0  0  0  0  0  0  0  0  0  0  0  0
    1.6360   -1.6159   -0.9482 C   0  0  0  0  0  0  0  0  0  0  0  0
    2.2553   -1.5892   -1.8491 H   0  0  0  0  0  0  0  0  0  0  0  0
    2.2857   -1.4061   -0.0932 H   0  0  0  0  0  0  0  0  0  0  0  0
    1.0609   -3.0328   -0.8241 C   0  0  0  0  0  0  0  0  0  0  0  0
   -0.0527   -3.2826   -1.3559 O   0  5  0  0  0  0  0  0  0  0  0  0
    1.7736   -3.8791   -0.2332 O   0  0  0  0  0  0  0  0  0  0  0  0
   -0.2347    1.3101    0.4401 C   0  0  0  0  0  0  0  0  0  0  0  0
   -0.9845    1.9920   -0.2529 O   0  0  0  0  0  0  0  0  0  0  0  0
    0.5890    1.9441    1.3525 N   0  0  0  0  0  0  0  0  0  0  0  0
    1.1579    1.3497    1.9481 H   0  0  0  0  0  0  0  0  0  0  0  0
    0.5670    3.3787    1.5955 C   0  0  0  0  0  0  0  0  0  0  0  0
   -0.4189    3.6894    1.9560 H   0  0  0  0  0  0  0  0  0  0  0  0
    1.3126    3.6433    2.3510 H   0  0  0  0  0  0  0  0  0  0  0  0
    0.7973    3.9261    0.6757 H   0  0  0  0  0  0  0  0  0  0  0  0
  1  2  1  0  0  0  0
  2  3  1  0  0  0  0
  2  4  1  0  0  0  0
  2  5  1  0  0  0  0
  5  6  2  0  0  0  0
  5  7  1  0  0  0  0
  7  8  1  0  0  0  0
  7  9  1  0  0  0  0
  9 10  1  0  0  0  0
  9 11  1  0  0  0  0
  9 20  1  0  0  0  0
 11 12  1  0  0  0  0
 11 13  1  0  0  0  0
 11 14  1  0  0  0  0
 14 15  1  0  0  0  0
 14 16  1  0  0  0  0
 14 17  1  0  0  0  0
 17 18  1  0  0  0  0
 17 19  2  0  0  0  0
 20 21  2  0  0  0  0
 20 22  1  0  0  0  0
 22 23  1  0  0  0  0
 22 24  1  0  0  0  0
 24 25  1  0  0  0  0
 24 26  1  0  0  0  0
 24 27  1  0  0  0  0
M  CHG  1  18  -1
M  END
$$$$

  -OEChem-03222214043D

 27 26  0     1  0  0  0  0  0999 V2000
   -2.8606   -3.8145    1.1011 H   0  0  0  0  0  0  0  0  0  0  0  0
   -2.8516   -2.9145    0.4806 C   0  0  0  0  0  0  0  0  0  0  0  0
   -3.8239   -2.4216    0.5475 H   0  0  0  0  0  0  0  0  0  0  0  0
   -2.6707   -3.2104   -0.5563 H   0  0  0  0  0  0  0  0  0  0  0  0
   -1.7565   -1.9708    0.9443 C   0  0  0  0  0  0  0  0  0  0  0  0
   -1.2518   -2.1155    2.0522 O   0  0  0  0  0  0  0  0  0  0  0  0
   -1.4747   -0.8341    0.2137 N   0  0  0  0  0  0  0  0  0  0  0  0
   -1.9069   -0.8270   -0.7055 H   0  0  0  0  0  0  0  0  0  0  0  0
   -0.1412   -0.2200    0.2733 C   0  0  1  0  0  0  0  0  0  0  0  0
    0.4395   -0.6102    1.1141 H   0  0  0  0  0  0  0  0  0  0  0  0
    0.5737   -0.5328   -1.0639 C   0  0  0  0  0  0  0  0  0  0  0  0
   -0.1431   -0.7741   -1.8563 H   0  0  0  0  0  0  0  0  0  0  0  0
    1.0967    0.3694   -1.3980 H   0  0  0  0  0  0  0  0  0  0  0  0
    1.6496   -1.6296   -0.9232 C   0  0  0  0  0  0  0  0  0  0  0  0
    2.4175   -1.4460   -1.6803 H   0  0  0  0  0  0  0  0  0  0  0  0
    2.1339   -1.5681    0.0553 H   0  0  0  0  0  0  0  0  0  0  0  0
    1.1282   -3.0578   -1.1478 C   0  0  0  0  0  0  0  0  0  0  0  0
   -0.0887   -3.2402   -1.4158 O   0  5  0  0  0  0  0  0  0  0  0  0
    1.9817   -3.9742   -1.0674 O   0  0  0  0  0  0  0  0  0  0  0  0
   -0.2386    1.3120    0.4347 C   0  0  0  0  0  0  0  0  0  0  0  0
   -0.9885    1.9911   -0.2607 O   0  0  0  0  0  0  0  0  0  0  0  0
    0.5728    1.9495    1.3559 N   0  0  0  0  0  0  0  0  0  0  0  0
    1.1477    1.3588    1.9490 H   0  0  0  0  0  0  0  0  0  0  0  0
    0.5450    3.3844    1.5978 C   0  0  0  0  0  0  0  0  0  0  0  0
   -0.4455    3.6943    1.9461 H   0  0  0  0  0  0  0  0  0  0  0  0
    1.2806    3.6502    2.3626 H   0  0  0  0  0  0  0  0  0  0  0  0
    0.7864    3.9318    0.6809 H   0  0  0  0  0  0  0  0  0  0  0  0
  1  2  1  0  0  0  0
  2  3  1  0  0  0  0
  2  4  1  0  0  0  0
  2  5  1  0  0  0  0
  5  6  2  0  0  0  0
  5  7  1  0  0  0  0
  7  8  1  0  0  0  0
  7  9  1  0  0  0  0
  9 10  1  0  0  0  0
  9 11  1  0  0  0  0
  9 20  1  0  0  0  0
 11 12  1  0  0  0  0
 11 13  1  0  0  0  0
 11 14  1  0  0  0  0
 14 15  1  0  0  0  0
 14 16  1  0  0  0  0
 14 17  1  0  0  0  0
 17 18  1  0  0  0  0
 17 19  2  0  0  0  0
 20 21  2  0  0  0  0
 20 22  1  0  0  0  0
 22 23  1  0  0  0  0
 22 24  1  0  0  0  0
 24 25  1  0  0  0  0
 24 26  1  0  0  0  0
 24 27  1  0  0  0  0
M  CHG  1  18  -1
M  END
$$$$

  -OEChem-03222214043D

 27 26  0     1  0  0  0  0  0999 V2000
   -2.8915   -3.7976    1.0798 H   0  0  0  0  0  0  0  0  0  0  0  0
   -2.8457   -2.9167    0.4343 C   0  0  0  0  0  0  0  0  0  0  0  0
   -3.8173   -2.4178    0.4383 H   0  0  0  0  0  0  0  0  0  0  0  0
   -2.6153   -3.2441   -0.5833 H   0  0  0  0  0  0  0  0  0  0  0  0
   -1.7682   -1.9650    0.9228 C   0  0  0  0  0  0  0  0  0  0  0  0
   -1.2830   -2.1103    2.0398 O   0  0  0  0  0  0  0  0  0  0  0  0
   -1.4723   -0.8306    0.1938 N   0  0  0  0  0  0  0  0  0  0  0  0
   -1.8936   -0.8169   -0.7303 H   0  0  0  0  0  0  0  0  0  0  0  0
   -0.1391   -0.2193    0.2767 C   0  0  1  0  0  0  0  0  0  0  0  0
    0.4206   -0.6033    1.1337 H   0  0  0  0  0  0  0  0  0  0  0  0
    0.5990   -0.5446   -1.0449 C   0  0  0  0  0  0  0  0  0  0  0  0
   -0.1085   -0.7951   -1.8434 H   0  0  0  0  0  0  0  0  0  0  0  0
    1.1251    0.3548   -1.3827 H   0  0  0  0  0  0  0  0  0  0  0  0
    1.6696   -1.6450   -0.8821 C   0  0  0  0  0  0  0  0  0  0  0  0
    2.5730   -1.3300   -1.4132 H   0  0  0  0  0  0  0  0  0  0  0  0
    1.9414   -1.7839    0.1672 H   0  0  0  0  0  0  0  0  0  0  0  0
    1.2144   -2.9898   -1.4653 C   0  0  0  0  0  0  0  0  0  0  0  0
    0.0063   -3.3210   -1.3420 O   0  5  0  0  0  0  0  0  0  0  0  0
    2.0890   -3.6881   -2.0339 O   0  0  0  0  0  0  0  0  0  0  0  0
   -0.2339    1.3134    0.4316 C   0  0  0  0  0  0  0  0  0  0  0  0
   -0.9735    1.9906   -0.2763 O   0  0  0  0  0  0  0  0  0  0  0  0
    0.5614    1.9535    1.3651 N   0  0  0  0  0  0  0  0  0  0  0  0
    1.1338    1.3661    1.9636 H   0  0  0  0  0  0  0  0  0  0  0  0
    0.5402    3.3912    1.5920 C   0  0  0  0  0  0  0  0  0  0  0  0
   -0.4516    3.7106    1.9280 H   0  0  0  0  0  0  0  0  0  0  0  0
    1.2705    3.6612    2.3605 H   0  0  0  0  0  0  0  0  0  0  0  0
    0.7929    3.9279    0.6717 H   0  0  0  0  0  0  0  0  0  0  0  0
  1  2  1  0  0  0  0
  2  3  1  0  0  0  0
  2  4  1  0  0  0  0
  2  5  1  0  0  0  0
  5  6  2  0  0  0  0
  5  7  1  0  0  0  0
  7  8  1  0  0  0  0
  7  9  1  0  0  0  0
  9 10  1  0  0  0  0
  9 11  1  0  0  0  0
  9 20  1  0  0  0  0
 11 12  1  0  0  0  0
 11 13  1  0  0  0  0
 11 14  1  0  0  0  0
 14 15  1  0  0  0  0
 14 16  1  0  0  0  0
 14 17  1  0  0  0  0
 17 18  1  0  0  0  0
 17 19  2  0  0  0  0
 20 21  2  0  0  0  0
 20 22  1  0  0  0  0
 22 23  1  0  0  0  0
 22 24  1  0  0  0  0
 24 25  1  0  0  0  0
 24 26  1  0  0  0  0
 24 27  1  0  0  0  0
M  CHG  1  18  -1
M  END
$$$$

  -OEChem-03222214043D

 27 26  0     1  0  0  0  0  0999 V2000
   -2.9646   -3.7438    1.0866 H   0  0  0  0  0  0  0  0  0  0  0  0
   -2.8124   -2.9254    0.3780 C   0  0  0  0  0  0  0  0  0  0  0  0
   -3.7622   -2.4100    0.2187 H   0  0  0  0  0  0  0  0  0  0  0  0
   -2.4686   -3.3448   -0.5720 H   0  0  0  0  0  0  0  0  0  0  0  0
   -1.7731   -1.9554    0.9097 C   0  0  0  0  0  0  0  0  0  0  0  0
   -1.2771   -2.1289    2.0169 O   0  0  0  0  0  0  0  0  0  0  0  0
   -1.4710   -0.8175    0.1905 N   0  0  0  0  0  0  0  0  0  0  0  0
   -1.9041   -0.7762   -0.7274 H   0  0  0  0  0  0  0  0  0  0  0  0
   -0.1384   -0.2060    0.2803 C   0  0  1  0  0  0  0  0  0  0  0  0
    0.4175   -0.5883    1.1408 H   0  0  0  0  0  0  0  0  0  0  0  0
    0.5917   -0.5507   -1.0378 C   0  0  0  0  0  0  0  0  0  0  0  0
   -0.1275   -0.8179   -1.8205 H   0  0  0  0  0  0  0  0  0  0  0  0
    1.1145    0.3393   -1.4041 H   0  0  0  0  0  0  0  0  0  0  0  0
    1.6539   -1.6564   -0.8565 C   0  0  0  0  0  0  0  0  0  0  0  0
    2.6378   -1.2610   -1.1266 H   0  0  0  0  0  0  0  0  0  0  0  0
    1.7105   -1.9945    0.1813 H   0  0  0  0  0  0  0  0  0  0  0  0
    1.3323   -2.8682   -1.7362 C   0  0  0  0  0  0  0  0  0  0  0  0
    0.1965   -3.3954   -1.6073 O   0  5  0  0  0  0  0  0  0  0  0  0
    2.2161   -3.2594   -2.5372 O   0  0  0  0  0  0  0  0  0  0  0  0
   -0.2268    1.3260    0.4418 C   0  0  0  0  0  0  0  0  0  0  0  0
   -0.9750    2.0052   -0.2547 O   0  0  0  0  0  0  0  0  0  0  0  0
    0.5681    1.9607    1.3790 N   0  0  0  0  0  0  0  0  0  0  0  0
    1.1619    1.3734    1.9563 H   0  0  0  0  0  0  0  0  0  0  0  0
    0.5581    3.3989    1.6030 C   0  0  0  0  0  0  0  0  0  0  0  0
   -0.4344    3.7286    1.9269 H   0  0  0  0  0  0  0  0  0  0  0  0
    1.2819    3.6633    2.3794 H   0  0  0  0  0  0  0  0  0  0  0  0
    0.8265    3.9307    0.6844 H   0  0  0  0  0  0  0  0  0  0  0  0
  1  2  1  0  0  0  0
  2  3  1  0  0  0  0
  2  4  1  0  0  0  0
  2  5  1  0  0  0  0
  5  6  2  0  0  0  0
  5  7  1  0  0  0  0
  7  8  1  0  0  0  0
  7  9  1  0  0  0  0
  9 10  1  0  0  0  0
  9 11  1  0  0  0  0
  9 20  1  0  0  0  0
 11 12  1  0  0  0  0
 11 13  1  0  0  0  0
 11 14  1  0  0  0  0
 14 15  1  0  0  0  0
 14 16  1  0  0  0  0
 14 17  1  0  0  0  0
 17 18  1  0  0  0  0
 17 19  2  0  0  0  0
 20 21  2  0  0  0  0
 20 22  1  0  0  0  0
 22 23  1  0  0  0  0
 22 24  1  0  0  0  0
 24 25  1  0  0  0  0
 24 26  1  0  0  0  0
 24 27  1  0  0  0  0
M  CHG  1  18  -1
M  END
$$$$

  -OEChem-03222214043D

 27 26  0     1  0  0  0  0  0999 V2000
   -3.0313   -3.7238    1.0672 H   0  0  0  0  0  0  0  0  0  0  0  0
   -2.8901   -2.8799    0.3865 C   0  0  0  0  0  0  0  0  0  0  0  0
   -3.8257   -2.3202    0.3149 H   0  0  0  0  0  0  0  0  0  0  0  0
   -2.6273   -3.2672   -0.6022 H   0  0  0  0  0  0  0  0  0  0  0  0
   -1.7786   -1.9776    0.8907 C   0  0  0  0  0  0  0  0  0  0  0  0
   -1.2153   -2.2292    1.9482 O   0  0  0  0  0  0  0  0  0  0  0  0
   -1.4620   -0.8337    0.1887 N   0  0  0  0  0  0  0  0  0  0  0  0
   -1.9498   -0.7171   -0.6949 H   0  0  0  0  0  0  0  0  0  0  0  0
   -0.1308   -0.2165    0.2675 C   0  0  1  0  0  0  0  0  0  0  0  0
    0.4313   -0.6000    1.1239 H   0  0  0  0  0  0  0  0  0  0  0  0
    0.6069   -0.5500   -1.0478 C   0  0  0  0  0  0  0  0  0  0  0  0
   -0.1179   -0.8488   -1.8135 H   0  0  0  0  0  0  0  0  0  0  0  0
    1.1104    0.3415   -1.4371 H   0  0  0  0  0  0  0  0  0  0  0  0
    1.6763   -1.6446   -0.8533 C   0  0  0  0  0  0  0  0  0  0  0  0
    2.6702   -1.1884   -0.8192 H   0  0  0  0  0  0  0  0  0  0  0  0
    1.5226   -2.1737    0.0914 H   0  0  0  0  0  0  0  0  0  0  0  0
    1.6090   -2.6887   -1.9699 C   0  0  0  0  0  0  0  0  0  0  0  0
    0.5485   -3.3570   -2.0783 O   0  5  0  0  0  0  0  0  0  0  0  0
    2.6132   -2.8118   -2.7136 O   0  0  0  0  0  0  0  0  0  0  0  0
   -0.2259    1.3132    0.4412 C   0  0  0  0  0  0  0  0  0  0  0  0
   -1.0082    1.9861   -0.2229 O   0  0  0  0  0  0  0  0  0  0  0  0
    0.5757    1.9471    1.3732 N   0  0  0  0  0  0  0  0  0  0  0  0
    1.2101    1.3650    1.9112 H   0  0  0  0  0  0  0  0  0  0  0  0
    0.5592    3.3836    1.6071 C   0  0  0  0  0  0  0  0  0  0  0  0
   -0.4320    3.7050    1.9427 H   0  0  0  0  0  0  0  0  0  0  0  0
    1.2885    3.6464    2.3791 H   0  0  0  0  0  0  0  0  0  0  0  0
    0.8158    3.9238    0.6900 H   0  0  0  0  0  0  0  0  0  0  0  0
  1  2  1  0  0  0  0
  2  3  1  0  0  0  0
  2  4  1  0  0  0  0
  2  5  1  0  0  0  0
  5  6  2  0  0  0  0
  5  7  1  0  0  0  0
  7  8  1  0  0  0  0
  7  9  1  0  0  0  0
  9 10  1  0  0  0  0
  9 11  1  0  0  0  0
  9 20  1  0  0  0  0
 11 12  1  0  0  0  0
 11 13  1  0  0  0  0
 11 14  1  0  0  0  0
 14 15  1  0  0  0  0
 14 16  1  0  0  0  0
 14 17  1  0  0  0  0
 17 18  1  0  0  0  0
 17 19  2  0  0  0  0
 20 21  2  0  0  0  0
 20 22  1  0  0  0  0
 22 23  1  0  0  0  0
 22 24  1  0  0  0  0
 24 25  1  0  0  0  0
 24 26  1  0  0  0  0
 24 27  1  0  0  0  0
M  CHG  1  18  -1
M  END
$$$$

  -OEChem-03222214043D

 27 26  0     1  0  0  0  0  0999 V2000
   -3.1499   -3.6657    1.1000 H   0  0  0  0  0  0  0  0  0  0  0  0
   -2.9922   -2.8196    0.4257 C   0  0  0  0  0  0  0  0  0  0  0  0
   -3.8822   -2.1860    0.4379 H   0  0  0  0  0  0  0  0  0  0  0  0
   -2.8384   -3.2011   -0.5874 H   0  0  0  0  0  0  0  0  0  0  0  0
   -1.7776   -2.0197    0.8605 C   0  0  0  0  0  0  0  0  0  0  0  0
   -1.1453   -2.3580    1.8516 O   0  0  0  0  0  0  0  0  0  0  0  0
   -1.4470   -0.8679    0.1794 N   0  0  0  0  0  0  0  0  0  0  0  0
   -2.0036   -0.6542   -0.6436 H   0  0  0  0  0  0  0  0  0  0  0  0
   -0.1195   -0.2410    0.2486 C   0  0  1  0  0  0  0  0  0  0  0  0
    0.4469   -0.6289    1.1009 H   0  0  0  0  0  0  0  0  0  0  0  0
    0.6346   -0.5509   -1.0618 C   0  0  0  0  0  0  0  0  0  0  0  0
   -0.0811   -0.8784   -1.8244 H   0  0  0  0  0  0  0  0  0  0  0  0
    1.1202    0.3489   -1.4546 H   0  0  0  0  0  0  0  0  0  0  0  0
    1.7151   -1.6271   -0.8555 C   0  0  0  0  0  0  0  0  0  0  0  0
    2.6512   -1.1608   -0.5340 H   0  0  0  0  0  0  0  0  0  0  0  0
    1.4045   -2.3258   -0.0728 H   0  0  0  0  0  0  0  0  0  0  0  0
    1.9331   -2.4413   -2.1314 C   0  0  0  0  0  0  0  0  0  0  0  0
    1.0203   -3.2298   -2.4852 O   0  5  0  0  0  0  0  0  0  0  0  0
    3.0052   -2.2580   -2.7590 O   0  0  0  0  0  0  0  0  0  0  0  0
   -0.2297    1.2852    0.4389 C   0  0  0  0  0  0  0  0  0  0  0  0
   -1.0543    1.9472   -0.1839 O   0  0  0  0  0  0  0  0  0  0  0  0
    0.5752    1.9200    1.3671 N   0  0  0  0  0  0  0  0  0  0  0  0
    1.2664    1.3511    1.8464 H   0  0  0  0  0  0  0  0  0  0  0  0
    0.5491    3.3553    1.6064 C   0  0  0  0  0  0  0  0  0  0  0  0
   -0.4433    3.6676    1.9471 H   0  0  0  0  0  0  0  0  0  0  0  0
    1.2789    3.6215    2.3766 H   0  0  0  0  0  0  0  0  0  0  0  0
    0.7978    3.9003    0.6901 H   0  0  0  0  0  0  0  0  0  0  0  0
  1  2  1  0  0  0  0
  2  3  1  0  0  0  0
  2  4  1  0  0  0  0
  2  5  1  0  0  0  0
  5  6  2  0  0  0  0
  5  7  1  0  0  0  0
  7  8  1  0  0  0  0
  7  9  1  0  0  0  0
  9 10  1  0  0  0  0
  9 11  1  0  0  0  0
  9 20  1  0  0  0  0
 11 12  1  0  0  0  0
 11 13  1  0  0  0  0
 11 14  1  0  0  0  0
 14 15  1  0  0  0  0
 14 16  1  0  0  0  0
 14 17  1  0  0  0  0
 17 18  1  0  0  0  0
 17 19  2  0  0  0  0
 20 21  2  0  0  0  0
 20 22  1  0  0  0  0
 22 23  1  0  0  0  0
 22 24  1  0  0  0  0
 24 25  1  0  0  0  0
 24 26  1  0  0  0  0
 24 27  1  0  0  0  0
M  CHG  1  18  -1
M  END
$$$$

  -OEChem-03222214043D

 27 26  0     1  0  0  0  0  0999 V2000
   -3.2032   -3.6403    1.1205 H   0  0  0  0  0  0  0  0  0  0  0  0
   -3.0565   -2.7739    0.4698 C   0  0  0  0  0  0  0  0  0  0  0  0
   -3.9071   -2.0975    0.5842 H   0  0  0  0  0  0  0  0  0  0  0  0
   -3.0089   -3.1166   -0.5671 H   0  0  0  0  0  0  0  0  0  0  0  0
   -1.7692   -2.0556    0.8324 C   0  0  0  0  0  0  0  0  0  0  0  0
   -1.0786   -2.4700    1.7524 O   0  0  0  0  0  0  0  0  0  0  0  0
   -1.4338   -0.8953    0.1687 N   0  0  0  0  0  0  0  0  0  0  0  0
   -2.0489   -0.5984   -0.5841 H   0  0  0  0  0  0  0  0  0  0  0  0
   -0.1098   -0.2602    0.2290 C   0  0  1  0  0  0  0  0  0  0  0  0
    0.4627   -0.6530    1.0751 H   0  0  0  0  0  0  0  0  0  0  0  0
    0.6491   -0.5501   -1.0820 C   0  0  0  0  0  0  0  0  0  0  0  0
   -0.0547   -0.8859   -1.8520 H   0  0  0  0  0  0  0  0  0  0  0  0
    1.1280    0.3588   -1.4624 H   0  0  0  0  0  0  0  0  0  0  0  0
    1.7363   -1.6137   -0.8687 C   0  0  0  0  0  0  0  0  0  0  0  0
    2.5700   -1.1875   -0.3026 H   0  0  0  0  0  0  0  0  0  0  0  0
    1.3284   -2.4470   -0.2882 H   0  0  0  0  0  0  0  0  0  0  0  0
    2.2338   -2.1659   -2.2045 C   0  0  0  0  0  0  0  0  0  0  0  0
    1.4678   -2.9277   -2.8463 O   0  5  0  0  0  0  0  0  0  0  0  0
    3.3745   -1.8064   -2.5883 O   0  0  0  0  0  0  0  0  0  0  0  0
   -0.2343    1.2623    0.4373 C   0  0  0  0  0  0  0  0  0  0  0  0
   -1.0944    1.9133   -0.1486 O   0  0  0  0  0  0  0  0  0  0  0  0
    0.5736    1.8975    1.3624 N   0  0  0  0  0  0  0  0  0  0  0  0
    1.3073    1.3420    1.7920 H   0  0  0  0  0  0  0  0  0  0  0  0
    0.5373    3.3315    1.6087 C   0  0  0  0  0  0  0  0  0  0  0  0
   -0.4644    3.6406    1.9244 H   0  0  0  0  0  0  0  0  0  0  0  0
    1.2450    3.5946    2.4003 H   0  0  0  0  0  0  0  0  0  0  0  0
    0.8092    3.8818    0.7022 H   0  0  0  0  0  0  0  0  0  0  0  0
  1  2  1  0  0  0  0
  2  3  1  0  0  0  0
  2  4  1  0  0  0  0
  2  5  1  0  0  0  0
  5  6  2  0  0  0  0
  5  7  1  0  0  0  0
  7  8  1  0  0  0  0
  7  9  1  0  0  0  0
  9 10  1  0  0  0  0
  9 11  1  0  0  0  0
  9 20  1  0  0  0  0
 11 12  1  0  0  0  0
 11 13  1  0  0  0  0
 11 14  1  0  0  0  0
 14 15  1  0  0  0  0
 14 16  1  0  0  0  0
 14 17  1  0  0  0  0
 17 18  1  0  0  0  0
 17 19  2  0  0  0  0
 20 21  2  0  0  0  0
 20 22  1  0  0  0  0
 22 23  1  0  0  0  0
 22 24  1  0  0  0  0
 24 25  1  0  0  0  0
 24 26  1  0  0  0  0
 24 27  1  0  0  0  0
M  CHG  1  18  -1
M  END
$$$$

  -OEChem-03222214043D

 27 26  0     1  0  0  0  0  0999 V2000
   -3.2330   -3.6265    1.1108 H   0  0  0  0  0  0  0  0  0  0  0  0
   -3.0779   -2.7570    0.4661 C   0  0  0  0  0  0  0  0  0  0  0  0
   -3.9170   -2.0685    0.5917 H   0  0  0  0  0  0  0  0  0  0  0  0
   -3.0431   -3.0919   -0.5738 H   0  0  0  0  0  0  0  0  0  0  0  0
   -1.7773   -2.0611    0.8257 C   0  0  0  0  0  0  0  0  0  0  0  0
   -1.0849   -2.4963    1.7344 O   0  0  0  0  0  0  0  0  0  0  0  0
   -1.4267   -0.9028    0.1667 N   0  0  0  0  0  0  0  0  0  0  0  0
   -2.0469   -0.5817   -0.5719 H   0  0  0  0  0  0  0  0  0  0  0  0
   -0.1003   -0.2737    0.2354 C   0  0  1  0  0  0  0  0  0  0  0  0
    0.4724   -0.6706    1.0792 H   0  0  0  0  0  0  0  0  0  0  0  0
    0.6575   -0.5582   -1.0732 C   0  0  0  0  0  0  0  0  0  0  0  0
   -0.0412   -0.6100   -1.9155 H   0  0  0  0  0  0  0  0  0  0  0  0
    1.3568    0.2595   -1.2814 H   0  0  0  0  0  0  0  0  0  0  0  0
    1.4661   -1.8588   -0.9758 C   0  0  0  0  0  0  0  0  0  0  0  0
    2.1875   -1.7936   -0.1558 H   0  0  0  0  0  0  0  0  0  0  0  0
    0.7972   -2.6986   -0.7653 H   0  0  0  0  0  0  0  0  0  0  0  0
    2.2112   -2.1248   -2.2820 C   0  0  0  0  0  0  0  0  0  0  0  0
    1.6281   -2.8087   -3.1597 O   0  5  0  0  0  0  0  0  0  0  0  0
    3.3478   -1.6056   -2.4135 O   0  0  0  0  0  0  0  0  0  0  0  0
   -0.2234    1.2489    0.4430 C   0  0  0  0  0  0  0  0  0  0  0  0
   -1.0878    1.8985   -0.1381 O   0  0  0  0  0  0  0  0  0  0  0  0
    0.5797    1.8825    1.3735 N   0  0  0  0  0  0  0  0  0  0  0  0
    1.3205    1.3298    1.7943 H   0  0  0  0  0  0  0  0  0  0  0  0
    0.5454    3.3171    1.6172 C   0  0  0  0  0  0  0  0  0  0  0  0
   -0.4459    3.6222    1.9674 H   0  0  0  0  0  0  0  0  0  0  0  0
    1.2798    3.5853    2.3824 H   0  0  0  0  0  0  0  0  0  0  0  0
    0.7828    3.8664    0.7004 H   0  0  0  0  0  0  0  0  0  0  0  0
  1  2  1  0  0  0  0
  2  3  1  0  0  0  0
  2  4  1  0  0  0  0
  2  5  1  0  0  0  0
  5  6  2  0  0  0  0
  5  7  1  0  0  0  0
  7  8  1  0  0  0  0
  7  9  1  0  0  0  0
  9 10  1  0  0  0  0
  9 11  1  0  0  0  0
  9 20  1  0  0  0  0
 11 12  1  0  0  0  0
 11 13  1  0  0  0  0
 11 14  1  0  0  0  0
 14 15  1  0  0  0  0
 14 16  1  0  0  0  0
 14 17  1  0  0  0  0
 17 18  1  0  0  0  0
 17 19  2  0  0  0  0
 20 21  2  0  0  0  0
 20 22  1  0  0  0  0
 22 23  1  0  0  0  0
 22 24  1  0  0  0  0
 24 25  1  0  0  0  0
 24 26  1  0  0  0  0
 24 27  1  0  0  0  0
M  CHG  1  18  -1
M  END
$$$$

  -OEChem-03222214043D

 27 26  0     1  0  0  0  0  0999 V2000
   -3.2419   -3.6338    1.0966 H   0  0  0  0  0  0  0  0  0  0  0  0
   -3.1010   -2.7421    0.4794 C   0  0  0  0  0  0  0  0  0  0  0  0
   -3.9258   -2.0498    0.6644 H   0  0  0  0  0  0  0  0  0  0  0  0
   -3.1119   -3.0377   -0.5729 H   0  0  0  0  0  0  0  0  0  0  0  0
   -1.7782   -2.0757    0.8131 C   0  0  0  0  0  0  0  0  0  0  0  0
   -1.0660   -2.5438    1.6889 O   0  0  0  0  0  0  0  0  0  0  0  0
   -1.4259   -0.9120    0.1645 N   0  0  0  0  0  0  0  0  0  0  0  0
   -2.0714   -0.5488   -0.5316 H   0  0  0  0  0  0  0  0  0  0  0  0
   -0.1001   -0.2814    0.2317 C   0  0  1  0  0  0  0  0  0  0  0  0
    0.4728   -0.6803    1.0744 H   0  0  0  0  0  0  0  0  0  0  0  0
    0.6581   -0.5523   -1.0797 C   0  0  0  0  0  0  0  0  0  0  0  0
   -0.0313   -0.5885   -1.9298 H   0  0  0  0  0  0  0  0  0  0  0  0
    1.3551    0.2737   -1.2632 H   0  0  0  0  0  0  0  0  0  0  0  0
    1.4750   -1.8513   -1.0017 C   0  0  0  0  0  0  0  0  0  0  0  0
    2.0178   -1.9029   -0.0533 H   0  0  0  0  0  0  0  0  0  0  0  0
    0.8048   -2.7148   -1.0471 H   0  0  0  0  0  0  0  0  0  0  0  0
    2.4928   -1.9199   -2.1388 C   0  0  0  0  0  0  0  0  0  0  0  0
    2.1894   -2.5849   -3.1599 O   0  5  0  0  0  0  0  0  0  0  0  0
    3.5578   -1.2679   -1.9967 O   0  0  0  0  0  0  0  0  0  0  0  0
   -0.2281    1.2392    0.4519 C   0  0  0  0  0  0  0  0  0  0  0  0
   -1.1117    1.8838   -0.1062 O   0  0  0  0  0  0  0  0  0  0  0  0
    0.5775    1.8680    1.3833 N   0  0  0  0  0  0  0  0  0  0  0  0
    1.3494    1.3248    1.7594 H   0  0  0  0  0  0  0  0  0  0  0  0
    0.5425    3.3016    1.6322 C   0  0  0  0  0  0  0  0  0  0  0  0
   -0.4446    3.6029    1.9975 H   0  0  0  0  0  0  0  0  0  0  0  0
    1.2868    3.5690    2.3880 H   0  0  0  0  0  0  0  0  0  0  0  0
    0.7654    3.8547    0.7141 H   0  0  0  0  0  0  0  0  0  0  0  0
  1  2  1  0  0  0  0
  2  3  1  0  0  0  0
  2  4  1  0  0  0  0
  2  5  1  0  0  0  0
  5  6  2  0  0  0  0
  5  7  1  0  0  0  0
  7  8  1  0  0  0  0
  7  9  1  0  0  0  0
  9 10  1  0  0  0  0
  9 11  1  0  0  0  0
  9 20  1  0  0  0  0
 11 12  1  0  0  0  0
 11 13  1  0  0  0  0
 11 14  1  0  0  0  0
 14 15  1  0  0  0  0
 14 16  1  0  0  0  0
 14 17  1  0  0  0  0
 17 18  1  0  0  0  0
 17 19  2  0  0  0  0
 20 21  2  0  0  0  0
 20 22  1  0  0  0  0
 22 23  1  0  0  0  0
 22 24  1  0  0  0  0
 24 25  1  0  0  0  0
 24 26  1  0  0  0  0
 24 27  1  0  0  0  0
M  CHG  1  18  -1
M  END
$$$$

  -OEChem-03222214043D

 27 26  0     1  0  0  0  0  0999 V2000
   -3.2685   -3.6203    1.1154 H   0  0  0  0  0  0  0  0  0  0  0  0
   -3.1302   -2.7176    0.5138 C   0  0  0  0  0  0  0  0  0  0  0  0
   -3.9194   -2.0036    0.7614 H   0  0  0  0  0  0  0  0  0  0  0  0
   -3.2082   -2.9840   -0.5433 H   0  0  0  0  0  0  0  0  0  0  0  0
   -1.7695   -2.1034    0.7912 C   0  0  0  0  0  0  0  0  0  0  0  0
   -1.0278   -2.6189    1.6138 O   0  0  0  0  0  0  0  0  0  0  0  0
   -1.4176   -0.9322    0.1562 N   0  0  0  0  0  0  0  0  0  0  0  0
   -2.0968   -0.5138   -0.4740 H   0  0  0  0  0  0  0  0  0  0  0  0
   -0.0948   -0.2954    0.2240 C   0  0  1  0  0  0  0  0  0  0  0  0
    0.4797   -0.6945    1.0654 H   0  0  0  0  0  0  0  0  0  0  0  0
    0.6679   -0.5436   -1.0899 C   0  0  0  0  0  0  0  0  0  0  0  0
   -0.0157   -0.5677   -1.9449 H   0  0  0  0  0  0  0  0  0  0  0  0
    1.3524    0.2970   -1.2521 H   0  0  0  0  0  0  0  0  0  0  0  0
    1.5011   -1.8380   -1.0389 C   0  0  0  0  0  0  0  0  0  0  0  0
    1.8391   -2.0404   -0.0189 H   0  0  0  0  0  0  0  0  0  0  0  0
    0.8837   -2.6851   -1.3519 H   0  0  0  0  0  0  0  0  0  0  0  0
    2.7441   -1.7320   -1.9218 C   0  0  0  0  0  0  0  0  0  0  0  0
    2.7499   -2.3576   -3.0105 O   0  5  0  0  0  0  0  0  0  0  0  0
    3.6740   -0.9896   -1.5151 O   0  0  0  0  0  0  0  0  0  0  0  0
   -0.2368    1.2215    0.4598 C   0  0  0  0  0  0  0  0  0  0  0  0
   -1.1431    1.8556   -0.0744 O   0  0  0  0  0  0  0  0  0  0  0  0
    0.5657    1.8497    1.3939 N   0  0  0  0  0  0  0  0  0  0  0  0
    1.3700    1.3231    1.7241 H   0  0  0  0  0  0  0  0  0  0  0  0
    0.5199    3.2825    1.6462 C   0  0  0  0  0  0  0  0  0  0  0  0
   -0.4796    3.5814    1.9783 H   0  0  0  0  0  0  0  0  0  0  0  0
    1.2370    3.5487    2.4285 H   0  0  0  0  0  0  0  0  0  0  0  0
    0.7728    3.8385    0.7376 H   0  0  0  0  0  0  0  0  0  0  0  0
  1  2  1  0  0  0  0
  2  3  1  0  0  0  0
  2  4  1  0  0  0  0
  2  5  1  0  0  0  0
  5  6  2  0  0  0  0
  5  7  1  0  0  0  0
  7  8  1  0  0  0  0
  7  9  1  0  0  0  0
  9 10  1  0  0  0  0
  9 11  1  0  0  0  0
  9 20  1  0  0  0  0
 11 12  1  0  0  0  0
 11 13  1  0  0  0  0
 11 14  1  0  0  0  0
 14 15  1  0  0  0  0
 14 16  1  0  0  0  0
 14 17  1  0  0  0  0
 17 18  1  0  0  0  0
 17 19  2  0  0  0  0
 20 21  2  0  0  0  0
 20 22  1  0  0  0  0
 22 23  1  0  0  0  0
 22 24  1  0  0  0  0
 24 25  1  0  0  0  0
 24 26  1  0  0  0  0
 24 27  1  0  0  0  0
M  CHG  1  18  -1
M  END
$$$$

  -OEChem-03222214043D

 27 26  0     1  0  0  0  0  0999 V2000
   -3.2678   -3.6306    1.1212 H   0  0  0  0  0  0  0  0  0  0  0  0
   -3.1365   -2.7205    0.5292 C   0  0  0  0  0  0  0  0  0  0  0  0
   -3.9115   -2.0025    0.8082 H   0  0  0  0  0  0  0  0  0  0  0  0
   -3.2446   -2.9702   -0.5292 H   0  0  0  0  0  0  0  0  0  0  0  0
   -1.7631   -2.1235    0.7796 C   0  0  0  0  0  0  0  0  0  0  0  0
   -1.0048   -2.6605    1.5721 O   0  0  0  0  0  0  0  0  0  0  0  0
   -1.4189   -0.9458    0.1530 N   0  0  0  0  0  0  0  0  0  0  0  0
   -2.1179   -0.5015   -0.4366 H   0  0  0  0  0  0  0  0  0  0  0  0
   -0.0999   -0.3008    0.2181 C   0  0  1  0  0  0  0  0  0  0  0  0
    0.4799   -0.6996    1.0564 H   0  0  0  0  0  0  0  0  0  0  0  0
    0.6685   -0.5283   -1.0957 C   0  0  0  0  0  0  0  0  0  0  0  0
   -0.0202   -0.5580   -1.9461 H   0  0  0  0  0  0  0  0  0  0  0  0
    1.3334    0.3272   -1.2604 H   0  0  0  0  0  0  0  0  0  0  0  0
    1.5182   -1.8160   -1.0601 C   0  0  0  0  0  0  0  0  0  0  0  0
    1.6268   -2.1910   -0.0388 H   0  0  0  0  0  0  0  0  0  0  0  0
    1.0141   -2.5971   -1.6370 H   0  0  0  0  0  0  0  0  0  0  0  0
    2.9207   -1.5768   -1.6202 C   0  0  0  0  0  0  0  0  0  0  0  0
    3.2288   -2.1282   -2.7054 O   0  5  0  0  0  0  0  0  0  0  0  0
    3.6707   -0.8059   -0.9673 O   0  0  0  0  0  0  0  0  0  0  0  0
   -0.2487    1.2129    0.4660 C   0  0  0  0  0  0  0  0  0  0  0  0
   -1.1681    1.8427   -0.0518 O   0  0  0  0  0  0  0  0  0  0  0  0
    0.5569    1.8366    1.4002 N   0  0  0  0  0  0  0  0  0  0  0  0
    1.3825    1.3189    1.6928 H   0  0  0  0  0  0  0  0  0  0  0  0
    0.5100    3.2687    1.6556 C   0  0  0  0  0  0  0  0  0  0  0  0
   -0.4850    3.5639    2.0037 H   0  0  0  0  0  0  0  0  0  0  0  0
    1.2379    3.5358    2.4272 H   0  0  0  0  0  0  0  0  0  0  0  0
    0.7480    3.8274    0.7447 H   0  0  0  0  0  0  0  0  0  0  0  0
  1  2  1  0  0  0  0
  2  3  1  0  0  0  0
  2  4  1  0  0  0  0
  2  5  1  0  0  0  0
  5  6  2  0  0  0  0
  5  7  1  0  0  0  0
  7  8  1  0  0  0  0
  7  9  1  0  0  0  0
  9 10  1  0  0  0  0
  9 11  1  0  0  0  0
  9 20  1  0  0  0  0
 11 12  1  0  0  0  0
 11 13  1  0  0  0  0
 11 14  1  0  0  0  0
 14 15  1  0  0  0  0
 14 16  1  0  0  0  0
 14 17  1  0  0  0  0
 17 18  1  0  0  0  0
 17 19  2  0  0  0  0
 20 21  2  0  0  0  0
 20 22  1  0  0  0  0
 22 23  1  0  0  0  0
 22 24  1  0  0  0  0
 24 25  1  0  0  0  0
 24 26  1  0  0  0  0
 24 27  1  0  0  0  0
M  CHG  1  18  -1
M  END
$$$$

  -OEChem-03222214043D

 27 26  0     1  0  0  0  0  0999 V2000
   -3.2474   -3.6332    1.2310 H   0  0  0  0  0  0  0  0  0  0  0  0
   -3.1306   -2.7364    0.6162 C   0  0  0  0  0  0  0  0  0  0  0  0
   -3.8997   -2.0129    0.8976 H   0  0  0  0  0  0  0  0  0  0  0  0
   -3.2638   -3.0093   -0.4336 H   0  0  0  0  0  0  0  0  0  0  0  0
   -1.7521   -2.1339    0.8219 C   0  0  0  0  0  0  0  0  0  0  0  0
   -0.9803   -2.6514    1.6134 O   0  0  0  0  0  0  0  0  0  0  0  0
   -1.4212   -0.9752    0.1540 N   0  0  0  0  0  0  0  0  0  0  0  0
   -2.1395   -0.5400   -0.4187 H   0  0  0  0  0  0  0  0  0  0  0  0
   -0.1143   -0.3024    0.1958 C   0  0  1  0  0  0  0  0  0  0  0  0
    0.4641   -0.6561    1.0562 H   0  0  0  0  0  0  0  0  0  0  0  0
    0.6850   -0.5678   -1.0913 C   0  0  0  0  0  0  0  0  0  0  0  0
    0.0003   -0.6752   -1.9386 H   0  0  0  0  0  0  0  0  0  0  0  0
    1.3205    0.2975   -1.3129 H   0  0  0  0  0  0  0  0  0  0  0  0
    1.5621   -1.8317   -0.9700 C   0  0  0  0  0  0  0  0  0  0  0  0
    1.4324   -2.3193    0.0002 H   0  0  0  0  0  0  0  0  0  0  0  0
    1.2606   -2.5524   -1.7359 H   0  0  0  0  0  0  0  0  0  0  0  0
    3.0397   -1.4842   -1.1532 C   0  0  0  0  0  0  0  0  0  0  0  0
    3.5425   -0.6982   -0.3077 O   0  5  0  0  0  0  0  0  0  0  0  0
    3.6538   -1.9727   -2.1332 O   0  0  0  0  0  0  0  0  0  0  0  0
   -0.2780    1.2169    0.3841 C   0  0  0  0  0  0  0  0  0  0  0  0
   -1.2110    1.8135   -0.1494 O   0  0  0  0  0  0  0  0  0  0  0  0
    0.5237    1.8798    1.2937 N   0  0  0  0  0  0  0  0  0  0  0  0
    1.3713    1.3870    1.5715 H   0  0  0  0  0  0  0  0  0  0  0  0
    0.4684    3.3206    1.4900 C   0  0  0  0  0  0  0  0  0  0  0  0
   -0.5288    3.6248    1.8241 H   0  0  0  0  0  0  0  0  0  0  0  0
    1.1938    3.6230    2.2510 H   0  0  0  0  0  0  0  0  0  0  0  0
    0.7044    3.8420    0.5568 H   0  0  0  0  0  0  0  0  0  0  0  0
  1  2  1  0  0  0  0
  2  3  1  0  0  0  0
  2  4  1  0  0  0  0
  2  5  1  0  0  0  0
  5  6  2  0  0  0  0
  5  7  1  0  0  0  0
  7  8  1  0  0  0  0
  7  9  1  0  0  0  0
  9 10  1  0  0  0  0
  9 11  1  0  0  0  0
  9 20  1  0  0  0  0
 11 12  1  0  0  0  0
 11 13  1  0  0  0  0
 11 14  1  0  0  0  0
 14 15  1  0  0  0  0
 14 16  1  0  0  0  0
 14 17  1  0  0  0  0
 17 18  1  0  0  0  0
 17 19  2  0  0  0  0
 20 21  2  0  0  0  0
 20 22  1  0  0  0  0
 22 23  1  0  0  0  0
 22 24  1  0  0  0  0
 24 25  1  0  0  0  0
 24 26  1  0  0  0  0
 24 27  1  0  0  0  0
M  CHG  1  18  -1
M  END
$$$$

  -OEChem-03222214043D

 27 26  0     1  0  0  0  0  0999 V2000
   -3.2652   -3.6517    1.2084 H   0  0  0  0  0  0  0  0  0  0  0  0
   -3.1602   -2.7389    0.6153 C   0  0  0  0  0  0  0  0  0  0  0  0
   -3.9129   -2.0169    0.9416 H   0  0  0  0  0  0  0  0  0  0  0  0
   -3.3297   -2.9812   -0.4366 H   0  0  0  0  0  0  0  0  0  0  0  0
   -1.7702   -2.1536    0.7923 C   0  0  0  0  0  0  0  0  0  0  0  0
   -0.9821   -2.6987    1.5476 O   0  0  0  0  0  0  0  0  0  0  0  0
   -1.4502   -0.9852    0.1353 N   0  0  0  0  0  0  0  0  0  0  0  0
   -2.1882   -0.5308   -0.3956 H   0  0  0  0  0  0  0  0  0  0  0  0
   -0.1470   -0.3021    0.1619 C   0  0  1  0  0  0  0  0  0  0  0  0
    0.4296   -0.6625    1.0218 H   0  0  0  0  0  0  0  0  0  0  0  0
    0.6763   -0.5612   -1.1097 C   0  0  0  0  0  0  0  0  0  0  0  0
   -0.0064   -0.7129   -1.9515 H   0  0  0  0  0  0  0  0  0  0  0  0
    1.2931    0.3100   -1.3604 H   0  0  0  0  0  0  0  0  0  0  0  0
    1.5653   -1.8077   -0.9426 C   0  0  0  0  0  0  0  0  0  0  0  0
    1.2338   -2.4384   -0.1132 H   0  0  0  0  0  0  0  0  0  0  0  0
    1.5106   -2.4104   -1.8540 H   0  0  0  0  0  0  0  0  0  0  0  0
    3.0160   -1.3725   -0.7230 C   0  0  0  0  0  0  0  0  0  0  0  0
    3.2205   -0.5531    0.2142 O   0  5  0  0  0  0  0  0  0  0  0  0
    3.9024   -1.8207   -1.4904 O   0  0  0  0  0  0  0  0  0  0  0  0
   -0.2814    1.2150    0.3682 C   0  0  0  0  0  0  0  0  0  0  0  0
   -1.2215    1.8320   -0.1288 O   0  0  0  0  0  0  0  0  0  0  0  0
    0.5569    1.8411    1.2699 N   0  0  0  0  0  0  0  0  0  0  0  0
    1.4146    1.3280    1.4842 H   0  0  0  0  0  0  0  0  0  0  0  0
    0.5428    3.2786    1.4916 C   0  0  0  0  0  0  0  0  0  0  0  0
   -0.4436    3.6043    1.8371 H   0  0  0  0  0  0  0  0  0  0  0  0
    1.2801    3.5465    2.2541 H   0  0  0  0  0  0  0  0  0  0  0  0
    0.7888    3.8102    0.5668 H   0  0  0  0  0  0  0  0  0  0  0  0
  1  2  1  0  0  0  0
  2  3  1  0  0  0  0
  2  4  1  0  0  0  0
  2  5  1  0  0  0  0
  5  6  2  0  0  0  0
  5  7  1  0  0  0  0
  7  8  1  0  0  0  0
  7  9  1  0  0  0  0
  9 10  1  0  0  0  0
  9 11  1  0  0  0  0
  9 20  1  0  0  0  0
 11 12  1  0  0  0  0
 11 13  1  0  0  0  0
 11 14  1  0  0  0  0
 14 15  1  0  0  0  0
 14 16  1  0  0  0  0
 14 17  1  0  0  0  0
 17 18  1  0  0  0  0
 17 19  2  0  0  0  0
 20 21  2  0  0  0  0
 20 22  1  0  0  0  0
 22 23  1  0  0  0  0
 22 24  1  0  0  0  0
 24 25  1  0  0  0  0
 24 26  1  0  0  0  0
 24 27  1  0  0  0  0
M  CHG  1  18  -1
M  END
$$$$

  -OEChem-03222214043D

 27 26  0     1  0  0  0  0  0999 V2000
   -3.2748   -3.6739    1.1998 H   0  0  0  0  0  0  0  0  0  0  0  0
   -3.1805   -2.7587    0.6086 C   0  0  0  0  0  0  0  0  0  0  0  0
   -3.9207   -2.0351    0.9585 H   0  0  0  0  0  0  0  0  0  0  0  0
   -3.3786   -2.9947   -0.4398 H   0  0  0  0  0  0  0  0  0  0  0  0
   -1.7833   -2.1812    0.7528 C   0  0  0  0  0  0  0  0  0  0  0  0
   -0.9726   -2.7521    1.4630 O   0  0  0  0  0  0  0  0  0  0  0  0
   -1.4865   -0.9960    0.1146 N   0  0  0  0  0  0  0  0  0  0  0  0
   -2.2461   -0.5308   -0.3741 H   0  0  0  0  0  0  0  0  0  0  0  0
   -0.1940   -0.2910    0.1277 C   0  0  1  0  0  0  0  0  0  0  0  0
    0.3676   -0.6604    0.9932 H   0  0  0  0  0  0  0  0  0  0  0  0
    0.6583   -0.5495   -1.1268 C   0  0  0  0  0  0  0  0  0  0  0  0
   -0.0090   -0.7388   -1.9730 H   0  0  0  0  0  0  0  0  0  0  0  0
    1.2610    0.3283   -1.3886 H   0  0  0  0  0  0  0  0  0  0  0  0
    1.5743   -1.7663   -0.9175 C   0  0  0  0  0  0  0  0  0  0  0  0
    1.1085   -2.5143   -0.2710 H   0  0  0  0  0  0  0  0  0  0  0  0
    1.7680   -2.2372   -1.8857 H   0  0  0  0  0  0  0  0  0  0  0  0
    2.9105   -1.2999   -0.3177 C   0  0  0  0  0  0  0  0  0  0  0  0
    2.8716   -0.3975    0.5679 O   0  5  0  0  0  0  0  0  0  0  0  0
    3.9641   -1.8189   -0.7595 O   0  0  0  0  0  0  0  0  0  0  0  0
   -0.2974    1.2212    0.3609 C   0  0  0  0  0  0  0  0  0  0  0  0
   -1.2388    1.8654   -0.0981 O   0  0  0  0  0  0  0  0  0  0  0  0
    0.5824    1.7992    1.2539 N   0  0  0  0  0  0  0  0  0  0  0  0
    1.4386    1.2532    1.4088 H   0  0  0  0  0  0  0  0  0  0  0  0
    0.6237    3.2307    1.5041 C   0  0  0  0  0  0  0  0  0  0  0  0
   -0.3474    3.5859    1.8637 H   0  0  0  0  0  0  0  0  0  0  0  0
    1.3758    3.4554    2.2660 H   0  0  0  0  0  0  0  0  0  0  0  0
    0.8826    3.7708    0.5879 H   0  0  0  0  0  0  0  0  0  0  0  0
  1  2  1  0  0  0  0
  2  3  1  0  0  0  0
  2  4  1  0  0  0  0
  2  5  1  0  0  0  0
  5  6  2  0  0  0  0
  5  7  1  0  0  0  0
  7  8  1  0  0  0  0
  7  9  1  0  0  0  0
  9 10  1  0  0  0  0
  9 11  1  0  0  0  0
  9 20  1  0  0  0  0
 11 12  1  0  0  0  0
 11 13  1  0  0  0  0
 11 14  1  0  0  0  0
 14 15  1  0  0  0  0
 14 16  1  0  0  0  0
 14 17  1  0  0  0  0
 17 18  1  0  0  0  0
 17 19  2  0  0  0  0
 20 21  2  0  0  0  0
 20 22  1  0  0  0  0
 22 23  1  0  0  0  0
 22 24  1  0  0  0  0
 24 25  1  0  0  0  0
 24 26  1  0  0  0  0
 24 27  1  0  0  0  0
M  CHG  1  18  -1
M  END
$$$$

  -OEChem-03222214043D

 27 26  0     1  0  0  0  0  0999 V2000
   -3.2665   -3.6870    1.1872 H   0  0  0  0  0  0  0  0  0  0  0  0
   -3.1785   -2.7685    0.6000 C   0  0  0  0  0  0  0  0  0  0  0  0
   -3.9179   -2.0484    0.9591 H   0  0  0  0  0  0  0  0  0  0  0  0
   -3.3833   -2.9992   -0.4483 H   0  0  0  0  0  0  0  0  0  0  0  0
   -1.7817   -2.1884    0.7373 C   0  0  0  0  0  0  0  0  0  0  0  0
   -0.9610   -2.7680    1.4278 O   0  0  0  0  0  0  0  0  0  0  0  0
   -1.4953   -0.9950    0.1092 N   0  0  0  0  0  0  0  0  0  0  0  0
   -2.2626   -0.5280   -0.3653 H   0  0  0  0  0  0  0  0  0  0  0  0
   -0.2106   -0.2761    0.1289 C   0  0  1  0  0  0  0  0  0  0  0  0
    0.3331   -0.6499    1.0023 H   0  0  0  0  0  0  0  0  0  0  0  0
    0.6507   -0.5377   -1.1225 C   0  0  0  0  0  0  0  0  0  0  0  0
   -0.0092   -0.7255   -1.9747 H   0  0  0  0  0  0  0  0  0  0  0  0
    1.2518    0.3441   -1.3725 H   0  0  0  0  0  0  0  0  0  0  0  0
    1.5899   -1.7403   -0.9292 C   0  0  0  0  0  0  0  0  0  0  0  0
    1.0404   -2.5852   -0.5057 H   0  0  0  0  0  0  0  0  0  0  0  0
    1.9761   -2.0459   -1.9058 H   0  0  0  0  0  0  0  0  0  0  0  0
    2.7851   -1.3909   -0.0180 C   0  0  0  0  0  0  0  0  0  0  0  0
    2.7290   -0.3480    0.6973 O   0  5  0  0  0  0  0  0  0  0  0  0
    3.7794   -2.1535   -0.0769 O   0  0  0  0  0  0  0  0  0  0  0  0
   -0.3139    1.2338    0.3723 C   0  0  0  0  0  0  0  0  0  0  0  0
   -1.2519    1.8839   -0.0857 O   0  0  0  0  0  0  0  0  0  0  0  0
    0.5687    1.7998    1.2693 N   0  0  0  0  0  0  0  0  0  0  0  0
    1.4202    1.2419    1.4203 H   0  0  0  0  0  0  0  0  0  0  0  0
    0.6212    3.2277    1.5351 C   0  0  0  0  0  0  0  0  0  0  0  0
   -0.3508    3.5886    1.8862 H   0  0  0  0  0  0  0  0  0  0  0  0
    1.3658    3.4357    2.3093 H   0  0  0  0  0  0  0  0  0  0  0  0
    0.8974    3.7750    0.6283 H   0  0  0  0  0  0  0  0  0  0  0  0
  1  2  1  0  0  0  0
  2  3  1  0  0  0  0
  2  4  1  0  0  0  0
  2  5  1  0  0  0  0
  5  6  2  0  0  0  0
  5  7  1  0  0  0  0
  7  8  1  0  0  0  0
  7  9  1  0  0  0  0
  9 10  1  0  0  0  0
  9 11  1  0  0  0  0
  9 20  1  0  0  0  0
 11 12  1  0  0  0  0
 11 13  1  0  0  0  0
 11 14  1  0  0  0  0
 14 15  1  0  0  0  0
 14 16  1  0  0  0  0
 14 17  1  0  0  0  0
 17 18  1  0  0  0  0
 17 19  2  0  0  0  0
 20 21  2  0  0  0  0
 20 22  1  0  0  0  0
 22 23  1  0  0  0  0
 22 24  1  0  0  0  0
 24 25  1  0  0  0  0
 24 26  1  0  0  0  0
 24 27  1  0  0  0  0
M  CHG  1  18  -1
M  END
$$$$

  -OEChem-03222214043D

 27 26  0     1  0  0  0  0  0999 V2000
   -3.2569   -3.7004    1.1718 H   0  0  0  0  0  0  0  0  0  0  0  0
   -3.1714   -2.7807    0.5864 C   0  0  0  0  0  0  0  0  0  0  0  0
   -3.9223   -2.0686    0.9372 H   0  0  0  0  0  0  0  0  0  0  0  0
   -3.3613   -3.0131   -0.4643 H   0  0  0  0  0  0  0  0  0  0  0  0
   -1.7821   -2.1871    0.7413 C   0  0  0  0  0  0  0  0  0  0  0  0
   -0.9655   -2.7567    1.4435 O   0  0  0  0  0  0  0  0  0  0  0  0
   -1.4971   -0.9921    0.1159 N   0  0  0  0  0  0  0  0  0  0  0  0
   -2.2614   -0.5324   -0.3704 H   0  0  0  0  0  0  0  0  0  0  0  0
   -0.2170   -0.2655    0.1494 C   0  0  1  0  0  0  0  0  0  0  0  0
    0.3114   -0.6355    1.0320 H   0  0  0  0  0  0  0  0  0  0  0  0
    0.6456   -0.5338   -1.1035 C   0  0  0  0  0  0  0  0  0  0  0  0
   -0.0090   -0.7022   -1.9640 H   0  0  0  0  0  0  0  0  0  0  0  0
    1.2511    0.3506   -1.3312 H   0  0  0  0  0  0  0  0  0  0  0  0
    1.6033   -1.7306   -0.9480 C   0  0  0  0  0  0  0  0  0  0  0  0
    1.0191   -2.6379   -0.7688 H   0  0  0  0  0  0  0  0  0  0  0  0
    2.1584   -1.8638   -1.8807 H   0  0  0  0  0  0  0  0  0  0  0  0
    2.6140   -1.5537    0.2044 C   0  0  0  0  0  0  0  0  0  0  0  0
    2.6947   -0.4273    0.7768 O   0  5  0  0  0  0  0  0  0  0  0  0
    3.3692   -2.5250    0.4476 O   0  0  0  0  0  0  0  0  0  0  0  0
   -0.3279    1.2438    0.3912 C   0  0  0  0  0  0  0  0  0  0  0  0
   -1.2543    1.8951   -0.0877 O   0  0  0  0  0  0  0  0  0  0  0  0
    0.5434    1.8125    1.2976 N   0  0  0  0  0  0  0  0  0  0  0  0
    1.3833    1.2478    1.4798 H   0  0  0  0  0  0  0  0  0  0  0  0
    0.5975    3.2415    1.5564 C   0  0  0  0  0  0  0  0  0  0  0  0
   -0.3772    3.6075    1.8947 H   0  0  0  0  0  0  0  0  0  0  0  0
    1.3345    3.4520    2.3371 H   0  0  0  0  0  0  0  0  0  0  0  0
    0.8848    3.7823    0.6491 H   0  0  0  0  0  0  0  0  0  0  0  0
  1  2  1  0  0  0  0
  2  3  1  0  0  0  0
  2  4  1  0  0  0  0
  2  5  1  0  0  0  0
  5  6  2  0  0  0  0
  5  7  1  0  0  0  0
  7  8  1  0  0  0  0
  7  9  1  0  0  0  0
  9 10  1  0  0  0  0
  9 11  1  0  0  0  0
  9 20  1  0  0  0  0
 11 12  1  0  0  0  0
 11 13  1  0  0  0  0
 11 14  1  0  0  0  0
 14 15  1  0  0  0  0
 14 16  1  0  0  0  0
 14 17  1  0  0  0  0
 17 18  1  0  0  0  0
 17 19  2  0  0  0  0
 20 21  2  0  0  0  0
 20 22  1  0  0  0  0
 22 23  1  0  0  0  0
 22 24  1  0  0  0  0
 24 25  1  0  0  0  0
 24 26  1  0  0  0  0
 24 27  1  0  0  0  0
M  CHG  1  18  -1
M  END
$$$$

  -OEChem-03222214043D

 27 26  0     1  0  0  0  0  0999 V2000
   -3.2411   -3.7174    1.1201 H   0  0  0  0  0  0  0  0  0  0  0  0
   -3.1456   -2.7889    0.5501 C   0  0  0  0  0  0  0  0  0  0  0  0
   -3.9455   -2.1070    0.8486 H   0  0  0  0  0  0  0  0  0  0  0  0
   -3.2478   -3.0174   -0.5136 H   0  0  0  0  0  0  0  0  0  0  0  0
   -1.7940   -2.1483    0.8130 C   0  0  0  0  0  0  0  0  0  0  0  0
   -1.0472   -2.6468    1.6355 O   0  0  0  0  0  0  0  0  0  0  0  0
   -1.4781   -0.9739    0.1649 N   0  0  0  0  0  0  0  0  0  0  0  0
   -2.1935   -0.5702   -0.4320 H   0  0  0  0  0  0  0  0  0  0  0  0
   -0.1927   -0.2586    0.2200 C   0  0  1  0  0  0  0  0  0  0  0  0
    0.3328   -0.6113    1.1101 H   0  0  0  0  0  0  0  0  0  0  0  0
    0.6408   -0.5434   -1.0535 C   0  0  0  0  0  0  0  0  0  0  0  0
   -0.0278   -0.6571   -1.9121 H   0  0  0  0  0  0  0  0  0  0  0  0
    1.2692    0.3313   -1.2546 H   0  0  0  0  0  0  0  0  0  0  0  0
    1.5951   -1.7550   -0.9848 C   0  0  0  0  0  0  0  0  0  0  0  0
    0.9980   -2.6681   -1.0652 H   0  0  0  0  0  0  0  0  0  0  0  0
    2.2755   -1.7219   -1.8401 H   0  0  0  0  0  0  0  0  0  0  0  0
    2.4273   -1.8437    0.3052 C   0  0  0  0  0  0  0  0  0  0  0  0
    2.7106   -0.7620    0.8947 O   0  5  0  0  0  0  0  0  0  0  0  0
    2.8902   -2.9663    0.6189 O   0  0  0  0  0  0  0  0  0  0  0  0
   -0.3255    1.2566    0.4189 C   0  0  0  0  0  0  0  0  0  0  0  0
   -1.2143    1.8947   -0.1416 O   0  0  0  0  0  0  0  0  0  0  0  0
    0.5031    1.8671    1.3386 N   0  0  0  0  0  0  0  0  0  0  0  0
    1.3083    1.3057    1.6317 H   0  0  0  0  0  0  0  0  0  0  0  0
    0.5294    3.3032    1.5627 C   0  0  0  0  0  0  0  0  0  0  0  0
   -0.4580    3.6607    1.8712 H   0  0  0  0  0  0  0  0  0  0  0  0
    1.2461    3.5449    2.3531 H   0  0  0  0  0  0  0  0  0  0  0  0
    0.8276    3.8267    0.6489 H   0  0  0  0  0  0  0  0  0  0  0  0
  1  2  1  0  0  0  0
  2  3  1  0  0  0  0
  2  4  1  0  0  0  0
  2  5  1  0  0  0  0
  5  6  2  0  0  0  0
  5  7  1  0  0  0  0
  7  8  1  0  0  0  0
  7  9  1  0  0  0  0
  9 10  1  0  0  0  0
  9 11  1  0  0  0  0
  9 20  1  0  0  0  0
 11 12  1  0  0  0  0
 11 13  1  0  0  0  0
 11 14  1  0  0  0  0
 14 15  1  0  0  0  0
 14 16  1  0  0  0  0
 14 17  1  0  0  0  0
 17 18  1  0  0  0  0
 17 19  2  0  0  0  0
 20 21  2  0  0  0  0
 20 22  1  0  0  0  0
 22 23  1  0  0  0  0
 22 24  1  0  0  0  0
 24 25  1  0  0  0  0
 24 26  1  0  0  0  0
 24 27  1  0  0  0  0
M  CHG  1  18  -1
M  END
$$$$

  -OEChem-03222214043D

 27 26  0     1  0  0  0  0  0999 V2000
   -3.1532   -3.7427    1.1011 H   0  0  0  0  0  0  0  0  0  0  0  0
   -3.0398   -2.8479    0.4824 C   0  0  0  0  0  0  0  0  0  0  0  0
   -3.9394   -2.2351    0.5768 H   0  0  0  0  0  0  0  0  0  0  0  0
   -2.9229   -3.1552   -0.5598 H   0  0  0  0  0  0  0  0  0  0  0  0
   -1.8229   -2.0553    0.9268 C   0  0  0  0  0  0  0  0  0  0  0  0
   -1.2444   -2.3675    1.9526 O   0  0  0  0  0  0  0  0  0  0  0  0
   -1.4782   -0.9132    0.2367 N   0  0  0  0  0  0  0  0  0  0  0  0
   -2.0640   -0.6671   -0.5544 H   0  0  0  0  0  0  0  0  0  0  0  0
   -0.1733   -0.2371    0.3149 C   0  0  1  0  0  0  0  0  0  0  0  0
    0.3646   -0.5822    1.2010 H   0  0  0  0  0  0  0  0  0  0  0  0
    0.6108   -0.5370   -0.9899 C   0  0  0  0  0  0  0  0  0  0  0  0
   -0.0795   -0.5734   -1.8386 H   0  0  0  0  0  0  0  0  0  0  0  0
    1.2801    0.3118   -1.1678 H   0  0  0  0  0  0  0  0  0  0  0  0
    1.5210   -1.7861   -1.0180 C   0  0  0  0  0  0  0  0  0  0  0  0
    0.9177   -2.6269   -1.3733 H   0  0  0  0  0  0  0  0  0  0  0  0
    2.3221   -1.6257   -1.7448 H   0  0  0  0  0  0  0  0  0  0  0  0
    2.1470   -2.2002    0.3173 C   0  0  0  0  0  0  0  0  0  0  0  0
    2.6620   -1.2841    1.0139 O   0  5  0  0  0  0  0  0  0  0  0  0
    2.2271   -3.4257    0.5724 O   0  0  0  0  0  0  0  0  0  0  0  0
   -0.3094    1.2874    0.4599 C   0  0  0  0  0  0  0  0  0  0  0  0
   -1.1253    1.9207   -0.2066 O   0  0  0  0  0  0  0  0  0  0  0  0
    0.4771    1.9406    1.3882 N   0  0  0  0  0  0  0  0  0  0  0  0
    1.2126    1.3808    1.8209 H   0  0  0  0  0  0  0  0  0  0  0  0
    0.4943    3.3850    1.5545 C   0  0  0  0  0  0  0  0  0  0  0  0
   -0.5034    3.7515    1.8166 H   0  0  0  0  0  0  0  0  0  0  0  0
    1.1853    3.6621    2.3561 H   0  0  0  0  0  0  0  0  0  0  0  0
    0.8203    3.8719    0.6299 H   0  0  0  0  0  0  0  0  0  0  0  0
  1  2  1  0  0  0  0
  2  3  1  0  0  0  0
  2  4  1  0  0  0  0
  2  5  1  0  0  0  0
  5  6  2  0  0  0  0
  5  7  1  0  0  0  0
  7  8  1  0  0  0  0
  7  9  1  0  0  0  0
  9 10  1  0  0  0  0
  9 11  1  0  0  0  0
  9 20  1  0  0  0  0
 11 12  1  0  0  0  0
 11 13  1  0  0  0  0
 11 14  1  0  0  0  0
 14 15  1  0  0  0  0
 14 16  1  0  0  0  0
 14 17  1  0  0  0  0
 17 18  1  0  0  0  0
 17 19  2  0  0  0  0
 20 21  2  0  0  0  0
 20 22  1  0  0  0  0
 22 23  1  0  0  0  0
 22 24  1  0  0  0  0
 24 25  1  0  0  0  0
 24 26  1  0  0  0  0
 24 27  1  0  0  0  0
M  CHG  1  18  -1
M  END
$$$$

  -OEChem-03222214043D

 27 26  0     1  0  0  0  0  0999 V2000
   -0.9771   -3.1126    0.8664 H   0  0  0  0  0  0  0  0  0  0  0  0
   -1.8855   -3.0660    0.2656 C   0  0  0  0  0  0  0  0  0  0  0  0
   -2.5303   -3.8951    0.5684 H   0  0  0  0  0  0  0  0  0  0  0  0
   -1.6409   -3.1948   -0.7889 H   0  0  0  0  0  0  0  0  0  0  0  0
   -2.6000   -1.7444    0.5030 C   0  0  0  0  0  0  0  0  0  0  0  0
   -3.7518   -1.7733    0.9106 O   0  0  0  0  0  0  0  0  0  0  0  0
   -2.1482   -0.4652    0.2562 N   0  0  0  0  0  0  0  0  0  0  0  0
   -2.7821    0.2346    0.6369 H   0  0  0  0  0  0  0  0  0  0  0  0
   -0.8948    0.0808   -0.3100 C   0  0  1  0  0  0  0  0  0  0  0  0
   -1.3024    0.6532   -1.1487 H   0  0  0  0  0  0  0  0  0  0  0  0
    0.0229   -0.8780   -1.1296 C   0  0  0  0  0  0  0  0  0  0  0  0
   -0.6064   -1.5268   -1.7428 H   0  0  0  0  0  0  0  0  0  0  0  0
    0.5436   -0.2220   -1.8352 H   0  0  0  0  0  0  0  0  0  0  0  0
    1.1517   -1.7374   -0.4990 C   0  0  0  0  0  0  0  0  0  0  0  0
    0.8295   -2.7811   -0.4888 H   0  0  0  0  0  0  0  0  0  0  0  0
    2.0203   -1.6969   -1.1637 H   0  0  0  0  0  0  0  0  0  0  0  0
    1.6117   -1.3981    0.9102 C   0  0  0  0  0  0  0  0  0  0  0  0
    2.6858   -0.7572    1.0098 O   0  5  0  0  0  0  0  0  0  0  0  0
    0.8402   -1.6430    1.8635 O   0  0  0  0  0  0  0  0  0  0  0  0
   -0.3409    1.2796    0.5131 C   0  0  0  0  0  0  0  0  0  0  0  0
   -1.1457    2.1800    0.7481 O   0  0  0  0  0  0  0  0  0  0  0  0
    0.9690    1.4935    0.8986 N   0  0  0  0  0  0  0  0  0  0  0  0
    1.5936    0.6799    0.8920 H   0  0  0  0  0  0  0  0  0  0  0  0
    1.3749    2.6094    1.7388 C   0  0  0  0  0  0  0  0  0  0  0  0
    0.8448    2.5797    2.6962 H   0  0  0  0  0  0  0  0  0  0  0  0
    2.4497    2.5533    1.9357 H   0  0  0  0  0  0  0  0  0  0  0  0
    1.1634    3.5618    1.2426 H   0  0  0  0  0  0  0  0  0  0  0  0
  1  2  1  0  0  0  0
  2  3  1  0  0  0  0
  2  4  1  0  0  0  0
  2  5  1  0  0  0  0
  5  6  2  0  0  0  0
  5  7  1  0  0  0  0
  7  8  1  0  0  0  0
  7  9  1  0  0  0  0
  9 10  1  0  0  0  0
  9 11  1  0  0  0  0
  9 20  1  0  0  0  0
 11 12  1  0  0  0  0
 11 13  1  0  0  0  0
 11 14  1  0  0  0  0
 14 15  1  0  0  0  0
 14 16  1  0  0  0  0
 14 17  1  0  0  0  0
 17 18  1  0  0  0  0
 17 19  2  0  0  0  0
 20 21  2  0  0  0  0
 20 22  1  0  0  0  0
 22 23  1  0  0  0  0
 22 24  1  0  0  0  0
 24 25  1  0  0  0  0
 24 26  1  0  0  0  0
 24 27  1  0  0  0  0
M  CHG  1  18  -1
M  END
$$$$

  -OEChem-03222214043D

 27 26  0     1  0  0  0  0  0999 V2000
   -2.9657   -3.7333    1.2127 H   0  0  0  0  0  0  0  0  0  0  0  0
   -2.7459   -2.9858    0.4456 C   0  0  0  0  0  0  0  0  0  0  0  0
   -3.6838   -2.5649    0.0768 H   0  0  0  0  0  0  0  0  0  0  0  0
   -2.2217   -3.4779   -0.3781 H   0  0  0  0  0  0  0  0  0  0  0  0
   -1.8686   -1.8895    1.0224 C   0  0  0  0  0  0  0  0  0  0  0  0
   -1.6418   -1.8467    2.2237 O   0  0  0  0  0  0  0  0  0  0  0  0
   -1.5395   -0.7915    0.2547 N   0  0  0  0  0  0  0  0  0  0  0  0
   -1.9048   -0.8288   -0.6902 H   0  0  0  0  0  0  0  0  0  0  0  0
   -0.1958   -0.2033    0.3610 C   0  0  1  0  0  0  0  0  0  0  0  0
    0.3453   -0.5720    1.2391 H   0  0  0  0  0  0  0  0  0  0  0  0
    0.5629   -0.5149   -0.9607 C   0  0  0  0  0  0  0  0  0  0  0  0
   -0.1459   -0.4873   -1.7949 H   0  0  0  0  0  0  0  0  0  0  0  0
    1.2790    0.2949   -1.1397 H   0  0  0  0  0  0  0  0  0  0  0  0
    1.3822   -1.8231   -1.0480 C   0  0  0  0  0  0  0  0  0  0  0  0
    1.0061   -2.4100   -1.8915 H   0  0  0  0  0  0  0  0  0  0  0  0
    2.4222   -1.5711   -1.2768 H   0  0  0  0  0  0  0  0  0  0  0  0
    1.3755   -2.7112    0.1919 C   0  0  0  0  0  0  0  0  0  0  0  0
    2.1329   -2.3847    1.1393 O   0  5  0  0  0  0  0  0  0  0  0  0
    0.6054   -3.7031    0.1875 O   0  0  0  0  0  0  0  0  0  0  0  0
   -0.2740    1.3338    0.4571 C   0  0  0  0  0  0  0  0  0  0  0  0
   -0.9585    1.9974   -0.3186 O   0  0  0  0  0  0  0  0  0  0  0  0
    0.5015    1.9868    1.3962 N   0  0  0  0  0  0  0  0  0  0  0  0
    1.0450    1.4013    2.0263 H   0  0  0  0  0  0  0  0  0  0  0  0
    0.5233    3.4311    1.5669 C   0  0  0  0  0  0  0  0  0  0  0  0
   -0.4757    3.8013    1.8184 H   0  0  0  0  0  0  0  0  0  0  0  0
    1.2081    3.7031    2.3756 H   0  0  0  0  0  0  0  0  0  0  0  0
    0.8616    3.9192    0.6473 H   0  0  0  0  0  0  0  0  0  0  0  0
  1  2  1  0  0  0  0
  2  3  1  0  0  0  0
  2  4  1  0  0  0  0
  2  5  1  0  0  0  0
  5  6  2  0  0  0  0
  5  7  1  0  0  0  0
  7  8  1  0  0  0  0
  7  9  1  0  0  0  0
  9 10  1  0  0  0  0
  9 11  1  0  0  0  0
  9 20  1  0  0  0  0
 11 12  1  0  0  0  0
 11 13  1  0  0  0  0
 11 14  1  0  0  0  0
 14 15  1  0  0  0  0
 14 16  1  0  0  0  0
 14 17  1  0  0  0  0
 17 18  1  0  0  0  0
 17 19  2  0  0  0  0
 20 21  2  0  0  0  0
 20 22  1  0  0  0  0
 22 23  1  0  0  0  0
 22 24  1  0  0  0  0
 24 25  1  0  0  0  0
 24 26  1  0  0  0  0
 24 27  1  0  0  0  0
M  CHG  1  18  -1
M  END
$$$$

  -OEChem-03222214043D

 27 26  0     1  0  0  0  0  0999 V2000
   -2.8100   -3.8578    1.2607 H   0  0  0  0  0  0  0  0  0  0  0  0
   -2.7441   -3.0319    0.5475 C   0  0  0  0  0  0  0  0  0  0  0  0
   -3.7366   -2.5993    0.4047 H   0  0  0  0  0  0  0  0  0  0  0  0
   -2.3822   -3.4262   -0.4056 H   0  0  0  0  0  0  0  0  0  0  0  0
   -1.7821   -1.9765    1.0629 C   0  0  0  0  0  0  0  0  0  0  0  0
   -1.4721   -1.9527    2.2467 O   0  0  0  0  0  0  0  0  0  0  0  0
   -1.5025   -0.8641    0.2957 N   0  0  0  0  0  0  0  0  0  0  0  0
   -1.9132   -0.8960   -0.6309 H   0  0  0  0  0  0  0  0  0  0  0  0
   -0.1765   -0.2280    0.3537 C   0  0  1  0  0  0  0  0  0  0  0  0
    0.4152   -0.5910    1.2020 H   0  0  0  0  0  0  0  0  0  0  0  0
    0.5604   -0.4850   -0.9923 C   0  0  0  0  0  0  0  0  0  0  0  0
   -0.1867   -0.5019   -1.7929 H   0  0  0  0  0  0  0  0  0  0  0  0
    1.2209    0.3629   -1.2049 H   0  0  0  0  0  0  0  0  0  0  0  0
    1.4335   -1.7525   -1.1222 C   0  0  0  0  0  0  0  0  0  0  0  0
    1.2704   -2.1952   -2.1093 H   0  0  0  0  0  0  0  0  0  0  0  0
    2.4843   -1.4496   -1.0812 H   0  0  0  0  0  0  0  0  0  0  0  0
    1.2264   -2.8276   -0.0612 C   0  0  0  0  0  0  0  0  0  0  0  0
    1.9243   -2.7540    0.9793 O   0  5  0  0  0  0  0  0  0  0  0  0
    0.3687   -3.7145   -0.2981 O   0  0  0  0  0  0  0  0  0  0  0  0
   -0.3180    1.3045    0.4611 C   0  0  0  0  0  0  0  0  0  0  0  0
   -1.0567    1.9419   -0.2861 O   0  0  0  0  0  0  0  0  0  0  0  0
    0.4625    1.9892    1.3738 N   0  0  0  0  0  0  0  0  0  0  0  0
    1.0201    1.4247    2.0096 H   0  0  0  0  0  0  0  0  0  0  0  0
    0.3968    3.4289    1.5729 C   0  0  0  0  0  0  0  0  0  0  0  0
   -0.6077    3.7249    1.8923 H   0  0  0  0  0  0  0  0  0  0  0  0
    1.1106    3.7339    2.3438 H   0  0  0  0  0  0  0  0  0  0  0  0
    0.6441    3.9552    0.6453 H   0  0  0  0  0  0  0  0  0  0  0  0
  1  2  1  0  0  0  0
  2  3  1  0  0  0  0
  2  4  1  0  0  0  0
  2  5  1  0  0  0  0
  5  6  2  0  0  0  0
  5  7  1  0  0  0  0
  7  8  1  0  0  0  0
  7  9  1  0  0  0  0
  9 10  1  0  0  0  0
  9 11  1  0  0  0  0
  9 20  1  0  0  0  0
 11 12  1  0  0  0  0
 11 13  1  0  0  0  0
 11 14  1  0  0  0  0
 14 15  1  0  0  0  0
 14 16  1  0  0  0  0
 14 17  1  0  0  0  0
 17 18  1  0  0  0  0
 17 19  2  0  0  0  0
 20 21  2  0  0  0  0
 20 22  1  0  0  0  0
 22 23  1  0  0  0  0
 22 24  1  0  0  0  0
 24 25  1  0  0  0  0
 24 26  1  0  0  0  0
 24 27  1  0  0  0  0
M  CHG  1  18  -1
M  END
$$$$

  -OEChem-03222214043D

 27 26  0     1  0  0  0  0  0999 V2000
   -2.6449   -3.9934    1.2407 H   0  0  0  0  0  0  0  0  0  0  0  0
   -2.7340   -3.0745    0.6551 C   0  0  0  0  0  0  0  0  0  0  0  0
   -3.7305   -2.6507    0.7974 H   0  0  0  0  0  0  0  0  0  0  0  0
   -2.5975   -3.3235   -0.4004 H   0  0  0  0  0  0  0  0  0  0  0  0
   -1.6751   -2.0777    1.0927 C   0  0  0  0  0  0  0  0  0  0  0  0
   -1.2180   -2.1323    2.2275 O   0  0  0  0  0  0  0  0  0  0  0  0
   -1.4768   -0.9183    0.3700 N   0  0  0  0  0  0  0  0  0  0  0  0
   -1.9676   -0.9098   -0.5178 H   0  0  0  0  0  0  0  0  0  0  0  0
   -0.1641   -0.2523    0.3493 C   0  0  1  0  0  0  0  0  0  0  0  0
    0.5071   -0.6527    1.1179 H   0  0  0  0  0  0  0  0  0  0  0  0
    0.4807   -0.3948   -1.0596 C   0  0  0  0  0  0  0  0  0  0  0  0
   -0.3266   -0.3980   -1.7995 H   0  0  0  0  0  0  0  0  0  0  0  0
    1.0961    0.4864   -1.2723 H   0  0  0  0  0  0  0  0  0  0  0  0
    1.3745   -1.6225   -1.3263 C   0  0  0  0  0  0  0  0  0  0  0  0
    1.3653   -1.8471   -2.3969 H   0  0  0  0  0  0  0  0  0  0  0  0
    2.4028   -1.3541   -1.0658 H   0  0  0  0  0  0  0  0  0  0  0  0
    1.0197   -2.8870   -0.5531 C   0  0  0  0  0  0  0  0  0  0  0  0
    1.7360   -3.1888    0.4311 O   0  5  0  0  0  0  0  0  0  0  0  0
    0.0305   -3.5484   -0.9583 O   0  0  0  0  0  0  0  0  0  0  0  0
   -0.3364    1.2676    0.5552 C   0  0  0  0  0  0  0  0  0  0  0  0
   -1.1513    1.9239   -0.0890 O   0  0  0  0  0  0  0  0  0  0  0  0
    0.5028    1.9251    1.4358 N   0  0  0  0  0  0  0  0  0  0  0  0
    1.1156    1.3437    2.0006 H   0  0  0  0  0  0  0  0  0  0  0  0
    0.4149    3.3490    1.7220 C   0  0  0  0  0  0  0  0  0  0  0  0
   -0.5666    3.5950    2.1397 H   0  0  0  0  0  0  0  0  0  0  0  0
    1.1825    3.6341    2.4475 H   0  0  0  0  0  0  0  0  0  0  0  0
    0.5686    3.9327    0.8087 H   0  0  0  0  0  0  0  0  0  0  0  0
  1  2  1  0  0  0  0
  2  3  1  0  0  0  0
  2  4  1  0  0  0  0
  2  5  1  0  0  0  0
  5  6  2  0  0  0  0
  5  7  1  0  0  0  0
  7  8  1  0  0  0  0
  7  9  1  0  0  0  0
  9 10  1  0  0  0  0
  9 11  1  0  0  0  0
  9 20  1  0  0  0  0
 11 12  1  0  0  0  0
 11 13  1  0  0  0  0
 11 14  1  0  0  0  0
 14 15  1  0  0  0  0
 14 16  1  0  0  0  0
 14 17  1  0  0  0  0
 17 18  1  0  0  0  0
 17 19  2  0  0  0  0
 20 21  2  0  0  0  0
 20 22  1  0  0  0  0
 22 23  1  0  0  0  0
 22 24  1  0  0  0  0
 24 25  1  0  0  0  0
 24 26  1  0  0  0  0
 24 27  1  0  0  0  0
M  CHG  1  18  -1
M  END
$$$$

  -OEChem-03222214043D

 27 26  0     1  0  0  0  0  0999 V2000
   -2.8369   -3.8652    1.0618 H   0  0  0  0  0  0  0  0  0  0  0  0
   -2.9252   -2.9033    0.5499 C   0  0  0  0  0  0  0  0  0  0  0  0
   -3.8979   -2.4607    0.7747 H   0  0  0  0  0  0  0  0  0  0  0  0
   -2.8522   -3.0777   -0.5264 H   0  0  0  0  0  0  0  0  0  0  0  0
   -1.8130   -1.9747    1.0043 C   0  0  0  0  0  0  0  0  0  0  0  0
   -1.4014   -2.0395    2.1567 O   0  0  0  0  0  0  0  0  0  0  0  0
   -1.4927   -0.8555    0.2612 N   0  0  0  0  0  0  0  0  0  0  0  0
   -1.9012   -0.8675   -0.6685 H   0  0  0  0  0  0  0  0  0  0  0  0
   -0.1448   -0.2676    0.3297 C   0  0  1  0  0  0  0  0  0  0  0  0
    0.4343   -0.6755    1.1652 H   0  0  0  0  0  0  0  0  0  0  0  0
    0.6180   -0.4951   -1.0056 C   0  0  0  0  0  0  0  0  0  0  0  0
   -0.1090   -0.4780   -1.8247 H   0  0  0  0  0  0  0  0  0  0  0  0
    1.3093    0.3367   -1.1793 H   0  0  0  0  0  0  0  0  0  0  0  0
    1.4516   -1.7848   -1.1252 C   0  0  0  0  0  0  0  0  0  0  0  0
    1.7437   -1.9231   -2.1700 H   0  0  0  0  0  0  0  0  0  0  0  0
    2.3693   -1.6563   -0.5433 H   0  0  0  0  0  0  0  0  0  0  0  0
    0.7531   -3.0524   -0.6423 C   0  0  0  0  0  0  0  0  0  0  0  0
   -0.2977   -3.3907   -1.2452 O   0  5  0  0  0  0  0  0  0  0  0  0
    1.2862   -3.6997    0.2895 O   0  0  0  0  0  0  0  0  0  0  0  0
   -0.2463    1.2666    0.4717 C   0  0  0  0  0  0  0  0  0  0  0  0
   -0.9682    1.9437   -0.2559 O   0  0  0  0  0  0  0  0  0  0  0  0
    0.5535    1.9101    1.3986 N   0  0  0  0  0  0  0  0  0  0  0  0
    1.0792    1.3187    2.0355 H   0  0  0  0  0  0  0  0  0  0  0  0
    0.5145    3.3455    1.6357 C   0  0  0  0  0  0  0  0  0  0  0  0
   -0.4770    3.6477    1.9881 H   0  0  0  0  0  0  0  0  0  0  0  0
    1.2523    3.6210    2.3951 H   0  0  0  0  0  0  0  0  0  0  0  0
    0.7461    3.8917    0.7155 H   0  0  0  0  0  0  0  0  0  0  0  0
  1  2  1  0  0  0  0
  2  3  1  0  0  0  0
  2  4  1  0  0  0  0
  2  5  1  0  0  0  0
  5  6  2  0  0  0  0
  5  7  1  0  0  0  0
  7  8  1  0  0  0  0
  7  9  1  0  0  0  0
  9 10  1  0  0  0  0
  9 11  1  0  0  0  0
  9 20  1  0  0  0  0
 11 12  1  0  0  0  0
 11 13  1  0  0  0  0
 11 14  1  0  0  0  0
 14 15  1  0  0  0  0
 14 16  1  0  0  0  0
 14 17  1  0  0  0  0
 17 18  1  0  0  0  0
 17 19  2  0  0  0  0
 20 21  2  0  0  0  0
 20 22  1  0  0  0  0
 22 23  1  0  0  0  0
 22 24  1  0  0  0  0
 24 25  1  0  0  0  0
 24 26  1  0  0  0  0
 24 27  1  0  0  0  0
M  CHG  1  18  -1
M  END
$$$$

  -OEChem-03222214043D

 27 26  0     1  0  0  0  0  0999 V2000
   -2.8757   -3.8257    1.1497 H   0  0  0  0  0  0  0  0  0  0  0  0
   -2.9309   -2.8876    0.5913 C   0  0  0  0  0  0  0  0  0  0  0  0
   -3.8908   -2.4055    0.7878 H   0  0  0  0  0  0  0  0  0  0  0  0
   -2.8591   -3.1162   -0.4748 H   0  0  0  0  0  0  0  0  0  0  0  0
   -1.7941   -1.9704    1.0069 C   0  0  0  0  0  0  0  0  0  0  0  0
   -1.3280   -2.0565    2.1375 O   0  0  0  0  0  0  0  0  0  0  0  0
   -1.4835   -0.8576    0.2497 N   0  0  0  0  0  0  0  0  0  0  0  0
   -1.8916   -0.8901   -0.6811 H   0  0  0  0  0  0  0  0  0  0  0  0
   -0.1367   -0.2672    0.3058 C   0  0  1  0  0  0  0  0  0  0  0  0
    0.4468   -0.6630    1.1432 H   0  0  0  0  0  0  0  0  0  0  0  0
    0.6124   -0.5266   -1.0277 C   0  0  0  0  0  0  0  0  0  0  0  0
   -0.1055   -0.5114   -1.8552 H   0  0  0  0  0  0  0  0  0  0  0  0
    1.3204    0.2894   -1.2083 H   0  0  0  0  0  0  0  0  0  0  0  0
    1.4284   -1.8310   -1.0851 C   0  0  0  0  0  0  0  0  0  0  0  0
    1.9231   -1.8948   -2.0583 H   0  0  0  0  0  0  0  0  0  0  0  0
    2.2077   -1.7963   -0.3179 H   0  0  0  0  0  0  0  0  0  0  0  0
    0.5924   -3.0964   -0.8904 C   0  0  0  0  0  0  0  0  0  0  0  0
   -0.4723   -3.1961   -1.5541 O   0  5  0  0  0  0  0  0  0  0  0  0
    1.0380   -3.9788   -0.1194 O   0  0  0  0  0  0  0  0  0  0  0  0
   -0.2304    1.2692    0.4325 C   0  0  0  0  0  0  0  0  0  0  0  0
   -0.9520    1.9435   -0.2971 O   0  0  0  0  0  0  0  0  0  0  0  0
    0.5774    1.9186    1.3487 N   0  0  0  0  0  0  0  0  0  0  0  0
    1.1066    1.3324    1.9872 H   0  0  0  0  0  0  0  0  0  0  0  0
    0.5524    3.3576    1.5663 C   0  0  0  0  0  0  0  0  0  0  0  0
   -0.4362    3.6744    1.9143 H   0  0  0  0  0  0  0  0  0  0  0  0
    1.2925    3.6357    2.3226 H   0  0  0  0  0  0  0  0  0  0  0  0
    0.7898    3.8895    0.6391 H   0  0  0  0  0  0  0  0  0  0  0  0
  1  2  1  0  0  0  0
  2  3  1  0  0  0  0
  2  4  1  0  0  0  0
  2  5  1  0  0  0  0
  5  6  2  0  0  0  0
  5  7  1  0  0  0  0
  7  8  1  0  0  0  0
  7  9  1  0  0  0  0
  9 10  1  0  0  0  0
  9 11  1  0  0  0  0
  9 20  1  0  0  0  0
 11 12  1  0  0  0  0
 11 13  1  0  0  0  0
 11 14  1  0  0  0  0
 14 15  1  0  0  0  0
 14 16  1  0  0  0  0
 14 17  1  0  0  0  0
 17 18  1  0  0  0  0
 17 19  2  0  0  0  0
 20 21  2  0  0  0  0
 20 22  1  0  0  0  0
 22 23  1  0  0  0  0
 22 24  1  0  0  0  0
 24 25  1  0  0  0  0
 24 26  1  0  0  0  0
 24 27  1  0  0  0  0
M  CHG  1  18  -1
M  END
$$$$

  -OEChem-03222214043D

 27 26  0     1  0  0  0  0  0999 V2000
   -2.8727   -3.8212    1.1458 H   0  0  0  0  0  0  0  0  0  0  0  0
   -2.9007   -2.8997    0.5583 C   0  0  0  0  0  0  0  0  0  0  0  0
   -3.8571   -2.3981    0.7207 H   0  0  0  0  0  0  0  0  0  0  0  0
   -2.8114   -3.1614   -0.4989 H   0  0  0  0  0  0  0  0  0  0  0  0
   -1.7587   -1.9864    0.9685 C   0  0  0  0  0  0  0  0  0  0  0  0
   -1.2456   -2.1159    2.0745 O   0  0  0  0  0  0  0  0  0  0  0  0
   -1.4639   -0.8622    0.2225 N   0  0  0  0  0  0  0  0  0  0  0  0
   -1.8742   -0.8900   -0.7087 H   0  0  0  0  0  0  0  0  0  0  0  0
   -0.1263   -0.2535    0.2828 C   0  0  1  0  0  0  0  0  0  0  0  0
    0.4631   -0.6443    1.1176 H   0  0  0  0  0  0  0  0  0  0  0  0
    0.6015   -0.5309   -1.0537 C   0  0  0  0  0  0  0  0  0  0  0  0
   -0.1071   -0.5061   -1.8890 H   0  0  0  0  0  0  0  0  0  0  0  0
    1.3218    0.2742   -1.2336 H   0  0  0  0  0  0  0  0  0  0  0  0
    1.4086   -1.8432   -1.0583 C   0  0  0  0  0  0  0  0  0  0  0  0
    2.0848   -1.8298   -1.9175 H   0  0  0  0  0  0  0  0  0  0  0  0
    2.0210   -1.9017   -0.1535 H   0  0  0  0  0  0  0  0  0  0  0  0
    0.5397   -3.1019   -1.1729 C   0  0  0  0  0  0  0  0  0  0  0  0
   -0.5462   -3.0269   -1.8060 O   0  5  0  0  0  0  0  0  0  0  0  0
    0.9850   -4.1510   -0.6500 O   0  0  0  0  0  0  0  0  0  0  0  0
   -0.2266    1.2809    0.4226 C   0  0  0  0  0  0  0  0  0  0  0  0
   -0.9624    1.9565   -0.2907 O   0  0  0  0  0  0  0  0  0  0  0  0
    0.5794    1.9270    1.3429 N   0  0  0  0  0  0  0  0  0  0  0  0
    1.1198    1.3387    1.9696 H   0  0  0  0  0  0  0  0  0  0  0  0
    0.5350    3.3619    1.5834 C   0  0  0  0  0  0  0  0  0  0  0  0
   -0.4619    3.6622    1.9220 H   0  0  0  0  0  0  0  0  0  0  0  0
    1.2606    3.6359    2.3549 H   0  0  0  0  0  0  0  0  0  0  0  0
    0.7795    3.9110    0.6683 H   0  0  0  0  0  0  0  0  0  0  0  0
  1  2  1  0  0  0  0
  2  3  1  0  0  0  0
  2  4  1  0  0  0  0
  2  5  1  0  0  0  0
  5  6  2  0  0  0  0
  5  7  1  0  0  0  0
  7  8  1  0  0  0  0
  7  9  1  0  0  0  0
  9 10  1  0  0  0  0
  9 11  1  0  0  0  0
  9 20  1  0  0  0  0
 11 12  1  0  0  0  0
 11 13  1  0  0  0  0
 11 14  1  0  0  0  0
 14 15  1  0  0  0  0
 14 16  1  0  0  0  0
 14 17  1  0  0  0  0
 17 18  1  0  0  0  0
 17 19  2  0  0  0  0
 20 21  2  0  0  0  0
 20 22  1  0  0  0  0
 22 23  1  0  0  0  0
 22 24  1  0  0  0  0
 24 25  1  0  0  0  0
 24 26  1  0  0  0  0
 24 27  1  0  0  0  0
M  CHG  1  18  -1
M  END
$$$$

  -OEChem-03222214043D

 27 26  0     1  0  0  0  0  0999 V2000
   -2.9039   -3.8071    1.1089 H   0  0  0  0  0  0  0  0  0  0  0  0
   -2.9149   -2.8828    0.5254 C   0  0  0  0  0  0  0  0  0  0  0  0
   -3.8600   -2.3623    0.6944 H   0  0  0  0  0  0  0  0  0  0  0  0
   -2.8362   -3.1410   -0.5336 H   0  0  0  0  0  0  0  0  0  0  0  0
   -1.7534   -1.9932    0.9331 C   0  0  0  0  0  0  0  0  0  0  0  0
   -1.2067   -2.1700    2.0167 O   0  0  0  0  0  0  0  0  0  0  0  0
   -1.4557   -0.8632    0.1979 N   0  0  0  0  0  0  0  0  0  0  0  0
   -1.8627   -0.8834   -0.7353 H   0  0  0  0  0  0  0  0  0  0  0  0
   -0.1237   -0.2460    0.2716 C   0  0  1  0  0  0  0  0  0  0  0  0
    0.4569   -0.6287    1.1155 H   0  0  0  0  0  0  0  0  0  0  0  0
    0.6077   -0.5405   -1.0569 C   0  0  0  0  0  0  0  0  0  0  0  0
   -0.0845   -0.5093   -1.9055 H   0  0  0  0  0  0  0  0  0  0  0  0
    1.3363    0.2590   -1.2282 H   0  0  0  0  0  0  0  0  0  0  0  0
    1.4117   -1.8576   -1.0238 C   0  0  0  0  0  0  0  0  0  0  0  0
    2.2594   -1.7541   -1.7072 H   0  0  0  0  0  0  0  0  0  0  0  0
    1.8152   -2.0306   -0.0220 H   0  0  0  0  0  0  0  0  0  0  0  0
    0.6183   -3.0953   -1.4721 C   0  0  0  0  0  0  0  0  0  0  0  0
   -0.5774   -2.9639   -1.8459 O   0  5  0  0  0  0  0  0  0  0  0  0
    1.2371   -4.1864   -1.4514 O   0  0  0  0  0  0  0  0  0  0  0  0
   -0.2294    1.2874    0.4170 C   0  0  0  0  0  0  0  0  0  0  0  0
   -0.9682    1.9620   -0.2939 O   0  0  0  0  0  0  0  0  0  0  0  0
    0.5667    1.9345    1.3454 N   0  0  0  0  0  0  0  0  0  0  0  0
    1.1238    1.3496    1.9602 H   0  0  0  0  0  0  0  0  0  0  0  0
    0.5184    3.3694    1.5854 C   0  0  0  0  0  0  0  0  0  0  0  0
   -0.4820    3.6682    1.9146 H   0  0  0  0  0  0  0  0  0  0  0  0
    1.2362    3.6446    2.3636 H   0  0  0  0  0  0  0  0  0  0  0  0
    0.7710    3.9187    0.6727 H   0  0  0  0  0  0  0  0  0  0  0  0
  1  2  1  0  0  0  0
  2  3  1  0  0  0  0
  2  4  1  0  0  0  0
  2  5  1  0  0  0  0
  5  6  2  0  0  0  0
  5  7  1  0  0  0  0
  7  8  1  0  0  0  0
  7  9  1  0  0  0  0
  9 10  1  0  0  0  0
  9 11  1  0  0  0  0
  9 20  1  0  0  0  0
 11 12  1  0  0  0  0
 11 13  1  0  0  0  0
 11 14  1  0  0  0  0
 14 15  1  0  0  0  0
 14 16  1  0  0  0  0
 14 17  1  0  0  0  0
 17 18  1  0  0  0  0
 17 19  2  0  0  0  0
 20 21  2  0  0  0  0
 20 22  1  0  0  0  0
 22 23  1  0  0  0  0
 22 24  1  0  0  0  0
 24 25  1  0  0  0  0
 24 26  1  0  0  0  0
 24 27  1  0  0  0  0
M  CHG  1  18  -1
M  END
$$$$

  -OEChem-03222214043D

 27 26  0     1  0  0  0  0  0999 V2000
   -2.9302   -3.7975    1.0596 H   0  0  0  0  0  0  0  0  0  0  0  0
   -2.9320   -2.8674    0.4854 C   0  0  0  0  0  0  0  0  0  0  0  0
   -3.8737   -2.3413    0.6558 H   0  0  0  0  0  0  0  0  0  0  0  0
   -2.8507   -3.1151   -0.5760 H   0  0  0  0  0  0  0  0  0  0  0  0
   -1.7645   -1.9916    0.9060 C   0  0  0  0  0  0  0  0  0  0  0  0
   -1.2236   -2.1827    1.9904 O   0  0  0  0  0  0  0  0  0  0  0  0
   -1.4520   -0.8628    0.1753 N   0  0  0  0  0  0  0  0  0  0  0  0
   -1.8603   -0.8652   -0.7567 H   0  0  0  0  0  0  0  0  0  0  0  0
   -0.1215   -0.2459    0.2665 C   0  0  1  0  0  0  0  0  0  0  0  0
    0.4422   -0.6216    1.1251 H   0  0  0  0  0  0  0  0  0  0  0  0
    0.6327   -0.5578   -1.0445 C   0  0  0  0  0  0  0  0  0  0  0  0
   -0.0500   -0.5466   -1.9017 H   0  0  0  0  0  0  0  0  0  0  0  0
    1.3604    0.2413   -1.2213 H   0  0  0  0  0  0  0  0  0  0  0  0
    1.4326   -1.8764   -0.9760 C   0  0  0  0  0  0  0  0  0  0  0  0
    2.4242   -1.7039   -1.4053 H   0  0  0  0  0  0  0  0  0  0  0  0
    1.5756   -2.1940    0.0603 H   0  0  0  0  0  0  0  0  0  0  0  0
    0.7631   -3.0155   -1.7570 C   0  0  0  0  0  0  0  0  0  0  0  0
   -0.4936   -3.0901   -1.7570 O   0  5  0  0  0  0  0  0  0  0  0  0
    1.5225   -3.8190   -2.3512 O   0  0  0  0  0  0  0  0  0  0  0  0
   -0.2261    1.2874    0.4070 C   0  0  0  0  0  0  0  0  0  0  0  0
   -0.9614    1.9592   -0.3098 O   0  0  0  0  0  0  0  0  0  0  0  0
    0.5580    1.9358    1.3446 N   0  0  0  0  0  0  0  0  0  0  0  0
    1.1194    1.3533    1.9577 H   0  0  0  0  0  0  0  0  0  0  0  0
    0.5164    3.3724    1.5743 C   0  0  0  0  0  0  0  0  0  0  0  0
   -0.4832    3.6782    1.8996 H   0  0  0  0  0  0  0  0  0  0  0  0
    1.2344    3.6493    2.3519 H   0  0  0  0  0  0  0  0  0  0  0  0
    0.7728    3.9140    0.6581 H   0  0  0  0  0  0  0  0  0  0  0  0
  1  2  1  0  0  0  0
  2  3  1  0  0  0  0
  2  4  1  0  0  0  0
  2  5  1  0  0  0  0
  5  6  2  0  0  0  0
  5  7  1  0  0  0  0
  7  8  1  0  0  0  0
  7  9  1  0  0  0  0
  9 10  1  0  0  0  0
  9 11  1  0  0  0  0
  9 20  1  0  0  0  0
 11 12  1  0  0  0  0
 11 13  1  0  0  0  0
 11 14  1  0  0  0  0
 14 15  1  0  0  0  0
 14 16  1  0  0  0  0
 14 17  1  0  0  0  0
 17 18  1  0  0  0  0
 17 19  2  0  0  0  0
 20 21  2  0  0  0  0
 20 22  1  0  0  0  0
 22 23  1  0  0  0  0
 22 24  1  0  0  0  0
 24 25  1  0  0  0  0
 24 26  1  0  0  0  0
 24 27  1  0  0  0  0
M  CHG  1  18  -1
M  END
$$$$

  -OEChem-03222214043D

 27 26  0     1  0  0  0  0  0999 V2000
   -2.9322   -3.7811    1.0315 H   0  0  0  0  0  0  0  0  0  0  0  0
   -2.8771   -2.8870    0.4053 C   0  0  0  0  0  0  0  0  0  0  0  0
   -3.8337   -2.3614    0.4463 H   0  0  0  0  0  0  0  0  0  0  0  0
   -2.6837   -3.1958   -0.6257 H   0  0  0  0  0  0  0  0  0  0  0  0
   -1.7618   -1.9768    0.8867 C   0  0  0  0  0  0  0  0  0  0  0  0
   -1.2327   -2.1786    1.9742 O   0  0  0  0  0  0  0  0  0  0  0  0
   -1.4438   -0.8442    0.1662 N   0  0  0  0  0  0  0  0  0  0  0  0
   -1.8623   -0.8175   -0.7604 H   0  0  0  0  0  0  0  0  0  0  0  0
   -0.1149   -0.2257    0.2687 C   0  0  1  0  0  0  0  0  0  0  0  0
    0.4458   -0.6041    1.1283 H   0  0  0  0  0  0  0  0  0  0  0  0
    0.6203   -0.5672   -1.0412 C   0  0  0  0  0  0  0  0  0  0  0  0
   -0.0801   -0.5767   -1.8845 H   0  0  0  0  0  0  0  0  0  0  0  0
    1.3497    0.2206   -1.2569 H   0  0  0  0  0  0  0  0  0  0  0  0
    1.3996   -1.8951   -0.9362 C   0  0  0  0  0  0  0  0  0  0  0  0
    2.4645   -1.7041   -1.0997 H   0  0  0  0  0  0  0  0  0  0  0  0
    1.2950   -2.3406    0.0570 H   0  0  0  0  0  0  0  0  0  0  0  0
    0.8986   -2.9049   -1.9718 C   0  0  0  0  0  0  0  0  0  0  0  0
   -0.3249   -3.2008   -1.9463 O   0  5  0  0  0  0  0  0  0  0  0  0
    1.7322   -3.3763   -2.7834 O   0  0  0  0  0  0  0  0  0  0  0  0
   -0.2093    1.3072    0.4156 C   0  0  0  0  0  0  0  0  0  0  0  0
   -0.9438    1.9819   -0.2989 O   0  0  0  0  0  0  0  0  0  0  0  0
    0.5722    1.9504    1.3589 N   0  0  0  0  0  0  0  0  0  0  0  0
    1.1368    1.3664    1.9677 H   0  0  0  0  0  0  0  0  0  0  0  0
    0.5386    3.3877    1.5866 C   0  0  0  0  0  0  0  0  0  0  0  0
   -0.4588    3.6998    1.9130 H   0  0  0  0  0  0  0  0  0  0  0  0
    1.2596    3.6623    2.3623 H   0  0  0  0  0  0  0  0  0  0  0  0
    0.7964    3.9265    0.6691 H   0  0  0  0  0  0  0  0  0  0  0  0
  1  2  1  0  0  0  0
  2  3  1  0  0  0  0
  2  4  1  0  0  0  0
  2  5  1  0  0  0  0
  5  6  2  0  0  0  0
  5  7  1  0  0  0  0
  7  8  1  0  0  0  0
  7  9  1  0  0  0  0
  9 10  1  0  0  0  0
  9 11  1  0  0  0  0
  9 20  1  0  0  0  0
 11 12  1  0  0  0  0
 11 13  1  0  0  0  0
 11 14  1  0  0  0  0
 14 15  1  0  0  0  0
 14 16  1  0  0  0  0
 14 17  1  0  0  0  0
 17 18  1  0  0  0  0
 17 19  2  0  0  0  0
 20 21  2  0  0  0  0
 20 22  1  0  0  0  0
 22 23  1  0  0  0  0
 22 24  1  0  0  0  0
 24 25  1  0  0  0  0
 24 26  1  0  0  0  0
 24 27  1  0  0  0  0
M  CHG  1  18  -1
M  END
$$$$

  -OEChem-03222214043D

 27 26  0     1  0  0  0  0  0999 V2000
   -2.9929   -3.7404    1.0352 H   0  0  0  0  0  0  0  0  0  0  0  0
   -2.8526   -2.8947    0.3568 C   0  0  0  0  0  0  0  0  0  0  0  0
   -3.7978   -2.3558    0.2597 H   0  0  0  0  0  0  0  0  0  0  0  0
   -2.5563   -3.2773   -0.6245 H   0  0  0  0  0  0  0  0  0  0  0  0
   -1.7744   -1.9670    0.8859 C   0  0  0  0  0  0  0  0  0  0  0  0
   -1.2302   -2.2019    1.9580 O   0  0  0  0  0  0  0  0  0  0  0  0
   -1.4518   -0.8286    0.1785 N   0  0  0  0  0  0  0  0  0  0  0  0
   -1.9041   -0.7516   -0.7290 H   0  0  0  0  0  0  0  0  0  0  0  0
   -0.1206   -0.2131    0.2708 C   0  0  1  0  0  0  0  0  0  0  0  0
    0.4462   -0.6006    1.1228 H   0  0  0  0  0  0  0  0  0  0  0  0
    0.6015   -0.5620   -1.0428 C   0  0  0  0  0  0  0  0  0  0  0  0
   -0.1202   -0.5938   -1.8675 H   0  0  0  0  0  0  0  0  0  0  0  0
    1.3246    0.2216   -1.2923 H   0  0  0  0  0  0  0  0  0  0  0  0
    1.3720   -1.8920   -0.9233 C   0  0  0  0  0  0  0  0  0  0  0  0
    2.4408   -1.6927   -0.8006 H   0  0  0  0  0  0  0  0  0  0  0  0
    1.0406   -2.4569   -0.0472 H   0  0  0  0  0  0  0  0  0  0  0  0
    1.1351   -2.7663   -2.1544 C   0  0  0  0  0  0  0  0  0  0  0  0
   -0.0292   -3.2137   -2.3224 O   0  5  0  0  0  0  0  0  0  0  0  0
    2.1032   -2.9754   -2.9258 O   0  0  0  0  0  0  0  0  0  0  0  0
   -0.2075    1.3182    0.4330 C   0  0  0  0  0  0  0  0  0  0  0  0
   -0.9662    1.9958   -0.2528 O   0  0  0  0  0  0  0  0  0  0  0  0
    0.5866    1.9527    1.3713 N   0  0  0  0  0  0  0  0  0  0  0  0
    1.1896    1.3673    1.9406 H   0  0  0  0  0  0  0  0  0  0  0  0
    0.5707    3.3902    1.6004 C   0  0  0  0  0  0  0  0  0  0  0  0
   -0.4208    3.7133    1.9338 H   0  0  0  0  0  0  0  0  0  0  0  0
    1.2996    3.6562    2.3716 H   0  0  0  0  0  0  0  0  0  0  0  0
    0.8284    3.9267    0.6815 H   0  0  0  0  0  0  0  0  0  0  0  0
  1  2  1  0  0  0  0
  2  3  1  0  0  0  0
  2  4  1  0  0  0  0
  2  5  1  0  0  0  0
  5  6  2  0  0  0  0
  5  7  1  0  0  0  0
  7  8  1  0  0  0  0
  7  9  1  0  0  0  0
  9 10  1  0  0  0  0
  9 11  1  0  0  0  0
  9 20  1  0  0  0  0
 11 12  1  0  0  0  0
 11 13  1  0  0  0  0
 11 14  1  0  0  0  0
 14 15  1  0  0  0  0
 14 16  1  0  0  0  0
 14 17  1  0  0  0  0
 17 18  1  0  0  0  0
 17 19  2  0  0  0  0
 20 21  2  0  0  0  0
 20 22  1  0  0  0  0
 22 23  1  0  0  0  0
 22 24  1  0  0  0  0
 24 25  1  0  0  0  0
 24 26  1  0  0  0  0
 24 27  1  0  0  0  0
M  CHG  1  18  -1
M  END
$$$$

  -OEChem-03222214043D

 27 26  0     1  0  0  0  0  0999 V2000
   -3.1062   -3.6934    1.0647 H   0  0  0  0  0  0  0  0  0  0  0  0
   -2.9531   -2.8433    0.3942 C   0  0  0  0  0  0  0  0  0  0  0  0
   -3.8649   -2.2418    0.3699 H   0  0  0  0  0  0  0  0  0  0  0  0
   -2.7471   -3.2214   -0.6112 H   0  0  0  0  0  0  0  0  0  0  0  0
   -1.7842   -2.0003    0.8711 C   0  0  0  0  0  0  0  0  0  0  0  0
   -1.1804   -2.3094    1.8898 O   0  0  0  0  0  0  0  0  0  0  0  0
   -1.4479   -0.8557    0.1806 N   0  0  0  0  0  0  0  0  0  0  0  0
   -1.9665   -0.6877   -0.6774 H   0  0  0  0  0  0  0  0  0  0  0  0
   -0.1175   -0.2356    0.2591 C   0  0  1  0  0  0  0  0  0  0  0  0
    0.4516   -0.6266    1.1079 H   0  0  0  0  0  0  0  0  0  0  0  0
    0.6259   -0.5589   -1.0493 C   0  0  0  0  0  0  0  0  0  0  0  0
   -0.0953   -0.6129   -1.8729 H   0  0  0  0  0  0  0  0  0  0  0  0
    1.3330    0.2400   -1.2973 H   0  0  0  0  0  0  0  0  0  0  0  0
    1.4151   -1.8746   -0.9350 C   0  0  0  0  0  0  0  0  0  0  0  0
    2.4115   -1.6798   -0.5277 H   0  0  0  0  0  0  0  0  0  0  0  0
    0.9081   -2.5617   -0.2514 H   0  0  0  0  0  0  0  0  0  0  0  0
    1.5205   -2.5664   -2.2930 C   0  0  0  0  0  0  0  0  0  0  0  0
    0.4912   -3.1405   -2.7310 O   0  5  0  0  0  0  0  0  0  0  0  0
    2.6182   -2.4994   -2.8990 O   0  0  0  0  0  0  0  0  0  0  0  0
   -0.2158    1.2930    0.4356 C   0  0  0  0  0  0  0  0  0  0  0  0
   -1.0176    1.9612   -0.2095 O   0  0  0  0  0  0  0  0  0  0  0  0
    0.5856    1.9272    1.3675 N   0  0  0  0  0  0  0  0  0  0  0  0
    1.2442    1.3509    1.8820 H   0  0  0  0  0  0  0  0  0  0  0  0
    0.5673    3.3638    1.6002 C   0  0  0  0  0  0  0  0  0  0  0  0
   -0.4190    3.6805    1.9541 H   0  0  0  0  0  0  0  0  0  0  0  0
    1.3098    3.6314    2.3577 H   0  0  0  0  0  0  0  0  0  0  0  0
    0.8041    3.9039    0.6778 H   0  0  0  0  0  0  0  0  0  0  0  0
  1  2  1  0  0  0  0
  2  3  1  0  0  0  0
  2  4  1  0  0  0  0
  2  5  1  0  0  0  0
  5  6  2  0  0  0  0
  5  7  1  0  0  0  0
  7  8  1  0  0  0  0
  7  9  1  0  0  0  0
  9 10  1  0  0  0  0
  9 11  1  0  0  0  0
  9 20  1  0  0  0  0
 11 12  1  0  0  0  0
 11 13  1  0  0  0  0
 11 14  1  0  0  0  0
 14 15  1  0  0  0  0
 14 16  1  0  0  0  0
 14 17  1  0  0  0  0
 17 18  1  0  0  0  0
 17 19  2  0  0  0  0
 20 21  2  0  0  0  0
 20 22  1  0  0  0  0
 22 23  1  0  0  0  0
 22 24  1  0  0  0  0
 24 25  1  0  0  0  0
 24 26  1  0  0  0  0
 24 27  1  0  0  0  0
M  CHG  1  18  -1
M  END
$$$$

  -OEChem-03222214043D

 27 26  0     1  0  0  0  0  0999 V2000
   -3.2058   -3.6329    1.1194 H   0  0  0  0  0  0  0  0  0  0  0  0
   -3.0407   -2.7843    0.4497 C   0  0  0  0  0  0  0  0  0  0  0  0
   -3.9032   -2.1158    0.5062 H   0  0  0  0  0  0  0  0  0  0  0  0
   -2.9437   -3.1571   -0.5734 H   0  0  0  0  0  0  0  0  0  0  0  0
   -1.7786   -2.0395    0.8459 C   0  0  0  0  0  0  0  0  0  0  0  0
   -1.1170   -2.4252    1.7995 O   0  0  0  0  0  0  0  0  0  0  0  0
   -1.4319   -0.8883    0.1721 N   0  0  0  0  0  0  0  0  0  0  0  0
   -2.0138   -0.6280   -0.6197 H   0  0  0  0  0  0  0  0  0  0  0  0
   -0.1037   -0.2627    0.2434 C   0  0  1  0  0  0  0  0  0  0  0  0
    0.4677   -0.6559    1.0901 H   0  0  0  0  0  0  0  0  0  0  0  0
    0.6524   -0.5613   -1.0635 C   0  0  0  0  0  0  0  0  0  0  0  0
   -0.0579   -0.6198   -1.8961 H   0  0  0  0  0  0  0  0  0  0  0  0
    1.3529    0.2494   -1.2925 H   0  0  0  0  0  0  0  0  0  0  0  0
    1.4553   -1.8661   -0.9586 C   0  0  0  0  0  0  0  0  0  0  0  0
    2.3299   -1.7188   -0.3182 H   0  0  0  0  0  0  0  0  0  0  0  0
    0.8399   -2.6489   -0.5056 H   0  0  0  0  0  0  0  0  0  0  0  0
    1.8929   -2.3410   -2.3428 C   0  0  0  0  0  0  0  0  0  0  0  0
    1.0574   -2.9775   -3.0325 O   0  5  0  0  0  0  0  0  0  0  0  0
    3.0507   -2.0341   -2.7206 O   0  0  0  0  0  0  0  0  0  0  0  0
   -0.2194    1.2629    0.4349 C   0  0  0  0  0  0  0  0  0  0  0  0
   -1.0584    1.9184   -0.1753 O   0  0  0  0  0  0  0  0  0  0  0  0
    0.5816    1.9005    1.3647 N   0  0  0  0  0  0  0  0  0  0  0  0
    1.2881    1.3387    1.8296 H   0  0  0  0  0  0  0  0  0  0  0  0
    0.5469    3.3355    1.6060 C   0  0  0  0  0  0  0  0  0  0  0  0
   -0.4526    3.6459    1.9271 H   0  0  0  0  0  0  0  0  0  0  0  0
    1.2600    3.6015    2.3918 H   0  0  0  0  0  0  0  0  0  0  0  0
    0.8130    3.8823    0.6957 H   0  0  0  0  0  0  0  0  0  0  0  0
  1  2  1  0  0  0  0
  2  3  1  0  0  0  0
  2  4  1  0  0  0  0
  2  5  1  0  0  0  0
  5  6  2  0  0  0  0
  5  7  1  0  0  0  0
  7  8  1  0  0  0  0
  7  9  1  0  0  0  0
  9 10  1  0  0  0  0
  9 11  1  0  0  0  0
  9 20  1  0  0  0  0
 11 12  1  0  0  0  0
 11 13  1  0  0  0  0
 11 14  1  0  0  0  0
 14 15  1  0  0  0  0
 14 16  1  0  0  0  0
 14 17  1  0  0  0  0
 17 18  1  0  0  0  0
 17 19  2  0  0  0  0
 20 21  2  0  0  0  0
 20 22  1  0  0  0  0
 22 23  1  0  0  0  0
 22 24  1  0  0  0  0
 24 25  1  0  0  0  0
 24 26  1  0  0  0  0
 24 27  1  0  0  0  0
M  CHG  1  18  -1
M  END
$$$$

  -OEChem-03222214043D

 27 26  0     1  0  0  0  0  0999 V2000
   -3.2714   -3.5944    1.1362 H   0  0  0  0  0  0  0  0  0  0  0  0
   -3.0721   -2.7720    0.4436 C   0  0  0  0  0  0  0  0  0  0  0  0
   -3.9196   -2.0825    0.4601 H   0  0  0  0  0  0  0  0  0  0  0  0
   -2.9631   -3.1797   -0.5648 H   0  0  0  0  0  0  0  0  0  0  0  0
   -1.8008   -2.0444    0.8422 C   0  0  0  0  0  0  0  0  0  0  0  0
   -1.1293   -2.4568    1.7772 O   0  0  0  0  0  0  0  0  0  0  0  0
   -1.4450   -0.8915    0.1758 N   0  0  0  0  0  0  0  0  0  0  0  0
   -2.0429   -0.6007   -0.5929 H   0  0  0  0  0  0  0  0  0  0  0  0
   -0.1132   -0.2721    0.2429 C   0  0  1  0  0  0  0  0  0  0  0  0
    0.4564   -0.6773    1.0846 H   0  0  0  0  0  0  0  0  0  0  0  0
    0.6491   -0.5643   -1.0593 C   0  0  0  0  0  0  0  0  0  0  0  0
    0.0068   -0.3594   -1.9227 H   0  0  0  0  0  0  0  0  0  0  0  0
    1.5163    0.1021   -1.1294 H   0  0  0  0  0  0  0  0  0  0  0  0
    1.1493   -2.0164   -1.1152 C   0  0  0  0  0  0  0  0  0  0  0  0
    1.8142   -2.2175   -0.2703 H   0  0  0  0  0  0  0  0  0  0  0  0
    0.3041   -2.7071   -1.0443 H   0  0  0  0  0  0  0  0  0  0  0  0
    1.9033   -2.2813   -2.4174 C   0  0  0  0  0  0  0  0  0  0  0  0
    1.3463   -3.0059   -3.2792 O   0  5  0  0  0  0  0  0  0  0  0  0
    3.0213   -1.7257   -2.5610 O   0  0  0  0  0  0  0  0  0  0  0  0
   -0.2131    1.2533    0.4431 C   0  0  0  0  0  0  0  0  0  0  0  0
   -1.0658    1.9146   -0.1417 O   0  0  0  0  0  0  0  0  0  0  0  0
    0.5999    1.8790    1.3706 N   0  0  0  0  0  0  0  0  0  0  0  0
    1.3250    1.3152    1.8035 H   0  0  0  0  0  0  0  0  0  0  0  0
    0.5752    3.3125    1.6228 C   0  0  0  0  0  0  0  0  0  0  0  0
   -0.4081    3.6181    1.9948 H   0  0  0  0  0  0  0  0  0  0  0  0
    1.3261    3.5746    2.3741 H   0  0  0  0  0  0  0  0  0  0  0  0
    0.7956    3.8667    0.7046 H   0  0  0  0  0  0  0  0  0  0  0  0
  1  2  1  0  0  0  0
  2  3  1  0  0  0  0
  2  4  1  0  0  0  0
  2  5  1  0  0  0  0
  5  6  2  0  0  0  0
  5  7  1  0  0  0  0
  7  8  1  0  0  0  0
  7  9  1  0  0  0  0
  9 10  1  0  0  0  0
  9 11  1  0  0  0  0
  9 20  1  0  0  0  0
 11 12  1  0  0  0  0
 11 13  1  0  0  0  0
 11 14  1  0  0  0  0
 14 15  1  0  0  0  0
 14 16  1  0  0  0  0
 14 17  1  0  0  0  0
 17 18  1  0  0  0  0
 17 19  2  0  0  0  0
 20 21  2  0  0  0  0
 20 22  1  0  0  0  0
 22 23  1  0  0  0  0
 22 24  1  0  0  0  0
 24 25  1  0  0  0  0
 24 26  1  0  0  0  0
 24 27  1  0  0  0  0
M  CHG  1  18  -1
M  END
$$$$

  -OEChem-03222214043D

 27 26  0     1  0  0  0  0  0999 V2000
   -3.2539   -3.6278    1.1112 H   0  0  0  0  0  0  0  0  0  0  0  0
   -3.0985   -2.7530    0.4736 C   0  0  0  0  0  0  0  0  0  0  0  0
   -3.9287   -2.0574    0.6184 H   0  0  0  0  0  0  0  0  0  0  0  0
   -3.0812   -3.0769   -0.5703 H   0  0  0  0  0  0  0  0  0  0  0  0
   -1.7862   -2.0743    0.8230 C   0  0  0  0  0  0  0  0  0  0  0  0
   -1.0877   -2.5255    1.7189 O   0  0  0  0  0  0  0  0  0  0  0  0
   -1.4325   -0.9136    0.1698 N   0  0  0  0  0  0  0  0  0  0  0  0
   -2.0609   -0.5761   -0.5543 H   0  0  0  0  0  0  0  0  0  0  0  0
   -0.1056   -0.2852    0.2389 C   0  0  1  0  0  0  0  0  0  0  0  0
    0.4689   -0.6916    1.0769 H   0  0  0  0  0  0  0  0  0  0  0  0
    0.6559   -0.5549   -1.0681 C   0  0  0  0  0  0  0  0  0  0  0  0
    0.0231   -0.3371   -1.9350 H   0  0  0  0  0  0  0  0  0  0  0  0
    1.5175    0.1206   -1.1142 H   0  0  0  0  0  0  0  0  0  0  0  0
    1.1684   -2.0023   -1.1440 C   0  0  0  0  0  0  0  0  0  0  0  0
    1.6258   -2.2913   -0.1932 H   0  0  0  0  0  0  0  0  0  0  0  0
    0.3322   -2.6829   -1.3298 H   0  0  0  0  0  0  0  0  0  0  0  0
    2.2167   -2.1552   -2.2456 C   0  0  0  0  0  0  0  0  0  0  0  0
    1.8841   -2.7692   -3.2896 O   0  5  0  0  0  0  0  0  0  0  0  0
    3.3391   -1.6226   -2.0529 O   0  0  0  0  0  0  0  0  0  0  0  0
   -0.2233    1.2366    0.4531 C   0  0  0  0  0  0  0  0  0  0  0  0
   -1.0910    1.8887   -0.1204 O   0  0  0  0  0  0  0  0  0  0  0  0
    0.5834    1.8647    1.3841 N   0  0  0  0  0  0  0  0  0  0  0  0
    1.3336    1.3118    1.7883 H   0  0  0  0  0  0  0  0  0  0  0  0
    0.5546    3.2990    1.6307 C   0  0  0  0  0  0  0  0  0  0  0  0
   -0.4424    3.6116    1.9574 H   0  0  0  0  0  0  0  0  0  0  0  0
    1.2717    3.5598    2.4146 H   0  0  0  0  0  0  0  0  0  0  0  0
    0.8187    3.8485    0.7214 H   0  0  0  0  0  0  0  0  0  0  0  0
  1  2  1  0  0  0  0
  2  3  1  0  0  0  0
  2  4  1  0  0  0  0
  2  5  1  0  0  0  0
  5  6  2  0  0  0  0
  5  7  1  0  0  0  0
  7  8  1  0  0  0  0
  7  9  1  0  0  0  0
  9 10  1  0  0  0  0
  9 11  1  0  0  0  0
  9 20  1  0  0  0  0
 11 12  1  0  0  0  0
 11 13  1  0  0  0  0
 11 14  1  0  0  0  0
 14 15  1  0  0  0  0
 14 16  1  0  0  0  0
 14 17  1  0  0  0  0
 17 18  1  0  0  0  0
 17 19  2  0  0  0  0
 20 21  2  0  0  0  0
 20 22  1  0  0  0  0
 22 23  1  0  0  0  0
 22 24  1  0  0  0  0
 24 25  1  0  0  0  0
 24 26  1  0  0  0  0
 24 27  1  0  0  0  0
M  CHG  1  18  -1
M  END
$$$$

  -OEChem-03222214043D

 27 26  0     1  0  0  0  0  0999 V2000
   -3.2527   -3.6350    1.1058 H   0  0  0  0  0  0  0  0  0  0  0  0
   -3.1016   -2.7525    0.4780 C   0  0  0  0  0  0  0  0  0  0  0  0
   -3.9232   -2.0526    0.6490 H   0  0  0  0  0  0  0  0  0  0  0  0
   -3.1069   -3.0612   -0.5704 H   0  0  0  0  0  0  0  0  0  0  0  0
   -1.7772   -2.0897    0.8123 C   0  0  0  0  0  0  0  0  0  0  0  0
   -1.0671   -2.5602    1.6883 O   0  0  0  0  0  0  0  0  0  0  0  0
   -1.4271   -0.9223    0.1695 N   0  0  0  0  0  0  0  0  0  0  0  0
   -2.0754   -0.5561   -0.5222 H   0  0  0  0  0  0  0  0  0  0  0  0
   -0.1034   -0.2867    0.2371 C   0  0  1  0  0  0  0  0  0  0  0  0
    0.4768   -0.6945    1.0711 H   0  0  0  0  0  0  0  0  0  0  0  0
    0.6547   -0.5410   -1.0749 C   0  0  0  0  0  0  0  0  0  0  0  0
    0.0227   -0.3161   -1.9403 H   0  0  0  0  0  0  0  0  0  0  0  0
    1.5074    0.1465   -1.1104 H   0  0  0  0  0  0  0  0  0  0  0  0
    1.1789   -1.9865   -1.1687 C   0  0  0  0  0  0  0  0  0  0  0  0
    1.4056   -2.3746   -0.1715 H   0  0  0  0  0  0  0  0  0  0  0  0
    0.4074   -2.6298   -1.6021 H   0  0  0  0  0  0  0  0  0  0  0  0
    2.4617   -2.0665   -1.9975 C   0  0  0  0  0  0  0  0  0  0  0  0
    2.4061   -2.6493   -3.1086 O   0  5  0  0  0  0  0  0  0  0  0  0
    3.4887   -1.5120   -1.5292 O   0  0  0  0  0  0  0  0  0  0  0  0
   -0.2304    1.2322    0.4643 C   0  0  0  0  0  0  0  0  0  0  0  0
   -1.1125    1.8792   -0.0937 O   0  0  0  0  0  0  0  0  0  0  0  0
    0.5766    1.8583    1.3963 N   0  0  0  0  0  0  0  0  0  0  0  0
    1.3501    1.3142    1.7683 H   0  0  0  0  0  0  0  0  0  0  0  0
    0.5388    3.2906    1.6523 C   0  0  0  0  0  0  0  0  0  0  0  0
   -0.4615    3.5960    1.9761 H   0  0  0  0  0  0  0  0  0  0  0  0
    1.2503    3.5497    2.4419 H   0  0  0  0  0  0  0  0  0  0  0  0
    0.8045    3.8472    0.7479 H   0  0  0  0  0  0  0  0  0  0  0  0
  1  2  1  0  0  0  0
  2  3  1  0  0  0  0
  2  4  1  0  0  0  0
  2  5  1  0  0  0  0
  5  6  2  0  0  0  0
  5  7  1  0  0  0  0
  7  8  1  0  0  0  0
  7  9  1  0  0  0  0
  9 10  1  0  0  0  0
  9 11  1  0  0  0  0
  9 20  1  0  0  0  0
 11 12  1  0  0  0  0
 11 13  1  0  0  0  0
 11 14  1  0  0  0  0
 14 15  1  0  0  0  0
 14 16  1  0  0  0  0
 14 17  1  0  0  0  0
 17 18  1  0  0  0  0
 17 19  2  0  0  0  0
 20 21  2  0  0  0  0
 20 22  1  0  0  0  0
 22 23  1  0  0  0  0
 22 24  1  0  0  0  0
 24 25  1  0  0  0  0
 24 26  1  0  0  0  0
 24 27  1  0  0  0  0
M  CHG  1  18  -1
M  END
$$$$

  -OEChem-03222214043D

 27 26  0     1  0  0  0  0  0999 V2000
   -3.2548   -3.6426    1.1161 H   0  0  0  0  0  0  0  0  0  0  0  0
   -3.1036   -2.7615    0.4863 C   0  0  0  0  0  0  0  0  0  0  0  0
   -3.9179   -2.0552    0.6658 H   0  0  0  0  0  0  0  0  0  0  0  0
   -3.1224   -3.0705   -0.5620 H   0  0  0  0  0  0  0  0  0  0  0  0
   -1.7705   -2.1092    0.8066 C   0  0  0  0  0  0  0  0  0  0  0  0
   -1.0497   -2.5945    1.6649 O   0  0  0  0  0  0  0  0  0  0  0  0
   -1.4271   -0.9355    0.1715 N   0  0  0  0  0  0  0  0  0  0  0  0
   -2.0915   -0.5522   -0.4949 H   0  0  0  0  0  0  0  0  0  0  0  0
   -0.1080   -0.2890    0.2360 C   0  0  1  0  0  0  0  0  0  0  0  0
    0.4789   -0.6968    1.0655 H   0  0  0  0  0  0  0  0  0  0  0  0
    0.6530   -0.5260   -1.0777 C   0  0  0  0  0  0  0  0  0  0  0  0
    0.0105   -0.3080   -1.9370 H   0  0  0  0  0  0  0  0  0  0  0  0
    1.4897    0.1803   -1.1199 H   0  0  0  0  0  0  0  0  0  0  0  0
    1.1959   -1.9663   -1.1854 C   0  0  0  0  0  0  0  0  0  0  0  0
    1.1726   -2.4633   -0.2114 H   0  0  0  0  0  0  0  0  0  0  0  0
    0.5576   -2.5452   -1.8595 H   0  0  0  0  0  0  0  0  0  0  0  0
    2.6425   -1.9924   -1.6825 C   0  0  0  0  0  0  0  0  0  0  0  0
    2.8754   -2.5515   -2.7825 O   0  5  0  0  0  0  0  0  0  0  0  0
    3.5078   -1.4188   -0.9719 O   0  0  0  0  0  0  0  0  0  0  0  0
   -0.2434    1.2272    0.4727 C   0  0  0  0  0  0  0  0  0  0  0  0
   -1.1355    1.8701   -0.0748 O   0  0  0  0  0  0  0  0  0  0  0  0
    0.5656    1.8514    1.4039 N   0  0  0  0  0  0  0  0  0  0  0  0
    1.3548    1.3123    1.7515 H   0  0  0  0  0  0  0  0  0  0  0  0
    0.5276    3.2834    1.6620 C   0  0  0  0  0  0  0  0  0  0  0  0
   -0.4729    3.5881    1.9857 H   0  0  0  0  0  0  0  0  0  0  0  0
    1.2387    3.5416    2.4523 H   0  0  0  0  0  0  0  0  0  0  0  0
    0.7932    3.8414    0.7584 H   0  0  0  0  0  0  0  0  0  0  0  0
  1  2  1  0  0  0  0
  2  3  1  0  0  0  0
  2  4  1  0  0  0  0
  2  5  1  0  0  0  0
  5  6  2  0  0  0  0
  5  7  1  0  0  0  0
  7  8  1  0  0  0  0
  7  9  1  0  0  0  0
  9 10  1  0  0  0  0
  9 11  1  0  0  0  0
  9 20  1  0  0  0  0
 11 12  1  0  0  0  0
 11 13  1  0  0  0  0
 11 14  1  0  0  0  0
 14 15  1  0  0  0  0
 14 16  1  0  0  0  0
 14 17  1  0  0  0  0
 17 18  1  0  0  0  0
 17 19  2  0  0  0  0
 20 21  2  0  0  0  0
 20 22  1  0  0  0  0
 22 23  1  0  0  0  0
 22 24  1  0  0  0  0
 24 25  1  0  0  0  0
 24 26  1  0  0  0  0
 24 27  1  0  0  0  0
M  CHG  1  18  -1
M  END
$$$$

  -OEChem-03222214043D

 27 26  0     1  0  0  0  0  0999 V2000
   -3.2176   -3.6639    1.2265 H   0  0  0  0  0  0  0  0  0  0  0  0
   -3.0923   -2.7856    0.5872 C   0  0  0  0  0  0  0  0  0  0  0  0
   -3.9121   -2.0890    0.7789 H   0  0  0  0  0  0  0  0  0  0  0  0
   -3.1293   -3.1029   -0.4579 H   0  0  0  0  0  0  0  0  0  0  0  0
   -1.7622   -2.1124    0.8746 C   0  0  0  0  0  0  0  0  0  0  0  0
   -1.0366   -2.5593    1.7488 O   0  0  0  0  0  0  0  0  0  0  0  0
   -1.4329   -0.9596    0.1952 N   0  0  0  0  0  0  0  0  0  0  0  0
   -2.1095   -0.6025   -0.4733 H   0  0  0  0  0  0  0  0  0  0  0  0
   -0.1234   -0.2894    0.2280 C   0  0  1  0  0  0  0  0  0  0  0  0
    0.4711   -0.6582    1.0714 H   0  0  0  0  0  0  0  0  0  0  0  0
    0.6515   -0.5607   -1.0711 C   0  0  0  0  0  0  0  0  0  0  0  0
   -0.0088   -0.4048   -1.9303 H   0  0  0  0  0  0  0  0  0  0  0  0
    1.4646    0.1687   -1.1628 H   0  0  0  0  0  0  0  0  0  0  0  0
    1.2275   -1.9911   -1.1218 C   0  0  0  0  0  0  0  0  0  0  0  0
    0.9638   -2.5536   -0.2223 H   0  0  0  0  0  0  0  0  0  0  0  0
    0.8003   -2.5226   -1.9773 H   0  0  0  0  0  0  0  0  0  0  0  0
    2.7523   -1.9650   -1.2439 C   0  0  0  0  0  0  0  0  0  0  0  0
    3.3906   -1.3797   -0.3305 O   0  5  0  0  0  0  0  0  0  0  0  0
    3.2740   -2.5025   -2.2518 O   0  0  0  0  0  0  0  0  0  0  0  0
   -0.2734    1.2323    0.4054 C   0  0  0  0  0  0  0  0  0  0  0  0
   -1.1714    1.8452   -0.1670 O   0  0  0  0  0  0  0  0  0  0  0  0
    0.5359    1.8966    1.3075 N   0  0  0  0  0  0  0  0  0  0  0  0
    1.3366    1.3758    1.6591 H   0  0  0  0  0  0  0  0  0  0  0  0
    0.5035    3.3391    1.4955 C   0  0  0  0  0  0  0  0  0  0  0  0
   -0.4916    3.6615    1.8181 H   0  0  0  0  0  0  0  0  0  0  0  0
    1.2265    3.6333    2.2620 H   0  0  0  0  0  0  0  0  0  0  0  0
    0.7577    3.8516    0.5621 H   0  0  0  0  0  0  0  0  0  0  0  0
  1  2  1  0  0  0  0
  2  3  1  0  0  0  0
  2  4  1  0  0  0  0
  2  5  1  0  0  0  0
  5  6  2  0  0  0  0
  5  7  1  0  0  0  0
  7  8  1  0  0  0  0
  7  9  1  0  0  0  0
  9 10  1  0  0  0  0
  9 11  1  0  0  0  0
  9 20  1  0  0  0  0
 11 12  1  0  0  0  0
 11 13  1  0  0  0  0
 11 14  1  0  0  0  0
 14 15  1  0  0  0  0
 14 16  1  0  0  0  0
 14 17  1  0  0  0  0
 17 18  1  0  0  0  0
 17 19  2  0  0  0  0
 20 21  2  0  0  0  0
 20 22  1  0  0  0  0
 22 23  1  0  0  0  0
 22 24  1  0  0  0  0
 24 25  1  0  0  0  0
 24 26  1  0  0  0  0
 24 27  1  0  0  0  0
M  CHG  1  18  -1
M  END
$$$$

  -OEChem-03222214043D

 27 26  0     1  0  0  0  0  0999 V2000
   -3.2321   -3.6802    1.1825 H   0  0  0  0  0  0  0  0  0  0  0  0
   -3.1256   -2.7687    0.5876 C   0  0  0  0  0  0  0  0  0  0  0  0
   -3.9318   -2.0791    0.8496 H   0  0  0  0  0  0  0  0  0  0  0  0
   -3.2062   -3.0282   -0.4709 H   0  0  0  0  0  0  0  0  0  0  0  0
   -1.7798   -2.1197    0.8585 C   0  0  0  0  0  0  0  0  0  0  0  0
   -1.0479   -2.5900    1.7139 O   0  0  0  0  0  0  0  0  0  0  0  0
   -1.4472   -0.9640    0.1853 N   0  0  0  0  0  0  0  0  0  0  0  0
   -2.1377   -0.5854   -0.4565 H   0  0  0  0  0  0  0  0  0  0  0  0
   -0.1373   -0.2918    0.2112 C   0  0  1  0  0  0  0  0  0  0  0  0
    0.4550   -0.6650    1.0549 H   0  0  0  0  0  0  0  0  0  0  0  0
    0.6533   -0.5606   -1.0794 C   0  0  0  0  0  0  0  0  0  0  0  0
   -0.0175   -0.4297   -1.9344 H   0  0  0  0  0  0  0  0  0  0  0  0
    1.4558    0.1773   -1.1942 H   0  0  0  0  0  0  0  0  0  0  0  0
    1.2392   -1.9857   -1.1145 C   0  0  0  0  0  0  0  0  0  0  0  0
    0.7558   -2.6376   -0.3830 H   0  0  0  0  0  0  0  0  0  0  0  0
    1.0683   -2.4171   -2.1053 H   0  0  0  0  0  0  0  0  0  0  0  0
    2.7463   -1.9480   -0.8425 C   0  0  0  0  0  0  0  0  0  0  0  0
    3.1350   -1.2851    0.1564 O   0  5  0  0  0  0  0  0  0  0  0  0
    3.5054   -2.5510   -1.6406 O   0  0  0  0  0  0  0  0  0  0  0  0
   -0.2730    1.2287    0.3958 C   0  0  0  0  0  0  0  0  0  0  0  0
   -1.1737    1.8524   -0.1611 O   0  0  0  0  0  0  0  0  0  0  0  0
    0.5530    1.8751    1.2951 N   0  0  0  0  0  0  0  0  0  0  0  0
    1.3571    1.3409    1.6223 H   0  0  0  0  0  0  0  0  0  0  0  0
    0.5377    3.3149    1.5015 C   0  0  0  0  0  0  0  0  0  0  0  0
   -0.4527    3.6441    1.8316 H   0  0  0  0  0  0  0  0  0  0  0  0
    1.2663    3.5909    2.2695 H   0  0  0  0  0  0  0  0  0  0  0  0
    0.7946    3.8364    0.5739 H   0  0  0  0  0  0  0  0  0  0  0  0
  1  2  1  0  0  0  0
  2  3  1  0  0  0  0
  2  4  1  0  0  0  0
  2  5  1  0  0  0  0
  5  6  2  0  0  0  0
  5  7  1  0  0  0  0
  7  8  1  0  0  0  0
  7  9  1  0  0  0  0
  9 10  1  0  0  0  0
  9 11  1  0  0  0  0
  9 20  1  0  0  0  0
 11 12  1  0  0  0  0
 11 13  1  0  0  0  0
 11 14  1  0  0  0  0
 14 15  1  0  0  0  0
 14 16  1  0  0  0  0
 14 17  1  0  0  0  0
 17 18  1  0  0  0  0
 17 19  2  0  0  0  0
 20 21  2  0  0  0  0
 20 22  1  0  0  0  0
 22 23  1  0  0  0  0
 22 24  1  0  0  0  0
 24 25  1  0  0  0  0
 24 26  1  0  0  0  0
 24 27  1  0  0  0  0
M  CHG  1  18  -1
M  END
$$$$

  -OEChem-03222214043D

 27 26  0     1  0  0  0  0  0999 V2000
   -3.2533   -3.6805    1.1691 H   0  0  0  0  0  0  0  0  0  0  0  0
   -3.1453   -2.7632    0.5836 C   0  0  0  0  0  0  0  0  0  0  0  0
   -3.9372   -2.0665    0.8689 H   0  0  0  0  0  0  0  0  0  0  0  0
   -3.2488   -3.0085   -0.4762 H   0  0  0  0  0  0  0  0  0  0  0  0
   -1.7864   -2.1348    0.8378 C   0  0  0  0  0  0  0  0  0  0  0  0
   -1.0440   -2.6296    1.6693 O   0  0  0  0  0  0  0  0  0  0  0  0
   -1.4570   -0.9716    0.1758 N   0  0  0  0  0  0  0  0  0  0  0  0
   -2.1617   -0.5725   -0.4371 H   0  0  0  0  0  0  0  0  0  0  0  0
   -0.1519   -0.2893    0.2034 C   0  0  1  0  0  0  0  0  0  0  0  0
    0.4307   -0.6649    1.0523 H   0  0  0  0  0  0  0  0  0  0  0  0
    0.6521   -0.5503   -1.0830 C   0  0  0  0  0  0  0  0  0  0  0  0
   -0.0175   -0.4287   -1.9401 H   0  0  0  0  0  0  0  0  0  0  0  0
    1.4505    0.1920   -1.1961 H   0  0  0  0  0  0  0  0  0  0  0  0
    1.2561   -1.9659   -1.1176 C   0  0  0  0  0  0  0  0  0  0  0  0
    0.6121   -2.6838   -0.6048 H   0  0  0  0  0  0  0  0  0  0  0  0
    1.3441   -2.2845   -2.1606 H   0  0  0  0  0  0  0  0  0  0  0  0
    2.6562   -1.9806   -0.4852 C   0  0  0  0  0  0  0  0  0  0  0  0
    2.8870   -1.1903    0.4709 O   0  5  0  0  0  0  0  0  0  0  0  0
    3.5046   -2.7594   -0.9854 O   0  0  0  0  0  0  0  0  0  0  0  0
   -0.2828    1.2281    0.3994 C   0  0  0  0  0  0  0  0  0  0  0  0
   -1.1812    1.8603   -0.1519 O   0  0  0  0  0  0  0  0  0  0  0  0
    0.5517    1.8585    1.3013 N   0  0  0  0  0  0  0  0  0  0  0  0
    1.3538    1.3107    1.6151 H   0  0  0  0  0  0  0  0  0  0  0  0
    0.5558    3.2967    1.5171 C   0  0  0  0  0  0  0  0  0  0  0  0
   -0.4313    3.6375    1.8455 H   0  0  0  0  0  0  0  0  0  0  0  0
    1.2850    3.5568    2.2901 H   0  0  0  0  0  0  0  0  0  0  0  0
    0.8241    3.8207    0.5942 H   0  0  0  0  0  0  0  0  0  0  0  0
  1  2  1  0  0  0  0
  2  3  1  0  0  0  0
  2  4  1  0  0  0  0
  2  5  1  0  0  0  0
  5  6  2  0  0  0  0
  5  7  1  0  0  0  0
  7  8  1  0  0  0  0
  7  9  1  0  0  0  0
  9 10  1  0  0  0  0
  9 11  1  0  0  0  0
  9 20  1  0  0  0  0
 11 12  1  0  0  0  0
 11 13  1  0  0  0  0
 11 14  1  0  0  0  0
 14 15  1  0  0  0  0
 14 16  1  0  0  0  0
 14 17  1  0  0  0  0
 17 18  1  0  0  0  0
 17 19  2  0  0  0  0
 20 21  2  0  0  0  0
 20 22  1  0  0  0  0
 22 23  1  0  0  0  0
 22 24  1  0  0  0  0
 24 25  1  0  0  0  0
 24 26  1  0  0  0  0
 24 27  1  0  0  0  0
M  CHG  1  18  -1
M  END
$$$$

  -OEChem-03222214043D

 27 26  0     1  0  0  0  0  0999 V2000
   -3.2315   -3.7033    1.1440 H   0  0  0  0  0  0  0  0  0  0  0  0
   -3.1306   -2.7829    0.5619 C   0  0  0  0  0  0  0  0  0  0  0  0
   -3.9367   -2.0992    0.8388 H   0  0  0  0  0  0  0  0  0  0  0  0
   -3.2171   -3.0273   -0.4997 H   0  0  0  0  0  0  0  0  0  0  0  0
   -1.7850   -2.1341    0.8346 C   0  0  0  0  0  0  0  0  0  0  0  0
   -1.0480   -2.6164    1.6773 O   0  0  0  0  0  0  0  0  0  0  0  0
   -1.4630   -0.9659    0.1779 N   0  0  0  0  0  0  0  0  0  0  0  0
   -2.1607   -0.5816   -0.4518 H   0  0  0  0  0  0  0  0  0  0  0  0
   -0.1631   -0.2750    0.2168 C   0  0  1  0  0  0  0  0  0  0  0  0
    0.4082   -0.6488    1.0731 H   0  0  0  0  0  0  0  0  0  0  0  0
    0.6418   -0.5353   -1.0718 C   0  0  0  0  0  0  0  0  0  0  0  0
   -0.0224   -0.4054   -1.9319 H   0  0  0  0  0  0  0  0  0  0  0  0
    1.4430    0.2058   -1.1721 H   0  0  0  0  0  0  0  0  0  0  0  0
    1.2585   -1.9455   -1.1239 C   0  0  0  0  0  0  0  0  0  0  0  0
    0.5105   -2.6952   -0.8537 H   0  0  0  0  0  0  0  0  0  0  0  0
    1.5776   -2.1465   -2.1505 H   0  0  0  0  0  0  0  0  0  0  0  0
    2.4845   -2.0946   -0.2048 C   0  0  0  0  0  0  0  0  0  0  0  0
    2.7863   -1.1473    0.5736 O   0  5  0  0  0  0  0  0  0  0  0  0
    3.1597   -3.1442   -0.3390 O   0  0  0  0  0  0  0  0  0  0  0  0
   -0.2941    1.2416    0.4175 C   0  0  0  0  0  0  0  0  0  0  0  0
   -1.1817    1.8796   -0.1448 O   0  0  0  0  0  0  0  0  0  0  0  0
    0.5367    1.8660    1.3268 N   0  0  0  0  0  0  0  0  0  0  0  0
    1.3318    1.3108    1.6469 H   0  0  0  0  0  0  0  0  0  0  0  0
    0.5518    3.3044    1.5407 C   0  0  0  0  0  0  0  0  0  0  0  0
   -0.4337    3.6539    1.8647 H   0  0  0  0  0  0  0  0  0  0  0  0
    1.2802    3.5600    2.3159 H   0  0  0  0  0  0  0  0  0  0  0  0
    0.8276    3.8247    0.6180 H   0  0  0  0  0  0  0  0  0  0  0  0
  1  2  1  0  0  0  0
  2  3  1  0  0  0  0
  2  4  1  0  0  0  0
  2  5  1  0  0  0  0
  5  6  2  0  0  0  0
  5  7  1  0  0  0  0
  7  8  1  0  0  0  0
  7  9  1  0  0  0  0
  9 10  1  0  0  0  0
  9 11  1  0  0  0  0
  9 20  1  0  0  0  0
 11 12  1  0  0  0  0
 11 13  1  0  0  0  0
 11 14  1  0  0  0  0
 14 15  1  0  0  0  0
 14 16  1  0  0  0  0
 14 17  1  0  0  0  0
 17 18  1  0  0  0  0
 17 19  2  0  0  0  0
 20 21  2  0  0  0  0
 20 22  1  0  0  0  0
 22 23  1  0  0  0  0
 22 24  1  0  0  0  0
 24 25  1  0  0  0  0
 24 26  1  0  0  0  0
 24 27  1  0  0  0  0
M  CHG  1  18  -1
M  END
$$$$

  -OEChem-03222214043D

 27 26  0     1  0  0  0  0  0999 V2000
   -3.1607   -3.7499    1.0989 H   0  0  0  0  0  0  0  0  0  0  0  0
   -3.0706   -2.8287    0.5166 C   0  0  0  0  0  0  0  0  0  0  0  0
   -3.9364   -2.1942    0.7205 H   0  0  0  0  0  0  0  0  0  0  0  0
   -3.0565   -3.0855   -0.5455 H   0  0  0  0  0  0  0  0  0  0  0  0
   -1.7929   -2.0969    0.8874 C   0  0  0  0  0  0  0  0  0  0  0  0
   -1.1269   -2.4902    1.8293 O   0  0  0  0  0  0  0  0  0  0  0  0
   -1.4664   -0.9397    0.2141 N   0  0  0  0  0  0  0  0  0  0  0  0
   -2.1093   -0.6327   -0.5088 H   0  0  0  0  0  0  0  0  0  0  0  0
   -0.1629   -0.2576    0.2640 C   0  0  1  0  0  0  0  0  0  0  0  0
    0.4069   -0.6260    1.1229 H   0  0  0  0  0  0  0  0  0  0  0  0
    0.6164   -0.5296   -1.0406 C   0  0  0  0  0  0  0  0  0  0  0  0
   -0.0460   -0.3627   -1.8958 H   0  0  0  0  0  0  0  0  0  0  0  0
    1.4364    0.1924   -1.1240 H   0  0  0  0  0  0  0  0  0  0  0  0
    1.2223   -1.9434   -1.1393 C   0  0  0  0  0  0  0  0  0  0  0  0
    0.4172   -2.6829   -1.1121 H   0  0  0  0  0  0  0  0  0  0  0  0
    1.7336   -2.0388   -2.1011 H   0  0  0  0  0  0  0  0  0  0  0  0
    2.2286   -2.2688   -0.0244 C   0  0  0  0  0  0  0  0  0  0  0  0
    2.7257   -1.3139    0.6336 O   0  5  0  0  0  0  0  0  0  0  0  0
    2.5757   -3.4690    0.0910 O   0  0  0  0  0  0  0  0  0  0  0  0
   -0.2917    1.2630    0.4427 C   0  0  0  0  0  0  0  0  0  0  0  0
   -1.1466    1.9040   -0.1651 O   0  0  0  0  0  0  0  0  0  0  0  0
    0.5250    1.8994    1.3566 N   0  0  0  0  0  0  0  0  0  0  0  0
    1.2908    1.3394    1.7317 H   0  0  0  0  0  0  0  0  0  0  0  0
    0.5404    3.3402    1.5535 C   0  0  0  0  0  0  0  0  0  0  0  0
   -0.4470    3.6941    1.8674 H   0  0  0  0  0  0  0  0  0  0  0  0
    1.2644    3.6046    2.3299 H   0  0  0  0  0  0  0  0  0  0  0  0
    0.8225    3.8496    0.6265 H   0  0  0  0  0  0  0  0  0  0  0  0
  1  2  1  0  0  0  0
  2  3  1  0  0  0  0
  2  4  1  0  0  0  0
  2  5  1  0  0  0  0
  5  6  2  0  0  0  0
  5  7  1  0  0  0  0
  7  8  1  0  0  0  0
  7  9  1  0  0  0  0
  9 10  1  0  0  0  0
  9 11  1  0  0  0  0
  9 20  1  0  0  0  0
 11 12  1  0  0  0  0
 11 13  1  0  0  0  0
 11 14  1  0  0  0  0
 14 15  1  0  0  0  0
 14 16  1  0  0  0  0
 14 17  1  0  0  0  0
 17 18  1  0  0  0  0
 17 19  2  0  0  0  0
 20 21  2  0  0  0  0
 20 22  1  0  0  0  0
 22 23  1  0  0  0  0
 22 24  1  0  0  0  0
 24 25  1  0  0  0  0
 24 26  1  0  0  0  0
 24 27  1  0  0  0  0
M  CHG  1  18  -1
M  END
$$$$

  -OEChem-03222214043D

 27 26  0     1  0  0  0  0  0999 V2000
   -3.0648   -3.7645    1.1524 H   0  0  0  0  0  0  0  0  0  0  0  0
   -2.9272   -2.9220    0.4688 C   0  0  0  0  0  0  0  0  0  0  0  0
   -3.8630   -2.3620    0.4033 H   0  0  0  0  0  0  0  0  0  0  0  0
   -2.6713   -3.3117   -0.5197 H   0  0  0  0  0  0  0  0  0  0  0  0
   -1.8136   -2.0191    0.9686 C   0  0  0  0  0  0  0  0  0  0  0  0
   -1.3077   -2.2271    2.0589 O   0  0  0  0  0  0  0  0  0  0  0  0
   -1.4944   -0.8819    0.2578 N   0  0  0  0  0  0  0  0  0  0  0  0
   -2.0164   -0.7349   -0.5994 H   0  0  0  0  0  0  0  0  0  0  0  0
   -0.1780   -0.2281    0.3235 C   0  0  1  0  0  0  0  0  0  0  0  0
    0.3927   -0.5975    1.1814 H   0  0  0  0  0  0  0  0  0  0  0  0
    0.5653   -0.5147   -1.0022 C   0  0  0  0  0  0  0  0  0  0  0  0
   -0.0924   -0.2918   -1.8486 H   0  0  0  0  0  0  0  0  0  0  0  0
    1.4155    0.1734   -1.0654 H   0  0  0  0  0  0  0  0  0  0  0  0
    1.1354   -1.9384   -1.1658 C   0  0  0  0  0  0  0  0  0  0  0  0
    0.3079   -2.6169   -1.3938 H   0  0  0  0  0  0  0  0  0  0  0  0
    1.8192   -1.9492   -2.0190 H   0  0  0  0  0  0  0  0  0  0  0  0
    1.8768   -2.4824    0.0591 C   0  0  0  0  0  0  0  0  0  0  0  0
    2.5768   -1.6731    0.7238 O   0  5  0  0  0  0  0  0  0  0  0  0
    1.8203   -3.7188    0.2644 O   0  0  0  0  0  0  0  0  0  0  0  0
   -0.2875    1.2998    0.4703 C   0  0  0  0  0  0  0  0  0  0  0  0
   -1.0787    1.9528   -0.2067 O   0  0  0  0  0  0  0  0  0  0  0  0
    0.5161    1.9447    1.3906 N   0  0  0  0  0  0  0  0  0  0  0  0
    1.2159    1.3702    1.8579 H   0  0  0  0  0  0  0  0  0  0  0  0
    0.5541    3.3888    1.5599 C   0  0  0  0  0  0  0  0  0  0  0  0
   -0.4376    3.7695    1.8244 H   0  0  0  0  0  0  0  0  0  0  0  0
    1.2503    3.6537    2.3611 H   0  0  0  0  0  0  0  0  0  0  0  0
    0.8860    3.8730    0.6361 H   0  0  0  0  0  0  0  0  0  0  0  0
  1  2  1  0  0  0  0
  2  3  1  0  0  0  0
  2  4  1  0  0  0  0
  2  5  1  0  0  0  0
  5  6  2  0  0  0  0
  5  7  1  0  0  0  0
  7  8  1  0  0  0  0
  7  9  1  0  0  0  0
  9 10  1  0  0  0  0
  9 11  1  0  0  0  0
  9 20  1  0  0  0  0
 11 12  1  0  0  0  0
 11 13  1  0  0  0  0
 11 14  1  0  0  0  0
 14 15  1  0  0  0  0
 14 16  1  0  0  0  0
 14 17  1  0  0  0  0
 17 18  1  0  0  0  0
 17 19  2  0  0  0  0
 20 21  2  0  0  0  0
 20 22  1  0  0  0  0
 22 23  1  0  0  0  0
 22 24  1  0  0  0  0
 24 25  1  0  0  0  0
 24 26  1  0  0  0  0
 24 27  1  0  0  0  0
M  CHG  1  18  -1
M  END
$$$$

  -OEChem-03222214043D

 27 26  0     1  0  0  0  0  0999 V2000
   -2.9122   -3.7705    1.2130 H   0  0  0  0  0  0  0  0  0  0  0  0
   -2.7145   -3.0132    0.4496 C   0  0  0  0  0  0  0  0  0  0  0  0
   -3.6639   -2.6015    0.1005 H   0  0  0  0  0  0  0  0  0  0  0  0
   -2.1970   -3.4898   -0.3873 H   0  0  0  0  0  0  0  0  0  0  0  0
   -1.8443   -1.9103    1.0232 C   0  0  0  0  0  0  0  0  0  0  0  0
   -1.5626   -1.9006    2.2127 O   0  0  0  0  0  0  0  0  0  0  0  0
   -1.5420   -0.8013    0.2607 N   0  0  0  0  0  0  0  0  0  0  0  0
   -1.9339   -0.8209   -0.6742 H   0  0  0  0  0  0  0  0  0  0  0  0
   -0.2038   -0.1987    0.3456 C   0  0  1  0  0  0  0  0  0  0  0  0
    0.3562   -0.5784    1.2071 H   0  0  0  0  0  0  0  0  0  0  0  0
    0.5246   -0.5086   -0.9862 C   0  0  0  0  0  0  0  0  0  0  0  0
   -0.1129   -0.2338   -1.8329 H   0  0  0  0  0  0  0  0  0  0  0  0
    1.4081    0.1378   -1.0289 H   0  0  0  0  0  0  0  0  0  0  0  0
    1.0379   -1.9500   -1.1858 C   0  0  0  0  0  0  0  0  0  0  0  0
    0.2475   -2.5259   -1.6770 H   0  0  0  0  0  0  0  0  0  0  0  0
    1.8966   -1.9328   -1.8629 H   0  0  0  0  0  0  0  0  0  0  0  0
    1.4350   -2.6876    0.0910 C   0  0  0  0  0  0  0  0  0  0  0  0
    2.3053   -2.1497    0.8216 O   0  5  0  0  0  0  0  0  0  0  0  0
    0.8805   -3.7901    0.3188 O   0  0  0  0  0  0  0  0  0  0  0  0
   -0.2688    1.3368    0.4582 C   0  0  0  0  0  0  0  0  0  0  0  0
   -0.9851    2.0105   -0.2789 O   0  0  0  0  0  0  0  0  0  0  0  0
    0.5317    1.9746    1.3867 N   0  0  0  0  0  0  0  0  0  0  0  0
    1.1221    1.3807    1.9650 H   0  0  0  0  0  0  0  0  0  0  0  0
    0.5689    3.4167    1.5726 C   0  0  0  0  0  0  0  0  0  0  0  0
   -0.4247    3.7936    1.8353 H   0  0  0  0  0  0  0  0  0  0  0  0
    1.2611    3.6727    2.3802 H   0  0  0  0  0  0  0  0  0  0  0  0
    0.9057    3.9116    0.6562 H   0  0  0  0  0  0  0  0  0  0  0  0
  1  2  1  0  0  0  0
  2  3  1  0  0  0  0
  2  4  1  0  0  0  0
  2  5  1  0  0  0  0
  5  6  2  0  0  0  0
  5  7  1  0  0  0  0
  7  8  1  0  0  0  0
  7  9  1  0  0  0  0
  9 10  1  0  0  0  0
  9 11  1  0  0  0  0
  9 20  1  0  0  0  0
 11 12  1  0  0  0  0
 11 13  1  0  0  0  0
 11 14  1  0  0  0  0
 14 15  1  0  0  0  0
 14 16  1  0  0  0  0
 14 17  1  0  0  0  0
 17 18  1  0  0  0  0
 17 19  2  0  0  0  0
 20 21  2  0  0  0  0
 20 22  1  0  0  0  0
 22 23  1  0  0  0  0
 22 24  1  0  0  0  0
 24 25  1  0  0  0  0
 24 26  1  0  0  0  0
 24 27  1  0  0  0  0
M  CHG  1  18  -1
M  END
$$$$

  -OEChem-03222214043D

 27 26  0     1  0  0  0  0  0999 V2000
   -2.9522   -3.7587    1.2195 H   0  0  0  0  0  0  0  0  0  0  0  0
   -2.8011   -2.9706    0.4769 C   0  0  0  0  0  0  0  0  0  0  0  0
   -3.7664   -2.5287    0.2206 H   0  0  0  0  0  0  0  0  0  0  0  0
   -2.3599   -3.4184   -0.4175 H   0  0  0  0  0  0  0  0  0  0  0  0
   -1.8674   -1.9090    1.0296 C   0  0  0  0  0  0  0  0  0  0  0  0
   -1.6078   -1.8761    2.2248 O   0  0  0  0  0  0  0  0  0  0  0  0
   -1.5295   -0.8154    0.2588 N   0  0  0  0  0  0  0  0  0  0  0  0
   -1.9049   -0.8457   -0.6826 H   0  0  0  0  0  0  0  0  0  0  0  0
   -0.1883   -0.2194    0.3603 C   0  0  1  0  0  0  0  0  0  0  0  0
    0.3590   -0.5953    1.2322 H   0  0  0  0  0  0  0  0  0  0  0  0
    0.5747   -0.5260   -0.9558 C   0  0  0  0  0  0  0  0  0  0  0  0
   -0.0498   -0.2463   -1.8110 H   0  0  0  0  0  0  0  0  0  0  0  0
    1.4520    0.1299   -0.9774 H   0  0  0  0  0  0  0  0  0  0  0  0
    1.1109   -1.9571   -1.1826 C   0  0  0  0  0  0  0  0  0  0  0  0
    0.4724   -2.4422   -1.9274 H   0  0  0  0  0  0  0  0  0  0  0  0
    2.1148   -1.8964   -1.6128 H   0  0  0  0  0  0  0  0  0  0  0  0
    1.1646   -2.8605    0.0455 C   0  0  0  0  0  0  0  0  0  0  0  0
    1.9874   -2.5568    0.9447 O   0  5  0  0  0  0  0  0  0  0  0  0
    0.4015   -3.8577    0.0681 O   0  0  0  0  0  0  0  0  0  0  0  0
   -0.2624    1.3186    0.4452 C   0  0  0  0  0  0  0  0  0  0  0  0
   -0.9505    1.9790   -0.3299 O   0  0  0  0  0  0  0  0  0  0  0  0
    0.5152    1.9776    1.3788 N   0  0  0  0  0  0  0  0  0  0  0  0
    1.0511    1.3963    2.0186 H   0  0  0  0  0  0  0  0  0  0  0  0
    0.5306    3.4228    1.5447 C   0  0  0  0  0  0  0  0  0  0  0  0
   -0.4659    3.7872    1.8143 H   0  0  0  0  0  0  0  0  0  0  0  0
    1.2291    3.7021    2.3388 H   0  0  0  0  0  0  0  0  0  0  0  0
    0.8481    3.9102    0.6173 H   0  0  0  0  0  0  0  0  0  0  0  0
  1  2  1  0  0  0  0
  2  3  1  0  0  0  0
  2  4  1  0  0  0  0
  2  5  1  0  0  0  0
  5  6  2  0  0  0  0
  5  7  1  0  0  0  0
  7  8  1  0  0  0  0
  7  9  1  0  0  0  0
  9 10  1  0  0  0  0
  9 11  1  0  0  0  0
  9 20  1  0  0  0  0
 11 12  1  0  0  0  0
 11 13  1  0  0  0  0
 11 14  1  0  0  0  0
 14 15  1  0  0  0  0
 14 16  1  0  0  0  0
 14 17  1  0  0  0  0
 17 18  1  0  0  0  0
 17 19  2  0  0  0  0
 20 21  2  0  0  0  0
 20 22  1  0  0  0  0
 22 23  1  0  0  0  0
 22 24  1  0  0  0  0
 24 25  1  0  0  0  0
 24 26  1  0  0  0  0
 24 27  1  0  0  0  0
M  CHG  1  18  -1
M  END
$$$$

  -OEChem-03222214043D

 27 26  0     1  0  0  0  0  0999 V2000
   -2.8356   -3.8746    1.1796 H   0  0  0  0  0  0  0  0  0  0  0  0
   -2.8312   -2.9955    0.5295 C   0  0  0  0  0  0  0  0  0  0  0  0
   -3.8306   -2.5560    0.5086 H   0  0  0  0  0  0  0  0  0  0  0  0
   -2.5571   -3.3149   -0.4792 H   0  0  0  0  0  0  0  0  0  0  0  0
   -1.8241   -1.9807    1.0404 C   0  0  0  0  0  0  0  0  0  0  0  0
   -1.5242   -1.9610    2.2272 O   0  0  0  0  0  0  0  0  0  0  0  0
   -1.5044   -0.8786    0.2732 N   0  0  0  0  0  0  0  0  0  0  0  0
   -1.8944   -0.9081   -0.6626 H   0  0  0  0  0  0  0  0  0  0  0  0
   -0.1790   -0.2440    0.3645 C   0  0  1  0  0  0  0  0  0  0  0  0
    0.3865   -0.6117    1.2288 H   0  0  0  0  0  0  0  0  0  0  0  0
    0.6086   -0.4974   -0.9513 C   0  0  0  0  0  0  0  0  0  0  0  0
   -0.0413   -0.2425   -1.7954 H   0  0  0  0  0  0  0  0  0  0  0  0
    1.4465    0.2077   -0.9772 H   0  0  0  0  0  0  0  0  0  0  0  0
    1.2156   -1.8932   -1.2231 C   0  0  0  0  0  0  0  0  0  0  0  0
    0.8080   -2.2679   -2.1669 H   0  0  0  0  0  0  0  0  0  0  0  0
    2.2943   -1.7813   -1.3679 H   0  0  0  0  0  0  0  0  0  0  0  0
    0.9989   -2.9583   -0.1551 C   0  0  0  0  0  0  0  0  0  0  0  0
    1.7120   -2.8894    0.8753 O   0  5  0  0  0  0  0  0  0  0  0  0
    0.1400   -3.8464   -0.3842 O   0  0  0  0  0  0  0  0  0  0  0  0
   -0.3122    1.2910    0.4487 C   0  0  0  0  0  0  0  0  0  0  0  0
   -1.0285    1.9259   -0.3220 O   0  0  0  0  0  0  0  0  0  0  0  0
    0.4459    1.9802    1.3771 N   0  0  0  0  0  0  0  0  0  0  0  0
    0.9740    1.4182    2.0396 H   0  0  0  0  0  0  0  0  0  0  0  0
    0.3789    3.4218    1.5639 C   0  0  0  0  0  0  0  0  0  0  0  0
   -0.6310    3.7218    1.8607 H   0  0  0  0  0  0  0  0  0  0  0  0
    1.0775    3.7314    2.3468 H   0  0  0  0  0  0  0  0  0  0  0  0
    0.6456    3.9408    0.6376 H   0  0  0  0  0  0  0  0  0  0  0  0
  1  2  1  0  0  0  0
  2  3  1  0  0  0  0
  2  4  1  0  0  0  0
  2  5  1  0  0  0  0
  5  6  2  0  0  0  0
  5  7  1  0  0  0  0
  7  8  1  0  0  0  0
  7  9  1  0  0  0  0
  9 10  1  0  0  0  0
  9 11  1  0  0  0  0
  9 20  1  0  0  0  0
 11 12  1  0  0  0  0
 11 13  1  0  0  0  0
 11 14  1  0  0  0  0
 14 15  1  0  0  0  0
 14 16  1  0  0  0  0
 14 17  1  0  0  0  0
 17 18  1  0  0  0  0
 17 19  2  0  0  0  0
 20 21  2  0  0  0  0
 20 22  1  0  0  0  0
 22 23  1  0  0  0  0
 22 24  1  0  0  0  0
 24 25  1  0  0  0  0
 24 26  1  0  0  0  0
 24 27  1  0  0  0  0
M  CHG  1  18  -1
M  END
$$$$

  -OEChem-03222214043D

 27 26  0     1  0  0  0  0  0999 V2000
   -2.5972   -4.0747    0.9963 H   0  0  0  0  0  0  0  0  0  0  0  0
   -2.7818   -3.0883    0.5626 C   0  0  0  0  0  0  0  0  0  0  0  0
   -3.7696   -2.7364    0.8678 H   0  0  0  0  0  0  0  0  0  0  0  0
   -2.7551   -3.1805   -0.5261 H   0  0  0  0  0  0  0  0  0  0  0  0
   -1.7137   -2.1150    1.0296 C   0  0  0  0  0  0  0  0  0  0  0  0
   -1.2927   -2.1837    2.1780 O   0  0  0  0  0  0  0  0  0  0  0  0
   -1.4858   -0.9464    0.3297 N   0  0  0  0  0  0  0  0  0  0  0  0
   -1.9428   -0.9272   -0.5762 H   0  0  0  0  0  0  0  0  0  0  0  0
   -0.1783   -0.2691    0.3722 C   0  0  1  0  0  0  0  0  0  0  0  0
    0.4611   -0.6825    1.1604 H   0  0  0  0  0  0  0  0  0  0  0  0
    0.5456   -0.3609   -1.0024 C   0  0  0  0  0  0  0  0  0  0  0  0
   -0.1828   -0.0841   -1.7724 H   0  0  0  0  0  0  0  0  0  0  0  0
    1.3352    0.3980   -1.0302 H   0  0  0  0  0  0  0  0  0  0  0  0
    1.2010   -1.6868   -1.4503 C   0  0  0  0  0  0  0  0  0  0  0  0
    0.9904   -1.8419   -2.5127 H   0  0  0  0  0  0  0  0  0  0  0  0
    2.2857   -1.5754   -1.3583 H   0  0  0  0  0  0  0  0  0  0  0  0
    0.8120   -2.9460   -0.6885 C   0  0  0  0  0  0  0  0  0  0  0  0
    1.4961   -3.2501    0.3173 O   0  5  0  0  0  0  0  0  0  0  0  0
   -0.1648   -3.6053   -1.1251 O   0  0  0  0  0  0  0  0  0  0  0  0
   -0.3703    1.2478    0.5865 C   0  0  0  0  0  0  0  0  0  0  0  0
   -1.1669    1.9066   -0.0776 O   0  0  0  0  0  0  0  0  0  0  0  0
    0.4270    1.8997    1.5094 N   0  0  0  0  0  0  0  0  0  0  0  0
    1.0115    1.3131    2.0983 H   0  0  0  0  0  0  0  0  0  0  0  0
    0.3018    3.3152    1.8231 C   0  0  0  0  0  0  0  0  0  0  0  0
   -0.6830    3.5250    2.2529 H   0  0  0  0  0  0  0  0  0  0  0  0
    1.0677    3.6086    2.5471 H   0  0  0  0  0  0  0  0  0  0  0  0
    0.4311    3.9209    0.9202 H   0  0  0  0  0  0  0  0  0  0  0  0
  1  2  1  0  0  0  0
  2  3  1  0  0  0  0
  2  4  1  0  0  0  0
  2  5  1  0  0  0  0
  5  6  2  0  0  0  0
  5  7  1  0  0  0  0
  7  8  1  0  0  0  0
  7  9  1  0  0  0  0
  9 10  1  0  0  0  0
  9 11  1  0  0  0  0
  9 20  1  0  0  0  0
 11 12  1  0  0  0  0
 11 13  1  0  0  0  0
 11 14  1  0  0  0  0
 14 15  1  0  0  0  0
 14 16  1  0  0  0  0
 14 17  1  0  0  0  0
 17 18  1  0  0  0  0
 17 19  2  0  0  0  0
 20 21  2  0  0  0  0
 20 22  1  0  0  0  0
 22 23  1  0  0  0  0
 22 24  1  0  0  0  0
 24 25  1  0  0  0  0
 24 26  1  0  0  0  0
 24 27  1  0  0  0  0
M  CHG  1  18  -1
M  END
$$$$

  -OEChem-03222214043D

 27 26  0     1  0  0  0  0  0999 V2000
   -2.5008   -4.0346    0.8305 H   0  0  0  0  0  0  0  0  0  0  0  0
   -2.8559   -3.0028    0.7613 C   0  0  0  0  0  0  0  0  0  0  0  0
   -3.6984   -2.8611    1.4418 H   0  0  0  0  0  0  0  0  0  0  0  0
   -3.1894   -2.8217   -0.2635 H   0  0  0  0  0  0  0  0  0  0  0  0
   -1.7262   -2.0546    1.1230 C   0  0  0  0  0  0  0  0  0  0  0  0
   -1.2098   -2.1324    2.2324 O   0  0  0  0  0  0  0  0  0  0  0  0
   -1.5038   -0.9061    0.3863 N   0  0  0  0  0  0  0  0  0  0  0  0
   -1.9850   -0.9198   -0.5089 H   0  0  0  0  0  0  0  0  0  0  0  0
   -0.1675   -0.2877    0.3495 C   0  0  1  0  0  0  0  0  0  0  0  0
    0.4938   -0.7142    1.1111 H   0  0  0  0  0  0  0  0  0  0  0  0
    0.5011   -0.4090   -1.0513 C   0  0  0  0  0  0  0  0  0  0  0  0
   -0.2515   -0.1157   -1.7913 H   0  0  0  0  0  0  0  0  0  0  0  0
    1.3156    0.3202   -1.1206 H   0  0  0  0  0  0  0  0  0  0  0  0
    1.0830   -1.7615   -1.5159 C   0  0  0  0  0  0  0  0  0  0  0  0
    1.0765   -1.7964   -2.6092 H   0  0  0  0  0  0  0  0  0  0  0  0
    2.1310   -1.7972   -1.2031 H   0  0  0  0  0  0  0  0  0  0  0  0
    0.4074   -3.0178   -0.9817 C   0  0  0  0  0  0  0  0  0  0  0  0
    1.0056   -3.6909   -0.1097 O   0  5  0  0  0  0  0  0  0  0  0  0
   -0.7193   -3.3016   -1.4631 O   0  0  0  0  0  0  0  0  0  0  0  0
   -0.2920    1.2393    0.5500 C   0  0  0  0  0  0  0  0  0  0  0  0
   -1.0921    1.9230   -0.0834 O   0  0  0  0  0  0  0  0  0  0  0  0
    0.5763    1.8723    1.4210 N   0  0  0  0  0  0  0  0  0  0  0  0
    1.1588    1.2714    1.9965 H   0  0  0  0  0  0  0  0  0  0  0  0
    0.5177    3.2954    1.7209 C   0  0  0  0  0  0  0  0  0  0  0  0
   -0.4275    3.5421    2.2151 H   0  0  0  0  0  0  0  0  0  0  0  0
    1.3415    3.5731    2.3851 H   0  0  0  0  0  0  0  0  0  0  0  0
    0.6027    3.8857    0.8026 H   0  0  0  0  0  0  0  0  0  0  0  0
  1  2  1  0  0  0  0
  2  3  1  0  0  0  0
  2  4  1  0  0  0  0
  2  5  1  0  0  0  0
  5  6  2  0  0  0  0
  5  7  1  0  0  0  0
  7  8  1  0  0  0  0
  7  9  1  0  0  0  0
  9 10  1  0  0  0  0
  9 11  1  0  0  0  0
  9 20  1  0  0  0  0
 11 12  1  0  0  0  0
 11 13  1  0  0  0  0
 11 14  1  0  0  0  0
 14 15  1  0  0  0  0
 14 16  1  0  0  0  0
 14 17  1  0  0  0  0
 17 18  1  0  0  0  0
 17 19  2  0  0  0  0
 20 21  2  0  0  0  0
 20 22  1  0  0  0  0
 22 23  1  0  0  0  0
 22 24  1  0  0  0  0
 24 25  1  0  0  0  0
 24 26  1  0  0  0  0
 24 27  1  0  0  0  0
M  CHG  1  18  -1
M  END
$$$$

  -OEChem-03222214043D

 27 26  0     1  0  0  0  0  0999 V2000
   -2.6025   -3.8665    0.4809 H   0  0  0  0  0  0  0  0  0  0  0  0
   -3.0174   -2.8576    0.5575 C   0  0  0  0  0  0  0  0  0  0  0  0
   -3.8427   -2.8594    1.2729 H   0  0  0  0  0  0  0  0  0  0  0  0
   -3.3969   -2.5639   -0.4242 H   0  0  0  0  0  0  0  0  0  0  0  0
   -1.9303   -1.8996    1.0127 C   0  0  0  0  0  0  0  0  0  0  0  0
   -1.5720   -1.9092    2.1860 O   0  0  0  0  0  0  0  0  0  0  0  0
   -1.5390   -0.8366    0.2191 N   0  0  0  0  0  0  0  0  0  0  0  0
   -1.8517   -0.9516   -0.7438 H   0  0  0  0  0  0  0  0  0  0  0  0
   -0.1788   -0.2860    0.3449 C   0  0  1  0  0  0  0  0  0  0  0  0
    0.3292   -0.6651    1.2372 H   0  0  0  0  0  0  0  0  0  0  0  0
    0.6895   -0.5776   -0.9127 C   0  0  0  0  0  0  0  0  0  0  0  0
    0.0918   -0.3210   -1.7945 H   0  0  0  0  0  0  0  0  0  0  0  0
    1.5566    0.0914   -0.9082 H   0  0  0  0  0  0  0  0  0  0  0  0
    1.2350   -2.0051   -1.1253 C   0  0  0  0  0  0  0  0  0  0  0  0
    1.6255   -2.0877   -2.1435 H   0  0  0  0  0  0  0  0  0  0  0  0
    2.0742   -2.1563   -0.4397 H   0  0  0  0  0  0  0  0  0  0  0  0
    0.2280   -3.1282   -0.8994 C   0  0  0  0  0  0  0  0  0  0  0  0
   -0.8046   -3.1151   -1.6188 O   0  5  0  0  0  0  0  0  0  0  0  0
    0.4832   -3.9963   -0.0321 O   0  0  0  0  0  0  0  0  0  0  0  0
   -0.2343    1.2580    0.3904 C   0  0  0  0  0  0  0  0  0  0  0  0
   -0.8771    1.9203   -0.4195 O   0  0  0  0  0  0  0  0  0  0  0  0
    0.5269    1.9271    1.3324 N   0  0  0  0  0  0  0  0  0  0  0  0
    0.9772    1.3574    2.0421 H   0  0  0  0  0  0  0  0  0  0  0  0
    0.5333    3.3753    1.4797 C   0  0  0  0  0  0  0  0  0  0  0  0
   -0.4620    3.7353    1.7593 H   0  0  0  0  0  0  0  0  0  0  0  0
    1.2419    3.6711    2.2589 H   0  0  0  0  0  0  0  0  0  0  0  0
    0.8334    3.8540    0.5419 H   0  0  0  0  0  0  0  0  0  0  0  0
  1  2  1  0  0  0  0
  2  3  1  0  0  0  0
  2  4  1  0  0  0  0
  2  5  1  0  0  0  0
  5  6  2  0  0  0  0
  5  7  1  0  0  0  0
  7  8  1  0  0  0  0
  7  9  1  0  0  0  0
  9 10  1  0  0  0  0
  9 11  1  0  0  0  0
  9 20  1  0  0  0  0
 11 12  1  0  0  0  0
 11 13  1  0  0  0  0
 11 14  1  0  0  0  0
 14 15  1  0  0  0  0
 14 16  1  0  0  0  0
 14 17  1  0  0  0  0
 17 18  1  0  0  0  0
 17 19  2  0  0  0  0
 20 21  2  0  0  0  0
 20 22  1  0  0  0  0
 22 23  1  0  0  0  0
 22 24  1  0  0  0  0
 24 25  1  0  0  0  0
 24 26  1  0  0  0  0
 24 27  1  0  0  0  0
M  CHG  1  18  -1
M  END
$$$$

  -OEChem-03222214043D

 27 26  0     1  0  0  0  0  0999 V2000
   -2.9390   -3.8068    1.2077 H   0  0  0  0  0  0  0  0  0  0  0  0
   -2.9886   -2.8723    0.6429 C   0  0  0  0  0  0  0  0  0  0  0  0
   -3.9295   -2.3648    0.8654 H   0  0  0  0  0  0  0  0  0  0  0  0
   -2.9601   -3.1128   -0.4221 H   0  0  0  0  0  0  0  0  0  0  0  0
   -1.8171   -1.9793    1.0148 C   0  0  0  0  0  0  0  0  0  0  0  0
   -1.3189   -2.0771    2.1319 O   0  0  0  0  0  0  0  0  0  0  0  0
   -1.4994   -0.8758    0.2444 N   0  0  0  0  0  0  0  0  0  0  0  0
   -1.8846   -0.9449   -0.6981 H   0  0  0  0  0  0  0  0  0  0  0  0
   -0.1495   -0.2902    0.3034 C   0  0  1  0  0  0  0  0  0  0  0  0
    0.4247   -0.6835    1.1474 H   0  0  0  0  0  0  0  0  0  0  0  0
    0.6326   -0.5426   -1.0126 C   0  0  0  0  0  0  0  0  0  0  0  0
   -0.0083   -0.2730   -1.8598 H   0  0  0  0  0  0  0  0  0  0  0  0
    1.4979    0.1281   -1.0399 H   0  0  0  0  0  0  0  0  0  0  0  0
    1.1693   -1.9704   -1.2364 C   0  0  0  0  0  0  0  0  0  0  0  0
    1.7126   -1.9981   -2.1850 H   0  0  0  0  0  0  0  0  0  0  0  0
    1.8789   -2.2098   -0.4387 H   0  0  0  0  0  0  0  0  0  0  0  0
    0.0840   -3.0467   -1.2774 C   0  0  0  0  0  0  0  0  0  0  0  0
   -0.9360   -2.8108   -1.9762 O   0  5  0  0  0  0  0  0  0  0  0  0
    0.2683   -4.0989   -0.6216 O   0  0  0  0  0  0  0  0  0  0  0  0
   -0.2314    1.2488    0.4128 C   0  0  0  0  0  0  0  0  0  0  0  0
   -0.9483    1.9269   -0.3172 O   0  0  0  0  0  0  0  0  0  0  0  0
    0.5777    1.8976    1.3289 N   0  0  0  0  0  0  0  0  0  0  0  0
    1.0916    1.3106    1.9785 H   0  0  0  0  0  0  0  0  0  0  0  0
    0.5447    3.3358    1.5523 C   0  0  0  0  0  0  0  0  0  0  0  0
   -0.4482    3.6466    1.8929 H   0  0  0  0  0  0  0  0  0  0  0  0
    1.2769    3.6137    2.3160 H   0  0  0  0  0  0  0  0  0  0  0  0
    0.7877    3.8725    0.6295 H   0  0  0  0  0  0  0  0  0  0  0  0
  1  2  1  0  0  0  0
  2  3  1  0  0  0  0
  2  4  1  0  0  0  0
  2  5  1  0  0  0  0
  5  6  2  0  0  0  0
  5  7  1  0  0  0  0
  7  8  1  0  0  0  0
  7  9  1  0  0  0  0
  9 10  1  0  0  0  0
  9 11  1  0  0  0  0
  9 20  1  0  0  0  0
 11 12  1  0  0  0  0
 11 13  1  0  0  0  0
 11 14  1  0  0  0  0
 14 15  1  0  0  0  0
 14 16  1  0  0  0  0
 14 17  1  0  0  0  0
 17 18  1  0  0  0  0
 17 19  2  0  0  0  0
 20 21  2  0  0  0  0
 20 22  1  0  0  0  0
 22 23  1  0  0  0  0
 22 24  1  0  0  0  0
 24 25  1  0  0  0  0
 24 26  1  0  0  0  0
 24 27  1  0  0  0  0
M  CHG  1  18  -1
M  END
$$$$

  -OEChem-03222214043D

 27 26  0     1  0  0  0  0  0999 V2000
   -3.4089   -3.3190    1.4466 H   0  0  0  0  0  0  0  0  0  0  0  0
   -2.8660   -2.9548    0.5712 C   0  0  0  0  0  0  0  0  0  0  0  0
   -3.5683   -2.4534   -0.0990 H   0  0  0  0  0  0  0  0  0  0  0  0
   -2.4271   -3.8064    0.0435 H   0  0  0  0  0  0  0  0  0  0  0  0
   -1.7673   -1.9958    0.9953 C   0  0  0  0  0  0  0  0  0  0  0  0
   -1.2300   -2.1351    2.0894 O   0  0  0  0  0  0  0  0  0  0  0  0
   -1.4902   -0.8672    0.2479 N   0  0  0  0  0  0  0  0  0  0  0  0
   -1.8797   -0.9382   -0.6949 H   0  0  0  0  0  0  0  0  0  0  0  0
   -0.1520   -0.2580    0.2924 C   0  0  1  0  0  0  0  0  0  0  0  0
    0.4504   -0.6613    1.1113 H   0  0  0  0  0  0  0  0  0  0  0  0
    0.5640   -0.5134   -1.0546 C   0  0  0  0  0  0  0  0  0  0  0  0
   -0.0892   -0.2289   -1.8872 H   0  0  0  0  0  0  0  0  0  0  0  0
    1.4402    0.1412   -1.1041 H   0  0  0  0  0  0  0  0  0  0  0  0
    1.0750   -1.9560   -1.2471 C   0  0  0  0  0  0  0  0  0  0  0  0
    1.7808   -1.9634   -2.0822 H   0  0  0  0  0  0  0  0  0  0  0  0
    1.6158   -2.2714   -0.3499 H   0  0  0  0  0  0  0  0  0  0  0  0
   -0.0258   -2.9779   -1.5635 C   0  0  0  0  0  0  0  0  0  0  0  0
   -1.0914   -2.5735   -2.1005 O   0  5  0  0  0  0  0  0  0  0  0  0
    0.2002   -4.1713   -1.2529 O   0  0  0  0  0  0  0  0  0  0  0  0
   -0.2347    1.2772    0.4422 C   0  0  0  0  0  0  0  0  0  0  0  0
   -0.9696    1.9706   -0.2539 O   0  0  0  0  0  0  0  0  0  0  0  0
    0.5934    1.9074    1.3547 N   0  0  0  0  0  0  0  0  0  0  0  0
    1.1293    1.3091    1.9753 H   0  0  0  0  0  0  0  0  0  0  0  0
    0.5709    3.3419    1.6019 C   0  0  0  0  0  0  0  0  0  0  0  0
   -0.4132    3.6505    1.9691 H   0  0  0  0  0  0  0  0  0  0  0  0
    1.3206    3.6058    2.3535 H   0  0  0  0  0  0  0  0  0  0  0  0
    0.7955    3.8923    0.6825 H   0  0  0  0  0  0  0  0  0  0  0  0
  1  2  1  0  0  0  0
  2  3  1  0  0  0  0
  2  4  1  0  0  0  0
  2  5  1  0  0  0  0
  5  6  2  0  0  0  0
  5  7  1  0  0  0  0
  7  8  1  0  0  0  0
  7  9  1  0  0  0  0
  9 10  1  0  0  0  0
  9 11  1  0  0  0  0
  9 20  1  0  0  0  0
 11 12  1  0  0  0  0
 11 13  1  0  0  0  0
 11 14  1  0  0  0  0
 14 15  1  0  0  0  0
 14 16  1  0  0  0  0
 14 17  1  0  0  0  0
 17 18  1  0  0  0  0
 17 19  2  0  0  0  0
 20 21  2  0  0  0  0
 20 22  1  0  0  0  0
 22 23  1  0  0  0  0
 22 24  1  0  0  0  0
 24 25  1  0  0  0  0
 24 26  1  0  0  0  0
 24 27  1  0  0  0  0
M  CHG  1  18  -1
M  END
$$$$

  -OEChem-03222214043D

 27 26  0     1  0  0  0  0  0999 V2000
   -3.3809   -3.3513    1.3874 H   0  0  0  0  0  0  0  0  0  0  0  0
   -2.8556   -2.9501    0.5174 C   0  0  0  0  0  0  0  0  0  0  0  0
   -3.5742   -2.4318   -0.1222 H   0  0  0  0  0  0  0  0  0  0  0  0
   -2.4175   -3.7768   -0.0485 H   0  0  0  0  0  0  0  0  0  0  0  0
   -1.7595   -1.9951    0.9568 C   0  0  0  0  0  0  0  0  0  0  0  0
   -1.2081   -2.1657    2.0394 O   0  0  0  0  0  0  0  0  0  0  0  0
   -1.4792   -0.8625    0.2184 N   0  0  0  0  0  0  0  0  0  0  0  0
   -1.8527   -0.9377   -0.7314 H   0  0  0  0  0  0  0  0  0  0  0  0
   -0.1475   -0.2426    0.2807 C   0  0  1  0  0  0  0  0  0  0  0  0
    0.4487   -0.6411    1.1064 H   0  0  0  0  0  0  0  0  0  0  0  0
    0.5654   -0.5195   -1.0598 C   0  0  0  0  0  0  0  0  0  0  0  0
   -0.0729   -0.2377   -1.9047 H   0  0  0  0  0  0  0  0  0  0  0  0
    1.4492    0.1250   -1.1088 H   0  0  0  0  0  0  0  0  0  0  0  0
    1.0632   -1.9743   -1.1974 C   0  0  0  0  0  0  0  0  0  0  0  0
    1.9478   -1.9708   -1.8406 H   0  0  0  0  0  0  0  0  0  0  0  0
    1.3655   -2.3598   -0.2194 H   0  0  0  0  0  0  0  0  0  0  0  0
    0.0446   -2.9383   -1.8284 C   0  0  0  0  0  0  0  0  0  0  0  0
   -1.1075   -2.5193   -2.1212 O   0  5  0  0  0  0  0  0  0  0  0  0
    0.4294   -4.1200   -1.9959 O   0  0  0  0  0  0  0  0  0  0  0  0
   -0.2321    1.2917    0.4328 C   0  0  0  0  0  0  0  0  0  0  0  0
   -0.9630    1.9855   -0.2666 O   0  0  0  0  0  0  0  0  0  0  0  0
    0.5854    1.9198    1.3559 N   0  0  0  0  0  0  0  0  0  0  0  0
    1.1240    1.3211    1.9734 H   0  0  0  0  0  0  0  0  0  0  0  0
    0.5636    3.3541    1.6037 C   0  0  0  0  0  0  0  0  0  0  0  0
   -0.4253    3.6663    1.9548 H   0  0  0  0  0  0  0  0  0  0  0  0
    1.3018    3.6147    2.3679 H   0  0  0  0  0  0  0  0  0  0  0  0
    0.8051    3.9043    0.6884 H   0  0  0  0  0  0  0  0  0  0  0  0
  1  2  1  0  0  0  0
  2  3  1  0  0  0  0
  2  4  1  0  0  0  0
  2  5  1  0  0  0  0
  5  6  2  0  0  0  0
  5  7  1  0  0  0  0
  7  8  1  0  0  0  0
  7  9  1  0  0  0  0
  9 10  1  0  0  0  0
  9 11  1  0  0  0  0
  9 20  1  0  0  0  0
 11 12  1  0  0  0  0
 11 13  1  0  0  0  0
 11 14  1  0  0  0  0
 14 15  1  0  0  0  0
 14 16  1  0  0  0  0
 14 17  1  0  0  0  0
 17 18  1  0  0  0  0
 17 19  2  0  0  0  0
 20 21  2  0  0  0  0
 20 22  1  0  0  0  0
 22 23  1  0  0  0  0
 22 24  1  0  0  0  0
 24 25  1  0  0  0  0
 24 26  1  0  0  0  0
 24 27  1  0  0  0  0
M  CHG  1  18  -1
M  END
$$$$

  -OEChem-03222214043D

 27 26  0     1  0  0  0  0  0999 V2000
   -2.9863   -3.7829    1.0935 H   0  0  0  0  0  0  0  0  0  0  0  0
   -2.9760   -2.8569    0.5127 C   0  0  0  0  0  0  0  0  0  0  0  0
   -3.8970   -2.3025    0.7056 H   0  0  0  0  0  0  0  0  0  0  0  0
   -2.9348   -3.1145   -0.5483 H   0  0  0  0  0  0  0  0  0  0  0  0
   -1.7741   -2.0103    0.8966 C   0  0  0  0  0  0  0  0  0  0  0  0
   -1.2029   -2.2282    1.9604 O   0  0  0  0  0  0  0  0  0  0  0  0
   -1.4563   -0.8839    0.1643 N   0  0  0  0  0  0  0  0  0  0  0  0
   -1.8353   -0.9231   -0.7833 H   0  0  0  0  0  0  0  0  0  0  0  0
   -0.1286   -0.2583    0.2622 C   0  0  1  0  0  0  0  0  0  0  0  0
    0.4354   -0.6396    1.1180 H   0  0  0  0  0  0  0  0  0  0  0  0
    0.6377   -0.5627   -1.0402 C   0  0  0  0  0  0  0  0  0  0  0  0
    0.0259   -0.3115   -1.9142 H   0  0  0  0  0  0  0  0  0  0  0  0
    1.5181    0.0870   -1.0778 H   0  0  0  0  0  0  0  0  0  0  0  0
    1.1407   -2.0201   -1.1127 C   0  0  0  0  0  0  0  0  0  0  0  0
    2.1756   -2.0133   -1.4683 H   0  0  0  0  0  0  0  0  0  0  0  0
    1.1376   -2.4795   -0.1204 H   0  0  0  0  0  0  0  0  0  0  0  0
    0.3090   -2.8857   -2.0696 C   0  0  0  0  0  0  0  0  0  0  0  0
   -0.9362   -2.7024   -2.1155 O   0  5  0  0  0  0  0  0  0  0  0  0
    0.9250   -3.7475   -2.7423 O   0  0  0  0  0  0  0  0  0  0  0  0
   -0.2236    1.2769    0.3949 C   0  0  0  0  0  0  0  0  0  0  0  0
   -0.9472    1.9551   -0.3270 O   0  0  0  0  0  0  0  0  0  0  0  0
    0.5601    1.9228    1.3353 N   0  0  0  0  0  0  0  0  0  0  0  0
    1.1000    1.3379    1.9648 H   0  0  0  0  0  0  0  0  0  0  0  0
    0.5261    3.3609    1.5598 C   0  0  0  0  0  0  0  0  0  0  0  0
   -0.4705    3.6728    1.8881 H   0  0  0  0  0  0  0  0  0  0  0  0
    1.2490    3.6375    2.3328 H   0  0  0  0  0  0  0  0  0  0  0  0
    0.7812    3.8982    0.6407 H   0  0  0  0  0  0  0  0  0  0  0  0
  1  2  1  0  0  0  0
  2  3  1  0  0  0  0
  2  4  1  0  0  0  0
  2  5  1  0  0  0  0
  5  6  2  0  0  0  0
  5  7  1  0  0  0  0
  7  8  1  0  0  0  0
  7  9  1  0  0  0  0
  9 10  1  0  0  0  0
  9 11  1  0  0  0  0
  9 20  1  0  0  0  0
 11 12  1  0  0  0  0
 11 13  1  0  0  0  0
 11 14  1  0  0  0  0
 14 15  1  0  0  0  0
 14 16  1  0  0  0  0
 14 17  1  0  0  0  0
 17 18  1  0  0  0  0
 17 19  2  0  0  0  0
 20 21  2  0  0  0  0
 20 22  1  0  0  0  0
 22 23  1  0  0  0  0
 22 24  1  0  0  0  0
 24 25  1  0  0  0  0
 24 26  1  0  0  0  0
 24 27  1  0  0  0  0
M  CHG  1  18  -1
M  END
$$$$

  -OEChem-03222214043D

 27 26  0     1  0  0  0  0  0999 V2000
   -3.0809   -3.6983    1.1400 H   0  0  0  0  0  0  0  0  0  0  0  0
   -2.9293   -2.8777    0.4341 C   0  0  0  0  0  0  0  0  0  0  0  0
   -3.8444   -2.2842    0.3765 H   0  0  0  0  0  0  0  0  0  0  0  0
   -2.7176   -3.2995   -0.5518 H   0  0  0  0  0  0  0  0  0  0  0  0
   -1.7707   -2.0039    0.8818 C   0  0  0  0  0  0  0  0  0  0  0  0
   -1.2093   -2.2348    1.9473 O   0  0  0  0  0  0  0  0  0  0  0  0
   -1.4459   -0.8719    0.1632 N   0  0  0  0  0  0  0  0  0  0  0  0
   -1.8577   -0.8563   -0.7691 H   0  0  0  0  0  0  0  0  0  0  0  0
   -0.1208   -0.2405    0.2651 C   0  0  1  0  0  0  0  0  0  0  0  0
    0.4445   -0.6260    1.1184 H   0  0  0  0  0  0  0  0  0  0  0  0
    0.6228   -0.5708   -1.0398 C   0  0  0  0  0  0  0  0  0  0  0  0
   -0.0164   -0.3445   -1.9014 H   0  0  0  0  0  0  0  0  0  0  0  0
    1.5023    0.0760   -1.1229 H   0  0  0  0  0  0  0  0  0  0  0  0
    1.1082   -2.0353   -1.0745 C   0  0  0  0  0  0  0  0  0  0  0  0
    2.1983   -2.0509   -1.1671 H   0  0  0  0  0  0  0  0  0  0  0  0
    0.8545   -2.5606   -0.1498 H   0  0  0  0  0  0  0  0  0  0  0  0
    0.4904   -2.7874   -2.2544 C   0  0  0  0  0  0  0  0  0  0  0  0
   -0.7655   -2.8736   -2.2821 O   0  5  0  0  0  0  0  0  0  0  0  0
    1.2616   -3.2715   -3.1183 O   0  0  0  0  0  0  0  0  0  0  0  0
   -0.2117    1.2931    0.4068 C   0  0  0  0  0  0  0  0  0  0  0  0
   -0.9453    1.9713   -0.3046 O   0  0  0  0  0  0  0  0  0  0  0  0
    0.5731    1.9333    1.3494 N   0  0  0  0  0  0  0  0  0  0  0  0
    1.1356    1.3472    1.9576 H   0  0  0  0  0  0  0  0  0  0  0  0
    0.5552    3.3722    1.5701 C   0  0  0  0  0  0  0  0  0  0  0  0
   -0.4462    3.7021    1.8650 H   0  0  0  0  0  0  0  0  0  0  0  0
    1.2565    3.6387    2.3664 H   0  0  0  0  0  0  0  0  0  0  0  0
    0.8497    3.9021    0.6585 H   0  0  0  0  0  0  0  0  0  0  0  0
  1  2  1  0  0  0  0
  2  3  1  0  0  0  0
  2  4  1  0  0  0  0
  2  5  1  0  0  0  0
  5  6  2  0  0  0  0
  5  7  1  0  0  0  0
  7  8  1  0  0  0  0
  7  9  1  0  0  0  0
  9 10  1  0  0  0  0
  9 11  1  0  0  0  0
  9 20  1  0  0  0  0
 11 12  1  0  0  0  0
 11 13  1  0  0  0  0
 11 14  1  0  0  0  0
 14 15  1  0  0  0  0
 14 16  1  0  0  0  0
 14 17  1  0  0  0  0
 17 18  1  0  0  0  0
 17 19  2  0  0  0  0
 20 21  2  0  0  0  0
 20 22  1  0  0  0  0
 22 23  1  0  0  0  0
 22 24  1  0  0  0  0
 24 25  1  0  0  0  0
 24 26  1  0  0  0  0
 24 27  1  0  0  0  0
M  CHG  1  18  -1
M  END
$$$$

  -OEChem-03222214043D

 27 26  0     1  0  0  0  0  0999 V2000
   -3.0307   -3.7433    1.0260 H   0  0  0  0  0  0  0  0  0  0  0  0
   -2.9013   -2.8807    0.3669 C   0  0  0  0  0  0  0  0  0  0  0  0
   -3.8429   -2.3294    0.3125 H   0  0  0  0  0  0  0  0  0  0  0  0
   -2.6396   -3.2390   -0.6335 H   0  0  0  0  0  0  0  0  0  0  0  0
   -1.7982   -1.9781    0.8885 C   0  0  0  0  0  0  0  0  0  0  0  0
   -1.2451   -2.2302    1.9521 O   0  0  0  0  0  0  0  0  0  0  0  0
   -1.4567   -0.8464    0.1800 N   0  0  0  0  0  0  0  0  0  0  0  0
   -1.9040   -0.7727   -0.7316 H   0  0  0  0  0  0  0  0  0  0  0  0
   -0.1257   -0.2267    0.2723 C   0  0  1  0  0  0  0  0  0  0  0  0
    0.4376   -0.6195    1.1241 H   0  0  0  0  0  0  0  0  0  0  0  0
    0.6094   -0.5778   -1.0317 C   0  0  0  0  0  0  0  0  0  0  0  0
   -0.0520   -0.3726   -1.8818 H   0  0  0  0  0  0  0  0  0  0  0  0
    1.4874    0.0657   -1.1502 H   0  0  0  0  0  0  0  0  0  0  0  0
    1.0815   -2.0465   -1.0513 C   0  0  0  0  0  0  0  0  0  0  0  0
    2.1583   -2.0864   -0.8627 H   0  0  0  0  0  0  0  0  0  0  0  0
    0.5976   -2.6313   -0.2658 H   0  0  0  0  0  0  0  0  0  0  0  0
    0.7656   -2.7006   -2.3945 C   0  0  0  0  0  0  0  0  0  0  0  0
   -0.4436   -2.9627   -2.6247 O   0  5  0  0  0  0  0  0  0  0  0  0
    1.7140   -2.9253   -3.1857 O   0  0  0  0  0  0  0  0  0  0  0  0
   -0.2021    1.3064    0.4215 C   0  0  0  0  0  0  0  0  0  0  0  0
   -0.9570    1.9853   -0.2665 O   0  0  0  0  0  0  0  0  0  0  0  0
    0.5948    1.9413    1.3575 N   0  0  0  0  0  0  0  0  0  0  0  0
    1.1842    1.3549    1.9395 H   0  0  0  0  0  0  0  0  0  0  0  0
    0.5873    3.3803    1.5782 C   0  0  0  0  0  0  0  0  0  0  0  0
   -0.3994    3.7099    1.9193 H   0  0  0  0  0  0  0  0  0  0  0  0
    1.3253    3.6472    2.3404 H   0  0  0  0  0  0  0  0  0  0  0  0
    0.8384    3.9107    0.6538 H   0  0  0  0  0  0  0  0  0  0  0  0
  1  2  1  0  0  0  0
  2  3  1  0  0  0  0
  2  4  1  0  0  0  0
  2  5  1  0  0  0  0
  5  6  2  0  0  0  0
  5  7  1  0  0  0  0
  7  8  1  0  0  0  0
  7  9  1  0  0  0  0
  9 10  1  0  0  0  0
  9 11  1  0  0  0  0
  9 20  1  0  0  0  0
 11 12  1  0  0  0  0
 11 13  1  0  0  0  0
 11 14  1  0  0  0  0
 14 15  1  0  0  0  0
 14 16  1  0  0  0  0
 14 17  1  0  0  0  0
 17 18  1  0  0  0  0
 17 19  2  0  0  0  0
 20 21  2  0  0  0  0
 20 22  1  0  0  0  0
 22 23  1  0  0  0  0
 22 24  1  0  0  0  0
 24 25  1  0  0  0  0
 24 26  1  0  0  0  0
 24 27  1  0  0  0  0
M  CHG  1  18  -1
M  END
$$$$

  -OEChem-03222214043D

 27 26  0     1  0  0  0  0  0999 V2000
   -3.1704   -3.6606    1.1030 H   0  0  0  0  0  0  0  0  0  0  0  0
   -2.9971   -2.8242    0.4205 C   0  0  0  0  0  0  0  0  0  0  0  0
   -3.8929   -2.1992    0.3906 H   0  0  0  0  0  0  0  0  0  0  0  0
   -2.8045   -3.2206   -0.5805 H   0  0  0  0  0  0  0  0  0  0  0  0
   -1.8057   -2.0052    0.8831 C   0  0  0  0  0  0  0  0  0  0  0  0
   -1.1981   -2.3240    1.8968 O   0  0  0  0  0  0  0  0  0  0  0  0
   -1.4513   -0.8703    0.1856 N   0  0  0  0  0  0  0  0  0  0  0  0
   -1.9655   -0.7051   -0.6763 H   0  0  0  0  0  0  0  0  0  0  0  0
   -0.1181   -0.2539    0.2622 C   0  0  1  0  0  0  0  0  0  0  0  0
    0.4463   -0.6474    1.1128 H   0  0  0  0  0  0  0  0  0  0  0  0
    0.6387   -0.5808   -1.0367 C   0  0  0  0  0  0  0  0  0  0  0  0
   -0.0246   -0.3850   -1.8873 H   0  0  0  0  0  0  0  0  0  0  0  0
    1.5064    0.0780   -1.1468 H   0  0  0  0  0  0  0  0  0  0  0  0
    1.1306   -2.0395   -1.0775 C   0  0  0  0  0  0  0  0  0  0  0  0
    2.1178   -2.1111   -0.6117 H   0  0  0  0  0  0  0  0  0  0  0  0
    0.4590   -2.6937   -0.5168 H   0  0  0  0  0  0  0  0  0  0  0  0
    1.1868   -2.5513   -2.5151 C   0  0  0  0  0  0  0  0  0  0  0  0
    0.1084   -2.9447   -3.0281 O   0  5  0  0  0  0  0  0  0  0  0  0
    2.2947   -2.5206   -3.1052 O   0  0  0  0  0  0  0  0  0  0  0  0
   -0.2065    1.2771    0.4219 C   0  0  0  0  0  0  0  0  0  0  0  0
   -1.0063    1.9444   -0.2259 O   0  0  0  0  0  0  0  0  0  0  0  0
    0.5964    1.9157    1.3498 N   0  0  0  0  0  0  0  0  0  0  0  0
    1.2420    1.3396    1.8804 H   0  0  0  0  0  0  0  0  0  0  0  0
    0.5732    3.3527    1.5808 C   0  0  0  0  0  0  0  0  0  0  0  0
   -0.4209    3.6708    1.9111 H   0  0  0  0  0  0  0  0  0  0  0  0
    1.2975    3.6202    2.3557 H   0  0  0  0  0  0  0  0  0  0  0  0
    0.8319    3.8917    0.6636 H   0  0  0  0  0  0  0  0  0  0  0  0
  1  2  1  0  0  0  0
  2  3  1  0  0  0  0
  2  4  1  0  0  0  0
  2  5  1  0  0  0  0
  5  6  2  0  0  0  0
  5  7  1  0  0  0  0
  7  8  1  0  0  0  0
  7  9  1  0  0  0  0
  9 10  1  0  0  0  0
  9 11  1  0  0  0  0
  9 20  1  0  0  0  0
 11 12  1  0  0  0  0
 11 13  1  0  0  0  0
 11 14  1  0  0  0  0
 14 15  1  0  0  0  0
 14 16  1  0  0  0  0
 14 17  1  0  0  0  0
 17 18  1  0  0  0  0
 17 19  2  0  0  0  0
 20 21  2  0  0  0  0
 20 22  1  0  0  0  0
 22 23  1  0  0  0  0
 22 24  1  0  0  0  0
 24 25  1  0  0  0  0
 24 26  1  0  0  0  0
 24 27  1  0  0  0  0
M  CHG  1  18  -1
M  END
$$$$

  -OEChem-03222214043D

 27 26  0     1  0  0  0  0  0999 V2000
   -3.2300   -3.6344    1.1196 H   0  0  0  0  0  0  0  0  0  0  0  0
   -3.0659   -2.7800    0.4572 C   0  0  0  0  0  0  0  0  0  0  0  0
   -3.9294   -2.1133    0.5187 H   0  0  0  0  0  0  0  0  0  0  0  0
   -2.9678   -3.1440   -0.5691 H   0  0  0  0  0  0  0  0  0  0  0  0
   -1.8050   -2.0368    0.8598 C   0  0  0  0  0  0  0  0  0  0  0  0
   -1.1496   -2.4211    1.8186 O   0  0  0  0  0  0  0  0  0  0  0  0
   -1.4468   -0.8929    0.1794 N   0  0  0  0  0  0  0  0  0  0  0  0
   -2.0199   -0.6413   -0.6219 H   0  0  0  0  0  0  0  0  0  0  0  0
   -0.1146   -0.2740    0.2489 C   0  0  1  0  0  0  0  0  0  0  0  0
    0.4508   -0.6715    1.0972 H   0  0  0  0  0  0  0  0  0  0  0  0
    0.6554   -0.5779   -1.0474 C   0  0  0  0  0  0  0  0  0  0  0  0
    0.0027   -0.3833   -1.9060 H   0  0  0  0  0  0  0  0  0  0  0  0
    1.5198    0.0890   -1.1366 H   0  0  0  0  0  0  0  0  0  0  0  0
    1.1592   -2.0292   -1.0973 C   0  0  0  0  0  0  0  0  0  0  0  0
    2.0013   -2.1573   -0.4108 H   0  0  0  0  0  0  0  0  0  0  0  0
    0.3710   -2.7185   -0.7839 H   0  0  0  0  0  0  0  0  0  0  0  0
    1.5834   -2.4006   -2.5164 C   0  0  0  0  0  0  0  0  0  0  0  0
    0.7268   -2.9452   -3.2571 O   0  5  0  0  0  0  0  0  0  0  0  0
    2.7510   -2.0999   -2.8690 O   0  0  0  0  0  0  0  0  0  0  0  0
   -0.2142    1.2538    0.4290 C   0  0  0  0  0  0  0  0  0  0  0  0
   -1.0474    1.9139   -0.1838 O   0  0  0  0  0  0  0  0  0  0  0  0
    0.5923    1.8899    1.3554 N   0  0  0  0  0  0  0  0  0  0  0  0
    1.2906    1.3243    1.8279 H   0  0  0  0  0  0  0  0  0  0  0  0
    0.5690    3.3267    1.5878 C   0  0  0  0  0  0  0  0  0  0  0  0
   -0.4295    3.6476    1.9020 H   0  0  0  0  0  0  0  0  0  0  0  0
    1.2804    3.5917    2.3754 H   0  0  0  0  0  0  0  0  0  0  0  0
    0.8439    3.8654    0.6752 H   0  0  0  0  0  0  0  0  0  0  0  0
  1  2  1  0  0  0  0
  2  3  1  0  0  0  0
  2  4  1  0  0  0  0
  2  5  1  0  0  0  0
  5  6  2  0  0  0  0
  5  7  1  0  0  0  0
  7  8  1  0  0  0  0
  7  9  1  0  0  0  0
  9 10  1  0  0  0  0
  9 11  1  0  0  0  0
  9 20  1  0  0  0  0
 11 12  1  0  0  0  0
 11 13  1  0  0  0  0
 11 14  1  0  0  0  0
 14 15  1  0  0  0  0
 14 16  1  0  0  0  0
 14 17  1  0  0  0  0
 17 18  1  0  0  0  0
 17 19  2  0  0  0  0
 20 21  2  0  0  0  0
 20 22  1  0  0  0  0
 22 23  1  0  0  0  0
 22 24  1  0  0  0  0
 24 25  1  0  0  0  0
 24 26  1  0  0  0  0
 24 27  1  0  0  0  0
M  CHG  1  18  -1
M  END
$$$$

  -OEChem-03222214043D

 27 26  0     1  0  0  0  0  0999 V2000
   -3.1438   -3.7028    1.2523 H   0  0  0  0  0  0  0  0  0  0  0  0
   -3.0276   -2.8437    0.5859 C   0  0  0  0  0  0  0  0  0  0  0  0
   -3.8885   -2.1820    0.7081 H   0  0  0  0  0  0  0  0  0  0  0  0
   -2.9954   -3.2006   -0.4469 H   0  0  0  0  0  0  0  0  0  0  0  0
   -1.7473   -2.0952    0.9102 C   0  0  0  0  0  0  0  0  0  0  0  0
   -1.0306   -2.4792    1.8237 O   0  0  0  0  0  0  0  0  0  0  0  0
   -1.4425   -0.9465    0.2120 N   0  0  0  0  0  0  0  0  0  0  0  0
   -2.0728   -0.6849   -0.5416 H   0  0  0  0  0  0  0  0  0  0  0  0
   -0.1316   -0.2806    0.2306 C   0  0  1  0  0  0  0  0  0  0  0  0
    0.4627   -0.6528    1.0706 H   0  0  0  0  0  0  0  0  0  0  0  0
    0.6385   -0.5718   -1.0689 C   0  0  0  0  0  0  0  0  0  0  0  0
    0.0737   -0.1784   -1.9214 H   0  0  0  0  0  0  0  0  0  0  0  0
    1.6004   -0.0485   -1.0408 H   0  0  0  0  0  0  0  0  0  0  0  0
    0.8972   -2.0715   -1.2916 C   0  0  0  0  0  0  0  0  0  0  0  0
    1.4776   -2.4755   -0.4569 H   0  0  0  0  0  0  0  0  0  0  0  0
   -0.0474   -2.6202   -1.3388 H   0  0  0  0  0  0  0  0  0  0  0  0
    1.6639   -2.2971   -2.5938 C   0  0  0  0  0  0  0  0  0  0  0  0
    2.8810   -1.9847   -2.6112 O   0  5  0  0  0  0  0  0  0  0  0  0
    1.0280   -2.7601   -3.5731 O   0  0  0  0  0  0  0  0  0  0  0  0
   -0.2757    1.2443    0.4001 C   0  0  0  0  0  0  0  0  0  0  0  0
   -1.1647    1.8645   -0.1752 O   0  0  0  0  0  0  0  0  0  0  0  0
    0.5397    1.9168    1.2919 N   0  0  0  0  0  0  0  0  0  0  0  0
    1.2911    1.3861    1.7216 H   0  0  0  0  0  0  0  0  0  0  0  0
    0.4748    3.3545    1.5109 C   0  0  0  0  0  0  0  0  0  0  0  0
   -0.5244    3.6458    1.8506 H   0  0  0  0  0  0  0  0  0  0  0  0
    1.1988    3.6512    2.2754 H   0  0  0  0  0  0  0  0  0  0  0  0
    0.7059    3.8927    0.5858 H   0  0  0  0  0  0  0  0  0  0  0  0
  1  2  1  0  0  0  0
  2  3  1  0  0  0  0
  2  4  1  0  0  0  0
  2  5  1  0  0  0  0
  5  6  2  0  0  0  0
  5  7  1  0  0  0  0
  7  8  1  0  0  0  0
  7  9  1  0  0  0  0
  9 10  1  0  0  0  0
  9 11  1  0  0  0  0
  9 20  1  0  0  0  0
 11 12  1  0  0  0  0
 11 13  1  0  0  0  0
 11 14  1  0  0  0  0
 14 15  1  0  0  0  0
 14 16  1  0  0  0  0
 14 17  1  0  0  0  0
 17 18  1  0  0  0  0
 17 19  2  0  0  0  0
 20 21  2  0  0  0  0
 20 22  1  0  0  0  0
 22 23  1  0  0  0  0
 22 24  1  0  0  0  0
 24 25  1  0  0  0  0
 24 26  1  0  0  0  0
 24 27  1  0  0  0  0
M  CHG  1  18  -1
M  END
$$$$

  -OEChem-03222214043D

 27 26  0     1  0  0  0  0  0999 V2000
   -3.2499   -3.6462    1.0934 H   0  0  0  0  0  0  0  0  0  0  0  0
   -3.1019   -2.7660    0.4616 C   0  0  0  0  0  0  0  0  0  0  0  0
   -3.9480   -2.0877    0.5959 H   0  0  0  0  0  0  0  0  0  0  0  0
   -3.0619   -3.0857   -0.5830 H   0  0  0  0  0  0  0  0  0  0  0  0
   -1.8087   -2.0632    0.8334 C   0  0  0  0  0  0  0  0  0  0  0  0
   -1.1219   -2.4959    1.7475 O   0  0  0  0  0  0  0  0  0  0  0  0
   -1.4569   -0.9040    0.1754 N   0  0  0  0  0  0  0  0  0  0  0  0
   -2.0691   -0.5945   -0.5744 H   0  0  0  0  0  0  0  0  0  0  0  0
   -0.1266   -0.2801    0.2370 C   0  0  1  0  0  0  0  0  0  0  0  0
    0.4430   -0.6953    1.0743 H   0  0  0  0  0  0  0  0  0  0  0  0
    0.6482   -0.5603   -1.0612 C   0  0  0  0  0  0  0  0  0  0  0  0
    0.1236   -0.1207   -1.9161 H   0  0  0  0  0  0  0  0  0  0  0  0
    1.6260   -0.0719   -0.9889 H   0  0  0  0  0  0  0  0  0  0  0  0
    0.8525   -2.0655   -1.3138 C   0  0  0  0  0  0  0  0  0  0  0  0
    1.1726   -2.5583   -0.3912 H   0  0  0  0  0  0  0  0  0  0  0  0
   -0.0931   -2.5206   -1.6230 H   0  0  0  0  0  0  0  0  0  0  0  0
    1.9169   -2.3185   -2.3829 C   0  0  0  0  0  0  0  0  0  0  0  0
    1.5587   -2.9120   -3.4304 O   0  5  0  0  0  0  0  0  0  0  0  0
    3.0802   -1.8962   -2.1608 O   0  0  0  0  0  0  0  0  0  0  0  0
   -0.2236    1.2433    0.4500 C   0  0  0  0  0  0  0  0  0  0  0  0
   -1.0821    1.9082   -0.1226 O   0  0  0  0  0  0  0  0  0  0  0  0
    0.5971    1.8617    1.3753 N   0  0  0  0  0  0  0  0  0  0  0  0
    1.3310    1.2957    1.7909 H   0  0  0  0  0  0  0  0  0  0  0  0
    0.5786    3.2941    1.6336 C   0  0  0  0  0  0  0  0  0  0  0  0
   -0.4147    3.6101    1.9687 H   0  0  0  0  0  0  0  0  0  0  0  0
    1.3018    3.5436    2.4156 H   0  0  0  0  0  0  0  0  0  0  0  0
    0.8408    3.8493    0.7272 H   0  0  0  0  0  0  0  0  0  0  0  0
  1  2  1  0  0  0  0
  2  3  1  0  0  0  0
  2  4  1  0  0  0  0
  2  5  1  0  0  0  0
  5  6  2  0  0  0  0
  5  7  1  0  0  0  0
  7  8  1  0  0  0  0
  7  9  1  0  0  0  0
  9 10  1  0  0  0  0
  9 11  1  0  0  0  0
  9 20  1  0  0  0  0
 11 12  1  0  0  0  0
 11 13  1  0  0  0  0
 11 14  1  0  0  0  0
 14 15  1  0  0  0  0
 14 16  1  0  0  0  0
 14 17  1  0  0  0  0
 17 18  1  0  0  0  0
 17 19  2  0  0  0  0
 20 21  2  0  0  0  0
 20 22  1  0  0  0  0
 22 23  1  0  0  0  0
 22 24  1  0  0  0  0
 24 25  1  0  0  0  0
 24 26  1  0  0  0  0
 24 27  1  0  0  0  0
M  CHG  1  18  -1
M  END
$$$$

  -OEChem-03222214043D

 27 26  0     1  0  0  0  0  0999 V2000
   -3.2578   -3.6402    1.1122 H   0  0  0  0  0  0  0  0  0  0  0  0
   -3.0885   -2.7854    0.4515 C   0  0  0  0  0  0  0  0  0  0  0  0
   -3.9334   -2.0982    0.5399 H   0  0  0  0  0  0  0  0  0  0  0  0
   -3.0254   -3.1439   -0.5793 H   0  0  0  0  0  0  0  0  0  0  0  0
   -1.7999   -2.0768    0.8286 C   0  0  0  0  0  0  0  0  0  0  0  0
   -1.1148   -2.5084    1.7439 O   0  0  0  0  0  0  0  0  0  0  0  0
   -1.4558   -0.9111    0.1784 N   0  0  0  0  0  0  0  0  0  0  0  0
   -2.0728   -0.5996   -0.5663 H   0  0  0  0  0  0  0  0  0  0  0  0
   -0.1299   -0.2766    0.2406 C   0  0  1  0  0  0  0  0  0  0  0  0
    0.4466   -0.6942    1.0722 H   0  0  0  0  0  0  0  0  0  0  0  0
    0.6407   -0.5403   -1.0634 C   0  0  0  0  0  0  0  0  0  0  0  0
    0.1151   -0.0955   -1.9149 H   0  0  0  0  0  0  0  0  0  0  0  0
    1.6118   -0.0399   -0.9845 H   0  0  0  0  0  0  0  0  0  0  0  0
    0.8567   -2.0434   -1.3305 C   0  0  0  0  0  0  0  0  0  0  0  0
    0.9368   -2.5841   -0.3831 H   0  0  0  0  0  0  0  0  0  0  0  0
   -0.0053   -2.4481   -1.8695 H   0  0  0  0  0  0  0  0  0  0  0  0
    2.1429   -2.3095   -2.1160 C   0  0  0  0  0  0  0  0  0  0  0  0
    2.0335   -2.8696   -3.2348 O   0  5  0  0  0  0  0  0  0  0  0  0
    3.2291   -1.9309   -1.6076 O   0  0  0  0  0  0  0  0  0  0  0  0
   -0.2344    1.2442    0.4636 C   0  0  0  0  0  0  0  0  0  0  0  0
   -1.0975    1.9085   -0.1030 O   0  0  0  0  0  0  0  0  0  0  0  0
    0.5870    1.8583    1.3909 N   0  0  0  0  0  0  0  0  0  0  0  0
    1.3290    1.2923    1.7925 H   0  0  0  0  0  0  0  0  0  0  0  0
    0.5705    3.2894    1.6546 C   0  0  0  0  0  0  0  0  0  0  0  0
   -0.4223    3.6058    1.9904 H   0  0  0  0  0  0  0  0  0  0  0  0
    1.2937    3.5346    2.4379 H   0  0  0  0  0  0  0  0  0  0  0  0
    0.8344    3.8476    0.7506 H   0  0  0  0  0  0  0  0  0  0  0  0
  1  2  1  0  0  0  0
  2  3  1  0  0  0  0
  2  4  1  0  0  0  0
  2  5  1  0  0  0  0
  5  6  2  0  0  0  0
  5  7  1  0  0  0  0
  7  8  1  0  0  0  0
  7  9  1  0  0  0  0
  9 10  1  0  0  0  0
  9 11  1  0  0  0  0
  9 20  1  0  0  0  0
 11 12  1  0  0  0  0
 11 13  1  0  0  0  0
 11 14  1  0  0  0  0
 14 15  1  0  0  0  0
 14 16  1  0  0  0  0
 14 17  1  0  0  0  0
 17 18  1  0  0  0  0
 17 19  2  0  0  0  0
 20 21  2  0  0  0  0
 20 22  1  0  0  0  0
 22 23  1  0  0  0  0
 22 24  1  0  0  0  0
 24 25  1  0  0  0  0
 24 26  1  0  0  0  0
 24 27  1  0  0  0  0
M  CHG  1  18  -1
M  END
$$$$

  -OEChem-03222214043D

 27 26  0     1  0  0  0  0  0999 V2000
   -3.2617   -3.6524    1.1122 H   0  0  0  0  0  0  0  0  0  0  0  0
   -3.0935   -2.7919    0.4586 C   0  0  0  0  0  0  0  0  0  0  0  0
   -3.9336   -2.1007    0.5612 H   0  0  0  0  0  0  0  0  0  0  0  0
   -3.0412   -3.1406   -0.5761 H   0  0  0  0  0  0  0  0  0  0  0  0
   -1.7982   -2.0933    0.8317 C   0  0  0  0  0  0  0  0  0  0  0  0
   -1.1142   -2.5309    1.7444 O   0  0  0  0  0  0  0  0  0  0  0  0
   -1.4523   -0.9256    0.1859 N   0  0  0  0  0  0  0  0  0  0  0  0
   -2.0793   -0.5990   -0.5437 H   0  0  0  0  0  0  0  0  0  0  0  0
   -0.1293   -0.2840    0.2483 C   0  0  1  0  0  0  0  0  0  0  0  0
    0.4520   -0.7026    1.0764 H   0  0  0  0  0  0  0  0  0  0  0  0
    0.6440   -0.5319   -1.0578 C   0  0  0  0  0  0  0  0  0  0  0  0
    0.1039   -0.0884   -1.9009 H   0  0  0  0  0  0  0  0  0  0  0  0
    1.6045   -0.0104   -0.9855 H   0  0  0  0  0  0  0  0  0  0  0  0
    0.8801   -2.0297   -1.3499 C   0  0  0  0  0  0  0  0  0  0  0  0
    0.7047   -2.6267   -0.4511 H   0  0  0  0  0  0  0  0  0  0  0  0
    0.1714   -2.3679   -2.1117 H   0  0  0  0  0  0  0  0  0  0  0  0
    2.3151   -2.3132   -1.8020 C   0  0  0  0  0  0  0  0  0  0  0  0
    2.4716   -2.8783   -2.9127 O   0  5  0  0  0  0  0  0  0  0  0  0
    3.2519   -1.9417   -1.0491 O   0  0  0  0  0  0  0  0  0  0  0  0
   -0.2440    1.2355    0.4734 C   0  0  0  0  0  0  0  0  0  0  0  0
   -1.1096    1.8938   -0.0970 O   0  0  0  0  0  0  0  0  0  0  0  0
    0.5725    1.8557    1.4007 N   0  0  0  0  0  0  0  0  0  0  0  0
    1.3218    1.2955    1.7982 H   0  0  0  0  0  0  0  0  0  0  0  0
    0.5502    3.2879    1.6592 C   0  0  0  0  0  0  0  0  0  0  0  0
   -0.4463    3.6034    1.9852 H   0  0  0  0  0  0  0  0  0  0  0  0
    1.2659    3.5375    2.4480 H   0  0  0  0  0  0  0  0  0  0  0  0
    0.8204    3.8438    0.7555 H   0  0  0  0  0  0  0  0  0  0  0  0
  1  2  1  0  0  0  0
  2  3  1  0  0  0  0
  2  4  1  0  0  0  0
  2  5  1  0  0  0  0
  5  6  2  0  0  0  0
  5  7  1  0  0  0  0
  7  8  1  0  0  0  0
  7  9  1  0  0  0  0
  9 10  1  0  0  0  0
  9 11  1  0  0  0  0
  9 20  1  0  0  0  0
 11 12  1  0  0  0  0
 11 13  1  0  0  0  0
 11 14  1  0  0  0  0
 14 15  1  0  0  0  0
 14 16  1  0  0  0  0
 14 17  1  0  0  0  0
 17 18  1  0  0  0  0
 17 19  2  0  0  0  0
 20 21  2  0  0  0  0
 20 22  1  0  0  0  0
 22 23  1  0  0  0  0
 22 24  1  0  0  0  0
 24 25  1  0  0  0  0
 24 26  1  0  0  0  0
 24 27  1  0  0  0  0
M  CHG  1  18  -1
M  END
$$$$

  -OEChem-03222214043D

 27 26  0     1  0  0  0  0  0999 V2000
   -3.2197   -3.6798    1.2388 H   0  0  0  0  0  0  0  0  0  0  0  0
   -3.0873   -2.8155    0.5819 C   0  0  0  0  0  0  0  0  0  0  0  0
   -3.9360   -2.1394    0.7106 H   0  0  0  0  0  0  0  0  0  0  0  0
   -3.0603   -3.1621   -0.4542 H   0  0  0  0  0  0  0  0  0  0  0  0
   -1.7938   -2.0946    0.9169 C   0  0  0  0  0  0  0  0  0  0  0  0
   -1.1011   -2.4934    1.8399 O   0  0  0  0  0  0  0  0  0  0  0  0
   -1.4645   -0.9480    0.2259 N   0  0  0  0  0  0  0  0  0  0  0  0
   -2.1076   -0.6498   -0.5015 H   0  0  0  0  0  0  0  0  0  0  0  0
   -0.1488   -0.2863    0.2451 C   0  0  1  0  0  0  0  0  0  0  0  0
    0.4458   -0.6695    1.0817 H   0  0  0  0  0  0  0  0  0  0  0  0
    0.6291   -0.5631   -1.0537 C   0  0  0  0  0  0  0  0  0  0  0  0
    0.0574   -0.1690   -1.9005 H   0  0  0  0  0  0  0  0  0  0  0  0
    1.5724   -0.0062   -1.0260 H   0  0  0  0  0  0  0  0  0  0  0  0
    0.9045   -2.0612   -1.3088 C   0  0  0  0  0  0  0  0  0  0  0  0
    0.4929   -2.6794   -0.5083 H   0  0  0  0  0  0  0  0  0  0  0  0
    0.4228   -2.3658   -2.2429 H   0  0  0  0  0  0  0  0  0  0  0  0
    2.4073   -2.3426   -1.3875 C   0  0  0  0  0  0  0  0  0  0  0  0
    3.1186   -1.9808   -0.4148 O   0  5  0  0  0  0  0  0  0  0  0  0
    2.8435   -2.8993   -2.4251 O   0  0  0  0  0  0  0  0  0  0  0  0
   -0.2747    1.2386    0.4145 C   0  0  0  0  0  0  0  0  0  0  0  0
   -1.1497    1.8691   -0.1731 O   0  0  0  0  0  0  0  0  0  0  0  0
    0.5513    1.8965    1.3063 N   0  0  0  0  0  0  0  0  0  0  0  0
    1.3169    1.3546    1.6997 H   0  0  0  0  0  0  0  0  0  0  0  0
    0.5432    3.3399    1.4911 C   0  0  0  0  0  0  0  0  0  0  0  0
   -0.4410    3.6770    1.8320 H   0  0  0  0  0  0  0  0  0  0  0  0
    1.2854    3.6260    2.2423 H   0  0  0  0  0  0  0  0  0  0  0  0
    0.7868    3.8468    0.5517 H   0  0  0  0  0  0  0  0  0  0  0  0
  1  2  1  0  0  0  0
  2  3  1  0  0  0  0
  2  4  1  0  0  0  0
  2  5  1  0  0  0  0
  5  6  2  0  0  0  0
  5  7  1  0  0  0  0
  7  8  1  0  0  0  0
  7  9  1  0  0  0  0
  9 10  1  0  0  0  0
  9 11  1  0  0  0  0
  9 20  1  0  0  0  0
 11 12  1  0  0  0  0
 11 13  1  0  0  0  0
 11 14  1  0  0  0  0
 14 15  1  0  0  0  0
 14 16  1  0  0  0  0
 14 17  1  0  0  0  0
 17 18  1  0  0  0  0
 17 19  2  0  0  0  0
 20 21  2  0  0  0  0
 20 22  1  0  0  0  0
 22 23  1  0  0  0  0
 22 24  1  0  0  0  0
 24 25  1  0  0  0  0
 24 26  1  0  0  0  0
 24 27  1  0  0  0  0
M  CHG  1  18  -1
M  END
$$$$

  -OEChem-03222214043D

 27 26  0     1  0  0  0  0  0999 V2000
   -3.2203   -3.6954    1.1944 H   0  0  0  0  0  0  0  0  0  0  0  0
   -3.1135   -2.7935    0.5853 C   0  0  0  0  0  0  0  0  0  0  0  0
   -3.9560   -2.1277    0.7868 H   0  0  0  0  0  0  0  0  0  0  0  0
   -3.1268   -3.0788   -0.4696 H   0  0  0  0  0  0  0  0  0  0  0  0
   -1.8080   -2.0909    0.9130 C   0  0  0  0  0  0  0  0  0  0  0  0
   -1.1184   -2.4991    1.8334 O   0  0  0  0  0  0  0  0  0  0  0  0
   -1.4704   -0.9463    0.2226 N   0  0  0  0  0  0  0  0  0  0  0  0
   -2.1201   -0.6332   -0.4923 H   0  0  0  0  0  0  0  0  0  0  0  0
   -0.1517   -0.2889    0.2395 C   0  0  1  0  0  0  0  0  0  0  0  0
    0.4402   -0.6738    1.0779 H   0  0  0  0  0  0  0  0  0  0  0  0
    0.6375   -0.5646   -1.0546 C   0  0  0  0  0  0  0  0  0  0  0  0
    0.0490   -0.1835   -1.8955 H   0  0  0  0  0  0  0  0  0  0  0  0
    1.5749    0.0029   -1.0461 H   0  0  0  0  0  0  0  0  0  0  0  0
    0.9213   -2.0597   -1.3150 C   0  0  0  0  0  0  0  0  0  0  0  0
    0.2786   -2.7048   -0.7142 H   0  0  0  0  0  0  0  0  0  0  0  0
    0.7158   -2.2790   -2.3671 H   0  0  0  0  0  0  0  0  0  0  0  0
    2.3849   -2.4048   -1.0173 C   0  0  0  0  0  0  0  0  0  0  0  0
    2.9041   -1.9204    0.0226 O   0  5  0  0  0  0  0  0  0  0  0  0
    2.9857   -3.1386   -1.8404 O   0  0  0  0  0  0  0  0  0  0  0  0
   -0.2714    1.2357    0.4081 C   0  0  0  0  0  0  0  0  0  0  0  0
   -1.1417    1.8711   -0.1821 O   0  0  0  0  0  0  0  0  0  0  0  0
    0.5599    1.8871    1.2992 N   0  0  0  0  0  0  0  0  0  0  0  0
    1.3161    1.3356    1.6992 H   0  0  0  0  0  0  0  0  0  0  0  0
    0.5520    3.3277    1.5019 C   0  0  0  0  0  0  0  0  0  0  0  0
   -0.4333    3.6607    1.8437 H   0  0  0  0  0  0  0  0  0  0  0  0
    1.2917    3.6037    2.2593 H   0  0  0  0  0  0  0  0  0  0  0  0
    0.7985    3.8462    0.5698 H   0  0  0  0  0  0  0  0  0  0  0  0
  1  2  1  0  0  0  0
  2  3  1  0  0  0  0
  2  4  1  0  0  0  0
  2  5  1  0  0  0  0
  5  6  2  0  0  0  0
  5  7  1  0  0  0  0
  7  8  1  0  0  0  0
  7  9  1  0  0  0  0
  9 10  1  0  0  0  0
  9 11  1  0  0  0  0
  9 20  1  0  0  0  0
 11 12  1  0  0  0  0
 11 13  1  0  0  0  0
 11 14  1  0  0  0  0
 14 15  1  0  0  0  0
 14 16  1  0  0  0  0
 14 17  1  0  0  0  0
 17 18  1  0  0  0  0
 17 19  2  0  0  0  0
 20 21  2  0  0  0  0
 20 22  1  0  0  0  0
 22 23  1  0  0  0  0
 22 24  1  0  0  0  0
 24 25  1  0  0  0  0
 24 26  1  0  0  0  0
 24 27  1  0  0  0  0
M  CHG  1  18  -1
M  END
$$$$

  -OEChem-03222214043D

 27 26  0     1  0  0  0  0  0999 V2000
   -3.2172   -3.7042    1.1744 H   0  0  0  0  0  0  0  0  0  0  0  0
   -3.1078   -2.8029    0.5647 C   0  0  0  0  0  0  0  0  0  0  0  0
   -3.9579   -2.1426    0.7526 H   0  0  0  0  0  0  0  0  0  0  0  0
   -3.1038   -3.0905   -0.4895 H   0  0  0  0  0  0  0  0  0  0  0  0
   -1.8119   -2.0903    0.9098 C   0  0  0  0  0  0  0  0  0  0  0  0
   -1.1357   -2.4907    1.8427 O   0  0  0  0  0  0  0  0  0  0  0  0
   -1.4764   -0.9418    0.2249 N   0  0  0  0  0  0  0  0  0  0  0  0
   -2.1179   -0.6398   -0.5016 H   0  0  0  0  0  0  0  0  0  0  0  0
   -0.1592   -0.2815    0.2473 C   0  0  1  0  0  0  0  0  0  0  0  0
    0.4291   -0.6695    1.0869 H   0  0  0  0  0  0  0  0  0  0  0  0
    0.6325   -0.5500   -1.0485 C   0  0  0  0  0  0  0  0  0  0  0  0
    0.0411   -0.1669   -1.8863 H   0  0  0  0  0  0  0  0  0  0  0  0
    1.5711    0.0155   -1.0405 H   0  0  0  0  0  0  0  0  0  0  0  0
    0.9208   -2.0415   -1.3174 C   0  0  0  0  0  0  0  0  0  0  0  0
    0.1129   -2.6789   -0.9544 H   0  0  0  0  0  0  0  0  0  0  0  0
    0.9918   -2.1866   -2.3993 H   0  0  0  0  0  0  0  0  0  0  0  0
    2.2484   -2.4930   -0.6914 C   0  0  0  0  0  0  0  0  0  0  0  0
    2.6998   -1.8533    0.2960 O   0  5  0  0  0  0  0  0  0  0  0  0
    2.8250   -3.4690   -1.2315 O   0  0  0  0  0  0  0  0  0  0  0  0
   -0.2761    1.2418    0.4224 C   0  0  0  0  0  0  0  0  0  0  0  0
   -1.1365    1.8846   -0.1747 O   0  0  0  0  0  0  0  0  0  0  0  0
    0.5560    1.8854    1.3180 N   0  0  0  0  0  0  0  0  0  0  0  0
    1.3035    1.3248    1.7227 H   0  0  0  0  0  0  0  0  0  0  0  0
    0.5618    3.3260    1.5192 C   0  0  0  0  0  0  0  0  0  0  0  0
   -0.4210    3.6688    1.8582 H   0  0  0  0  0  0  0  0  0  0  0  0
    1.3023    3.5958    2.2779 H   0  0  0  0  0  0  0  0  0  0  0  0
    0.8156    3.8409    0.5871 H   0  0  0  0  0  0  0  0  0  0  0  0
  1  2  1  0  0  0  0
  2  3  1  0  0  0  0
  2  4  1  0  0  0  0
  2  5  1  0  0  0  0
  5  6  2  0  0  0  0
  5  7  1  0  0  0  0
  7  8  1  0  0  0  0
  7  9  1  0  0  0  0
  9 10  1  0  0  0  0
  9 11  1  0  0  0  0
  9 20  1  0  0  0  0
 11 12  1  0  0  0  0
 11 13  1  0  0  0  0
 11 14  1  0  0  0  0
 14 15  1  0  0  0  0
 14 16  1  0  0  0  0
 14 17  1  0  0  0  0
 17 18  1  0  0  0  0
 17 19  2  0  0  0  0
 20 21  2  0  0  0  0
 20 22  1  0  0  0  0
 22 23  1  0  0  0  0
 22 24  1  0  0  0  0
 24 25  1  0  0  0  0
 24 26  1  0  0  0  0
 24 27  1  0  0  0  0
M  CHG  1  18  -1
M  END
$$$$

  -OEChem-03222214043D

 27 26  0     1  0  0  0  0  0999 V2000
   -3.1341   -3.7527    1.1352 H   0  0  0  0  0  0  0  0  0  0  0  0
   -3.0439   -2.8530    0.5199 C   0  0  0  0  0  0  0  0  0  0  0  0
   -3.9395   -2.2414    0.6528 H   0  0  0  0  0  0  0  0  0  0  0  0
   -2.9657   -3.1524   -0.5283 H   0  0  0  0  0  0  0  0  0  0  0  0
   -1.8110   -2.0642    0.9244 C   0  0  0  0  0  0  0  0  0  0  0  0
   -1.1810   -2.3972    1.9143 O   0  0  0  0  0  0  0  0  0  0  0  0
   -1.4886   -0.9158    0.2324 N   0  0  0  0  0  0  0  0  0  0  0  0
   -2.0903   -0.6746   -0.5483 H   0  0  0  0  0  0  0  0  0  0  0  0
   -0.1711   -0.2573    0.2636 C   0  0  1  0  0  0  0  0  0  0  0  0
    0.4143   -0.6451    1.1052 H   0  0  0  0  0  0  0  0  0  0  0  0
    0.6091   -0.5321   -1.0389 C   0  0  0  0  0  0  0  0  0  0  0  0
    0.0259   -0.1373   -1.8770 H   0  0  0  0  0  0  0  0  0  0  0  0
    1.5576    0.0161   -1.0250 H   0  0  0  0  0  0  0  0  0  0  0  0
    0.8847   -2.0251   -1.3112 C   0  0  0  0  0  0  0  0  0  0  0  0
   -0.0266   -2.6148   -1.1889 H   0  0  0  0  0  0  0  0  0  0  0  0
    1.2044   -2.1270   -2.3520 H   0  0  0  0  0  0  0  0  0  0  0  0
    1.9946   -2.6106   -0.4250 C   0  0  0  0  0  0  0  0  0  0  0  0
    2.5962   -1.8533    0.3830 O   0  5  0  0  0  0  0  0  0  0  0  0
    2.2770   -3.8191   -0.6132 O   0  0  0  0  0  0  0  0  0  0  0  0
   -0.2771    1.2674    0.4359 C   0  0  0  0  0  0  0  0  0  0  0  0
   -1.1172    1.9211   -0.1781 O   0  0  0  0  0  0  0  0  0  0  0  0
    0.5554    1.9034    1.3367 N   0  0  0  0  0  0  0  0  0  0  0  0
    1.2842    1.3319    1.7600 H   0  0  0  0  0  0  0  0  0  0  0  0
    0.5697    3.3426    1.5464 C   0  0  0  0  0  0  0  0  0  0  0  0
   -0.4122    3.6894    1.8840 H   0  0  0  0  0  0  0  0  0  0  0  0
    1.3092    3.6032    2.3093 H   0  0  0  0  0  0  0  0  0  0  0  0
    0.8301    3.8617    0.6185 H   0  0  0  0  0  0  0  0  0  0  0  0
  1  2  1  0  0  0  0
  2  3  1  0  0  0  0
  2  4  1  0  0  0  0
  2  5  1  0  0  0  0
  5  6  2  0  0  0  0
  5  7  1  0  0  0  0
  7  8  1  0  0  0  0
  7  9  1  0  0  0  0
  9 10  1  0  0  0  0
  9 11  1  0  0  0  0
  9 20  1  0  0  0  0
 11 12  1  0  0  0  0
 11 13  1  0  0  0  0
 11 14  1  0  0  0  0
 14 15  1  0  0  0  0
 14 16  1  0  0  0  0
 14 17  1  0  0  0  0
 17 18  1  0  0  0  0
 17 19  2  0  0  0  0
 20 21  2  0  0  0  0
 20 22  1  0  0  0  0
 22 23  1  0  0  0  0
 22 24  1  0  0  0  0
 24 25  1  0  0  0  0
 24 26  1  0  0  0  0
 24 27  1  0  0  0  0
M  CHG  1  18  -1
M  END
$$$$

  -OEChem-03222214043D

 27 26  0     1  0  0  0  0  0999 V2000
   -3.0254   -3.7814    1.1579 H   0  0  0  0  0  0  0  0  0  0  0  0
   -2.9011   -2.9421    0.4678 C   0  0  0  0  0  0  0  0  0  0  0  0
   -3.8494   -2.4062    0.3852 H   0  0  0  0  0  0  0  0  0  0  0  0
   -2.6237   -3.3351   -0.5137 H   0  0  0  0  0  0  0  0  0  0  0  0
   -1.8160   -2.0076    0.9713 C   0  0  0  0  0  0  0  0  0  0  0  0
   -1.3166   -2.1905    2.0701 O   0  0  0  0  0  0  0  0  0  0  0  0
   -1.5115   -0.8702    0.2533 N   0  0  0  0  0  0  0  0  0  0  0  0
   -2.0199   -0.7546   -0.6168 H   0  0  0  0  0  0  0  0  0  0  0  0
   -0.1864   -0.2313    0.3012 C   0  0  1  0  0  0  0  0  0  0  0  0
    0.3977   -0.6246    1.1410 H   0  0  0  0  0  0  0  0  0  0  0  0
    0.5634   -0.5151   -1.0189 C   0  0  0  0  0  0  0  0  0  0  0  0
   -0.0030   -0.0830   -1.8502 H   0  0  0  0  0  0  0  0  0  0  0  0
    1.5340   -0.0079   -0.9904 H   0  0  0  0  0  0  0  0  0  0  0  0
    0.8002   -2.0079   -1.3210 C   0  0  0  0  0  0  0  0  0  0  0  0
   -0.1604   -2.5178   -1.4337 H   0  0  0  0  0  0  0  0  0  0  0  0
    1.3294   -2.0880   -2.2745 H   0  0  0  0  0  0  0  0  0  0  0  0
    1.6311   -2.7311   -0.2559 C   0  0  0  0  0  0  0  0  0  0  0  0
    2.4461   -2.0563    0.4265 O   0  5  0  0  0  0  0  0  0  0  0  0
    1.4913   -3.9760   -0.1809 O   0  0  0  0  0  0  0  0  0  0  0  0
   -0.2728    1.2976    0.4568 C   0  0  0  0  0  0  0  0  0  0  0  0
   -1.0603    1.9669   -0.2078 O   0  0  0  0  0  0  0  0  0  0  0  0
    0.5527    1.9302    1.3667 N   0  0  0  0  0  0  0  0  0  0  0  0
    1.2229    1.3432    1.8587 H   0  0  0  0  0  0  0  0  0  0  0  0
    0.5892    3.3711    1.5617 C   0  0  0  0  0  0  0  0  0  0  0  0
   -0.3937    3.7398    1.8720 H   0  0  0  0  0  0  0  0  0  0  0  0
    1.3155    3.6261    2.3390 H   0  0  0  0  0  0  0  0  0  0  0  0
    0.8812    3.8748    0.6347 H   0  0  0  0  0  0  0  0  0  0  0  0
  1  2  1  0  0  0  0
  2  3  1  0  0  0  0
  2  4  1  0  0  0  0
  2  5  1  0  0  0  0
  5  6  2  0  0  0  0
  5  7  1  0  0  0  0
  7  8  1  0  0  0  0
  7  9  1  0  0  0  0
  9 10  1  0  0  0  0
  9 11  1  0  0  0  0
  9 20  1  0  0  0  0
 11 12  1  0  0  0  0
 11 13  1  0  0  0  0
 11 14  1  0  0  0  0
 14 15  1  0  0  0  0
 14 16  1  0  0  0  0
 14 17  1  0  0  0  0
 17 18  1  0  0  0  0
 17 19  2  0  0  0  0
 20 21  2  0  0  0  0
 20 22  1  0  0  0  0
 22 23  1  0  0  0  0
 22 24  1  0  0  0  0
 24 25  1  0  0  0  0
 24 26  1  0  0  0  0
 24 27  1  0  0  0  0
M  CHG  1  18  -1
M  END
$$$$

  -OEChem-03222214043D

 27 26  0     1  0  0  0  0  0999 V2000
   -2.9688   -3.7662    1.2255 H   0  0  0  0  0  0  0  0  0  0  0  0
   -2.7599   -3.0169    0.4570 C   0  0  0  0  0  0  0  0  0  0  0  0
   -3.7013   -2.5722    0.1269 H   0  0  0  0  0  0  0  0  0  0  0  0
   -2.2785   -3.5132   -0.3900 H   0  0  0  0  0  0  0  0  0  0  0  0
   -1.8375   -1.9457    1.0099 C   0  0  0  0  0  0  0  0  0  0  0  0
   -1.5003   -1.9686    2.1851 O   0  0  0  0  0  0  0  0  0  0  0  0
   -1.5455   -0.8263    0.2572 N   0  0  0  0  0  0  0  0  0  0  0  0
   -1.9605   -0.8278   -0.6681 H   0  0  0  0  0  0  0  0  0  0  0  0
   -0.2089   -0.2148    0.3253 C   0  0  1  0  0  0  0  0  0  0  0  0
    0.3635   -0.6144    1.1707 H   0  0  0  0  0  0  0  0  0  0  0  0
    0.5327   -0.5066   -1.0012 C   0  0  0  0  0  0  0  0  0  0  0  0
   -0.0023   -0.0349   -1.8321 H   0  0  0  0  0  0  0  0  0  0  0  0
    1.5211   -0.0380   -0.9425 H   0  0  0  0  0  0  0  0  0  0  0  0
    0.7423   -1.9943   -1.3419 C   0  0  0  0  0  0  0  0  0  0  0  0
   -0.2038   -2.4080   -1.7033 H   0  0  0  0  0  0  0  0  0  0  0  0
    1.4677   -2.0724   -2.1563 H   0  0  0  0  0  0  0  0  0  0  0  0
    1.2325   -2.8436   -0.1702 C   0  0  0  0  0  0  0  0  0  0  0  0
    2.1751   -2.3900    0.5274 O   0  5  0  0  0  0  0  0  0  0  0  0
    0.6749   -3.9546    0.0034 O   0  0  0  0  0  0  0  0  0  0  0  0
   -0.2688    1.3195    0.4554 C   0  0  0  0  0  0  0  0  0  0  0  0
   -0.9987    2.0028   -0.2589 O   0  0  0  0  0  0  0  0  0  0  0  0
    0.5494    1.9466    1.3758 N   0  0  0  0  0  0  0  0  0  0  0  0
    1.1457    1.3466    1.9406 H   0  0  0  0  0  0  0  0  0  0  0  0
    0.6020    3.3877    1.5665 C   0  0  0  0  0  0  0  0  0  0  0  0
   -0.3786    3.7698    1.8681 H   0  0  0  0  0  0  0  0  0  0  0  0
    1.3260    3.6359    2.3482 H   0  0  0  0  0  0  0  0  0  0  0  0
    0.9084    3.8846    0.6404 H   0  0  0  0  0  0  0  0  0  0  0  0
  1  2  1  0  0  0  0
  2  3  1  0  0  0  0
  2  4  1  0  0  0  0
  2  5  1  0  0  0  0
  5  6  2  0  0  0  0
  5  7  1  0  0  0  0
  7  8  1  0  0  0  0
  7  9  1  0  0  0  0
  9 10  1  0  0  0  0
  9 11  1  0  0  0  0
  9 20  1  0  0  0  0
 11 12  1  0  0  0  0
 11 13  1  0  0  0  0
 11 14  1  0  0  0  0
 14 15  1  0  0  0  0
 14 16  1  0  0  0  0
 14 17  1  0  0  0  0
 17 18  1  0  0  0  0
 17 19  2  0  0  0  0
 20 21  2  0  0  0  0
 20 22  1  0  0  0  0
 22 23  1  0  0  0  0
 22 24  1  0  0  0  0
 24 25  1  0  0  0  0
 24 26  1  0  0  0  0
 24 27  1  0  0  0  0
M  CHG  1  18  -1
M  END
$$$$

  -OEChem-03222214043D

 27 26  0     1  0  0  0  0  0999 V2000
   -2.9332   -3.7960    1.1915 H   0  0  0  0  0  0  0  0  0  0  0  0
   -2.8554   -2.9560    0.4960 C   0  0  0  0  0  0  0  0  0  0  0  0
   -3.8391   -2.4982    0.3723 H   0  0  0  0  0  0  0  0  0  0  0  0
   -2.5109   -3.3380   -0.4686 H   0  0  0  0  0  0  0  0  0  0  0  0
   -1.8653   -1.9345    1.0252 C   0  0  0  0  0  0  0  0  0  0  0  0
   -1.5570   -1.9309    2.2094 O   0  0  0  0  0  0  0  0  0  0  0  0
   -1.5290   -0.8375    0.2580 N   0  0  0  0  0  0  0  0  0  0  0  0
   -1.9255   -0.8521   -0.6754 H   0  0  0  0  0  0  0  0  0  0  0  0
   -0.1888   -0.2343    0.3432 C   0  0  1  0  0  0  0  0  0  0  0  0
    0.3640   -0.6232    1.2064 H   0  0  0  0  0  0  0  0  0  0  0  0
    0.5847   -0.5366   -0.9668 C   0  0  0  0  0  0  0  0  0  0  0  0
    0.0784   -0.0526   -1.8087 H   0  0  0  0  0  0  0  0  0  0  0  0
    1.5696   -0.0675   -0.8702 H   0  0  0  0  0  0  0  0  0  0  0  0
    0.8300   -2.0121   -1.3464 C   0  0  0  0  0  0  0  0  0  0  0  0
   -0.0080   -2.3465   -1.9657 H   0  0  0  0  0  0  0  0  0  0  0  0
    1.7334   -2.0770   -1.9590 H   0  0  0  0  0  0  0  0  0  0  0  0
    0.9622   -2.9781   -0.1723 C   0  0  0  0  0  0  0  0  0  0  0  0
    1.8448   -2.7238    0.6847 O   0  5  0  0  0  0  0  0  0  0  0  0
    0.2080   -3.9823   -0.1588 O   0  0  0  0  0  0  0  0  0  0  0  0
   -0.2541    1.3039    0.4330 C   0  0  0  0  0  0  0  0  0  0  0  0
   -0.9621    1.9692   -0.3193 O   0  0  0  0  0  0  0  0  0  0  0  0
    0.5391    1.9582    1.3572 N   0  0  0  0  0  0  0  0  0  0  0  0
    1.0757    1.3740    1.9932 H   0  0  0  0  0  0  0  0  0  0  0  0
    0.5466    3.4019    1.5388 C   0  0  0  0  0  0  0  0  0  0  0  0
   -0.4425    3.7530    1.8497 H   0  0  0  0  0  0  0  0  0  0  0  0
    1.2720    3.6798    2.3090 H   0  0  0  0  0  0  0  0  0  0  0  0
    0.8242    3.9031    0.6060 H   0  0  0  0  0  0  0  0  0  0  0  0
  1  2  1  0  0  0  0
  2  3  1  0  0  0  0
  2  4  1  0  0  0  0
  2  5  1  0  0  0  0
  5  6  2  0  0  0  0
  5  7  1  0  0  0  0
  7  8  1  0  0  0  0
  7  9  1  0  0  0  0
  9 10  1  0  0  0  0
  9 11  1  0  0  0  0
  9 20  1  0  0  0  0
 11 12  1  0  0  0  0
 11 13  1  0  0  0  0
 11 14  1  0  0  0  0
 14 15  1  0  0  0  0
 14 16  1  0  0  0  0
 14 17  1  0  0  0  0
 17 18  1  0  0  0  0
 17 19  2  0  0  0  0
 20 21  2  0  0  0  0
 20 22  1  0  0  0  0
 22 23  1  0  0  0  0
 22 24  1  0  0  0  0
 24 25  1  0  0  0  0
 24 26  1  0  0  0  0
 24 27  1  0  0  0  0
M  CHG  1  18  -1
M  END
$$$$

  -OEChem-03222214043D

 27 26  0     1  0  0  0  0  0999 V2000
   -2.9221   -3.8264    1.1550 H   0  0  0  0  0  0  0  0  0  0  0  0
   -2.9572   -2.9045    0.5684 C   0  0  0  0  0  0  0  0  0  0  0  0
   -3.9413   -2.4438    0.6762 H   0  0  0  0  0  0  0  0  0  0  0  0
   -2.7917   -3.1588   -0.4816 H   0  0  0  0  0  0  0  0  0  0  0  0
   -1.8780   -1.9499    1.0466 C   0  0  0  0  0  0  0  0  0  0  0  0
   -1.5493   -1.9450    2.2260 O   0  0  0  0  0  0  0  0  0  0  0  0
   -1.5204   -0.8662    0.2691 N   0  0  0  0  0  0  0  0  0  0  0  0
   -1.9232   -0.8810   -0.6620 H   0  0  0  0  0  0  0  0  0  0  0  0
   -0.1805   -0.2598    0.3518 C   0  0  1  0  0  0  0  0  0  0  0  0
    0.3650   -0.6381    1.2242 H   0  0  0  0  0  0  0  0  0  0  0  0
    0.6350   -0.5456   -0.9410 C   0  0  0  0  0  0  0  0  0  0  0  0
    0.1350   -0.0611   -1.7867 H   0  0  0  0  0  0  0  0  0  0  0  0
    1.6032   -0.0489   -0.8171 H   0  0  0  0  0  0  0  0  0  0  0  0
    0.9423   -1.9998   -1.3653 C   0  0  0  0  0  0  0  0  0  0  0  0
    0.3026   -2.2436   -2.2192 H   0  0  0  0  0  0  0  0  0  0  0  0
    1.9770   -2.0534   -1.7161 H   0  0  0  0  0  0  0  0  0  0  0  0
    0.7380   -3.0791   -0.3092 C   0  0  0  0  0  0  0  0  0  0  0  0
    1.5019   -3.0537    0.6861 O   0  5  0  0  0  0  0  0  0  0  0  0
   -0.1505   -3.9427   -0.5184 O   0  0  0  0  0  0  0  0  0  0  0  0
   -0.2685    1.2793    0.4149 C   0  0  0  0  0  0  0  0  0  0  0  0
   -0.9831    1.9246   -0.3485 O   0  0  0  0  0  0  0  0  0  0  0  0
    0.5104    1.9579    1.3338 N   0  0  0  0  0  0  0  0  0  0  0  0
    1.0240    1.3892    2.0016 H   0  0  0  0  0  0  0  0  0  0  0  0
    0.4626    3.4002    1.5202 C   0  0  0  0  0  0  0  0  0  0  0  0
   -0.5399    3.7118    1.8305 H   0  0  0  0  0  0  0  0  0  0  0  0
    1.1756    3.7027    2.2928 H   0  0  0  0  0  0  0  0  0  0  0  0
    0.7221    3.9157    0.5898 H   0  0  0  0  0  0  0  0  0  0  0  0
  1  2  1  0  0  0  0
  2  3  1  0  0  0  0
  2  4  1  0  0  0  0
  2  5  1  0  0  0  0
  5  6  2  0  0  0  0
  5  7  1  0  0  0  0
  7  8  1  0  0  0  0
  7  9  1  0  0  0  0
  9 10  1  0  0  0  0
  9 11  1  0  0  0  0
  9 20  1  0  0  0  0
 11 12  1  0  0  0  0
 11 13  1  0  0  0  0
 11 14  1  0  0  0  0
 14 15  1  0  0  0  0
 14 16  1  0  0  0  0
 14 17  1  0  0  0  0
 17 18  1  0  0  0  0
 17 19  2  0  0  0  0
 20 21  2  0  0  0  0
 20 22  1  0  0  0  0
 22 23  1  0  0  0  0
 22 24  1  0  0  0  0
 24 25  1  0  0  0  0
 24 26  1  0  0  0  0
 24 27  1  0  0  0  0
M  CHG  1  18  -1
M  END
$$$$

  -OEChem-03222214043D

 27 26  0     1  0  0  0  0  0999 V2000
   -2.7737   -3.9518    1.0533 H   0  0  0  0  0  0  0  0  0  0  0  0
   -2.8384   -3.0078    0.5058 C   0  0  0  0  0  0  0  0  0  0  0  0
   -3.8162   -2.5542    0.6809 H   0  0  0  0  0  0  0  0  0  0  0  0
   -2.7267   -3.2200   -0.5607 H   0  0  0  0  0  0  0  0  0  0  0  0
   -1.7366   -2.0683    0.9632 C   0  0  0  0  0  0  0  0  0  0  0  0
   -1.2608   -2.1824    2.0878 O   0  0  0  0  0  0  0  0  0  0  0  0
   -1.4879   -0.9058    0.2590 N   0  0  0  0  0  0  0  0  0  0  0  0
   -1.9355   -0.8622   -0.6510 H   0  0  0  0  0  0  0  0  0  0  0  0
   -0.1986   -0.2089    0.3691 C   0  0  1  0  0  0  0  0  0  0  0  0
    0.3810   -0.5904    1.2156 H   0  0  0  0  0  0  0  0  0  0  0  0
    0.6289   -0.3619   -0.9367 C   0  0  0  0  0  0  0  0  0  0  0  0
    0.0905    0.1378   -1.7519 H   0  0  0  0  0  0  0  0  0  0  0  0
    1.5616    0.1986   -0.8022 H   0  0  0  0  0  0  0  0  0  0  0  0
    1.0182   -1.7887   -1.4107 C   0  0  0  0  0  0  0  0  0  0  0  0
    0.0207   -1.8795   -1.8536 H   0  0  0  0  0  0  0  0  0  0  0  0
    1.4241   -1.8605   -0.3961 H   0  0  0  0  0  0  0  0  0  0  0  0
    0.9764   -3.3095   -1.1874 C   0  0  0  0  0  0  0  0  0  0  0  0
    2.0119   -3.9403   -1.5154 O   0  5  0  0  0  0  0  0  0  0  0  0
   -0.0723   -3.8474   -0.7453 O   0  0  0  0  0  0  0  0  0  0  0  0
   -0.4088    1.3102    0.5453 C   0  0  0  0  0  0  0  0  0  0  0  0
   -1.1852    1.9437   -0.1641 O   0  0  0  0  0  0  0  0  0  0  0  0
    0.3253    1.9903    1.5001 N   0  0  0  0  0  0  0  0  0  0  0  0
    0.8986    1.4303    2.1237 H   0  0  0  0  0  0  0  0  0  0  0  0
    0.1742    3.4136    1.7658 C   0  0  0  0  0  0  0  0  0  0  0  0
   -0.8502    3.6373    2.0805 H   0  0  0  0  0  0  0  0  0  0  0  0
    0.8572    3.7214    2.5628 H   0  0  0  0  0  0  0  0  0  0  0  0
    0.4052    3.9970    0.8687 H   0  0  0  0  0  0  0  0  0  0  0  0
  1  2  1  0  0  0  0
  2  3  1  0  0  0  0
  2  4  1  0  0  0  0
  2  5  1  0  0  0  0
  5  6  2  0  0  0  0
  5  7  1  0  0  0  0
  7  8  1  0  0  0  0
  7  9  1  0  0  0  0
  9 10  1  0  0  0  0
  9 11  1  0  0  0  0
  9 20  1  0  0  0  0
 11 12  1  0  0  0  0
 11 13  1  0  0  0  0
 11 14  1  0  0  0  0
 14 15  1  0  0  0  0
 14 16  1  0  0  0  0
 14 17  1  0  0  0  0
 17 18  1  0  0  0  0
 17 19  2  0  0  0  0
 20 21  2  0  0  0  0
 20 22  1  0  0  0  0
 22 23  1  0  0  0  0
 22 24  1  0  0  0  0
 24 25  1  0  0  0  0
 24 26  1  0  0  0  0
 24 27  1  0  0  0  0
M  CHG  1  18  -1
M  END
$$$$

  -OEChem-03222214043D

 27 26  0     1  0  0  0  0  0999 V2000
   -2.6410   -3.8595    0.4670 H   0  0  0  0  0  0  0  0  0  0  0  0
   -3.0435   -2.8734    0.7148 C   0  0  0  0  0  0  0  0  0  0  0  0
   -3.7437   -2.9698    1.5477 H   0  0  0  0  0  0  0  0  0  0  0  0
   -3.5781   -2.4868   -0.1562 H   0  0  0  0  0  0  0  0  0  0  0  0
   -1.9036   -1.9422    1.0913 C   0  0  0  0  0  0  0  0  0  0  0  0
   -1.4572   -1.9767    2.2342 O   0  0  0  0  0  0  0  0  0  0  0  0
   -1.5678   -0.8644    0.2900 N   0  0  0  0  0  0  0  0  0  0  0  0
   -1.9318   -0.9779   -0.6565 H   0  0  0  0  0  0  0  0  0  0  0  0
   -0.2085   -0.2991    0.3467 C   0  0  1  0  0  0  0  0  0  0  0  0
    0.3392   -0.6832    1.2124 H   0  0  0  0  0  0  0  0  0  0  0  0
    0.6421   -0.5482   -0.9372 C   0  0  0  0  0  0  0  0  0  0  0  0
    0.1050   -0.0695   -1.7637 H   0  0  0  0  0  0  0  0  0  0  0  0
    1.5956   -0.0207   -0.8285 H   0  0  0  0  0  0  0  0  0  0  0  0
    0.9666   -1.9770   -1.4342 C   0  0  0  0  0  0  0  0  0  0  0  0
    1.1437   -1.9477   -2.5131 H   0  0  0  0  0  0  0  0  0  0  0  0
    1.9078   -2.2813   -0.9664 H   0  0  0  0  0  0  0  0  0  0  0  0
   -0.0567   -3.0663   -1.1398 C   0  0  0  0  0  0  0  0  0  0  0  0
    0.2418   -3.9744   -0.3288 O   0  5  0  0  0  0  0  0  0  0  0  0
   -1.1623   -2.9693   -1.7330 O   0  0  0  0  0  0  0  0  0  0  0  0
   -0.2788    1.2445    0.4160 C   0  0  0  0  0  0  0  0  0  0  0  0
   -0.9864    1.9131   -0.3323 O   0  0  0  0  0  0  0  0  0  0  0  0
    0.5283    1.9071    1.3241 N   0  0  0  0  0  0  0  0  0  0  0  0
    1.0237    1.3300    1.9965 H   0  0  0  0  0  0  0  0  0  0  0  0
    0.5027    3.3497    1.5178 C   0  0  0  0  0  0  0  0  0  0  0  0
   -0.4852    3.6712    1.8631 H   0  0  0  0  0  0  0  0  0  0  0  0
    1.2449    3.6406    2.2669 H   0  0  0  0  0  0  0  0  0  0  0  0
    0.7370    3.8668    0.5816 H   0  0  0  0  0  0  0  0  0  0  0  0
  1  2  1  0  0  0  0
  2  3  1  0  0  0  0
  2  4  1  0  0  0  0
  2  5  1  0  0  0  0
  5  6  2  0  0  0  0
  5  7  1  0  0  0  0
  7  8  1  0  0  0  0
  7  9  1  0  0  0  0
  9 10  1  0  0  0  0
  9 11  1  0  0  0  0
  9 20  1  0  0  0  0
 11 12  1  0  0  0  0
 11 13  1  0  0  0  0
 11 14  1  0  0  0  0
 14 15  1  0  0  0  0
 14 16  1  0  0  0  0
 14 17  1  0  0  0  0
 17 18  1  0  0  0  0
 17 19  2  0  0  0  0
 20 21  2  0  0  0  0
 20 22  1  0  0  0  0
 22 23  1  0  0  0  0
 22 24  1  0  0  0  0
 24 25  1  0  0  0  0
 24 26  1  0  0  0  0
 24 27  1  0  0  0  0
M  CHG  1  18  -1
M  END
$$$$

  -OEChem-03222214043D

 27 26  0     1  0  0  0  0  0999 V2000
   -3.1172   -3.7041    1.3826 H   0  0  0  0  0  0  0  0  0  0  0  0
   -3.0970   -2.8198    0.7406 C   0  0  0  0  0  0  0  0  0  0  0  0
   -4.0058   -2.2364    0.9021 H   0  0  0  0  0  0  0  0  0  0  0  0
   -3.0710   -3.1526   -0.2990 H   0  0  0  0  0  0  0  0  0  0  0  0
   -1.8745   -1.9743    1.0589 C   0  0  0  0  0  0  0  0  0  0  0  0
   -1.3400   -2.0910    2.1579 O   0  0  0  0  0  0  0  0  0  0  0  0
   -1.5503   -0.8782    0.2783 N   0  0  0  0  0  0  0  0  0  0  0  0
   -1.9504   -0.9510   -0.6602 H   0  0  0  0  0  0  0  0  0  0  0  0
   -0.1911   -0.3098    0.3137 C   0  0  1  0  0  0  0  0  0  0  0  0
    0.3731   -0.7046    1.1632 H   0  0  0  0  0  0  0  0  0  0  0  0
    0.6324   -0.5587   -0.9843 C   0  0  0  0  0  0  0  0  0  0  0  0
    0.0916   -0.0760   -1.8063 H   0  0  0  0  0  0  0  0  0  0  0  0
    1.5949   -0.0461   -0.8873 H   0  0  0  0  0  0  0  0  0  0  0  0
    0.9261   -2.0020   -1.4538 C   0  0  0  0  0  0  0  0  0  0  0  0
    1.3156   -1.9671   -2.4749 H   0  0  0  0  0  0  0  0  0  0  0  0
    1.7150   -2.4117   -0.8158 H   0  0  0  0  0  0  0  0  0  0  0  0
   -0.2560   -2.9666   -1.4219 C   0  0  0  0  0  0  0  0  0  0  0  0
   -1.2895   -2.6141   -2.0480 O   0  5  0  0  0  0  0  0  0  0  0  0
   -0.1421   -4.0395   -0.7836 O   0  0  0  0  0  0  0  0  0  0  0  0
   -0.2530    1.2315    0.4170 C   0  0  0  0  0  0  0  0  0  0  0  0
   -0.9777    1.9183   -0.2967 O   0  0  0  0  0  0  0  0  0  0  0  0
    0.5790    1.8726    1.3182 N   0  0  0  0  0  0  0  0  0  0  0  0
    1.0943    1.2814    1.9624 H   0  0  0  0  0  0  0  0  0  0  0  0
    0.5718    3.3122    1.5341 C   0  0  0  0  0  0  0  0  0  0  0  0
   -0.4088    3.6402    1.8940 H   0  0  0  0  0  0  0  0  0  0  0  0
    1.3246    3.5836    2.2801 H   0  0  0  0  0  0  0  0  0  0  0  0
    0.8029    3.8403    0.6032 H   0  0  0  0  0  0  0  0  0  0  0  0
  1  2  1  0  0  0  0
  2  3  1  0  0  0  0
  2  4  1  0  0  0  0
  2  5  1  0  0  0  0
  5  6  2  0  0  0  0
  5  7  1  0  0  0  0
  7  8  1  0  0  0  0
  7  9  1  0  0  0  0
  9 10  1  0  0  0  0
  9 11  1  0  0  0  0
  9 20  1  0  0  0  0
 11 12  1  0  0  0  0
 11 13  1  0  0  0  0
 11 14  1  0  0  0  0
 14 15  1  0  0  0  0
 14 16  1  0  0  0  0
 14 17  1  0  0  0  0
 17 18  1  0  0  0  0
 17 19  2  0  0  0  0
 20 21  2  0  0  0  0
 20 22  1  0  0  0  0
 22 23  1  0  0  0  0
 22 24  1  0  0  0  0
 24 25  1  0  0  0  0
 24 26  1  0  0  0  0
 24 27  1  0  0  0  0
M  CHG  1  18  -1
M  END
$$$$

  -OEChem-03222214043D

 27 26  0     1  0  0  0  0  0999 V2000
   -3.3451   -3.4335    1.5524 H   0  0  0  0  0  0  0  0  0  0  0  0
   -3.0174   -2.8697    0.6756 C   0  0  0  0  0  0  0  0  0  0  0  0
   -3.8428   -2.2455    0.3260 H   0  0  0  0  0  0  0  0  0  0  0  0
   -2.7503   -3.5747   -0.1156 H   0  0  0  0  0  0  0  0  0  0  0  0
   -1.8187   -2.0031    1.0240 C   0  0  0  0  0  0  0  0  0  0  0  0
   -1.2370   -2.1749    2.0911 O   0  0  0  0  0  0  0  0  0  0  0  0
   -1.5241   -0.8832    0.2690 N   0  0  0  0  0  0  0  0  0  0  0  0
   -1.9415   -0.9373   -0.6657 H   0  0  0  0  0  0  0  0  0  0  0  0
   -0.1798   -0.2856    0.2887 C   0  0  1  0  0  0  0  0  0  0  0  0
    0.4094   -0.6859    1.1180 H   0  0  0  0  0  0  0  0  0  0  0  0
    0.5935   -0.5386   -1.0337 C   0  0  0  0  0  0  0  0  0  0  0  0
    0.0436   -0.0573   -1.8506 H   0  0  0  0  0  0  0  0  0  0  0  0
    1.5647   -0.0387   -0.9623 H   0  0  0  0  0  0  0  0  0  0  0  0
    0.8576   -2.0032   -1.4512 C   0  0  0  0  0  0  0  0  0  0  0  0
    1.4309   -1.9996   -2.3822 H   0  0  0  0  0  0  0  0  0  0  0  0
    1.4761   -2.4747   -0.6816 H   0  0  0  0  0  0  0  0  0  0  0  0
   -0.3881   -2.8663   -1.6716 C   0  0  0  0  0  0  0  0  0  0  0  0
   -1.4003   -2.3243   -2.1893 O   0  5  0  0  0  0  0  0  0  0  0  0
   -0.3340   -4.0662   -1.3119 O   0  0  0  0  0  0  0  0  0  0  0  0
   -0.2514    1.2517    0.4275 C   0  0  0  0  0  0  0  0  0  0  0  0
   -1.0030    1.9462   -0.2490 O   0  0  0  0  0  0  0  0  0  0  0  0
    0.5949    1.8814    1.3236 N   0  0  0  0  0  0  0  0  0  0  0  0
    1.1369    1.2823    1.9378 H   0  0  0  0  0  0  0  0  0  0  0  0
    0.5675    3.3142    1.5799 C   0  0  0  0  0  0  0  0  0  0  0  0
   -0.4080    3.6126    1.9771 H   0  0  0  0  0  0  0  0  0  0  0  0
    1.3366    3.5801    2.3108 H   0  0  0  0  0  0  0  0  0  0  0  0
    0.7603    3.8717    0.6576 H   0  0  0  0  0  0  0  0  0  0  0  0
  1  2  1  0  0  0  0
  2  3  1  0  0  0  0
  2  4  1  0  0  0  0
  2  5  1  0  0  0  0
  5  6  2  0  0  0  0
  5  7  1  0  0  0  0
  7  8  1  0  0  0  0
  7  9  1  0  0  0  0
  9 10  1  0  0  0  0
  9 11  1  0  0  0  0
  9 20  1  0  0  0  0
 11 12  1  0  0  0  0
 11 13  1  0  0  0  0
 11 14  1  0  0  0  0
 14 15  1  0  0  0  0
 14 16  1  0  0  0  0
 14 17  1  0  0  0  0
 17 18  1  0  0  0  0
 17 19  2  0  0  0  0
 20 21  2  0  0  0  0
 20 22  1  0  0  0  0
 22 23  1  0  0  0  0
 22 24  1  0  0  0  0
 24 25  1  0  0  0  0
 24 26  1  0  0  0  0
 24 27  1  0  0  0  0
M  CHG  1  18  -1
M  END
$$$$

  -OEChem-03222214043D

 27 26  0     1  0  0  0  0  0999 V2000
   -3.3410   -3.4349    1.4548 H   0  0  0  0  0  0  0  0  0  0  0  0
   -2.9468   -2.9150    0.5784 C   0  0  0  0  0  0  0  0  0  0  0  0
   -3.7472   -2.3241    0.1269 H   0  0  0  0  0  0  0  0  0  0  0  0
   -2.6057   -3.6562   -0.1493 H   0  0  0  0  0  0  0  0  0  0  0  0
   -1.7910   -2.0125    0.9748 C   0  0  0  0  0  0  0  0  0  0  0  0
   -1.1968   -2.2140    2.0291 O   0  0  0  0  0  0  0  0  0  0  0  0
   -1.5109   -0.8773    0.2398 N   0  0  0  0  0  0  0  0  0  0  0  0
   -1.9272   -0.9194   -0.6974 H   0  0  0  0  0  0  0  0  0  0  0  0
   -0.1791   -0.2547    0.2691 C   0  0  1  0  0  0  0  0  0  0  0  0
    0.4156   -0.6564    1.0939 H   0  0  0  0  0  0  0  0  0  0  0  0
    0.5691   -0.5264   -1.0581 C   0  0  0  0  0  0  0  0  0  0  0  0
    0.0297   -0.0521   -1.8860 H   0  0  0  0  0  0  0  0  0  0  0  0
    1.5491   -0.0425   -0.9977 H   0  0  0  0  0  0  0  0  0  0  0  0
    0.8046   -2.0158   -1.3969 C   0  0  0  0  0  0  0  0  0  0  0  0
    1.5591   -2.0693   -2.1864 H   0  0  0  0  0  0  0  0  0  0  0  0
    1.2097   -2.5204   -0.5145 H   0  0  0  0  0  0  0  0  0  0  0  0
   -0.4283   -2.7868   -1.8918 C   0  0  0  0  0  0  0  0  0  0  0  0
   -1.4337   -2.1434   -2.2945 O   0  5  0  0  0  0  0  0  0  0  0  0
   -0.3705   -4.0377   -1.8286 O   0  0  0  0  0  0  0  0  0  0  0  0
   -0.2527    1.2795    0.4273 C   0  0  0  0  0  0  0  0  0  0  0  0
   -1.0099    1.9808   -0.2351 O   0  0  0  0  0  0  0  0  0  0  0  0
    0.5937    1.8985    1.3307 N   0  0  0  0  0  0  0  0  0  0  0  0
    1.1483    1.2935    1.9274 H   0  0  0  0  0  0  0  0  0  0  0  0
    0.5777    3.3298    1.5961 C   0  0  0  0  0  0  0  0  0  0  0  0
   -0.3936    3.6324    2.0006 H   0  0  0  0  0  0  0  0  0  0  0  0
    1.3530    3.5850    2.3246 H   0  0  0  0  0  0  0  0  0  0  0  0
    0.7699    3.8922    0.6764 H   0  0  0  0  0  0  0  0  0  0  0  0
  1  2  1  0  0  0  0
  2  3  1  0  0  0  0
  2  4  1  0  0  0  0
  2  5  1  0  0  0  0
  5  6  2  0  0  0  0
  5  7  1  0  0  0  0
  7  8  1  0  0  0  0
  7  9  1  0  0  0  0
  9 10  1  0  0  0  0
  9 11  1  0  0  0  0
  9 20  1  0  0  0  0
 11 12  1  0  0  0  0
 11 13  1  0  0  0  0
 11 14  1  0  0  0  0
 14 15  1  0  0  0  0
 14 16  1  0  0  0  0
 14 17  1  0  0  0  0
 17 18  1  0  0  0  0
 17 19  2  0  0  0  0
 20 21  2  0  0  0  0
 20 22  1  0  0  0  0
 22 23  1  0  0  0  0
 22 24  1  0  0  0  0
 24 25  1  0  0  0  0
 24 26  1  0  0  0  0
 24 27  1  0  0  0  0
M  CHG  1  18  -1
M  END
$$$$

  -OEChem-03222214043D

 27 26  0     1  0  0  0  0  0999 V2000
   -3.2882   -3.4921    1.3677 H   0  0  0  0  0  0  0  0  0  0  0  0
   -2.9116   -2.9257    0.5125 C   0  0  0  0  0  0  0  0  0  0  0  0
   -3.7313   -2.3444    0.0833 H   0  0  0  0  0  0  0  0  0  0  0  0
   -2.5447   -3.6254   -0.2434 H   0  0  0  0  0  0  0  0  0  0  0  0
   -1.7878   -2.0003    0.9448 C   0  0  0  0  0  0  0  0  0  0  0  0
   -1.1988   -2.2147    1.9994 O   0  0  0  0  0  0  0  0  0  0  0  0
   -1.5021   -0.8647    0.2145 N   0  0  0  0  0  0  0  0  0  0  0  0
   -1.8972   -0.9169   -0.7324 H   0  0  0  0  0  0  0  0  0  0  0  0
   -0.1731   -0.2385    0.2638 C   0  0  1  0  0  0  0  0  0  0  0  0
    0.4139   -0.6387    1.0948 H   0  0  0  0  0  0  0  0  0  0  0  0
    0.5693   -0.5351   -1.0584 C   0  0  0  0  0  0  0  0  0  0  0  0
    0.0468   -0.0648   -1.8992 H   0  0  0  0  0  0  0  0  0  0  0  0
    1.5575   -0.0683   -0.9988 H   0  0  0  0  0  0  0  0  0  0  0  0
    0.7758   -2.0404   -1.3423 C   0  0  0  0  0  0  0  0  0  0  0  0
    1.6927   -2.1488   -1.9289 H   0  0  0  0  0  0  0  0  0  0  0  0
    0.9221   -2.5760   -0.3998 H   0  0  0  0  0  0  0  0  0  0  0  0
   -0.3546   -2.7170   -2.1360 C   0  0  0  0  0  0  0  0  0  0  0  0
   -1.4502   -2.1144   -2.2919 O   0  5  0  0  0  0  0  0  0  0  0  0
   -0.1244   -3.8790   -2.5473 O   0  0  0  0  0  0  0  0  0  0  0  0
   -0.2430    1.2960    0.4202 C   0  0  0  0  0  0  0  0  0  0  0  0
   -0.9847    1.9986   -0.2578 O   0  0  0  0  0  0  0  0  0  0  0  0
    0.5914    1.9149    1.3350 N   0  0  0  0  0  0  0  0  0  0  0  0
    1.1350    1.3109    1.9427 H   0  0  0  0  0  0  0  0  0  0  0  0
    0.5805    3.3483    1.5897 C   0  0  0  0  0  0  0  0  0  0  0  0
   -0.4004    3.6629    1.9601 H   0  0  0  0  0  0  0  0  0  0  0  0
    1.3339    3.6022    2.3410 H   0  0  0  0  0  0  0  0  0  0  0  0
    0.8072    3.9016    0.6726 H   0  0  0  0  0  0  0  0  0  0  0  0
  1  2  1  0  0  0  0
  2  3  1  0  0  0  0
  2  4  1  0  0  0  0
  2  5  1  0  0  0  0
  5  6  2  0  0  0  0
  5  7  1  0  0  0  0
  7  8  1  0  0  0  0
  7  9  1  0  0  0  0
  9 10  1  0  0  0  0
  9 11  1  0  0  0  0
  9 20  1  0  0  0  0
 11 12  1  0  0  0  0
 11 13  1  0  0  0  0
 11 14  1  0  0  0  0
 14 15  1  0  0  0  0
 14 16  1  0  0  0  0
 14 17  1  0  0  0  0
 17 18  1  0  0  0  0
 17 19  2  0  0  0  0
 20 21  2  0  0  0  0
 20 22  1  0  0  0  0
 22 23  1  0  0  0  0
 22 24  1  0  0  0  0
 24 25  1  0  0  0  0
 24 26  1  0  0  0  0
 24 27  1  0  0  0  0
M  CHG  1  18  -1
M  END
$$$$

  -OEChem-03222214043D

 27 26  0     1  0  0  0  0  0999 V2000
   -3.3523   -3.4395    1.3422 H   0  0  0  0  0  0  0  0  0  0  0  0
   -2.9192   -2.9235    0.4818 C   0  0  0  0  0  0  0  0  0  0  0  0
   -3.7031   -2.3494   -0.0184 H   0  0  0  0  0  0  0  0  0  0  0  0
   -2.5276   -3.6655   -0.2192 H   0  0  0  0  0  0  0  0  0  0  0  0
   -1.7990   -2.0001    0.9276 C   0  0  0  0  0  0  0  0  0  0  0  0
   -1.2260   -2.2160    1.9908 O   0  0  0  0  0  0  0  0  0  0  0  0
   -1.4932   -0.8712    0.1950 N   0  0  0  0  0  0  0  0  0  0  0  0
   -1.8709   -0.9297   -0.7572 H   0  0  0  0  0  0  0  0  0  0  0  0
   -0.1636   -0.2444    0.2699 C   0  0  1  0  0  0  0  0  0  0  0  0
    0.4093   -0.6411    1.1123 H   0  0  0  0  0  0  0  0  0  0  0  0
    0.5869   -0.5577   -1.0407 C   0  0  0  0  0  0  0  0  0  0  0  0
    0.0675   -0.0971   -1.8892 H   0  0  0  0  0  0  0  0  0  0  0  0
    1.5772   -0.0948   -0.9848 H   0  0  0  0  0  0  0  0  0  0  0  0
    0.7783   -2.0689   -1.2937 C   0  0  0  0  0  0  0  0  0  0  0  0
    1.8067   -2.2364   -1.6278 H   0  0  0  0  0  0  0  0  0  0  0  0
    0.6420   -2.6404   -0.3718 H   0  0  0  0  0  0  0  0  0  0  0  0
   -0.1714   -2.5995   -2.3753 C   0  0  0  0  0  0  0  0  0  0  0  0
   -1.3921   -2.3009   -2.2836 O   0  5  0  0  0  0  0  0  0  0  0  0
    0.3181   -3.3280   -3.2718 O   0  0  0  0  0  0  0  0  0  0  0  0
   -0.2302    1.2915    0.4110 C   0  0  0  0  0  0  0  0  0  0  0  0
   -0.9551    1.9890   -0.2899 O   0  0  0  0  0  0  0  0  0  0  0  0
    0.5851    1.9166    1.3385 N   0  0  0  0  0  0  0  0  0  0  0  0
    1.1292    1.3183    1.9513 H   0  0  0  0  0  0  0  0  0  0  0  0
    0.5903    3.3548    1.5650 C   0  0  0  0  0  0  0  0  0  0  0  0
   -0.3983    3.6944    1.8903 H   0  0  0  0  0  0  0  0  0  0  0  0
    1.3178    3.6111    2.3408 H   0  0  0  0  0  0  0  0  0  0  0  0
    0.8630    3.8854    0.6470 H   0  0  0  0  0  0  0  0  0  0  0  0
  1  2  1  0  0  0  0
  2  3  1  0  0  0  0
  2  4  1  0  0  0  0
  2  5  1  0  0  0  0
  5  6  2  0  0  0  0
  5  7  1  0  0  0  0
  7  8  1  0  0  0  0
  7  9  1  0  0  0  0
  9 10  1  0  0  0  0
  9 11  1  0  0  0  0
  9 20  1  0  0  0  0
 11 12  1  0  0  0  0
 11 13  1  0  0  0  0
 11 14  1  0  0  0  0
 14 15  1  0  0  0  0
 14 16  1  0  0  0  0
 14 17  1  0  0  0  0
 17 18  1  0  0  0  0
 17 19  2  0  0  0  0
 20 21  2  0  0  0  0
 20 22  1  0  0  0  0
 22 23  1  0  0  0  0
 22 24  1  0  0  0  0
 24 25  1  0  0  0  0
 24 26  1  0  0  0  0
 24 27  1  0  0  0  0
M  CHG  1  18  -1
M  END
$$$$

  -OEChem-03222214043D

 27 26  0     1  0  0  0  0  0999 V2000
   -3.1358   -3.6825    1.1483 H   0  0  0  0  0  0  0  0  0  0  0  0
   -2.9604   -2.8728    0.4353 C   0  0  0  0  0  0  0  0  0  0  0  0
   -3.8708   -2.2760    0.3429 H   0  0  0  0  0  0  0  0  0  0  0  0
   -2.7227   -3.3079   -0.5393 H   0  0  0  0  0  0  0  0  0  0  0  0
   -1.8110   -1.9972    0.9010 C   0  0  0  0  0  0  0  0  0  0  0  0
   -1.2407   -2.2455    1.9576 O   0  0  0  0  0  0  0  0  0  0  0  0
   -1.4703   -0.8729    0.1791 N   0  0  0  0  0  0  0  0  0  0  0  0
   -1.8840   -0.8595   -0.7553 H   0  0  0  0  0  0  0  0  0  0  0  0
   -0.1407   -0.2435    0.2657 C   0  0  1  0  0  0  0  0  0  0  0  0
    0.4193   -0.6356    1.1193 H   0  0  0  0  0  0  0  0  0  0  0  0
    0.6130   -0.5887   -1.0317 C   0  0  0  0  0  0  0  0  0  0  0  0
    0.0810   -0.1513   -1.8851 H   0  0  0  0  0  0  0  0  0  0  0  0
    1.6029   -0.1223   -1.0024 H   0  0  0  0  0  0  0  0  0  0  0  0
    0.7960   -2.1085   -1.2406 C   0  0  0  0  0  0  0  0  0  0  0  0
    1.8659   -2.3285   -1.3024 H   0  0  0  0  0  0  0  0  0  0  0  0
    0.4070   -2.6892   -0.4021 H   0  0  0  0  0  0  0  0  0  0  0  0
    0.1246   -2.5650   -2.5341 C   0  0  0  0  0  0  0  0  0  0  0  0
   -1.1323   -2.4945   -2.5644 O   0  5  0  0  0  0  0  0  0  0  0  0
    0.8451   -2.9829   -3.4729 O   0  0  0  0  0  0  0  0  0  0  0  0
   -0.2086    1.2925    0.3971 C   0  0  0  0  0  0  0  0  0  0  0  0
   -0.9549    1.9763   -0.2947 O   0  0  0  0  0  0  0  0  0  0  0  0
    0.5946    1.9273    1.3283 N   0  0  0  0  0  0  0  0  0  0  0  0
    1.1625    1.3379    1.9281 H   0  0  0  0  0  0  0  0  0  0  0  0
    0.5829    3.3655    1.5537 C   0  0  0  0  0  0  0  0  0  0  0  0
   -0.4113    3.6943    1.8730 H   0  0  0  0  0  0  0  0  0  0  0  0
    1.3027    3.6293    2.3340 H   0  0  0  0  0  0  0  0  0  0  0  0
    0.8555    3.8987    0.6371 H   0  0  0  0  0  0  0  0  0  0  0  0
  1  2  1  0  0  0  0
  2  3  1  0  0  0  0
  2  4  1  0  0  0  0
  2  5  1  0  0  0  0
  5  6  2  0  0  0  0
  5  7  1  0  0  0  0
  7  8  1  0  0  0  0
  7  9  1  0  0  0  0
  9 10  1  0  0  0  0
  9 11  1  0  0  0  0
  9 20  1  0  0  0  0
 11 12  1  0  0  0  0
 11 13  1  0  0  0  0
 11 14  1  0  0  0  0
 14 15  1  0  0  0  0
 14 16  1  0  0  0  0
 14 17  1  0  0  0  0
 17 18  1  0  0  0  0
 17 19  2  0  0  0  0
 20 21  2  0  0  0  0
 20 22  1  0  0  0  0
 22 23  1  0  0  0  0
 22 24  1  0  0  0  0
 24 25  1  0  0  0  0
 24 26  1  0  0  0  0
 24 27  1  0  0  0  0
M  CHG  1  18  -1
M  END
$$$$

  -OEChem-03222214043D

 27 26  0     1  0  0  0  0  0999 V2000
   -3.1253   -3.7130    1.0649 H   0  0  0  0  0  0  0  0  0  0  0  0
   -3.0019   -2.8358    0.4244 C   0  0  0  0  0  0  0  0  0  0  0  0
   -3.9253   -2.2519    0.4377 H   0  0  0  0  0  0  0  0  0  0  0  0
   -2.8076   -3.1719   -0.5987 H   0  0  0  0  0  0  0  0  0  0  0  0
   -1.8422   -1.9861    0.9106 C   0  0  0  0  0  0  0  0  0  0  0  0
   -1.2535   -2.2788    1.9439 O   0  0  0  0  0  0  0  0  0  0  0  0
   -1.4812   -0.8635    0.1975 N   0  0  0  0  0  0  0  0  0  0  0  0
   -1.9576   -0.7586   -0.6970 H   0  0  0  0  0  0  0  0  0  0  0  0
   -0.1443   -0.2514    0.2666 C   0  0  1  0  0  0  0  0  0  0  0  0
    0.4103   -0.6458    1.1229 H   0  0  0  0  0  0  0  0  0  0  0  0
    0.6226   -0.6051   -1.0220 C   0  0  0  0  0  0  0  0  0  0  0  0
    0.0733   -0.1818   -1.8713 H   0  0  0  0  0  0  0  0  0  0  0  0
    1.6075   -0.1273   -1.0085 H   0  0  0  0  0  0  0  0  0  0  0  0
    0.8145   -2.1228   -1.2411 C   0  0  0  0  0  0  0  0  0  0  0  0
    1.8489   -2.3905   -1.0061 H   0  0  0  0  0  0  0  0  0  0  0  0
    0.1826   -2.7181   -0.5817 H   0  0  0  0  0  0  0  0  0  0  0  0
    0.5036   -2.5124   -2.6834 C   0  0  0  0  0  0  0  0  0  0  0  0
   -0.7103   -2.6641   -2.9761 O   0  5  0  0  0  0  0  0  0  0  0  0
    1.4598   -2.6349   -3.4876 O   0  0  0  0  0  0  0  0  0  0  0  0
   -0.2062    1.2838    0.4052 C   0  0  0  0  0  0  0  0  0  0  0  0
   -0.9874    1.9617   -0.2533 O   0  0  0  0  0  0  0  0  0  0  0  0
    0.6093    1.9187    1.3251 N   0  0  0  0  0  0  0  0  0  0  0  0
    1.2182    1.3336    1.8879 H   0  0  0  0  0  0  0  0  0  0  0  0
    0.5975    3.3565    1.5532 C   0  0  0  0  0  0  0  0  0  0  0  0
   -0.3832    3.6773    1.9189 H   0  0  0  0  0  0  0  0  0  0  0  0
    1.3511    3.6249    2.2992 H   0  0  0  0  0  0  0  0  0  0  0  0
    0.8228    3.8930    0.6258 H   0  0  0  0  0  0  0  0  0  0  0  0
  1  2  1  0  0  0  0
  2  3  1  0  0  0  0
  2  4  1  0  0  0  0
  2  5  1  0  0  0  0
  5  6  2  0  0  0  0
  5  7  1  0  0  0  0
  7  8  1  0  0  0  0
  7  9  1  0  0  0  0
  9 10  1  0  0  0  0
  9 11  1  0  0  0  0
  9 20  1  0  0  0  0
 11 12  1  0  0  0  0
 11 13  1  0  0  0  0
 11 14  1  0  0  0  0
 14 15  1  0  0  0  0
 14 16  1  0  0  0  0
 14 17  1  0  0  0  0
 17 18  1  0  0  0  0
 17 19  2  0  0  0  0
 20 21  2  0  0  0  0
 20 22  1  0  0  0  0
 22 23  1  0  0  0  0
 22 24  1  0  0  0  0
 24 25  1  0  0  0  0
 24 26  1  0  0  0  0
 24 27  1  0  0  0  0
M  CHG  1  18  -1
M  END
$$$$

  -OEChem-03222214043D

 27 26  0     1  0  0  0  0  0999 V2000
   -3.0198   -3.7990    1.1840 H   0  0  0  0  0  0  0  0  0  0  0  0
   -2.9511   -2.9116    0.5489 C   0  0  0  0  0  0  0  0  0  0  0  0
   -3.8678   -2.3269    0.6550 H   0  0  0  0  0  0  0  0  0  0  0  0
   -2.8503   -3.2311   -0.4922 H   0  0  0  0  0  0  0  0  0  0  0  0
   -1.7507   -2.0717    0.9458 C   0  0  0  0  0  0  0  0  0  0  0  0
   -1.0749   -2.3881    1.9161 O   0  0  0  0  0  0  0  0  0  0  0  0
   -1.4590   -0.9279    0.2336 N   0  0  0  0  0  0  0  0  0  0  0  0
   -2.0249   -0.7679   -0.5968 H   0  0  0  0  0  0  0  0  0  0  0  0
   -0.1466   -0.2625    0.2497 C   0  0  1  0  0  0  0  0  0  0  0  0
    0.4516   -0.6346    1.0863 H   0  0  0  0  0  0  0  0  0  0  0  0
    0.6114   -0.5647   -1.0583 C   0  0  0  0  0  0  0  0  0  0  0  0
    0.0141   -0.1713   -1.8895 H   0  0  0  0  0  0  0  0  0  0  0  0
    1.5684   -0.0332   -1.0689 H   0  0  0  0  0  0  0  0  0  0  0  0
    0.8773   -2.0651   -1.3024 C   0  0  0  0  0  0  0  0  0  0  0  0
    1.8228   -2.3501   -0.8319 H   0  0  0  0  0  0  0  0  0  0  0  0
    0.0993   -2.6896   -0.8617 H   0  0  0  0  0  0  0  0  0  0  0  0
    0.9227   -2.3750   -2.7965 C   0  0  0  0  0  0  0  0  0  0  0  0
    2.0383   -2.3287   -3.3712 O   0  5  0  0  0  0  0  0  0  0  0  0
   -0.1697   -2.6282   -3.3643 O   0  0  0  0  0  0  0  0  0  0  0  0
   -0.2768    1.2660    0.4087 C   0  0  0  0  0  0  0  0  0  0  0  0
   -1.1344    1.9038   -0.1928 O   0  0  0  0  0  0  0  0  0  0  0  0
    0.5464    1.9330    1.2984 N   0  0  0  0  0  0  0  0  0  0  0  0
    1.2392    1.3810    1.7939 H   0  0  0  0  0  0  0  0  0  0  0  0
    0.4844    3.3686    1.5323 C   0  0  0  0  0  0  0  0  0  0  0  0
   -0.5053    3.6539    1.9034 H   0  0  0  0  0  0  0  0  0  0  0  0
    1.2303    3.6604    2.2775 H   0  0  0  0  0  0  0  0  0  0  0  0
    0.6871    3.9156    0.6059 H   0  0  0  0  0  0  0  0  0  0  0  0
  1  2  1  0  0  0  0
  2  3  1  0  0  0  0
  2  4  1  0  0  0  0
  2  5  1  0  0  0  0
  5  6  2  0  0  0  0
  5  7  1  0  0  0  0
  7  8  1  0  0  0  0
  7  9  1  0  0  0  0
  9 10  1  0  0  0  0
  9 11  1  0  0  0  0
  9 20  1  0  0  0  0
 11 12  1  0  0  0  0
 11 13  1  0  0  0  0
 11 14  1  0  0  0  0
 14 15  1  0  0  0  0
 14 16  1  0  0  0  0
 14 17  1  0  0  0  0
 17 18  1  0  0  0  0
 17 19  2  0  0  0  0
 20 21  2  0  0  0  0
 20 22  1  0  0  0  0
 22 23  1  0  0  0  0
 22 24  1  0  0  0  0
 24 25  1  0  0  0  0
 24 26  1  0  0  0  0
 24 27  1  0  0  0  0
M  CHG  1  18  -1
M  END
$$$$

  -OEChem-03222214043D

 27 26  0     1  0  0  0  0  0999 V2000
   -3.1137   -3.7297    1.2478 H   0  0  0  0  0  0  0  0  0  0  0  0
   -3.0051   -2.8710    0.5795 C   0  0  0  0  0  0  0  0  0  0  0  0
   -3.8855   -2.2317    0.6793 H   0  0  0  0  0  0  0  0  0  0  0  0
   -2.9409   -3.2323   -0.4504 H   0  0  0  0  0  0  0  0  0  0  0  0
   -1.7519   -2.0878    0.9275 C   0  0  0  0  0  0  0  0  0  0  0  0
   -1.0481   -2.4458    1.8618 O   0  0  0  0  0  0  0  0  0  0  0  0
   -1.4525   -0.9414    0.2224 N   0  0  0  0  0  0  0  0  0  0  0  0
   -2.0595   -0.7192   -0.5626 H   0  0  0  0  0  0  0  0  0  0  0  0
   -0.1402   -0.2767    0.2375 C   0  0  1  0  0  0  0  0  0  0  0  0
    0.4547   -0.6481    1.0771 H   0  0  0  0  0  0  0  0  0  0  0  0
    0.6306   -0.5711   -1.0632 C   0  0  0  0  0  0  0  0  0  0  0  0
    0.0478   -0.1815   -1.9059 H   0  0  0  0  0  0  0  0  0  0  0  0
    1.5887   -0.0409   -1.0554 H   0  0  0  0  0  0  0  0  0  0  0  0
    0.8974   -2.0694   -1.2978 C   0  0  0  0  0  0  0  0  0  0  0  0
    1.6770   -2.4190   -0.6149 H   0  0  0  0  0  0  0  0  0  0  0  0
    0.0004   -2.6619   -1.1051 H   0  0  0  0  0  0  0  0  0  0  0  0
    1.3227   -2.3189   -2.7432 C   0  0  0  0  0  0  0  0  0  0  0  0
    2.5127   -2.0580   -3.0500 O   0  5  0  0  0  0  0  0  0  0  0  0
    0.4515   -2.7443   -3.5422 O   0  0  0  0  0  0  0  0  0  0  0  0
   -0.2779    1.2501    0.4023 C   0  0  0  0  0  0  0  0  0  0  0  0
   -1.1553    1.8774   -0.1823 O   0  0  0  0  0  0  0  0  0  0  0  0
    0.5421    1.9213    1.2916 N   0  0  0  0  0  0  0  0  0  0  0  0
    1.2705    1.3821    1.7490 H   0  0  0  0  0  0  0  0  0  0  0  0
    0.4780    3.3582    1.5168 C   0  0  0  0  0  0  0  0  0  0  0  0
   -0.5136    3.6449    1.8817 H   0  0  0  0  0  0  0  0  0  0  0  0
    1.2199    3.6547    2.2642 H   0  0  0  0  0  0  0  0  0  0  0  0
    0.6849    3.9004    0.5884 H   0  0  0  0  0  0  0  0  0  0  0  0
  1  2  1  0  0  0  0
  2  3  1  0  0  0  0
  2  4  1  0  0  0  0
  2  5  1  0  0  0  0
  5  6  2  0  0  0  0
  5  7  1  0  0  0  0
  7  8  1  0  0  0  0
  7  9  1  0  0  0  0
  9 10  1  0  0  0  0
  9 11  1  0  0  0  0
  9 20  1  0  0  0  0
 11 12  1  0  0  0  0
 11 13  1  0  0  0  0
 11 14  1  0  0  0  0
 14 15  1  0  0  0  0
 14 16  1  0  0  0  0
 14 17  1  0  0  0  0
 17 18  1  0  0  0  0
 17 19  2  0  0  0  0
 20 21  2  0  0  0  0
 20 22  1  0  0  0  0
 22 23  1  0  0  0  0
 22 24  1  0  0  0  0
 24 25  1  0  0  0  0
 24 26  1  0  0  0  0
 24 27  1  0  0  0  0
M  CHG  1  18  -1
M  END
$$$$

  -OEChem-03222214043D

 27 26  0     1  0  0  0  0  0999 V2000
   -3.1577   -3.7044    1.2582 H   0  0  0  0  0  0  0  0  0  0  0  0
   -3.0415   -2.8507    0.5850 C   0  0  0  0  0  0  0  0  0  0  0  0
   -3.9125   -2.1988    0.6862 H   0  0  0  0  0  0  0  0  0  0  0  0
   -2.9883   -3.2179   -0.4432 H   0  0  0  0  0  0  0  0  0  0  0  0
   -1.7757   -2.0834    0.9216 C   0  0  0  0  0  0  0  0  0  0  0  0
   -1.0578   -2.4619    1.8364 O   0  0  0  0  0  0  0  0  0  0  0  0
   -1.4783   -0.9332    0.2222 N   0  0  0  0  0  0  0  0  0  0  0  0
   -2.1027   -0.6893   -0.5421 H   0  0  0  0  0  0  0  0  0  0  0  0
   -0.1634   -0.2733    0.2239 C   0  0  1  0  0  0  0  0  0  0  0  0
    0.4255   -0.6525    1.0645 H   0  0  0  0  0  0  0  0  0  0  0  0
    0.6216   -0.5777   -1.0685 C   0  0  0  0  0  0  0  0  0  0  0  0
    0.2013    0.0151   -1.8886 H   0  0  0  0  0  0  0  0  0  0  0  0
    1.6621   -0.2625   -0.9352 H   0  0  0  0  0  0  0  0  0  0  0  0
    0.5897   -2.0595   -1.4892 C   0  0  0  0  0  0  0  0  0  0  0  0
    1.0134   -2.6777   -0.6925 H   0  0  0  0  0  0  0  0  0  0  0  0
   -0.4395   -2.3872   -1.6597 H   0  0  0  0  0  0  0  0  0  0  0  0
    1.3884   -2.2805   -2.7737 C   0  0  0  0  0  0  0  0  0  0  0  0
    2.6306   -2.0957   -2.7254 O   0  5  0  0  0  0  0  0  0  0  0  0
    0.7548   -2.6282   -3.8011 O   0  0  0  0  0  0  0  0  0  0  0  0
   -0.2849    1.2533    0.4005 C   0  0  0  0  0  0  0  0  0  0  0  0
   -1.1744    1.8873   -0.1584 O   0  0  0  0  0  0  0  0  0  0  0  0
    0.5525    1.9136    1.2811 N   0  0  0  0  0  0  0  0  0  0  0  0
    1.2971    1.3710    1.7076 H   0  0  0  0  0  0  0  0  0  0  0  0
    0.5045    3.3507    1.5082 C   0  0  0  0  0  0  0  0  0  0  0  0
   -0.4724    3.6426    1.9070 H   0  0  0  0  0  0  0  0  0  0  0  0
    1.2738    3.6435    2.2287 H   0  0  0  0  0  0  0  0  0  0  0  0
    0.6813    3.8915    0.5729 H   0  0  0  0  0  0  0  0  0  0  0  0
  1  2  1  0  0  0  0
  2  3  1  0  0  0  0
  2  4  1  0  0  0  0
  2  5  1  0  0  0  0
  5  6  2  0  0  0  0
  5  7  1  0  0  0  0
  7  8  1  0  0  0  0
  7  9  1  0  0  0  0
  9 10  1  0  0  0  0
  9 11  1  0  0  0  0
  9 20  1  0  0  0  0
 11 12  1  0  0  0  0
 11 13  1  0  0  0  0
 11 14  1  0  0  0  0
 14 15  1  0  0  0  0
 14 16  1  0  0  0  0
 14 17  1  0  0  0  0
 17 18  1  0  0  0  0
 17 19  2  0  0  0  0
 20 21  2  0  0  0  0
 20 22  1  0  0  0  0
 22 23  1  0  0  0  0
 22 24  1  0  0  0  0
 24 25  1  0  0  0  0
 24 26  1  0  0  0  0
 24 27  1  0  0  0  0
M  CHG  1  18  -1
M  END
$$$$

  -OEChem-03222214043D

 27 26  0     1  0  0  0  0  0999 V2000
   -3.1379   -3.7243    1.2332 H   0  0  0  0  0  0  0  0  0  0  0  0
   -3.0454   -2.8443    0.5908 C   0  0  0  0  0  0  0  0  0  0  0  0
   -3.9120   -2.1977    0.7487 H   0  0  0  0  0  0  0  0  0  0  0  0
   -3.0281   -3.1707   -0.4524 H   0  0  0  0  0  0  0  0  0  0  0  0
   -1.7691   -2.0887    0.9143 C   0  0  0  0  0  0  0  0  0  0  0  0
   -1.0515   -2.4692    1.8281 O   0  0  0  0  0  0  0  0  0  0  0  0
   -1.4713   -0.9373    0.2170 N   0  0  0  0  0  0  0  0  0  0  0  0
   -2.1064   -0.6787   -0.5333 H   0  0  0  0  0  0  0  0  0  0  0  0
   -0.1587   -0.2717    0.2197 C   0  0  1  0  0  0  0  0  0  0  0  0
    0.4331   -0.6518    1.0580 H   0  0  0  0  0  0  0  0  0  0  0  0
    0.6214   -0.5719   -1.0750 C   0  0  0  0  0  0  0  0  0  0  0  0
    0.2131    0.0223   -1.8998 H   0  0  0  0  0  0  0  0  0  0  0  0
    1.6607   -0.2588   -0.9288 H   0  0  0  0  0  0  0  0  0  0  0  0
    0.5854   -2.0550   -1.4883 C   0  0  0  0  0  0  0  0  0  0  0  0
    0.7807   -2.6841   -0.6148 H   0  0  0  0  0  0  0  0  0  0  0  0
   -0.4038   -2.3142   -1.8773 H   0  0  0  0  0  0  0  0  0  0  0  0
    1.6509   -2.3623   -2.5413 C   0  0  0  0  0  0  0  0  0  0  0  0
    2.8564   -2.2500   -2.2032 O   0  5  0  0  0  0  0  0  0  0  0  0
    1.2564   -2.7029   -3.6840 O   0  0  0  0  0  0  0  0  0  0  0  0
   -0.2840    1.2538    0.3965 C   0  0  0  0  0  0  0  0  0  0  0  0
   -1.1751    1.8850   -0.1633 O   0  0  0  0  0  0  0  0  0  0  0  0
    0.5526    1.9136    1.2783 N   0  0  0  0  0  0  0  0  0  0  0  0
    1.3059    1.3728    1.6925 H   0  0  0  0  0  0  0  0  0  0  0  0
    0.5062    3.3503    1.5066 C   0  0  0  0  0  0  0  0  0  0  0  0
   -0.4784    3.6465    1.8827 H   0  0  0  0  0  0  0  0  0  0  0  0
    1.2591    3.6375    2.2465 H   0  0  0  0  0  0  0  0  0  0  0  0
    0.7088    3.8916    0.5767 H   0  0  0  0  0  0  0  0  0  0  0  0
  1  2  1  0  0  0  0
  2  3  1  0  0  0  0
  2  4  1  0  0  0  0
  2  5  1  0  0  0  0
  5  6  2  0  0  0  0
  5  7  1  0  0  0  0
  7  8  1  0  0  0  0
  7  9  1  0  0  0  0
  9 10  1  0  0  0  0
  9 11  1  0  0  0  0
  9 20  1  0  0  0  0
 11 12  1  0  0  0  0
 11 13  1  0  0  0  0
 11 14  1  0  0  0  0
 14 15  1  0  0  0  0
 14 16  1  0  0  0  0
 14 17  1  0  0  0  0
 17 18  1  0  0  0  0
 17 19  2  0  0  0  0
 20 21  2  0  0  0  0
 20 22  1  0  0  0  0
 22 23  1  0  0  0  0
 22 24  1  0  0  0  0
 24 25  1  0  0  0  0
 24 26  1  0  0  0  0
 24 27  1  0  0  0  0
M  CHG  1  18  -1
M  END
$$$$

  -OEChem-03222214043D

 27 26  0     1  0  0  0  0  0999 V2000
   -3.2796   -3.6470    1.1036 H   0  0  0  0  0  0  0  0  0  0  0  0
   -3.1084   -2.7903    0.4459 C   0  0  0  0  0  0  0  0  0  0  0  0
   -3.9631   -2.1134    0.5169 H   0  0  0  0  0  0  0  0  0  0  0  0
   -3.0206   -3.1487   -0.5831 H   0  0  0  0  0  0  0  0  0  0  0  0
   -1.8363   -2.0651    0.8460 C   0  0  0  0  0  0  0  0  0  0  0  0
   -1.1656   -2.4816    1.7791 O   0  0  0  0  0  0  0  0  0  0  0  0
   -1.4874   -0.9035    0.1905 N   0  0  0  0  0  0  0  0  0  0  0  0
   -2.0895   -0.6134   -0.5749 H   0  0  0  0  0  0  0  0  0  0  0  0
   -0.1556   -0.2783    0.2437 C   0  0  1  0  0  0  0  0  0  0  0  0
    0.4101   -0.7042    1.0783 H   0  0  0  0  0  0  0  0  0  0  0  0
    0.6374   -0.5520   -1.0499 C   0  0  0  0  0  0  0  0  0  0  0  0
    0.2671    0.0868   -1.8589 H   0  0  0  0  0  0  0  0  0  0  0  0
    1.6777   -0.2655   -0.8644 H   0  0  0  0  0  0  0  0  0  0  0  0
    0.5671   -2.0191   -1.5276 C   0  0  0  0  0  0  0  0  0  0  0  0
    0.4733   -2.6861   -0.6665 H   0  0  0  0  0  0  0  0  0  0  0  0
   -0.3194   -2.1575   -2.1540 H   0  0  0  0  0  0  0  0  0  0  0  0
    1.8230   -2.4585   -2.2865 C   0  0  0  0  0  0  0  0  0  0  0  0
    1.6533   -3.0037   -3.4051 O   0  5  0  0  0  0  0  0  0  0  0  0
    2.9442   -2.2423   -1.7597 O   0  0  0  0  0  0  0  0  0  0  0  0
   -0.2409    1.2443    0.4634 C   0  0  0  0  0  0  0  0  0  0  0  0
   -1.0929    1.9193   -0.1068 O   0  0  0  0  0  0  0  0  0  0  0  0
    0.5927    1.8525    1.3839 N   0  0  0  0  0  0  0  0  0  0  0  0
    1.3185    1.2762    1.7998 H   0  0  0  0  0  0  0  0  0  0  0  0
    0.5909    3.2841    1.6464 C   0  0  0  0  0  0  0  0  0  0  0  0
   -0.3924    3.6068    2.0039 H   0  0  0  0  0  0  0  0  0  0  0  0
    1.3332    3.5256    2.4129 H   0  0  0  0  0  0  0  0  0  0  0  0
    0.8378    3.8398    0.7360 H   0  0  0  0  0  0  0  0  0  0  0  0
  1  2  1  0  0  0  0
  2  3  1  0  0  0  0
  2  4  1  0  0  0  0
  2  5  1  0  0  0  0
  5  6  2  0  0  0  0
  5  7  1  0  0  0  0
  7  8  1  0  0  0  0
  7  9  1  0  0  0  0
  9 10  1  0  0  0  0
  9 11  1  0  0  0  0
  9 20  1  0  0  0  0
 11 12  1  0  0  0  0
 11 13  1  0  0  0  0
 11 14  1  0  0  0  0
 14 15  1  0  0  0  0
 14 16  1  0  0  0  0
 14 17  1  0  0  0  0
 17 18  1  0  0  0  0
 17 19  2  0  0  0  0
 20 21  2  0  0  0  0
 20 22  1  0  0  0  0
 22 23  1  0  0  0  0
 22 24  1  0  0  0  0
 24 25  1  0  0  0  0
 24 26  1  0  0  0  0
 24 27  1  0  0  0  0
M  CHG  1  18  -1
M  END
$$$$

  -OEChem-03222214043D

 27 26  0     1  0  0  0  0  0999 V2000
   -3.2869   -3.6626    1.1059 H   0  0  0  0  0  0  0  0  0  0  0  0
   -3.1192   -2.8010    0.4538 C   0  0  0  0  0  0  0  0  0  0  0  0
   -3.9745   -2.1258    0.5328 H   0  0  0  0  0  0  0  0  0  0  0  0
   -3.0346   -3.1519   -0.5779 H   0  0  0  0  0  0  0  0  0  0  0  0
   -1.8466   -2.0771    0.8554 C   0  0  0  0  0  0  0  0  0  0  0  0
   -1.1830   -2.4891    1.7949 O   0  0  0  0  0  0  0  0  0  0  0  0
   -1.4953   -0.9161    0.2000 N   0  0  0  0  0  0  0  0  0  0  0  0
   -2.0995   -0.6235   -0.5624 H   0  0  0  0  0  0  0  0  0  0  0  0
   -0.1649   -0.2859    0.2536 C   0  0  1  0  0  0  0  0  0  0  0  0
    0.4017   -0.7117    1.0877 H   0  0  0  0  0  0  0  0  0  0  0  0
    0.6382   -0.5460   -1.0381 C   0  0  0  0  0  0  0  0  0  0  0  0
    0.2544    0.0941   -1.8395 H   0  0  0  0  0  0  0  0  0  0  0  0
    1.6714   -0.2333   -0.8551 H   0  0  0  0  0  0  0  0  0  0  0  0
    0.5991   -2.0068   -1.5477 C   0  0  0  0  0  0  0  0  0  0  0  0
    0.2496   -2.6782   -0.7609 H   0  0  0  0  0  0  0  0  0  0  0  0
   -0.1045   -2.0816   -2.3824 H   0  0  0  0  0  0  0  0  0  0  0  0
    1.9769   -2.5281   -1.9715 C   0  0  0  0  0  0  0  0  0  0  0  0
    2.0534   -3.0956   -3.0892 O   0  5  0  0  0  0  0  0  0  0  0  0
    2.9485   -2.3498   -1.1928 O   0  0  0  0  0  0  0  0  0  0  0  0
   -0.2555    1.2368    0.4709 C   0  0  0  0  0  0  0  0  0  0  0  0
   -1.1040    1.9097   -0.1074 O   0  0  0  0  0  0  0  0  0  0  0  0
    0.5755    1.8484    1.3914 N   0  0  0  0  0  0  0  0  0  0  0  0
    1.2963    1.2708    1.8151 H   0  0  0  0  0  0  0  0  0  0  0  0
    0.5788    3.2817    1.6446 C   0  0  0  0  0  0  0  0  0  0  0  0
   -0.4021    3.6094    2.0035 H   0  0  0  0  0  0  0  0  0  0  0  0
    1.3248    3.5265    2.4065 H   0  0  0  0  0  0  0  0  0  0  0  0
    0.8241    3.8310    0.7299 H   0  0  0  0  0  0  0  0  0  0  0  0
  1  2  1  0  0  0  0
  2  3  1  0  0  0  0
  2  4  1  0  0  0  0
  2  5  1  0  0  0  0
  5  6  2  0  0  0  0
  5  7  1  0  0  0  0
  7  8  1  0  0  0  0
  7  9  1  0  0  0  0
  9 10  1  0  0  0  0
  9 11  1  0  0  0  0
  9 20  1  0  0  0  0
 11 12  1  0  0  0  0
 11 13  1  0  0  0  0
 11 14  1  0  0  0  0
 14 15  1  0  0  0  0
 14 16  1  0  0  0  0
 14 17  1  0  0  0  0
 17 18  1  0  0  0  0
 17 19  2  0  0  0  0
 20 21  2  0  0  0  0
 20 22  1  0  0  0  0
 22 23  1  0  0  0  0
 22 24  1  0  0  0  0
 24 25  1  0  0  0  0
 24 26  1  0  0  0  0
 24 27  1  0  0  0  0
M  CHG  1  18  -1
M  END
$$$$

  -OEChem-03222214043D

 27 26  0     1  0  0  0  0  0999 V2000
   -3.2467   -3.6547    1.3010 H   0  0  0  0  0  0  0  0  0  0  0  0
   -3.0950   -2.8255    0.6044 C   0  0  0  0  0  0  0  0  0  0  0  0
   -3.9593   -2.1587    0.6548 H   0  0  0  0  0  0  0  0  0  0  0  0
   -3.0120   -3.2283   -0.4082 H   0  0  0  0  0  0  0  0  0  0  0  0
   -1.8291   -2.0660    0.9602 C   0  0  0  0  0  0  0  0  0  0  0  0
   -1.1586   -2.4207    1.9173 O   0  0  0  0  0  0  0  0  0  0  0  0
   -1.5028   -0.9284    0.2521 N   0  0  0  0  0  0  0  0  0  0  0  0
   -2.1199   -0.6812   -0.5157 H   0  0  0  0  0  0  0  0  0  0  0  0
   -0.1764   -0.2862    0.2489 C   0  0  1  0  0  0  0  0  0  0  0  0
    0.4128   -0.6779    1.0849 H   0  0  0  0  0  0  0  0  0  0  0  0
    0.6121   -0.5758   -1.0479 C   0  0  0  0  0  0  0  0  0  0  0  0
    0.1834    0.0295   -1.8538 H   0  0  0  0  0  0  0  0  0  0  0  0
    1.6418   -0.2272   -0.9128 H   0  0  0  0  0  0  0  0  0  0  0  0
    0.6023   -2.0455   -1.5329 C   0  0  0  0  0  0  0  0  0  0  0  0
    0.0241   -2.6844   -0.8646 H   0  0  0  0  0  0  0  0  0  0  0  0
    0.1368   -2.0958   -2.5219 H   0  0  0  0  0  0  0  0  0  0  0  0
    2.0178   -2.6269   -1.6013 C   0  0  0  0  0  0  0  0  0  0  0  0
    2.7475   -2.5229   -0.5823 O   0  5  0  0  0  0  0  0  0  0  0  0
    2.3689   -3.1663   -2.6797 O   0  0  0  0  0  0  0  0  0  0  0  0
   -0.2758    1.2427    0.4102 C   0  0  0  0  0  0  0  0  0  0  0  0
   -1.1391    1.8886   -0.1776 O   0  0  0  0  0  0  0  0  0  0  0  0
    0.5726    1.8929    1.2868 N   0  0  0  0  0  0  0  0  0  0  0  0
    1.3049    1.3337    1.7163 H   0  0  0  0  0  0  0  0  0  0  0  0
    0.5686    3.3334    1.4938 C   0  0  0  0  0  0  0  0  0  0  0  0
   -0.4082    3.6644    1.8610 H   0  0  0  0  0  0  0  0  0  0  0  0
    1.3270    3.6081    2.2329 H   0  0  0  0  0  0  0  0  0  0  0  0
    0.7911    3.8549    0.5575 H   0  0  0  0  0  0  0  0  0  0  0  0
  1  2  1  0  0  0  0
  2  3  1  0  0  0  0
  2  4  1  0  0  0  0
  2  5  1  0  0  0  0
  5  6  2  0  0  0  0
  5  7  1  0  0  0  0
  7  8  1  0  0  0  0
  7  9  1  0  0  0  0
  9 10  1  0  0  0  0
  9 11  1  0  0  0  0
  9 20  1  0  0  0  0
 11 12  1  0  0  0  0
 11 13  1  0  0  0  0
 11 14  1  0  0  0  0
 14 15  1  0  0  0  0
 14 16  1  0  0  0  0
 14 17  1  0  0  0  0
 17 18  1  0  0  0  0
 17 19  2  0  0  0  0
 20 21  2  0  0  0  0
 20 22  1  0  0  0  0
 22 23  1  0  0  0  0
 22 24  1  0  0  0  0
 24 25  1  0  0  0  0
 24 26  1  0  0  0  0
 24 27  1  0  0  0  0
M  CHG  1  18  -1
M  END
$$$$

  -OEChem-03222214043D

 27 26  0     1  0  0  0  0  0999 V2000
   -3.2046   -3.7038    1.2363 H   0  0  0  0  0  0  0  0  0  0  0  0
   -3.0920   -2.8306    0.5876 C   0  0  0  0  0  0  0  0  0  0  0  0
   -3.9721   -2.1922    0.6963 H   0  0  0  0  0  0  0  0  0  0  0  0
   -3.0214   -3.1704   -0.4489 H   0  0  0  0  0  0  0  0  0  0  0  0
   -1.8402   -2.0569    0.9621 C   0  0  0  0  0  0  0  0  0  0  0  0
   -1.1908   -2.3943    1.9390 O   0  0  0  0  0  0  0  0  0  0  0  0
   -1.5152   -0.9183    0.2550 N   0  0  0  0  0  0  0  0  0  0  0  0
   -2.1233   -0.6835   -0.5232 H   0  0  0  0  0  0  0  0  0  0  0  0
   -0.1875   -0.2790    0.2523 C   0  0  1  0  0  0  0  0  0  0  0  0
    0.3997   -0.6753    1.0882 H   0  0  0  0  0  0  0  0  0  0  0  0
    0.6090   -0.5681   -1.0409 C   0  0  0  0  0  0  0  0  0  0  0  0
    0.1565    0.0270   -1.8411 H   0  0  0  0  0  0  0  0  0  0  0  0
    1.6357   -0.2027   -0.9281 H   0  0  0  0  0  0  0  0  0  0  0  0
    0.6073   -2.0359   -1.5322 C   0  0  0  0  0  0  0  0  0  0  0  0
   -0.1947   -2.6217   -1.0838 H   0  0  0  0  0  0  0  0  0  0  0  0
    0.4429   -2.0369   -2.6140 H   0  0  0  0  0  0  0  0  0  0  0  0
    1.9415   -2.7370   -1.2493 C   0  0  0  0  0  0  0  0  0  0  0  0
    2.5540   -2.4521   -0.1877 O   0  5  0  0  0  0  0  0  0  0  0  0
    2.3467   -3.5590   -2.1080 O   0  0  0  0  0  0  0  0  0  0  0  0
   -0.2780    1.2492    0.4170 C   0  0  0  0  0  0  0  0  0  0  0  0
   -1.1289    1.9046   -0.1787 O   0  0  0  0  0  0  0  0  0  0  0  0
    0.5762    1.8901    1.2947 N   0  0  0  0  0  0  0  0  0  0  0  0
    1.2960    1.3199    1.7320 H   0  0  0  0  0  0  0  0  0  0  0  0
    0.5846    3.3296    1.5072 C   0  0  0  0  0  0  0  0  0  0  0  0
   -0.3886    3.6672    1.8779 H   0  0  0  0  0  0  0  0  0  0  0  0
    1.3468    3.5954    2.2456 H   0  0  0  0  0  0  0  0  0  0  0  0
    0.8099    3.8526    0.5722 H   0  0  0  0  0  0  0  0  0  0  0  0
  1  2  1  0  0  0  0
  2  3  1  0  0  0  0
  2  4  1  0  0  0  0
  2  5  1  0  0  0  0
  5  6  2  0  0  0  0
  5  7  1  0  0  0  0
  7  8  1  0  0  0  0
  7  9  1  0  0  0  0
  9 10  1  0  0  0  0
  9 11  1  0  0  0  0
  9 20  1  0  0  0  0
 11 12  1  0  0  0  0
 11 13  1  0  0  0  0
 11 14  1  0  0  0  0
 14 15  1  0  0  0  0
 14 16  1  0  0  0  0
 14 17  1  0  0  0  0
 17 18  1  0  0  0  0
 17 19  2  0  0  0  0
 20 21  2  0  0  0  0
 20 22  1  0  0  0  0
 22 23  1  0  0  0  0
 22 24  1  0  0  0  0
 24 25  1  0  0  0  0
 24 26  1  0  0  0  0
 24 27  1  0  0  0  0
M  CHG  1  18  -1
M  END
$$$$

  -OEChem-03222214043D

 27 26  0     1  0  0  0  0  0999 V2000
   -3.1523   -3.7342    1.1935 H   0  0  0  0  0  0  0  0  0  0  0  0
   -3.0473   -2.8589    0.5464 C   0  0  0  0  0  0  0  0  0  0  0  0
   -3.9535   -2.2528    0.6194 H   0  0  0  0  0  0  0  0  0  0  0  0
   -2.9255   -3.1987   -0.4853 H   0  0  0  0  0  0  0  0  0  0  0  0
   -1.8388   -2.0401    0.9637 C   0  0  0  0  0  0  0  0  0  0  0  0
   -1.2294   -2.3346    1.9795 O   0  0  0  0  0  0  0  0  0  0  0  0
   -1.5211   -0.8997    0.2559 N   0  0  0  0  0  0  0  0  0  0  0  0
   -2.1009   -0.7021   -0.5533 H   0  0  0  0  0  0  0  0  0  0  0  0
   -0.1928   -0.2628    0.2639 C   0  0  1  0  0  0  0  0  0  0  0  0
    0.3925   -0.6635    1.0996 H   0  0  0  0  0  0  0  0  0  0  0  0
    0.6023   -0.5505   -1.0309 C   0  0  0  0  0  0  0  0  0  0  0  0
    0.1492    0.0464   -1.8292 H   0  0  0  0  0  0  0  0  0  0  0  0
    1.6322   -0.1934   -0.9229 H   0  0  0  0  0  0  0  0  0  0  0  0
    0.5881   -2.0173   -1.5206 C   0  0  0  0  0  0  0  0  0  0  0  0
   -0.3634   -2.5091   -1.3149 H   0  0  0  0  0  0  0  0  0  0  0  0
    0.7134   -2.0062   -2.6073 H   0  0  0  0  0  0  0  0  0  0  0  0
    1.7344   -2.8575   -0.9406 C   0  0  0  0  0  0  0  0  0  0  0  0
    2.4129   -2.3933    0.0128 O   0  5  0  0  0  0  0  0  0  0  0  0
    1.9348   -3.9729   -1.4811 O   0  0  0  0  0  0  0  0  0  0  0  0
   -0.2785    1.2651    0.4313 C   0  0  0  0  0  0  0  0  0  0  0  0
   -1.1098    1.9292   -0.1825 O   0  0  0  0  0  0  0  0  0  0  0  0
    0.5727    1.8990    1.3165 N   0  0  0  0  0  0  0  0  0  0  0  0
    1.2718    1.3190    1.7740 H   0  0  0  0  0  0  0  0  0  0  0  0
    0.5915    3.3379    1.5301 C   0  0  0  0  0  0  0  0  0  0  0  0
   -0.3799    3.6823    1.8992 H   0  0  0  0  0  0  0  0  0  0  0  0
    1.3546    3.5975    2.2697 H   0  0  0  0  0  0  0  0  0  0  0  0
    0.8220    3.8598    0.5957 H   0  0  0  0  0  0  0  0  0  0  0  0
  1  2  1  0  0  0  0
  2  3  1  0  0  0  0
  2  4  1  0  0  0  0
  2  5  1  0  0  0  0
  5  6  2  0  0  0  0
  5  7  1  0  0  0  0
  7  8  1  0  0  0  0
  7  9  1  0  0  0  0
  9 10  1  0  0  0  0
  9 11  1  0  0  0  0
  9 20  1  0  0  0  0
 11 12  1  0  0  0  0
 11 13  1  0  0  0  0
 11 14  1  0  0  0  0
 14 15  1  0  0  0  0
 14 16  1  0  0  0  0
 14 17  1  0  0  0  0
 17 18  1  0  0  0  0
 17 19  2  0  0  0  0
 20 21  2  0  0  0  0
 20 22  1  0  0  0  0
 22 23  1  0  0  0  0
 22 24  1  0  0  0  0
 24 25  1  0  0  0  0
 24 26  1  0  0  0  0
 24 27  1  0  0  0  0
M  CHG  1  18  -1
M  END
$$$$

  -OEChem-03222214043D

 27 26  0     1  0  0  0  0  0999 V2000
   -3.0873   -3.7377    1.2156 H   0  0  0  0  0  0  0  0  0  0  0  0
   -2.9297   -2.9332    0.4917 C   0  0  0  0  0  0  0  0  0  0  0  0
   -3.8635   -2.3805    0.3656 H   0  0  0  0  0  0  0  0  0  0  0  0
   -2.6421   -3.3761   -0.4654 H   0  0  0  0  0  0  0  0  0  0  0  0
   -1.8326   -2.0019    0.9750 C   0  0  0  0  0  0  0  0  0  0  0  0
   -1.3112   -2.1871    2.0643 O   0  0  0  0  0  0  0  0  0  0  0  0
   -1.5349   -0.8637    0.2534 N   0  0  0  0  0  0  0  0  0  0  0  0
   -2.0464   -0.7567   -0.6164 H   0  0  0  0  0  0  0  0  0  0  0  0
   -0.2011   -0.2396    0.2804 C   0  0  1  0  0  0  0  0  0  0  0  0
    0.3812   -0.6482    1.1141 H   0  0  0  0  0  0  0  0  0  0  0  0
    0.5779   -0.5300   -1.0238 C   0  0  0  0  0  0  0  0  0  0  0  0
    0.1477    0.0867   -1.8198 H   0  0  0  0  0  0  0  0  0  0  0  0
    1.6193   -0.2124   -0.9059 H   0  0  0  0  0  0  0  0  0  0  0  0
    0.5232   -1.9927   -1.5155 C   0  0  0  0  0  0  0  0  0  0  0  0
   -0.5043   -2.3617   -1.5427 H   0  0  0  0  0  0  0  0  0  0  0  0
    0.8970   -2.0138   -2.5429 H   0  0  0  0  0  0  0  0  0  0  0  0
    1.3994   -2.9478   -0.6979 C   0  0  0  0  0  0  0  0  0  0  0  0
    2.3601   -2.4764   -0.0363 O   0  5  0  0  0  0  0  0  0  0  0  0
    1.1139   -4.1676   -0.7752 O   0  0  0  0  0  0  0  0  0  0  0  0
   -0.2715    1.2907    0.4445 C   0  0  0  0  0  0  0  0  0  0  0  0
   -1.0670    1.9693   -0.2001 O   0  0  0  0  0  0  0  0  0  0  0  0
    0.5737    1.9164    1.3419 N   0  0  0  0  0  0  0  0  0  0  0  0
    1.2301    1.3241    1.8441 H   0  0  0  0  0  0  0  0  0  0  0  0
    0.5983    3.3543    1.5635 C   0  0  0  0  0  0  0  0  0  0  0  0
   -0.3804    3.7053    1.9061 H   0  0  0  0  0  0  0  0  0  0  0  0
    1.3418    3.6039    2.3262 H   0  0  0  0  0  0  0  0  0  0  0  0
    0.8602    3.8786    0.6389 H   0  0  0  0  0  0  0  0  0  0  0  0
  1  2  1  0  0  0  0
  2  3  1  0  0  0  0
  2  4  1  0  0  0  0
  2  5  1  0  0  0  0
  5  6  2  0  0  0  0
  5  7  1  0  0  0  0
  7  8  1  0  0  0  0
  7  9  1  0  0  0  0
  9 10  1  0  0  0  0
  9 11  1  0  0  0  0
  9 20  1  0  0  0  0
 11 12  1  0  0  0  0
 11 13  1  0  0  0  0
 11 14  1  0  0  0  0
 14 15  1  0  0  0  0
 14 16  1  0  0  0  0
 14 17  1  0  0  0  0
 17 18  1  0  0  0  0
 17 19  2  0  0  0  0
 20 21  2  0  0  0  0
 20 22  1  0  0  0  0
 22 23  1  0  0  0  0
 22 24  1  0  0  0  0
 24 25  1  0  0  0  0
 24 26  1  0  0  0  0
 24 27  1  0  0  0  0
M  CHG  1  18  -1
M  END
$$$$

  -OEChem-03222214043D

 27 26  0     1  0  0  0  0  0999 V2000
   -3.0238   -3.7514    1.2295 H   0  0  0  0  0  0  0  0  0  0  0  0
   -2.8320   -2.9895    0.4691 C   0  0  0  0  0  0  0  0  0  0  0  0
   -3.7740   -2.5040    0.2051 H   0  0  0  0  0  0  0  0  0  0  0  0
   -2.4186   -3.4798   -0.4165 H   0  0  0  0  0  0  0  0  0  0  0  0
   -1.8417   -1.9652    0.9934 C   0  0  0  0  0  0  0  0  0  0  0  0
   -1.4401   -2.0296    2.1472 O   0  0  0  0  0  0  0  0  0  0  0  0
   -1.5514   -0.8390    0.2487 N   0  0  0  0  0  0  0  0  0  0  0  0
   -1.9956   -0.8162   -0.6630 H   0  0  0  0  0  0  0  0  0  0  0  0
   -0.2113   -0.2301    0.2945 C   0  0  1  0  0  0  0  0  0  0  0  0
    0.3618   -0.6435    1.1326 H   0  0  0  0  0  0  0  0  0  0  0  0
    0.5591   -0.5240   -1.0162 C   0  0  0  0  0  0  0  0  0  0  0  0
    0.1650    0.1167   -1.8121 H   0  0  0  0  0  0  0  0  0  0  0  0
    1.6105   -0.2524   -0.8732 H   0  0  0  0  0  0  0  0  0  0  0  0
    0.4796   -1.9770   -1.5221 C   0  0  0  0  0  0  0  0  0  0  0  0
   -0.5548   -2.2311   -1.7698 H   0  0  0  0  0  0  0  0  0  0  0  0
    1.0623   -2.0552   -2.4440 H   0  0  0  0  0  0  0  0  0  0  0  0
    1.0359   -2.9941   -0.5255 C   0  0  0  0  0  0  0  0  0  0  0  0
    2.0862   -2.7001    0.0995 O   0  5  0  0  0  0  0  0  0  0  0  0
    0.4079   -4.0752   -0.4116 O   0  0  0  0  0  0  0  0  0  0  0  0
   -0.2645    1.3035    0.4392 C   0  0  0  0  0  0  0  0  0  0  0  0
   -1.0194    1.9923   -0.2424 O   0  0  0  0  0  0  0  0  0  0  0  0
    0.5730    1.9243    1.3471 N   0  0  0  0  0  0  0  0  0  0  0  0
    1.1706    1.3210    1.9059 H   0  0  0  0  0  0  0  0  0  0  0  0
    0.6046    3.3619    1.5695 C   0  0  0  0  0  0  0  0  0  0  0  0
   -0.3725    3.7174    1.9116 H   0  0  0  0  0  0  0  0  0  0  0  0
    1.3494    3.6066    2.3325 H   0  0  0  0  0  0  0  0  0  0  0  0
    0.8700    3.8866    0.6461 H   0  0  0  0  0  0  0  0  0  0  0  0
  1  2  1  0  0  0  0
  2  3  1  0  0  0  0
  2  4  1  0  0  0  0
  2  5  1  0  0  0  0
  5  6  2  0  0  0  0
  5  7  1  0  0  0  0
  7  8  1  0  0  0  0
  7  9  1  0  0  0  0
  9 10  1  0  0  0  0
  9 11  1  0  0  0  0
  9 20  1  0  0  0  0
 11 12  1  0  0  0  0
 11 13  1  0  0  0  0
 11 14  1  0  0  0  0
 14 15  1  0  0  0  0
 14 16  1  0  0  0  0
 14 17  1  0  0  0  0
 17 18  1  0  0  0  0
 17 19  2  0  0  0  0
 20 21  2  0  0  0  0
 20 22  1  0  0  0  0
 22 23  1  0  0  0  0
 22 24  1  0  0  0  0
 24 25  1  0  0  0  0
 24 26  1  0  0  0  0
 24 27  1  0  0  0  0
M  CHG  1  18  -1
M  END
$$$$

  -OEChem-03222214043D

 27 26  0     1  0  0  0  0  0999 V2000
   -2.9231   -3.8281    1.1447 H   0  0  0  0  0  0  0  0  0  0  0  0
   -2.9191   -2.9340    0.5154 C   0  0  0  0  0  0  0  0  0  0  0  0
   -3.9059   -2.4670    0.5458 H   0  0  0  0  0  0  0  0  0  0  0  0
   -2.6950   -3.2366   -0.5109 H   0  0  0  0  0  0  0  0  0  0  0  0
   -1.8629   -1.9611    1.0080 C   0  0  0  0  0  0  0  0  0  0  0  0
   -1.4842   -2.0034    2.1712 O   0  0  0  0  0  0  0  0  0  0  0  0
   -1.5350   -0.8549    0.2490 N   0  0  0  0  0  0  0  0  0  0  0  0
   -1.9653   -0.8411   -0.6696 H   0  0  0  0  0  0  0  0  0  0  0  0
   -0.1941   -0.2480    0.3104 C   0  0  1  0  0  0  0  0  0  0  0  0
    0.3625   -0.6487    1.1658 H   0  0  0  0  0  0  0  0  0  0  0  0
    0.6006   -0.5468   -0.9893 C   0  0  0  0  0  0  0  0  0  0  0  0
    0.2409    0.1062   -1.7917 H   0  0  0  0  0  0  0  0  0  0  0  0
    1.6473   -0.2843   -0.8030 H   0  0  0  0  0  0  0  0  0  0  0  0
    0.5643   -1.9886   -1.5329 C   0  0  0  0  0  0  0  0  0  0  0  0
   -0.4017   -2.1560   -2.0189 H   0  0  0  0  0  0  0  0  0  0  0  0
    1.3394   -2.0998   -2.2961 H   0  0  0  0  0  0  0  0  0  0  0  0
    0.7700   -3.0657   -0.4701 C   0  0  0  0  0  0  0  0  0  0  0  0
    1.7341   -2.9222    0.3224 O   0  5  0  0  0  0  0  0  0  0  0  0
   -0.0159   -4.0452   -0.4823 O   0  0  0  0  0  0  0  0  0  0  0  0
   -0.2560    1.2889    0.4173 C   0  0  0  0  0  0  0  0  0  0  0  0
   -0.9944    1.9616   -0.2980 O   0  0  0  0  0  0  0  0  0  0  0  0
    0.5590    1.9322    1.3300 N   0  0  0  0  0  0  0  0  0  0  0  0
    1.1131    1.3410    1.9436 H   0  0  0  0  0  0  0  0  0  0  0  0
    0.5532    3.3711    1.5453 C   0  0  0  0  0  0  0  0  0  0  0  0
   -0.4296    3.7011    1.8968 H   0  0  0  0  0  0  0  0  0  0  0  0
    1.2996    3.6407    2.2982 H   0  0  0  0  0  0  0  0  0  0  0  0
    0.7935    3.8976    0.6162 H   0  0  0  0  0  0  0  0  0  0  0  0
  1  2  1  0  0  0  0
  2  3  1  0  0  0  0
  2  4  1  0  0  0  0
  2  5  1  0  0  0  0
  5  6  2  0  0  0  0
  5  7  1  0  0  0  0
  7  8  1  0  0  0  0
  7  9  1  0  0  0  0
  9 10  1  0  0  0  0
  9 11  1  0  0  0  0
  9 20  1  0  0  0  0
 11 12  1  0  0  0  0
 11 13  1  0  0  0  0
 11 14  1  0  0  0  0
 14 15  1  0  0  0  0
 14 16  1  0  0  0  0
 14 17  1  0  0  0  0
 17 18  1  0  0  0  0
 17 19  2  0  0  0  0
 20 21  2  0  0  0  0
 20 22  1  0  0  0  0
 22 23  1  0  0  0  0
 22 24  1  0  0  0  0
 24 25  1  0  0  0  0
 24 26  1  0  0  0  0
 24 27  1  0  0  0  0
M  CHG  1  18  -1
M  END
$$$$

  -OEChem-03222214043D

 27 26  0     1  0  0  0  0  0999 V2000
   -2.9556   -3.8346    1.1314 H   0  0  0  0  0  0  0  0  0  0  0  0
   -3.0110   -2.8852    0.5921 C   0  0  0  0  0  0  0  0  0  0  0  0
   -3.9747   -2.4113    0.7899 H   0  0  0  0  0  0  0  0  0  0  0  0
   -2.9257   -3.0920   -0.4777 H   0  0  0  0  0  0  0  0  0  0  0  0
   -1.8805   -1.9746    1.0374 C   0  0  0  0  0  0  0  0  0  0  0  0
   -1.4948   -2.0103    2.1992 O   0  0  0  0  0  0  0  0  0  0  0  0
   -1.5311   -0.8820    0.2676 N   0  0  0  0  0  0  0  0  0  0  0  0
   -1.9619   -0.8724   -0.6512 H   0  0  0  0  0  0  0  0  0  0  0  0
   -0.1915   -0.2708    0.3311 C   0  0  1  0  0  0  0  0  0  0  0  0
    0.3555   -0.6575    1.1986 H   0  0  0  0  0  0  0  0  0  0  0  0
    0.6394   -0.5542   -0.9543 C   0  0  0  0  0  0  0  0  0  0  0  0
    0.2992    0.1113   -1.7549 H   0  0  0  0  0  0  0  0  0  0  0  0
    1.6728   -0.2752   -0.7241 H   0  0  0  0  0  0  0  0  0  0  0  0
    0.6801   -1.9744   -1.5587 C   0  0  0  0  0  0  0  0  0  0  0  0
   -0.1352   -2.0542   -2.2842 H   0  0  0  0  0  0  0  0  0  0  0  0
    1.6171   -2.0986   -2.1087 H   0  0  0  0  0  0  0  0  0  0  0  0
    0.5382   -3.1269   -0.5710 C   0  0  0  0  0  0  0  0  0  0  0  0
    1.3730   -3.1842    0.3644 O   0  5  0  0  0  0  0  0  0  0  0  0
   -0.3721   -3.9674   -0.7800 O   0  0  0  0  0  0  0  0  0  0  0  0
   -0.2762    1.2681    0.4101 C   0  0  0  0  0  0  0  0  0  0  0  0
   -1.0165    1.9205   -0.3217 O   0  0  0  0  0  0  0  0  0  0  0  0
    0.5207    1.9380    1.3203 N   0  0  0  0  0  0  0  0  0  0  0  0
    1.0592    1.3638    1.9627 H   0  0  0  0  0  0  0  0  0  0  0  0
    0.4748    3.3779    1.5255 C   0  0  0  0  0  0  0  0  0  0  0  0
   -0.5226    3.6850    1.8562 H   0  0  0  0  0  0  0  0  0  0  0  0
    1.2000    3.6710    2.2902 H   0  0  0  0  0  0  0  0  0  0  0  0
    0.7195    3.9045    0.5974 H   0  0  0  0  0  0  0  0  0  0  0  0
  1  2  1  0  0  0  0
  2  3  1  0  0  0  0
  2  4  1  0  0  0  0
  2  5  1  0  0  0  0
  5  6  2  0  0  0  0
  5  7  1  0  0  0  0
  7  8  1  0  0  0  0
  7  9  1  0  0  0  0
  9 10  1  0  0  0  0
  9 11  1  0  0  0  0
  9 20  1  0  0  0  0
 11 12  1  0  0  0  0
 11 13  1  0  0  0  0
 11 14  1  0  0  0  0
 14 15  1  0  0  0  0
 14 16  1  0  0  0  0
 14 17  1  0  0  0  0
 17 18  1  0  0  0  0
 17 19  2  0  0  0  0
 20 21  2  0  0  0  0
 20 22  1  0  0  0  0
 22 23  1  0  0  0  0
 22 24  1  0  0  0  0
 24 25  1  0  0  0  0
 24 26  1  0  0  0  0
 24 27  1  0  0  0  0
M  CHG  1  18  -1
M  END
$$$$

  -OEChem-03222214043D

 27 26  0     1  0  0  0  0  0999 V2000
   -2.5994   -4.0643    0.9947 H   0  0  0  0  0  0  0  0  0  0  0  0
   -2.8843   -3.0364    0.7550 C   0  0  0  0  0  0  0  0  0  0  0  0
   -3.7784   -2.7652    1.3205 H   0  0  0  0  0  0  0  0  0  0  0  0
   -3.1069   -2.9811   -0.3134 H   0  0  0  0  0  0  0  0  0  0  0  0
   -1.7420   -2.0981    1.1031 C   0  0  0  0  0  0  0  0  0  0  0  0
   -1.2524   -2.1450    2.2257 O   0  0  0  0  0  0  0  0  0  0  0  0
   -1.5131   -0.9661    0.3425 N   0  0  0  0  0  0  0  0  0  0  0  0
   -1.9950   -0.9764   -0.5515 H   0  0  0  0  0  0  0  0  0  0  0  0
   -0.2090   -0.2794    0.3392 C   0  0  1  0  0  0  0  0  0  0  0  0
    0.4116   -0.6527    1.1611 H   0  0  0  0  0  0  0  0  0  0  0  0
    0.5833   -0.4399   -0.9959 C   0  0  0  0  0  0  0  0  0  0  0  0
    0.1552    0.2430   -1.7380 H   0  0  0  0  0  0  0  0  0  0  0  0
    1.5992   -0.0854   -0.7931 H   0  0  0  0  0  0  0  0  0  0  0  0
    0.7245   -1.8012   -1.7183 C   0  0  0  0  0  0  0  0  0  0  0  0
    0.0793   -1.7774   -2.6021 H   0  0  0  0  0  0  0  0  0  0  0  0
    1.7522   -1.8977   -2.0805 H   0  0  0  0  0  0  0  0  0  0  0  0
    0.3795   -3.0604   -0.9361 C   0  0  0  0  0  0  0  0  0  0  0  0
    1.1614   -3.3998   -0.0167 O   0  5  0  0  0  0  0  0  0  0  0  0
   -0.6501   -3.6948   -1.2789 O   0  0  0  0  0  0  0  0  0  0  0  0
   -0.3998    1.2477    0.4728 C   0  0  0  0  0  0  0  0  0  0  0  0
   -1.2279    1.8672   -0.1901 O   0  0  0  0  0  0  0  0  0  0  0  0
    0.4047    1.9488    1.3529 N   0  0  0  0  0  0  0  0  0  0  0  0
    1.0042    1.3958    1.9583 H   0  0  0  0  0  0  0  0  0  0  0  0
    0.2583    3.3730    1.6146 C   0  0  0  0  0  0  0  0  0  0  0  0
   -0.7209    3.5812    2.0577 H   0  0  0  0  0  0  0  0  0  0  0  0
    1.0335    3.7080    2.3100 H   0  0  0  0  0  0  0  0  0  0  0  0
    0.3569    3.9459    0.6867 H   0  0  0  0  0  0  0  0  0  0  0  0
  1  2  1  0  0  0  0
  2  3  1  0  0  0  0
  2  4  1  0  0  0  0
  2  5  1  0  0  0  0
  5  6  2  0  0  0  0
  5  7  1  0  0  0  0
  7  8  1  0  0  0  0
  7  9  1  0  0  0  0
  9 10  1  0  0  0  0
  9 11  1  0  0  0  0
  9 20  1  0  0  0  0
 11 12  1  0  0  0  0
 11 13  1  0  0  0  0
 11 14  1  0  0  0  0
 14 15  1  0  0  0  0
 14 16  1  0  0  0  0
 14 17  1  0  0  0  0
 17 18  1  0  0  0  0
 17 19  2  0  0  0  0
 20 21  2  0  0  0  0
 20 22  1  0  0  0  0
 22 23  1  0  0  0  0
 22 24  1  0  0  0  0
 24 25  1  0  0  0  0
 24 26  1  0  0  0  0
 24 27  1  0  0  0  0
M  CHG  1  18  -1
M  END
$$$$

  -OEChem-03222214043D

 27 26  0     1  0  0  0  0  0999 V2000
   -2.7699   -3.9692    0.9815 H   0  0  0  0  0  0  0  0  0  0  0  0
   -2.9479   -2.9218    0.7237 C   0  0  0  0  0  0  0  0  0  0  0  0
   -3.7813   -2.5383    1.3161 H   0  0  0  0  0  0  0  0  0  0  0  0
   -3.2090   -2.8684   -0.3363 H   0  0  0  0  0  0  0  0  0  0  0  0
   -1.6959   -2.1058    0.9958 C   0  0  0  0  0  0  0  0  0  0  0  0
   -1.0274   -2.3443    1.9964 O   0  0  0  0  0  0  0  0  0  0  0  0
   -1.4845   -0.9192    0.3179 N   0  0  0  0  0  0  0  0  0  0  0  0
   -2.0393   -0.8143   -0.5268 H   0  0  0  0  0  0  0  0  0  0  0  0
   -0.1858   -0.2282    0.3312 C   0  0  1  0  0  0  0  0  0  0  0  0
    0.4476   -0.6355    1.1246 H   0  0  0  0  0  0  0  0  0  0  0  0
    0.5735   -0.3610   -1.0198 C   0  0  0  0  0  0  0  0  0  0  0  0
    0.1411    0.3511   -1.7344 H   0  0  0  0  0  0  0  0  0  0  0  0
    1.6026   -0.0263   -0.8479 H   0  0  0  0  0  0  0  0  0  0  0  0
    0.6460   -1.7466   -1.7203 C   0  0  0  0  0  0  0  0  0  0  0  0
   -0.3400   -1.5515   -2.1553 H   0  0  0  0  0  0  0  0  0  0  0  0
    0.9952   -2.0609   -0.7309 H   0  0  0  0  0  0  0  0  0  0  0  0
    0.2961   -3.2446   -1.7472 C   0  0  0  0  0  0  0  0  0  0  0  0
    1.2022   -4.0131   -2.1550 O   0  5  0  0  0  0  0  0  0  0  0  0
   -0.8614   -3.6214   -1.4230 O   0  0  0  0  0  0  0  0  0  0  0  0
   -0.3618    1.2858    0.5756 C   0  0  0  0  0  0  0  0  0  0  0  0
   -1.2075    1.9465   -0.0198 O   0  0  0  0  0  0  0  0  0  0  0  0
    0.4665    1.9265    1.4796 N   0  0  0  0  0  0  0  0  0  0  0  0
    1.1008    1.3426    2.0158 H   0  0  0  0  0  0  0  0  0  0  0  0
    0.3426    3.3356    1.8232 C   0  0  0  0  0  0  0  0  0  0  0  0
   -0.6356    3.5348    2.2724 H   0  0  0  0  0  0  0  0  0  0  0  0
    1.1182    3.6163    2.5420 H   0  0  0  0  0  0  0  0  0  0  0  0
    0.4574    3.9591    0.9305 H   0  0  0  0  0  0  0  0  0  0  0  0
  1  2  1  0  0  0  0
  2  3  1  0  0  0  0
  2  4  1  0  0  0  0
  2  5  1  0  0  0  0
  5  6  2  0  0  0  0
  5  7  1  0  0  0  0
  7  8  1  0  0  0  0
  7  9  1  0  0  0  0
  9 10  1  0  0  0  0
  9 11  1  0  0  0  0
  9 20  1  0  0  0  0
 11 12  1  0  0  0  0
 11 13  1  0  0  0  0
 11 14  1  0  0  0  0
 14 15  1  0  0  0  0
 14 16  1  0  0  0  0
 14 17  1  0  0  0  0
 17 18  1  0  0  0  0
 17 19  2  0  0  0  0
 20 21  2  0  0  0  0
 20 22  1  0  0  0  0
 22 23  1  0  0  0  0
 22 24  1  0  0  0  0
 24 25  1  0  0  0  0
 24 26  1  0  0  0  0
 24 27  1  0  0  0  0
M  CHG  1  18  -1
M  END
$$$$

  -OEChem-03222214043D

 27 26  0     1  0  0  0  0  0999 V2000
   -2.7123   -3.8504    0.3887 H   0  0  0  0  0  0  0  0  0  0  0  0
   -3.1008   -2.8684    0.6721 C   0  0  0  0  0  0  0  0  0  0  0  0
   -3.7887   -2.9831    1.5128 H   0  0  0  0  0  0  0  0  0  0  0  0
   -3.6456   -2.4509   -0.1782 H   0  0  0  0  0  0  0  0  0  0  0  0
   -1.9459   -1.9592    1.0573 C   0  0  0  0  0  0  0  0  0  0  0  0
   -1.4981   -2.0194    2.1989 O   0  0  0  0  0  0  0  0  0  0  0  0
   -1.5996   -0.8732    0.2700 N   0  0  0  0  0  0  0  0  0  0  0  0
   -1.9564   -0.9750   -0.6821 H   0  0  0  0  0  0  0  0  0  0  0  0
   -0.2461   -0.2960    0.3528 C   0  0  1  0  0  0  0  0  0  0  0  0
    0.2712   -0.6755    1.2387 H   0  0  0  0  0  0  0  0  0  0  0  0
    0.6726   -0.5476   -0.8882 C   0  0  0  0  0  0  0  0  0  0  0  0
    0.3108    0.1181   -1.6799 H   0  0  0  0  0  0  0  0  0  0  0  0
    1.6810   -0.2088   -0.6307 H   0  0  0  0  0  0  0  0  0  0  0  0
    0.8097   -1.9231   -1.5926 C   0  0  0  0  0  0  0  0  0  0  0  0
    0.8399   -1.7625   -2.6745 H   0  0  0  0  0  0  0  0  0  0  0  0
    1.7833   -2.3366   -1.3123 H   0  0  0  0  0  0  0  0  0  0  0  0
   -0.2273   -2.9985   -1.3009 C   0  0  0  0  0  0  0  0  0  0  0  0
    0.0727   -3.9331   -0.5210 O   0  5  0  0  0  0  0  0  0  0  0  0
   -1.3469   -2.8611   -1.8590 O   0  0  0  0  0  0  0  0  0  0  0  0
   -0.3278    1.2470    0.4296 C   0  0  0  0  0  0  0  0  0  0  0  0
   -1.0376    1.9154   -0.3164 O   0  0  0  0  0  0  0  0  0  0  0  0
    0.4599    1.9096    1.3548 N   0  0  0  0  0  0  0  0  0  0  0  0
    0.9477    1.3312    2.0316 H   0  0  0  0  0  0  0  0  0  0  0  0
    0.4090    3.3490    1.5661 C   0  0  0  0  0  0  0  0  0  0  0  0
   -0.5865    3.6497    1.9084 H   0  0  0  0  0  0  0  0  0  0  0  0
    1.1413    3.6430    2.3238 H   0  0  0  0  0  0  0  0  0  0  0  0
    0.6410    3.8814    0.6380 H   0  0  0  0  0  0  0  0  0  0  0  0
  1  2  1  0  0  0  0
  2  3  1  0  0  0  0
  2  4  1  0  0  0  0
  2  5  1  0  0  0  0
  5  6  2  0  0  0  0
  5  7  1  0  0  0  0
  7  8  1  0  0  0  0
  7  9  1  0  0  0  0
  9 10  1  0  0  0  0
  9 11  1  0  0  0  0
  9 20  1  0  0  0  0
 11 12  1  0  0  0  0
 11 13  1  0  0  0  0
 11 14  1  0  0  0  0
 14 15  1  0  0  0  0
 14 16  1  0  0  0  0
 14 17  1  0  0  0  0
 17 18  1  0  0  0  0
 17 19  2  0  0  0  0
 20 21  2  0  0  0  0
 20 22  1  0  0  0  0
 22 23  1  0  0  0  0
 22 24  1  0  0  0  0
 24 25  1  0  0  0  0
 24 26  1  0  0  0  0
 24 27  1  0  0  0  0
M  CHG  1  18  -1
M  END
$$$$

  -OEChem-03222214043D

 27 26  0     1  0  0  0  0  0999 V2000
   -3.5699   -3.1419    1.7434 H   0  0  0  0  0  0  0  0  0  0  0  0
   -3.0821   -2.8430    0.8129 C   0  0  0  0  0  0  0  0  0  0  0  0
   -3.7919   -2.2751    0.2065 H   0  0  0  0  0  0  0  0  0  0  0  0
   -2.7899   -3.7393    0.2594 H   0  0  0  0  0  0  0  0  0  0  0  0
   -1.8532   -1.9996    1.1096 C   0  0  0  0  0  0  0  0  0  0  0  0
   -1.2406   -2.1779    2.1585 O   0  0  0  0  0  0  0  0  0  0  0  0
   -1.5776   -0.8710    0.3575 N   0  0  0  0  0  0  0  0  0  0  0  0
   -2.0488   -0.9057   -0.5520 H   0  0  0  0  0  0  0  0  0  0  0  0
   -0.2206   -0.3021    0.3110 C   0  0  1  0  0  0  0  0  0  0  0  0
    0.3875   -0.7288    1.1132 H   0  0  0  0  0  0  0  0  0  0  0  0
    0.5453   -0.5182   -1.0334 C   0  0  0  0  0  0  0  0  0  0  0  0
    0.0942    0.1717   -1.7557 H   0  0  0  0  0  0  0  0  0  0  0  0
    1.5813   -0.1949   -0.8911 H   0  0  0  0  0  0  0  0  0  0  0  0
    0.5759   -1.8796   -1.7768 C   0  0  0  0  0  0  0  0  0  0  0  0
    0.7417   -1.6910   -2.8415 H   0  0  0  0  0  0  0  0  0  0  0  0
    1.4478   -2.4299   -1.4099 H   0  0  0  0  0  0  0  0  0  0  0  0
   -0.6297   -2.8046   -1.6411 C   0  0  0  0  0  0  0  0  0  0  0  0
   -1.7364   -2.3643   -2.0492 O   0  5  0  0  0  0  0  0  0  0  0  0
   -0.4582   -3.9385   -1.1339 O   0  0  0  0  0  0  0  0  0  0  0  0
   -0.2659    1.2341    0.4840 C   0  0  0  0  0  0  0  0  0  0  0  0
   -1.0508    1.9514   -0.1285 O   0  0  0  0  0  0  0  0  0  0  0  0
    0.6375    1.8354    1.3433 N   0  0  0  0  0  0  0  0  0  0  0  0
    1.2036    1.2163    1.9146 H   0  0  0  0  0  0  0  0  0  0  0  0
    0.6286    3.2597    1.6452 C   0  0  0  0  0  0  0  0  0  0  0  0
   -0.3169    3.5439    2.1184 H   0  0  0  0  0  0  0  0  0  0  0  0
    1.4468    3.5039    2.3289 H   0  0  0  0  0  0  0  0  0  0  0  0
    0.7574    3.8462    0.7297 H   0  0  0  0  0  0  0  0  0  0  0  0
  1  2  1  0  0  0  0
  2  3  1  0  0  0  0
  2  4  1  0  0  0  0
  2  5  1  0  0  0  0
  5  6  2  0  0  0  0
  5  7  1  0  0  0  0
  7  8  1  0  0  0  0
  7  9  1  0  0  0  0
  9 10  1  0  0  0  0
  9 11  1  0  0  0  0
  9 20  1  0  0  0  0
 11 12  1  0  0  0  0
 11 13  1  0  0  0  0
 11 14  1  0  0  0  0
 14 15  1  0  0  0  0
 14 16  1  0  0  0  0
 14 17  1  0  0  0  0
 17 18  1  0  0  0  0
 17 19  2  0  0  0  0
 20 21  2  0  0  0  0
 20 22  1  0  0  0  0
 22 23  1  0  0  0  0
 22 24  1  0  0  0  0
 24 25  1  0  0  0  0
 24 26  1  0  0  0  0
 24 27  1  0  0  0  0
M  CHG  1  18  -1
M  END
$$$$

  -OEChem-03222214043D

 27 26  0     1  0  0  0  0  0999 V2000
   -3.1161   -3.7217    1.3796 H   0  0  0  0  0  0  0  0  0  0  0  0
   -3.1249   -2.8024    0.7887 C   0  0  0  0  0  0  0  0  0  0  0  0
   -4.0095   -2.2165    1.0468 H   0  0  0  0  0  0  0  0  0  0  0  0
   -3.1780   -3.0736   -0.2684 H   0  0  0  0  0  0  0  0  0  0  0  0
   -1.8684   -1.9928    1.0635 C   0  0  0  0  0  0  0  0  0  0  0  0
   -1.2368   -2.1978    2.0960 O   0  0  0  0  0  0  0  0  0  0  0  0
   -1.5759   -0.8750    0.3029 N   0  0  0  0  0  0  0  0  0  0  0  0
   -2.0418   -0.8965   -0.6115 H   0  0  0  0  0  0  0  0  0  0  0  0
   -0.2261   -0.2883    0.2810 C   0  0  1  0  0  0  0  0  0  0  0  0
    0.3581   -0.6853    1.1152 H   0  0  0  0  0  0  0  0  0  0  0  0
    0.5802   -0.5632   -1.0242 C   0  0  0  0  0  0  0  0  0  0  0  0
    0.1605    0.0880   -1.7997 H   0  0  0  0  0  0  0  0  0  0  0  0
    1.6136   -0.2417   -0.8617 H   0  0  0  0  0  0  0  0  0  0  0  0
    0.6175   -1.9769   -1.6586 C   0  0  0  0  0  0  0  0  0  0  0  0
    1.0494   -1.8959   -2.6600 H   0  0  0  0  0  0  0  0  0  0  0  0
    1.2962   -2.5908   -1.0586 H   0  0  0  0  0  0  0  0  0  0  0  0
   -0.7088   -2.7281   -1.7761 C   0  0  0  0  0  0  0  0  0  0  0  0
   -1.6924   -2.1002   -2.2483 O   0  5  0  0  0  0  0  0  0  0  0  0
   -0.7514   -3.9170   -1.3791 O   0  0  0  0  0  0  0  0  0  0  0  0
   -0.2772    1.2503    0.4205 C   0  0  0  0  0  0  0  0  0  0  0  0
   -1.0467    1.9534   -0.2259 O   0  0  0  0  0  0  0  0  0  0  0  0
    0.6034    1.8713    1.2895 N   0  0  0  0  0  0  0  0  0  0  0  0
    1.1688    1.2679    1.8776 H   0  0  0  0  0  0  0  0  0  0  0  0
    0.6142    3.3067    1.5326 C   0  0  0  0  0  0  0  0  0  0  0  0
   -0.3472    3.6326    1.9426 H   0  0  0  0  0  0  0  0  0  0  0  0
    1.4012    3.5605    2.2488 H   0  0  0  0  0  0  0  0  0  0  0  0
    0.8056    3.8507    0.6020 H   0  0  0  0  0  0  0  0  0  0  0  0
  1  2  1  0  0  0  0
  2  3  1  0  0  0  0
  2  4  1  0  0  0  0
  2  5  1  0  0  0  0
  5  6  2  0  0  0  0
  5  7  1  0  0  0  0
  7  8  1  0  0  0  0
  7  9  1  0  0  0  0
  9 10  1  0  0  0  0
  9 11  1  0  0  0  0
  9 20  1  0  0  0  0
 11 12  1  0  0  0  0
 11 13  1  0  0  0  0
 11 14  1  0  0  0  0
 14 15  1  0  0  0  0
 14 16  1  0  0  0  0
 14 17  1  0  0  0  0
 17 18  1  0  0  0  0
 17 19  2  0  0  0  0
 20 21  2  0  0  0  0
 20 22  1  0  0  0  0
 22 23  1  0  0  0  0
 22 24  1  0  0  0  0
 24 25  1  0  0  0  0
 24 26  1  0  0  0  0
 24 27  1  0  0  0  0
M  CHG  1  18  -1
M  END
$$$$

  -OEChem-03222214043D

 27 26  0     1  0  0  0  0  0999 V2000
   -3.0864   -3.7544    1.2612 H   0  0  0  0  0  0  0  0  0  0  0  0
   -3.0819   -2.8317    0.6756 C   0  0  0  0  0  0  0  0  0  0  0  0
   -3.9752   -2.2503    0.9137 H   0  0  0  0  0  0  0  0  0  0  0  0
   -3.1052   -3.0948   -0.3849 H   0  0  0  0  0  0  0  0  0  0  0  0
   -1.8373   -2.0182    0.9870 C   0  0  0  0  0  0  0  0  0  0  0  0
   -1.1873   -2.2702    1.9970 O   0  0  0  0  0  0  0  0  0  0  0  0
   -1.5513   -0.8811    0.2561 N   0  0  0  0  0  0  0  0  0  0  0  0
   -2.0234   -0.8663   -0.6564 H   0  0  0  0  0  0  0  0  0  0  0  0
   -0.2166   -0.2638    0.2548 C   0  0  1  0  0  0  0  0  0  0  0  0
    0.3657   -0.6619    1.0898 H   0  0  0  0  0  0  0  0  0  0  0  0
    0.5832   -0.5486   -1.0465 C   0  0  0  0  0  0  0  0  0  0  0  0
    0.1800    0.0931   -1.8383 H   0  0  0  0  0  0  0  0  0  0  0  0
    1.6202   -0.2409   -0.8813 H   0  0  0  0  0  0  0  0  0  0  0  0
    0.5967   -1.9920   -1.6081 C   0  0  0  0  0  0  0  0  0  0  0  0
    1.2280   -2.0043   -2.5007 H   0  0  0  0  0  0  0  0  0  0  0  0
    1.0651   -2.6408   -0.8619 H   0  0  0  0  0  0  0  0  0  0  0  0
   -0.7574   -2.5999   -1.9925 C   0  0  0  0  0  0  0  0  0  0  0  0
   -1.6689   -1.8317   -2.3967 O   0  5  0  0  0  0  0  0  0  0  0  0
   -0.8914   -3.8382   -1.8458 O   0  0  0  0  0  0  0  0  0  0  0  0
   -0.2800    1.2708    0.4197 C   0  0  0  0  0  0  0  0  0  0  0  0
   -1.0584    1.9774   -0.2110 O   0  0  0  0  0  0  0  0  0  0  0  0
    0.5907    1.8841    1.3041 N   0  0  0  0  0  0  0  0  0  0  0  0
    1.1678    1.2764    1.8759 H   0  0  0  0  0  0  0  0  0  0  0  0
    0.5810    3.3136    1.5800 C   0  0  0  0  0  0  0  0  0  0  0  0
   -0.3918    3.6197    1.9785 H   0  0  0  0  0  0  0  0  0  0  0  0
    1.3509    3.5591    2.3175 H   0  0  0  0  0  0  0  0  0  0  0  0
    0.7843    3.8810    0.6659 H   0  0  0  0  0  0  0  0  0  0  0  0
  1  2  1  0  0  0  0
  2  3  1  0  0  0  0
  2  4  1  0  0  0  0
  2  5  1  0  0  0  0
  5  6  2  0  0  0  0
  5  7  1  0  0  0  0
  7  8  1  0  0  0  0
  7  9  1  0  0  0  0
  9 10  1  0  0  0  0
  9 11  1  0  0  0  0
  9 20  1  0  0  0  0
 11 12  1  0  0  0  0
 11 13  1  0  0  0  0
 11 14  1  0  0  0  0
 14 15  1  0  0  0  0
 14 16  1  0  0  0  0
 14 17  1  0  0  0  0
 17 18  1  0  0  0  0
 17 19  2  0  0  0  0
 20 21  2  0  0  0  0
 20 22  1  0  0  0  0
 22 23  1  0  0  0  0
 22 24  1  0  0  0  0
 24 25  1  0  0  0  0
 24 26  1  0  0  0  0
 24 27  1  0  0  0  0
M  CHG  1  18  -1
M  END
$$$$

  -OEChem-03222214043D

 27 26  0     1  0  0  0  0  0999 V2000
   -3.2198   -3.5906    1.3645 H   0  0  0  0  0  0  0  0  0  0  0  0
   -3.0061   -2.8672    0.5737 C   0  0  0  0  0  0  0  0  0  0  0  0
   -3.8829   -2.2323    0.4259 H   0  0  0  0  0  0  0  0  0  0  0  0
   -2.8039   -3.4092   -0.3540 H   0  0  0  0  0  0  0  0  0  0  0  0
   -1.8063   -2.0146    0.9472 C   0  0  0  0  0  0  0  0  0  0  0  0
   -1.1530   -2.2868    1.9494 O   0  0  0  0  0  0  0  0  0  0  0  0
   -1.5274   -0.8683    0.2318 N   0  0  0  0  0  0  0  0  0  0  0  0
   -1.9971   -0.8447   -0.6830 H   0  0  0  0  0  0  0  0  0  0  0  0
   -0.2017   -0.2352    0.2374 C   0  0  1  0  0  0  0  0  0  0  0  0
    0.3862   -0.6361    1.0669 H   0  0  0  0  0  0  0  0  0  0  0  0
    0.5688   -0.5400   -1.0725 C   0  0  0  0  0  0  0  0  0  0  0  0
    0.1768    0.0948   -1.8752 H   0  0  0  0  0  0  0  0  0  0  0  0
    1.6146   -0.2556   -0.9214 H   0  0  0  0  0  0  0  0  0  0  0  0
    0.5339   -2.0089   -1.5622 C   0  0  0  0  0  0  0  0  0  0  0  0
    1.3221   -2.1304   -2.3103 H   0  0  0  0  0  0  0  0  0  0  0  0
    0.7740   -2.6639   -0.7194 H   0  0  0  0  0  0  0  0  0  0  0  0
   -0.7746   -2.4940   -2.2063 C   0  0  0  0  0  0  0  0  0  0  0  0
   -1.6973   -1.6686   -2.4346 O   0  5  0  0  0  0  0  0  0  0  0  0
   -0.8647   -3.7269   -2.4173 O   0  0  0  0  0  0  0  0  0  0  0  0
   -0.2652    1.2974    0.4156 C   0  0  0  0  0  0  0  0  0  0  0  0
   -1.0498    2.0083   -0.2018 O   0  0  0  0  0  0  0  0  0  0  0  0
    0.6059    1.9033    1.3048 N   0  0  0  0  0  0  0  0  0  0  0  0
    1.1787    1.2897    1.8746 H   0  0  0  0  0  0  0  0  0  0  0  0
    0.5802    3.3273    1.6079 C   0  0  0  0  0  0  0  0  0  0  0  0
   -0.3831    3.6070    2.0466 H   0  0  0  0  0  0  0  0  0  0  0  0
    1.3717    3.5739    2.3216 H   0  0  0  0  0  0  0  0  0  0  0  0
    0.7401    3.9155    0.6984 H   0  0  0  0  0  0  0  0  0  0  0  0
  1  2  1  0  0  0  0
  2  3  1  0  0  0  0
  2  4  1  0  0  0  0
  2  5  1  0  0  0  0
  5  6  2  0  0  0  0
  5  7  1  0  0  0  0
  7  8  1  0  0  0  0
  7  9  1  0  0  0  0
  9 10  1  0  0  0  0
  9 11  1  0  0  0  0
  9 20  1  0  0  0  0
 11 12  1  0  0  0  0
 11 13  1  0  0  0  0
 11 14  1  0  0  0  0
 14 15  1  0  0  0  0
 14 16  1  0  0  0  0
 14 17  1  0  0  0  0
 17 18  1  0  0  0  0
 17 19  2  0  0  0  0
 20 21  2  0  0  0  0
 20 22  1  0  0  0  0
 22 23  1  0  0  0  0
 22 24  1  0  0  0  0
 24 25  1  0  0  0  0
 24 26  1  0  0  0  0
 24 27  1  0  0  0  0
M  CHG  1  18  -1
M  END
$$$$

  -OEChem-03222214043D

 27 26  0     1  0  0  0  0  0999 V2000
   -3.2080   -3.6168    1.2971 H   0  0  0  0  0  0  0  0  0  0  0  0
   -2.9875   -2.8791    0.5217 C   0  0  0  0  0  0  0  0  0  0  0  0
   -3.8770   -2.2685    0.3487 H   0  0  0  0  0  0  0  0  0  0  0  0
   -2.7362   -3.4036   -0.4042 H   0  0  0  0  0  0  0  0  0  0  0  0
   -1.8265   -1.9958    0.9437 C   0  0  0  0  0  0  0  0  0  0  0  0
   -1.1935   -2.2662    1.9592 O   0  0  0  0  0  0  0  0  0  0  0  0
   -1.5340   -0.8565    0.2246 N   0  0  0  0  0  0  0  0  0  0  0  0
   -1.9785   -0.8557   -0.7035 H   0  0  0  0  0  0  0  0  0  0  0  0
   -0.2062   -0.2283    0.2449 C   0  0  1  0  0  0  0  0  0  0  0  0
    0.3698   -0.6263    1.0843 H   0  0  0  0  0  0  0  0  0  0  0  0
    0.5691   -0.5560   -1.0554 C   0  0  0  0  0  0  0  0  0  0  0  0
    0.1957    0.0725   -1.8720 H   0  0  0  0  0  0  0  0  0  0  0  0
    1.6175   -0.2851   -0.8964 H   0  0  0  0  0  0  0  0  0  0  0  0
    0.5136   -2.0344   -1.5114 C   0  0  0  0  0  0  0  0  0  0  0  0
    1.4437   -2.2495   -2.0461 H   0  0  0  0  0  0  0  0  0  0  0  0
    0.4844   -2.6896   -0.6365 H   0  0  0  0  0  0  0  0  0  0  0  0
   -0.6468   -2.3967   -2.4536 C   0  0  0  0  0  0  0  0  0  0  0  0
   -1.7313   -1.7625   -2.3694 O   0  5  0  0  0  0  0  0  0  0  0  0
   -0.4547   -3.3668   -3.2252 O   0  0  0  0  0  0  0  0  0  0  0  0
   -0.2602    1.3059    0.4105 C   0  0  0  0  0  0  0  0  0  0  0  0
   -1.0298    2.0164   -0.2257 O   0  0  0  0  0  0  0  0  0  0  0  0
    0.6021    1.9142    1.3066 N   0  0  0  0  0  0  0  0  0  0  0  0
    1.1768    1.3047    1.8788 H   0  0  0  0  0  0  0  0  0  0  0  0
    0.6004    3.3445    1.5786 C   0  0  0  0  0  0  0  0  0  0  0  0
   -0.3701    3.6564    1.9782 H   0  0  0  0  0  0  0  0  0  0  0  0
    1.3732    3.5883    2.3135 H   0  0  0  0  0  0  0  0  0  0  0  0
    0.8046    3.9084    0.6626 H   0  0  0  0  0  0  0  0  0  0  0  0
  1  2  1  0  0  0  0
  2  3  1  0  0  0  0
  2  4  1  0  0  0  0
  2  5  1  0  0  0  0
  5  6  2  0  0  0  0
  5  7  1  0  0  0  0
  7  8  1  0  0  0  0
  7  9  1  0  0  0  0
  9 10  1  0  0  0  0
  9 11  1  0  0  0  0
  9 20  1  0  0  0  0
 11 12  1  0  0  0  0
 11 13  1  0  0  0  0
 11 14  1  0  0  0  0
 14 15  1  0  0  0  0
 14 16  1  0  0  0  0
 14 17  1  0  0  0  0
 17 18  1  0  0  0  0
 17 19  2  0  0  0  0
 20 21  2  0  0  0  0
 20 22  1  0  0  0  0
 22 23  1  0  0  0  0
 22 24  1  0  0  0  0
 24 25  1  0  0  0  0
 24 26  1  0  0  0  0
 24 27  1  0  0  0  0
M  CHG  1  18  -1
M  END
$$$$

  -OEChem-03222214043D

 27 26  0     1  0  0  0  0  0999 V2000
   -3.2725   -3.5703    1.2885 H   0  0  0  0  0  0  0  0  0  0  0  0
   -2.9877   -2.8830    0.4879 C   0  0  0  0  0  0  0  0  0  0  0  0
   -3.8513   -2.2681    0.2233 H   0  0  0  0  0  0  0  0  0  0  0  0
   -2.6885   -3.4634   -0.3891 H   0  0  0  0  0  0  0  0  0  0  0  0
   -1.8374   -1.9975    0.9329 C   0  0  0  0  0  0  0  0  0  0  0  0
   -1.2335   -2.2575    1.9684 O   0  0  0  0  0  0  0  0  0  0  0  0
   -1.5164   -0.8710    0.2053 N   0  0  0  0  0  0  0  0  0  0  0  0
   -1.9361   -0.8844   -0.7326 H   0  0  0  0  0  0  0  0  0  0  0  0
   -0.1846   -0.2430    0.2566 C   0  0  1  0  0  0  0  0  0  0  0  0
    0.3779   -0.6374    1.1069 H   0  0  0  0  0  0  0  0  0  0  0  0
    0.5874   -0.5863   -1.0382 C   0  0  0  0  0  0  0  0  0  0  0  0
    0.2220    0.0408   -1.8601 H   0  0  0  0  0  0  0  0  0  0  0  0
    1.6399   -0.3288   -0.8848 H   0  0  0  0  0  0  0  0  0  0  0  0
    0.5008   -2.0701   -1.4624 C   0  0  0  0  0  0  0  0  0  0  0  0
    1.4988   -2.3951   -1.7714 H   0  0  0  0  0  0  0  0  0  0  0  0
    0.2089   -2.7155   -0.6315 H   0  0  0  0  0  0  0  0  0  0  0  0
   -0.4473   -2.2643   -2.6475 C   0  0  0  0  0  0  0  0  0  0  0  0
   -1.6634   -2.0043   -2.4471 O   0  5  0  0  0  0  0  0  0  0  0  0
    0.0266   -2.6888   -3.7289 O   0  0  0  0  0  0  0  0  0  0  0  0
   -0.2368    1.2937    0.3956 C   0  0  0  0  0  0  0  0  0  0  0  0
   -0.9905    1.9932   -0.2710 O   0  0  0  0  0  0  0  0  0  0  0  0
    0.5998    1.9146    1.3070 N   0  0  0  0  0  0  0  0  0  0  0  0
    1.1688    1.3153    1.8954 H   0  0  0  0  0  0  0  0  0  0  0  0
    0.6094    3.3516    1.5402 C   0  0  0  0  0  0  0  0  0  0  0  0
   -0.3689    3.6873    1.8988 H   0  0  0  0  0  0  0  0  0  0  0  0
    1.3610    3.6047    2.2935 H   0  0  0  0  0  0  0  0  0  0  0  0
    0.8517    3.8873    0.6167 H   0  0  0  0  0  0  0  0  0  0  0  0
  1  2  1  0  0  0  0
  2  3  1  0  0  0  0
  2  4  1  0  0  0  0
  2  5  1  0  0  0  0
  5  6  2  0  0  0  0
  5  7  1  0  0  0  0
  7  8  1  0  0  0  0
  7  9  1  0  0  0  0
  9 10  1  0  0  0  0
  9 11  1  0  0  0  0
  9 20  1  0  0  0  0
 11 12  1  0  0  0  0
 11 13  1  0  0  0  0
 11 14  1  0  0  0  0
 14 15  1  0  0  0  0
 14 16  1  0  0  0  0
 14 17  1  0  0  0  0
 17 18  1  0  0  0  0
 17 19  2  0  0  0  0
 20 21  2  0  0  0  0
 20 22  1  0  0  0  0
 22 23  1  0  0  0  0
 22 24  1  0  0  0  0
 24 25  1  0  0  0  0
 24 26  1  0  0  0  0
 24 27  1  0  0  0  0
M  CHG  1  18  -1
M  END
$$$$

  -OEChem-03222214043D

 27 26  0     1  0  0  0  0  0999 V2000
   -3.1174   -3.7327    1.0744 H   0  0  0  0  0  0  0  0  0  0  0  0
   -3.0413   -2.8250    0.4701 C   0  0  0  0  0  0  0  0  0  0  0  0
   -3.9664   -2.2521    0.5674 H   0  0  0  0  0  0  0  0  0  0  0  0
   -2.9089   -3.1095   -0.5780 H   0  0  0  0  0  0  0  0  0  0  0  0
   -1.8623   -1.9850    0.9253 C   0  0  0  0  0  0  0  0  0  0  0  0
   -1.2544   -2.2797    1.9477 O   0  0  0  0  0  0  0  0  0  0  0  0
   -1.5096   -0.8661    0.2023 N   0  0  0  0  0  0  0  0  0  0  0  0
   -1.9725   -0.8010   -0.7068 H   0  0  0  0  0  0  0  0  0  0  0  0
   -0.1730   -0.2484    0.2532 C   0  0  1  0  0  0  0  0  0  0  0  0
    0.3777   -0.6402    1.1127 H   0  0  0  0  0  0  0  0  0  0  0  0
    0.6074   -0.6165   -1.0282 C   0  0  0  0  0  0  0  0  0  0  0  0
    0.2313    0.0002   -1.8533 H   0  0  0  0  0  0  0  0  0  0  0  0
    1.6593   -0.3490   -0.8880 H   0  0  0  0  0  0  0  0  0  0  0  0
    0.5246   -2.1063   -1.4410 C   0  0  0  0  0  0  0  0  0  0  0  0
    1.5413   -2.5089   -1.4751 H   0  0  0  0  0  0  0  0  0  0  0  0
   -0.0153   -2.7216   -0.7219 H   0  0  0  0  0  0  0  0  0  0  0  0
   -0.0977   -2.2635   -2.8241 C   0  0  0  0  0  0  0  0  0  0  0  0
   -1.3517   -2.1690   -2.8750 O   0  5  0  0  0  0  0  0  0  0  0  0
    0.6525   -2.4665   -3.8097 O   0  0  0  0  0  0  0  0  0  0  0  0
   -0.2200    1.2886    0.3835 C   0  0  0  0  0  0  0  0  0  0  0  0
   -0.9996    1.9768   -0.2650 O   0  0  0  0  0  0  0  0  0  0  0  0
    0.6148    1.9153    1.2920 N   0  0  0  0  0  0  0  0  0  0  0  0
    1.2052    1.3214    1.8647 H   0  0  0  0  0  0  0  0  0  0  0  0
    0.6069    3.3509    1.5345 C   0  0  0  0  0  0  0  0  0  0  0  0
   -0.3620    3.6647    1.9360 H   0  0  0  0  0  0  0  0  0  0  0  0
    1.3847    3.6140    2.2573 H   0  0  0  0  0  0  0  0  0  0  0  0
    0.8000    3.8980    0.6059 H   0  0  0  0  0  0  0  0  0  0  0  0
  1  2  1  0  0  0  0
  2  3  1  0  0  0  0
  2  4  1  0  0  0  0
  2  5  1  0  0  0  0
  5  6  2  0  0  0  0
  5  7  1  0  0  0  0
  7  8  1  0  0  0  0
  7  9  1  0  0  0  0
  9 10  1  0  0  0  0
  9 11  1  0  0  0  0
  9 20  1  0  0  0  0
 11 12  1  0  0  0  0
 11 13  1  0  0  0  0
 11 14  1  0  0  0  0
 14 15  1  0  0  0  0
 14 16  1  0  0  0  0
 14 17  1  0  0  0  0
 17 18  1  0  0  0  0
 17 19  2  0  0  0  0
 20 21  2  0  0  0  0
 20 22  1  0  0  0  0
 22 23  1  0  0  0  0
 22 24  1  0  0  0  0
 24 25  1  0  0  0  0
 24 26  1  0  0  0  0
 24 27  1  0  0  0  0
M  CHG  1  18  -1
M  END
$$$$

  -OEChem-03222214043D

 27 26  0     1  0  0  0  0  0999 V2000
   -3.2435   -3.6552    1.1607 H   0  0  0  0  0  0  0  0  0  0  0  0
   -3.1092   -2.7839    0.5140 C   0  0  0  0  0  0  0  0  0  0  0  0
   -3.9955   -2.1489    0.5840 H   0  0  0  0  0  0  0  0  0  0  0  0
   -2.9971   -3.1257   -0.5190 H   0  0  0  0  0  0  0  0  0  0  0  0
   -1.8772   -2.0012    0.9303 C   0  0  0  0  0  0  0  0  0  0  0  0
   -1.2288   -2.3494    1.9089 O   0  0  0  0  0  0  0  0  0  0  0  0
   -1.5210   -0.8760    0.2180 N   0  0  0  0  0  0  0  0  0  0  0  0
   -2.0560   -0.7131   -0.6337 H   0  0  0  0  0  0  0  0  0  0  0  0
   -0.1797   -0.2699    0.2452 C   0  0  1  0  0  0  0  0  0  0  0  0
    0.3728   -0.6644    1.1025 H   0  0  0  0  0  0  0  0  0  0  0  0
    0.6194   -0.6248   -1.0299 C   0  0  0  0  0  0  0  0  0  0  0  0
    0.2191   -0.0121   -1.8463 H   0  0  0  0  0  0  0  0  0  0  0  0
    1.6663   -0.3331   -0.8992 H   0  0  0  0  0  0  0  0  0  0  0  0
    0.5646   -2.1073   -1.4731 C   0  0  0  0  0  0  0  0  0  0  0  0
    1.5108   -2.5911   -1.2144 H   0  0  0  0  0  0  0  0  0  0  0  0
   -0.2167   -2.6707   -0.9649 H   0  0  0  0  0  0  0  0  0  0  0  0
    0.3296   -2.2311   -2.9761 C   0  0  0  0  0  0  0  0  0  0  0  0
   -0.8639   -2.3290   -3.3584 O   0  5  0  0  0  0  0  0  0  0  0  0
    1.3290   -2.1978   -3.7354 O   0  0  0  0  0  0  0  0  0  0  0  0
   -0.2320    1.2650    0.3955 C   0  0  0  0  0  0  0  0  0  0  0  0
   -1.0583    1.9451   -0.2026 O   0  0  0  0  0  0  0  0  0  0  0  0
    0.6172    1.8911    1.2909 N   0  0  0  0  0  0  0  0  0  0  0  0
    1.2765    1.3060    1.7934 H   0  0  0  0  0  0  0  0  0  0  0  0
    0.6154    3.3267    1.5330 C   0  0  0  0  0  0  0  0  0  0  0  0
   -0.3594    3.6496    1.9123 H   0  0  0  0  0  0  0  0  0  0  0  0
    1.3776    3.5837    2.2743 H   0  0  0  0  0  0  0  0  0  0  0  0
    0.8346    3.8705    0.6084 H   0  0  0  0  0  0  0  0  0  0  0  0
  1  2  1  0  0  0  0
  2  3  1  0  0  0  0
  2  4  1  0  0  0  0
  2  5  1  0  0  0  0
  5  6  2  0  0  0  0
  5  7  1  0  0  0  0
  7  8  1  0  0  0  0
  7  9  1  0  0  0  0
  9 10  1  0  0  0  0
  9 11  1  0  0  0  0
  9 20  1  0  0  0  0
 11 12  1  0  0  0  0
 11 13  1  0  0  0  0
 11 14  1  0  0  0  0
 14 15  1  0  0  0  0
 14 16  1  0  0  0  0
 14 17  1  0  0  0  0
 17 18  1  0  0  0  0
 17 19  2  0  0  0  0
 20 21  2  0  0  0  0
 20 22  1  0  0  0  0
 22 23  1  0  0  0  0
 22 24  1  0  0  0  0
 24 25  1  0  0  0  0
 24 26  1  0  0  0  0
 24 27  1  0  0  0  0
M  CHG  1  18  -1
M  END
$$$$

  -OEChem-03222214043D

 27 26  0     1  0  0  0  0  0999 V2000
   -3.1383   -3.7274    1.2652 H   0  0  0  0  0  0  0  0  0  0  0  0
   -3.0406   -2.8613    0.6050 C   0  0  0  0  0  0  0  0  0  0  0  0
   -3.9219   -2.2259    0.7205 H   0  0  0  0  0  0  0  0  0  0  0  0
   -2.9864   -3.2112   -0.4297 H   0  0  0  0  0  0  0  0  0  0  0  0
   -1.7870   -2.0764    0.9469 C   0  0  0  0  0  0  0  0  0  0  0  0
   -1.0749   -2.4348    1.8753 O   0  0  0  0  0  0  0  0  0  0  0  0
   -1.4912   -0.9331    0.2352 N   0  0  0  0  0  0  0  0  0  0  0  0
   -2.0945   -0.7297   -0.5587 H   0  0  0  0  0  0  0  0  0  0  0  0
   -0.1745   -0.2764    0.2270 C   0  0  1  0  0  0  0  0  0  0  0  0
    0.4129   -0.6498    1.0705 H   0  0  0  0  0  0  0  0  0  0  0  0
    0.6192   -0.5869   -1.0626 C   0  0  0  0  0  0  0  0  0  0  0  0
    0.1706    0.0051   -1.8690 H   0  0  0  0  0  0  0  0  0  0  0  0
    1.6542   -0.2472   -0.9533 H   0  0  0  0  0  0  0  0  0  0  0  0
    0.6206   -2.0654   -1.5138 C   0  0  0  0  0  0  0  0  0  0  0  0
    1.4509   -2.5921   -1.0350 H   0  0  0  0  0  0  0  0  0  0  0  0
   -0.2959   -2.5816   -1.2265 H   0  0  0  0  0  0  0  0  0  0  0  0
    0.7429   -2.1725   -3.0327 C   0  0  0  0  0  0  0  0  0  0  0  0
    1.8821   -2.0139   -3.5375 O   0  5  0  0  0  0  0  0  0  0  0  0
   -0.3088   -2.3906   -3.6850 O   0  0  0  0  0  0  0  0  0  0  0  0
   -0.2925    1.2527    0.3913 C   0  0  0  0  0  0  0  0  0  0  0  0
   -1.1787    1.8903   -0.1673 O   0  0  0  0  0  0  0  0  0  0  0  0
    0.5518    1.9133    1.2657 N   0  0  0  0  0  0  0  0  0  0  0  0
    1.2699    1.3619    1.7241 H   0  0  0  0  0  0  0  0  0  0  0  0
    0.4859    3.3450    1.5214 C   0  0  0  0  0  0  0  0  0  0  0  0
   -0.4931    3.6162    1.9295 H   0  0  0  0  0  0  0  0  0  0  0  0
    1.2540    3.6326    2.2453 H   0  0  0  0  0  0  0  0  0  0  0  0
    0.6531    3.9069    0.5967 H   0  0  0  0  0  0  0  0  0  0  0  0
  1  2  1  0  0  0  0
  2  3  1  0  0  0  0
  2  4  1  0  0  0  0
  2  5  1  0  0  0  0
  5  6  2  0  0  0  0
  5  7  1  0  0  0  0
  7  8  1  0  0  0  0
  7  9  1  0  0  0  0
  9 10  1  0  0  0  0
  9 11  1  0  0  0  0
  9 20  1  0  0  0  0
 11 12  1  0  0  0  0
 11 13  1  0  0  0  0
 11 14  1  0  0  0  0
 14 15  1  0  0  0  0
 14 16  1  0  0  0  0
 14 17  1  0  0  0  0
 17 18  1  0  0  0  0
 17 19  2  0  0  0  0
 20 21  2  0  0  0  0
 20 22  1  0  0  0  0
 22 23  1  0  0  0  0
 22 24  1  0  0  0  0
 24 25  1  0  0  0  0
 24 26  1  0  0  0  0
 24 27  1  0  0  0  0
M  CHG  1  18  -1
M  END
$$$$

  -OEChem-03222214043D

 27 26  0     1  0  0  0  0  0999 V2000
   -3.1528   -3.7184    1.2604 H   0  0  0  0  0  0  0  0  0  0  0  0
   -3.0526   -2.8504    0.6029 C   0  0  0  0  0  0  0  0  0  0  0  0
   -3.9248   -2.2051    0.7324 H   0  0  0  0  0  0  0  0  0  0  0  0
   -3.0155   -3.1967   -0.4335 H   0  0  0  0  0  0  0  0  0  0  0  0
   -1.7852   -2.0825    0.9332 C   0  0  0  0  0  0  0  0  0  0  0  0
   -1.0659   -2.4564    1.8493 O   0  0  0  0  0  0  0  0  0  0  0  0
   -1.4874   -0.9356    0.2283 N   0  0  0  0  0  0  0  0  0  0  0  0
   -2.1100   -0.6998   -0.5406 H   0  0  0  0  0  0  0  0  0  0  0  0
   -0.1714   -0.2778    0.2222 C   0  0  1  0  0  0  0  0  0  0  0  0
    0.4162   -0.6531    1.0649 H   0  0  0  0  0  0  0  0  0  0  0  0
    0.6234   -0.5858   -1.0654 C   0  0  0  0  0  0  0  0  0  0  0  0
    0.1850    0.0020   -1.8801 H   0  0  0  0  0  0  0  0  0  0  0  0
    1.6602   -0.2540   -0.9463 H   0  0  0  0  0  0  0  0  0  0  0  0
    0.6133   -2.0657   -1.5001 C   0  0  0  0  0  0  0  0  0  0  0  0
    1.2540   -2.6504   -0.8340 H   0  0  0  0  0  0  0  0  0  0  0  0
   -0.3932   -2.4861   -1.4468 H   0  0  0  0  0  0  0  0  0  0  0  0
    1.0980   -2.2092   -2.9421 C   0  0  0  0  0  0  0  0  0  0  0  0
    2.3125   -1.9823   -3.1707 O   0  5  0  0  0  0  0  0  0  0  0  0
    0.2525   -2.5345   -3.8125 O   0  0  0  0  0  0  0  0  0  0  0  0
   -0.2923    1.2497    0.3936 C   0  0  0  0  0  0  0  0  0  0  0  0
   -1.1876    1.8829   -0.1563 O   0  0  0  0  0  0  0  0  0  0  0  0
    0.5501    1.9104    1.2695 N   0  0  0  0  0  0  0  0  0  0  0  0
    1.2927    1.3668    1.6978 H   0  0  0  0  0  0  0  0  0  0  0  0
    0.4953    3.3453    1.5088 C   0  0  0  0  0  0  0  0  0  0  0  0
   -0.4829    3.6293    1.9102 H   0  0  0  0  0  0  0  0  0  0  0  0
    1.2631    3.6351    2.2321 H   0  0  0  0  0  0  0  0  0  0  0  0
    0.6705    3.8951    0.5783 H   0  0  0  0  0  0  0  0  0  0  0  0
  1  2  1  0  0  0  0
  2  3  1  0  0  0  0
  2  4  1  0  0  0  0
  2  5  1  0  0  0  0
  5  6  2  0  0  0  0
  5  7  1  0  0  0  0
  7  8  1  0  0  0  0
  7  9  1  0  0  0  0
  9 10  1  0  0  0  0
  9 11  1  0  0  0  0
  9 20  1  0  0  0  0
 11 12  1  0  0  0  0
 11 13  1  0  0  0  0
 11 14  1  0  0  0  0
 14 15  1  0  0  0  0
 14 16  1  0  0  0  0
 14 17  1  0  0  0  0
 17 18  1  0  0  0  0
 17 19  2  0  0  0  0
 20 21  2  0  0  0  0
 20 22  1  0  0  0  0
 22 23  1  0  0  0  0
 22 24  1  0  0  0  0
 24 25  1  0  0  0  0
 24 26  1  0  0  0  0
 24 27  1  0  0  0  0
M  CHG  1  18  -1
M  END
$$$$

  -OEChem-03222214043D

 27 26  0     1  0  0  0  0  0999 V2000
   -3.1818   -3.6919    1.2853 H   0  0  0  0  0  0  0  0  0  0  0  0
   -3.0736   -2.8336    0.6164 C   0  0  0  0  0  0  0  0  0  0  0  0
   -3.9326   -2.1713    0.7488 H   0  0  0  0  0  0  0  0  0  0  0  0
   -3.0551   -3.1921   -0.4162 H   0  0  0  0  0  0  0  0  0  0  0  0
   -1.7889   -2.0849    0.9225 C   0  0  0  0  0  0  0  0  0  0  0  0
   -1.0518   -2.4791    1.8153 O   0  0  0  0  0  0  0  0  0  0  0  0
   -1.4992   -0.9307    0.2265 N   0  0  0  0  0  0  0  0  0  0  0  0
   -2.1404   -0.6746   -0.5199 H   0  0  0  0  0  0  0  0  0  0  0  0
   -0.1834   -0.2718    0.2070 C   0  0  1  0  0  0  0  0  0  0  0  0
    0.4053   -0.6535    1.0461 H   0  0  0  0  0  0  0  0  0  0  0  0
    0.6128   -0.5826   -1.0821 C   0  0  0  0  0  0  0  0  0  0  0  0
    0.3752    0.1751   -1.8372 H   0  0  0  0  0  0  0  0  0  0  0  0
    1.6828   -0.4996   -0.8634 H   0  0  0  0  0  0  0  0  0  0  0  0
    0.3224   -1.9603   -1.7116 C   0  0  0  0  0  0  0  0  0  0  0  0
    0.5591   -2.7494   -0.9923 H   0  0  0  0  0  0  0  0  0  0  0  0
   -0.7365   -2.0434   -1.9726 H   0  0  0  0  0  0  0  0  0  0  0  0
    1.1538   -2.1779   -2.9771 C   0  0  0  0  0  0  0  0  0  0  0  0
    2.4051   -2.1299   -2.8701 O   0  5  0  0  0  0  0  0  0  0  0  0
    0.5350   -2.4002   -4.0473 O   0  0  0  0  0  0  0  0  0  0  0  0
   -0.2980    1.2543    0.3955 C   0  0  0  0  0  0  0  0  0  0  0  0
   -1.2004    1.8929   -0.1365 O   0  0  0  0  0  0  0  0  0  0  0  0
    0.5584    1.9067    1.2643 N   0  0  0  0  0  0  0  0  0  0  0  0
    1.3096    1.3596    1.6733 H   0  0  0  0  0  0  0  0  0  0  0  0
    0.5110    3.3405    1.5124 C   0  0  0  0  0  0  0  0  0  0  0  0
   -0.4649    3.6266    1.9177 H   0  0  0  0  0  0  0  0  0  0  0  0
    1.2813    3.6227    2.2362 H   0  0  0  0  0  0  0  0  0  0  0  0
    0.6866    3.8946    0.5846 H   0  0  0  0  0  0  0  0  0  0  0  0
  1  2  1  0  0  0  0
  2  3  1  0  0  0  0
  2  4  1  0  0  0  0
  2  5  1  0  0  0  0
  5  6  2  0  0  0  0
  5  7  1  0  0  0  0
  7  8  1  0  0  0  0
  7  9  1  0  0  0  0
  9 10  1  0  0  0  0
  9 11  1  0  0  0  0
  9 20  1  0  0  0  0
 11 12  1  0  0  0  0
 11 13  1  0  0  0  0
 11 14  1  0  0  0  0
 14 15  1  0  0  0  0
 14 16  1  0  0  0  0
 14 17  1  0  0  0  0
 17 18  1  0  0  0  0
 17 19  2  0  0  0  0
 20 21  2  0  0  0  0
 20 22  1  0  0  0  0
 22 23  1  0  0  0  0
 22 24  1  0  0  0  0
 24 25  1  0  0  0  0
 24 26  1  0  0  0  0
 24 27  1  0  0  0  0
M  CHG  1  18  -1
M  END
$$$$

  -OEChem-03222214043D

 27 26  0     1  0  0  0  0  0999 V2000
   -3.1753   -3.7085    1.1761 H   0  0  0  0  0  0  0  0  0  0  0  0
   -3.0717   -2.8244    0.5413 C   0  0  0  0  0  0  0  0  0  0  0  0
   -3.9482   -2.1862    0.6771 H   0  0  0  0  0  0  0  0  0  0  0  0
   -3.0209   -3.1459   -0.5025 H   0  0  0  0  0  0  0  0  0  0  0  0
   -1.8111   -2.0605    0.9038 C   0  0  0  0  0  0  0  0  0  0  0  0
   -1.1074   -2.4454    1.8271 O   0  0  0  0  0  0  0  0  0  0  0  0
   -1.5008   -0.9056    0.2175 N   0  0  0  0  0  0  0  0  0  0  0  0
   -2.1170   -0.6535   -0.5503 H   0  0  0  0  0  0  0  0  0  0  0  0
   -0.1761   -0.2633    0.2242 C   0  0  1  0  0  0  0  0  0  0  0  0
    0.4005   -0.6612    1.0644 H   0  0  0  0  0  0  0  0  0  0  0  0
    0.6214   -0.5678   -1.0650 C   0  0  0  0  0  0  0  0  0  0  0  0
    0.4246    0.2064   -1.8151 H   0  0  0  0  0  0  0  0  0  0  0  0
    1.6869   -0.5176   -0.8171 H   0  0  0  0  0  0  0  0  0  0  0  0
    0.3056   -1.9356   -1.7116 C   0  0  0  0  0  0  0  0  0  0  0  0
    0.2860   -2.7008   -0.9304 H   0  0  0  0  0  0  0  0  0  0  0  0
   -0.6809   -1.8976   -2.1823 H   0  0  0  0  0  0  0  0  0  0  0  0
    1.3333   -2.3837   -2.7585 C   0  0  0  0  0  0  0  0  0  0  0  0
    2.2780   -1.6119   -3.0649 O   0  5  0  0  0  0  0  0  0  0  0  0
    1.1484   -3.5173   -3.2658 O   0  0  0  0  0  0  0  0  0  0  0  0
   -0.2753    1.2628    0.4203 C   0  0  0  0  0  0  0  0  0  0  0  0
   -1.1597    1.9156   -0.1250 O   0  0  0  0  0  0  0  0  0  0  0  0
    0.5742    1.8989    1.3075 N   0  0  0  0  0  0  0  0  0  0  0  0
    1.3128    1.3398    1.7229 H   0  0  0  0  0  0  0  0  0  0  0  0
    0.5473    3.3328    1.5576 C   0  0  0  0  0  0  0  0  0  0  0  0
   -0.4284    3.6342    1.9522 H   0  0  0  0  0  0  0  0  0  0  0  0
    1.3143    3.6006    2.2904 H   0  0  0  0  0  0  0  0  0  0  0  0
    0.7425    3.8861    0.6332 H   0  0  0  0  0  0  0  0  0  0  0  0
  1  2  1  0  0  0  0
  2  3  1  0  0  0  0
  2  4  1  0  0  0  0
  2  5  1  0  0  0  0
  5  6  2  0  0  0  0
  5  7  1  0  0  0  0
  7  8  1  0  0  0  0
  7  9  1  0  0  0  0
  9 10  1  0  0  0  0
  9 11  1  0  0  0  0
  9 20  1  0  0  0  0
 11 12  1  0  0  0  0
 11 13  1  0  0  0  0
 11 14  1  0  0  0  0
 14 15  1  0  0  0  0
 14 16  1  0  0  0  0
 14 17  1  0  0  0  0
 17 18  1  0  0  0  0
 17 19  2  0  0  0  0
 20 21  2  0  0  0  0
 20 22  1  0  0  0  0
 22 23  1  0  0  0  0
 22 24  1  0  0  0  0
 24 25  1  0  0  0  0
 24 26  1  0  0  0  0
 24 27  1  0  0  0  0
M  CHG  1  18  -1
M  END
$$$$

  -OEChem-03222214043D

 27 26  0     1  0  0  0  0  0999 V2000
   -3.2355   -3.6777    1.1843 H   0  0  0  0  0  0  0  0  0  0  0  0
   -3.1095   -2.8057    0.5367 C   0  0  0  0  0  0  0  0  0  0  0  0
   -3.9793   -2.1535    0.6467 H   0  0  0  0  0  0  0  0  0  0  0  0
   -3.0452   -3.1450   -0.5006 H   0  0  0  0  0  0  0  0  0  0  0  0
   -1.8448   -2.0534    0.9095 C   0  0  0  0  0  0  0  0  0  0  0  0
   -1.1641   -2.4329    1.8516 O   0  0  0  0  0  0  0  0  0  0  0  0
   -1.5130   -0.9054    0.2215 N   0  0  0  0  0  0  0  0  0  0  0  0
   -2.1166   -0.6512   -0.5554 H   0  0  0  0  0  0  0  0  0  0  0  0
   -0.1789   -0.2820    0.2355 C   0  0  1  0  0  0  0  0  0  0  0  0
    0.3905   -0.6889    1.0767 H   0  0  0  0  0  0  0  0  0  0  0  0
    0.6204   -0.5829   -1.0556 C   0  0  0  0  0  0  0  0  0  0  0  0
    0.4439    0.2050   -1.7960 H   0  0  0  0  0  0  0  0  0  0  0  0
    1.6846   -0.5465   -0.7977 H   0  0  0  0  0  0  0  0  0  0  0  0
    0.3081   -1.9344   -1.7375 C   0  0  0  0  0  0  0  0  0  0  0  0
    0.0293   -2.6728   -0.9813 H   0  0  0  0  0  0  0  0  0  0  0  0
   -0.5323   -1.8168   -2.4271 H   0  0  0  0  0  0  0  0  0  0  0  0
    1.5190   -2.4988   -2.4879 C   0  0  0  0  0  0  0  0  0  0  0  0
    2.2064   -1.7042   -3.1782 O   0  5  0  0  0  0  0  0  0  0  0  0
    1.7350   -3.7322   -2.3945 O   0  0  0  0  0  0  0  0  0  0  0  0
   -0.2645    1.2460    0.4273 C   0  0  0  0  0  0  0  0  0  0  0  0
   -1.1330    1.9082   -0.1327 O   0  0  0  0  0  0  0  0  0  0  0  0
    0.5846    1.8757    1.3192 N   0  0  0  0  0  0  0  0  0  0  0  0
    1.3044    1.3072    1.7545 H   0  0  0  0  0  0  0  0  0  0  0  0
    0.5692    3.3099    1.5685 C   0  0  0  0  0  0  0  0  0  0  0  0
   -0.4080    3.6214    1.9516 H   0  0  0  0  0  0  0  0  0  0  0  0
    1.3301    3.5704    2.3101 H   0  0  0  0  0  0  0  0  0  0  0  0
    0.7811    3.8605    0.6463 H   0  0  0  0  0  0  0  0  0  0  0  0
  1  2  1  0  0  0  0
  2  3  1  0  0  0  0
  2  4  1  0  0  0  0
  2  5  1  0  0  0  0
  5  6  2  0  0  0  0
  5  7  1  0  0  0  0
  7  8  1  0  0  0  0
  7  9  1  0  0  0  0
  9 10  1  0  0  0  0
  9 11  1  0  0  0  0
  9 20  1  0  0  0  0
 11 12  1  0  0  0  0
 11 13  1  0  0  0  0
 11 14  1  0  0  0  0
 14 15  1  0  0  0  0
 14 16  1  0  0  0  0
 14 17  1  0  0  0  0
 17 18  1  0  0  0  0
 17 19  2  0  0  0  0
 20 21  2  0  0  0  0
 20 22  1  0  0  0  0
 22 23  1  0  0  0  0
 22 24  1  0  0  0  0
 24 25  1  0  0  0  0
 24 26  1  0  0  0  0
 24 27  1  0  0  0  0
M  CHG  1  18  -1
M  END
$$$$

  -OEChem-03222214043D

 27 26  0     1  0  0  0  0  0999 V2000
   -3.2419   -3.6890    1.1812 H   0  0  0  0  0  0  0  0  0  0  0  0
   -3.1306   -2.8022    0.5510 C   0  0  0  0  0  0  0  0  0  0  0  0
   -4.0039   -2.1594    0.6854 H   0  0  0  0  0  0  0  0  0  0  0  0
   -3.0766   -3.1192   -0.4938 H   0  0  0  0  0  0  0  0  0  0  0  0
   -1.8674   -2.0477    0.9252 C   0  0  0  0  0  0  0  0  0  0  0  0
   -1.2041   -2.4088    1.8864 O   0  0  0  0  0  0  0  0  0  0  0  0
   -1.5284   -0.9051    0.2307 N   0  0  0  0  0  0  0  0  0  0  0  0
   -2.1225   -0.6607   -0.5562 H   0  0  0  0  0  0  0  0  0  0  0  0
   -0.1895   -0.2921    0.2452 C   0  0  1  0  0  0  0  0  0  0  0  0
    0.3758   -0.7003    1.0886 H   0  0  0  0  0  0  0  0  0  0  0  0
    0.6213   -0.5865   -1.0425 C   0  0  0  0  0  0  0  0  0  0  0  0
    0.4466    0.2100   -1.7740 H   0  0  0  0  0  0  0  0  0  0  0  0
    1.6820   -0.5370   -0.7724 H   0  0  0  0  0  0  0  0  0  0  0  0
    0.3351   -1.9279   -1.7630 C   0  0  0  0  0  0  0  0  0  0  0  0
   -0.2085   -2.6125   -1.1097 H   0  0  0  0  0  0  0  0  0  0  0  0
   -0.2852   -1.7453   -2.6449 H   0  0  0  0  0  0  0  0  0  0  0  0
    1.6242   -2.6415   -2.1835 C   0  0  0  0  0  0  0  0  0  0  0  0
    2.4746   -1.9773   -2.8285 O   0  5  0  0  0  0  0  0  0  0  0  0
    1.7432   -3.8556   -1.8868 O   0  0  0  0  0  0  0  0  0  0  0  0
   -0.2703    1.2366    0.4304 C   0  0  0  0  0  0  0  0  0  0  0  0
   -1.1268    1.9018   -0.1448 O   0  0  0  0  0  0  0  0  0  0  0  0
    0.5787    1.8657    1.3224 N   0  0  0  0  0  0  0  0  0  0  0  0
    1.2908    1.2938    1.7664 H   0  0  0  0  0  0  0  0  0  0  0  0
    0.5698    3.3008    1.5655 C   0  0  0  0  0  0  0  0  0  0  0  0
   -0.4089    3.6196    1.9386 H   0  0  0  0  0  0  0  0  0  0  0  0
    1.3257    3.5600    2.3126 H   0  0  0  0  0  0  0  0  0  0  0  0
    0.7928    3.8460    0.6426 H   0  0  0  0  0  0  0  0  0  0  0  0
  1  2  1  0  0  0  0
  2  3  1  0  0  0  0
  2  4  1  0  0  0  0
  2  5  1  0  0  0  0
  5  6  2  0  0  0  0
  5  7  1  0  0  0  0
  7  8  1  0  0  0  0
  7  9  1  0  0  0  0
  9 10  1  0  0  0  0
  9 11  1  0  0  0  0
  9 20  1  0  0  0  0
 11 12  1  0  0  0  0
 11 13  1  0  0  0  0
 11 14  1  0  0  0  0
 14 15  1  0  0  0  0
 14 16  1  0  0  0  0
 14 17  1  0  0  0  0
 17 18  1  0  0  0  0
 17 19  2  0  0  0  0
 20 21  2  0  0  0  0
 20 22  1  0  0  0  0
 22 23  1  0  0  0  0
 22 24  1  0  0  0  0
 24 25  1  0  0  0  0
 24 26  1  0  0  0  0
 24 27  1  0  0  0  0
M  CHG  1  18  -1
M  END
$$$$

  -OEChem-03222214043D

 27 26  0     1  0  0  0  0  0999 V2000
   -3.2270   -3.6951    1.1965 H   0  0  0  0  0  0  0  0  0  0  0  0
   -3.1001   -2.8339    0.5347 C   0  0  0  0  0  0  0  0  0  0  0  0
   -3.9961   -2.2110    0.5869 H   0  0  0  0  0  0  0  0  0  0  0  0
   -2.9739   -3.1947   -0.4894 H   0  0  0  0  0  0  0  0  0  0  0  0
   -1.8813   -2.0292    0.9491 C   0  0  0  0  0  0  0  0  0  0  0  0
   -1.2579   -2.3386    1.9541 O   0  0  0  0  0  0  0  0  0  0  0  0
   -1.5494   -0.8896    0.2456 N   0  0  0  0  0  0  0  0  0  0  0  0
   -2.1167   -0.6890   -0.5727 H   0  0  0  0  0  0  0  0  0  0  0  0
   -0.2072   -0.2847    0.2595 C   0  0  1  0  0  0  0  0  0  0  0  0
    0.3558   -0.6953    1.1035 H   0  0  0  0  0  0  0  0  0  0  0  0
    0.6095   -0.5805   -1.0264 C   0  0  0  0  0  0  0  0  0  0  0  0
    0.4110    0.2154   -1.7523 H   0  0  0  0  0  0  0  0  0  0  0  0
    1.6720   -0.5063   -0.7708 H   0  0  0  0  0  0  0  0  0  0  0  0
    0.3371   -1.9167   -1.7677 C   0  0  0  0  0  0  0  0  0  0  0  0
   -0.4528   -2.4984   -1.2924 H   0  0  0  0  0  0  0  0  0  0  0  0
    0.0029   -1.6943   -2.7850 H   0  0  0  0  0  0  0  0  0  0  0  0
    1.5878   -2.7962   -1.8555 C   0  0  0  0  0  0  0  0  0  0  0  0
    2.6155   -2.3001   -2.3825 O   0  5  0  0  0  0  0  0  0  0  0  0
    1.5028   -3.9724   -1.4255 O   0  0  0  0  0  0  0  0  0  0  0  0
   -0.2769    1.2456    0.4402 C   0  0  0  0  0  0  0  0  0  0  0  0
   -1.1131    1.9200   -0.1540 O   0  0  0  0  0  0  0  0  0  0  0  0
    0.5763    1.8700    1.3313 N   0  0  0  0  0  0  0  0  0  0  0  0
    1.2656    1.2882    1.7982 H   0  0  0  0  0  0  0  0  0  0  0  0
    0.5834    3.3059    1.5681 C   0  0  0  0  0  0  0  0  0  0  0  0
   -0.3881    3.6349    1.9507 H   0  0  0  0  0  0  0  0  0  0  0  0
    1.3502    3.5609    2.3053 H   0  0  0  0  0  0  0  0  0  0  0  0
    0.8008    3.8455    0.6406 H   0  0  0  0  0  0  0  0  0  0  0  0
  1  2  1  0  0  0  0
  2  3  1  0  0  0  0
  2  4  1  0  0  0  0
  2  5  1  0  0  0  0
  5  6  2  0  0  0  0
  5  7  1  0  0  0  0
  7  8  1  0  0  0  0
  7  9  1  0  0  0  0
  9 10  1  0  0  0  0
  9 11  1  0  0  0  0
  9 20  1  0  0  0  0
 11 12  1  0  0  0  0
 11 13  1  0  0  0  0
 11 14  1  0  0  0  0
 14 15  1  0  0  0  0
 14 16  1  0  0  0  0
 14 17  1  0  0  0  0
 17 18  1  0  0  0  0
 17 19  2  0  0  0  0
 20 21  2  0  0  0  0
 20 22  1  0  0  0  0
 22 23  1  0  0  0  0
 22 24  1  0  0  0  0
 24 25  1  0  0  0  0
 24 26  1  0  0  0  0
 24 27  1  0  0  0  0
M  CHG  1  18  -1
M  END
$$$$

  -OEChem-03222214043D

 27 26  0     1  0  0  0  0  0999 V2000
   -3.2089   -3.6762    1.2466 H   0  0  0  0  0  0  0  0  0  0  0  0
   -3.0343   -2.8789    0.5188 C   0  0  0  0  0  0  0  0  0  0  0  0
   -3.9420   -2.2779    0.4268 H   0  0  0  0  0  0  0  0  0  0  0  0
   -2.8049   -3.3332   -0.4487 H   0  0  0  0  0  0  0  0  0  0  0  0
   -1.8731   -2.0078    0.9641 C   0  0  0  0  0  0  0  0  0  0  0  0
   -1.2936   -2.2515    2.0129 O   0  0  0  0  0  0  0  0  0  0  0  0
   -1.5598   -0.8685    0.2501 N   0  0  0  0  0  0  0  0  0  0  0  0
   -2.0943   -0.7234   -0.6010 H   0  0  0  0  0  0  0  0  0  0  0  0
   -0.2170   -0.2662    0.2670 C   0  0  1  0  0  0  0  0  0  0  0  0
    0.3464   -0.6767    1.1108 H   0  0  0  0  0  0  0  0  0  0  0  0
    0.5992   -0.5676   -1.0184 C   0  0  0  0  0  0  0  0  0  0  0  0
    0.3737    0.2214   -1.7442 H   0  0  0  0  0  0  0  0  0  0  0  0
    1.6654   -0.4759   -0.7865 H   0  0  0  0  0  0  0  0  0  0  0  0
    0.3193   -1.9043   -1.7551 C   0  0  0  0  0  0  0  0  0  0  0  0
   -0.6514   -2.3322   -1.5039 H   0  0  0  0  0  0  0  0  0  0  0  0
    0.2944   -1.6956   -2.8284 H   0  0  0  0  0  0  0  0  0  0  0  0
    1.4165   -2.9483   -1.5345 C   0  0  0  0  0  0  0  0  0  0  0  0
    2.6055   -2.6206   -1.7772 O   0  5  0  0  0  0  0  0  0  0  0  0
    1.0512   -4.0904   -1.1635 O   0  0  0  0  0  0  0  0  0  0  0  0
   -0.2802    1.2649    0.4443 C   0  0  0  0  0  0  0  0  0  0  0  0
   -1.0961    1.9469   -0.1692 O   0  0  0  0  0  0  0  0  0  0  0  0
    0.5739    1.8860    1.3373 N   0  0  0  0  0  0  0  0  0  0  0  0
    1.2397    1.2963    1.8282 H   0  0  0  0  0  0  0  0  0  0  0  0
    0.5858    3.3216    1.5772 C   0  0  0  0  0  0  0  0  0  0  0  0
   -0.3874    3.6546    1.9519 H   0  0  0  0  0  0  0  0  0  0  0  0
    1.3472    3.5716    2.3218 H   0  0  0  0  0  0  0  0  0  0  0  0
    0.8144    3.8621    0.6530 H   0  0  0  0  0  0  0  0  0  0  0  0
  1  2  1  0  0  0  0
  2  3  1  0  0  0  0
  2  4  1  0  0  0  0
  2  5  1  0  0  0  0
  5  6  2  0  0  0  0
  5  7  1  0  0  0  0
  7  8  1  0  0  0  0
  7  9  1  0  0  0  0
  9 10  1  0  0  0  0
  9 11  1  0  0  0  0
  9 20  1  0  0  0  0
 11 12  1  0  0  0  0
 11 13  1  0  0  0  0
 11 14  1  0  0  0  0
 14 15  1  0  0  0  0
 14 16  1  0  0  0  0
 14 17  1  0  0  0  0
 17 18  1  0  0  0  0
 17 19  2  0  0  0  0
 20 21  2  0  0  0  0
 20 22  1  0  0  0  0
 22 23  1  0  0  0  0
 22 24  1  0  0  0  0
 24 25  1  0  0  0  0
 24 26  1  0  0  0  0
 24 27  1  0  0  0  0
M  CHG  1  18  -1
M  END
$$$$

  -OEChem-03222214043D

 27 26  0     1  0  0  0  0  0999 V2000
   -3.1675   -3.6679    1.2669 H   0  0  0  0  0  0  0  0  0  0  0  0
   -2.9257   -2.9416    0.4861 C   0  0  0  0  0  0  0  0  0  0  0  0
   -3.8329   -2.3964    0.2153 H   0  0  0  0  0  0  0  0  0  0  0  0
   -2.5546   -3.4811   -0.3899 H   0  0  0  0  0  0  0  0  0  0  0  0
   -1.8608   -1.9780    0.9782 C   0  0  0  0  0  0  0  0  0  0  0  0
   -1.3483   -2.1382    2.0778 O   0  0  0  0  0  0  0  0  0  0  0  0
   -1.5720   -0.8398    0.2510 N   0  0  0  0  0  0  0  0  0  0  0  0
   -2.0621   -0.7641   -0.6348 H   0  0  0  0  0  0  0  0  0  0  0  0
   -0.2278   -0.2414    0.2727 C   0  0  1  0  0  0  0  0  0  0  0  0
    0.3377   -0.6551    1.1140 H   0  0  0  0  0  0  0  0  0  0  0  0
    0.5762   -0.5519   -1.0179 C   0  0  0  0  0  0  0  0  0  0  0  0
    0.3489    0.2335   -1.7467 H   0  0  0  0  0  0  0  0  0  0  0  0
    1.6472   -0.4760   -0.8033 H   0  0  0  0  0  0  0  0  0  0  0  0
    0.2626   -1.8892   -1.7323 C   0  0  0  0  0  0  0  0  0  0  0  0
   -0.7967   -2.1484   -1.6922 H   0  0  0  0  0  0  0  0  0  0  0  0
    0.5030   -1.7585   -2.7911 H   0  0  0  0  0  0  0  0  0  0  0  0
    1.1205   -3.0539   -1.2377 C   0  0  0  0  0  0  0  0  0  0  0  0
    2.3659   -2.8983   -1.1719 O   0  5  0  0  0  0  0  0  0  0  0  0
    0.5138   -4.1160   -0.9548 O   0  0  0  0  0  0  0  0  0  0  0  0
   -0.2788    1.2905    0.4456 C   0  0  0  0  0  0  0  0  0  0  0  0
   -1.0672    1.9833   -0.1914 O   0  0  0  0  0  0  0  0  0  0  0  0
    0.5776    1.9042    1.3413 N   0  0  0  0  0  0  0  0  0  0  0  0
    1.2077    1.3030    1.8643 H   0  0  0  0  0  0  0  0  0  0  0  0
    0.6011    3.3392    1.5825 C   0  0  0  0  0  0  0  0  0  0  0  0
   -0.3688    3.6794    1.9592 H   0  0  0  0  0  0  0  0  0  0  0  0
    1.3663    3.5824    2.3256 H   0  0  0  0  0  0  0  0  0  0  0  0
    0.8322    3.8784    0.6582 H   0  0  0  0  0  0  0  0  0  0  0  0
  1  2  1  0  0  0  0
  2  3  1  0  0  0  0
  2  4  1  0  0  0  0
  2  5  1  0  0  0  0
  5  6  2  0  0  0  0
  5  7  1  0  0  0  0
  7  8  1  0  0  0  0
  7  9  1  0  0  0  0
  9 10  1  0  0  0  0
  9 11  1  0  0  0  0
  9 20  1  0  0  0  0
 11 12  1  0  0  0  0
 11 13  1  0  0  0  0
 11 14  1  0  0  0  0
 14 15  1  0  0  0  0
 14 16  1  0  0  0  0
 14 17  1  0  0  0  0
 17 18  1  0  0  0  0
 17 19  2  0  0  0  0
 20 21  2  0  0  0  0
 20 22  1  0  0  0  0
 22 23  1  0  0  0  0
 22 24  1  0  0  0  0
 24 25  1  0  0  0  0
 24 26  1  0  0  0  0
 24 27  1  0  0  0  0
M  CHG  1  18  -1
M  END
$$$$

  -OEChem-03222214043D

 27 26  0     1  0  0  0  0  0999 V2000
   -3.0205   -3.7727    1.1955 H   0  0  0  0  0  0  0  0  0  0  0  0
   -2.9198   -2.9416    0.4922 C   0  0  0  0  0  0  0  0  0  0  0  0
   -3.8804   -2.4297    0.4031 H   0  0  0  0  0  0  0  0  0  0  0  0
   -2.6357   -3.3464   -0.4829 H   0  0  0  0  0  0  0  0  0  0  0  0
   -1.8534   -1.9753    0.9757 C   0  0  0  0  0  0  0  0  0  0  0  0
   -1.3827   -2.0903    2.1001 O   0  0  0  0  0  0  0  0  0  0  0  0
   -1.5610   -0.8439    0.2385 N   0  0  0  0  0  0  0  0  0  0  0  0
   -2.0303   -0.7950   -0.6601 H   0  0  0  0  0  0  0  0  0  0  0  0
   -0.2178   -0.2421    0.2718 C   0  0  1  0  0  0  0  0  0  0  0  0
    0.3441   -0.6532    1.1172 H   0  0  0  0  0  0  0  0  0  0  0  0
    0.5877   -0.5524   -1.0184 C   0  0  0  0  0  0  0  0  0  0  0  0
    0.3795    0.2337   -1.7520 H   0  0  0  0  0  0  0  0  0  0  0  0
    1.6582   -0.4987   -0.7939 H   0  0  0  0  0  0  0  0  0  0  0  0
    0.2654   -1.8885   -1.7220 C   0  0  0  0  0  0  0  0  0  0  0  0
   -0.8098   -2.0074   -1.8778 H   0  0  0  0  0  0  0  0  0  0  0  0
    0.7239   -1.8643   -2.7145 H   0  0  0  0  0  0  0  0  0  0  0  0
    0.8398   -3.1032   -0.9935 C   0  0  0  0  0  0  0  0  0  0  0  0
    2.0415   -3.0686   -0.6281 O   0  5  0  0  0  0  0  0  0  0  0  0
    0.0657   -4.0782   -0.8296 O   0  0  0  0  0  0  0  0  0  0  0  0
   -0.2724    1.2913    0.4289 C   0  0  0  0  0  0  0  0  0  0  0  0
   -1.0403    1.9819   -0.2355 O   0  0  0  0  0  0  0  0  0  0  0  0
    0.5733    1.9105    1.3308 N   0  0  0  0  0  0  0  0  0  0  0  0
    1.1670    1.3079    1.8933 H   0  0  0  0  0  0  0  0  0  0  0  0
    0.5880    3.3458    1.5701 C   0  0  0  0  0  0  0  0  0  0  0  0
   -0.3851    3.6814    1.9429 H   0  0  0  0  0  0  0  0  0  0  0  0
    1.3495    3.5943    2.3152 H   0  0  0  0  0  0  0  0  0  0  0  0
    0.8194    3.8850    0.6459 H   0  0  0  0  0  0  0  0  0  0  0  0
  1  2  1  0  0  0  0
  2  3  1  0  0  0  0
  2  4  1  0  0  0  0
  2  5  1  0  0  0  0
  5  6  2  0  0  0  0
  5  7  1  0  0  0  0
  7  8  1  0  0  0  0
  7  9  1  0  0  0  0
  9 10  1  0  0  0  0
  9 11  1  0  0  0  0
  9 20  1  0  0  0  0
 11 12  1  0  0  0  0
 11 13  1  0  0  0  0
 11 14  1  0  0  0  0
 14 15  1  0  0  0  0
 14 16  1  0  0  0  0
 14 17  1  0  0  0  0
 17 18  1  0  0  0  0
 17 19  2  0  0  0  0
 20 21  2  0  0  0  0
 20 22  1  0  0  0  0
 22 23  1  0  0  0  0
 22 24  1  0  0  0  0
 24 25  1  0  0  0  0
 24 26  1  0  0  0  0
 24 27  1  0  0  0  0
M  CHG  1  18  -1
M  END
$$$$

  -OEChem-03222214043D

 27 26  0     1  0  0  0  0  0999 V2000
   -2.9704   -3.8165    1.1344 H   0  0  0  0  0  0  0  0  0  0  0  0
   -2.9832   -2.8967    0.5436 C   0  0  0  0  0  0  0  0  0  0  0  0
   -3.9454   -2.3970    0.6745 H   0  0  0  0  0  0  0  0  0  0  0  0
   -2.8561   -3.1619   -0.5091 H   0  0  0  0  0  0  0  0  0  0  0  0
   -1.8551   -1.9823    0.9862 C   0  0  0  0  0  0  0  0  0  0  0  0
   -1.3952   -2.0825    2.1166 O   0  0  0  0  0  0  0  0  0  0  0  0
   -1.5391   -0.8648    0.2378 N   0  0  0  0  0  0  0  0  0  0  0  0
   -2.0046   -0.8206   -0.6630 H   0  0  0  0  0  0  0  0  0  0  0  0
   -0.1966   -0.2588    0.2767 C   0  0  1  0  0  0  0  0  0  0  0  0
    0.3615   -0.6619    1.1288 H   0  0  0  0  0  0  0  0  0  0  0  0
    0.6162   -0.5628   -1.0131 C   0  0  0  0  0  0  0  0  0  0  0  0
    0.4313    0.2295   -1.7461 H   0  0  0  0  0  0  0  0  0  0  0  0
    1.6820   -0.5255   -0.7641 H   0  0  0  0  0  0  0  0  0  0  0  0
    0.3190   -1.8923   -1.7350 C   0  0  0  0  0  0  0  0  0  0  0  0
   -0.7173   -1.8979   -2.0856 H   0  0  0  0  0  0  0  0  0  0  0  0
    0.9614   -1.9599   -2.6173 H   0  0  0  0  0  0  0  0  0  0  0  0
    0.5738   -3.1264   -0.8702 C   0  0  0  0  0  0  0  0  0  0  0  0
    1.6422   -3.1732   -0.2115 O   0  5  0  0  0  0  0  0  0  0  0  0
   -0.2932   -4.0346   -0.9026 O   0  0  0  0  0  0  0  0  0  0  0  0
   -0.2620    1.2767    0.4065 C   0  0  0  0  0  0  0  0  0  0  0  0
   -1.0255    1.9547   -0.2760 O   0  0  0  0  0  0  0  0  0  0  0  0
    0.5704    1.9126    1.3091 N   0  0  0  0  0  0  0  0  0  0  0  0
    1.1427    1.3178    1.9015 H   0  0  0  0  0  0  0  0  0  0  0  0
    0.5468    3.3465    1.5557 C   0  0  0  0  0  0  0  0  0  0  0  0
   -0.4389    3.6554    1.9180 H   0  0  0  0  0  0  0  0  0  0  0  0
    1.2927    3.6096    2.3116 H   0  0  0  0  0  0  0  0  0  0  0  0
    0.7759    3.8967    0.6375 H   0  0  0  0  0  0  0  0  0  0  0  0
  1  2  1  0  0  0  0
  2  3  1  0  0  0  0
  2  4  1  0  0  0  0
  2  5  1  0  0  0  0
  5  6  2  0  0  0  0
  5  7  1  0  0  0  0
  7  8  1  0  0  0  0
  7  9  1  0  0  0  0
  9 10  1  0  0  0  0
  9 11  1  0  0  0  0
  9 20  1  0  0  0  0
 11 12  1  0  0  0  0
 11 13  1  0  0  0  0
 11 14  1  0  0  0  0
 14 15  1  0  0  0  0
 14 16  1  0  0  0  0
 14 17  1  0  0  0  0
 17 18  1  0  0  0  0
 17 19  2  0  0  0  0
 20 21  2  0  0  0  0
 20 22  1  0  0  0  0
 22 23  1  0  0  0  0
 22 24  1  0  0  0  0
 24 25  1  0  0  0  0
 24 26  1  0  0  0  0
 24 27  1  0  0  0  0
M  CHG  1  18  -1
M  END
$$$$

  -OEChem-03222214043D

 27 26  0     1  0  0  0  0  0999 V2000
   -2.9533   -3.8487    1.0461 H   0  0  0  0  0  0  0  0  0  0  0  0
   -3.0675   -2.8474    0.6223 C   0  0  0  0  0  0  0  0  0  0  0  0
   -3.9964   -2.4028    0.9857 H   0  0  0  0  0  0  0  0  0  0  0  0
   -3.1159   -2.9381   -0.4657 H   0  0  0  0  0  0  0  0  0  0  0  0
   -1.8842   -1.9842    1.0227 C   0  0  0  0  0  0  0  0  0  0  0  0
   -1.4309   -2.0711    2.1574 O   0  0  0  0  0  0  0  0  0  0  0  0
   -1.5407   -0.8848    0.2585 N   0  0  0  0  0  0  0  0  0  0  0  0
   -1.9972   -0.8526   -0.6477 H   0  0  0  0  0  0  0  0  0  0  0  0
   -0.1957   -0.2834    0.3047 C   0  0  1  0  0  0  0  0  0  0  0  0
    0.3500   -0.6750    1.1700 H   0  0  0  0  0  0  0  0  0  0  0  0
    0.6479   -0.5746   -0.9735 C   0  0  0  0  0  0  0  0  0  0  0  0
    0.5031    0.2343   -1.6977 H   0  0  0  0  0  0  0  0  0  0  0  0
    1.7009   -0.5479   -0.6743 H   0  0  0  0  0  0  0  0  0  0  0  0
    0.4175   -1.8853   -1.7535 C   0  0  0  0  0  0  0  0  0  0  0  0
   -0.5068   -1.7843   -2.3307 H   0  0  0  0  0  0  0  0  0  0  0  0
    1.2357   -2.0190   -2.4666 H   0  0  0  0  0  0  0  0  0  0  0  0
    0.3147   -3.1428   -0.8958 C   0  0  0  0  0  0  0  0  0  0  0  0
    1.2332   -3.3548   -0.0674 O   0  5  0  0  0  0  0  0  0  0  0  0
   -0.6614   -3.9066   -1.1020 O   0  0  0  0  0  0  0  0  0  0  0  0
   -0.2753    1.2551    0.4014 C   0  0  0  0  0  0  0  0  0  0  0  0
   -1.0276    1.9154   -0.3102 O   0  0  0  0  0  0  0  0  0  0  0  0
    0.5380    1.9163    1.3036 N   0  0  0  0  0  0  0  0  0  0  0  0
    1.0849    1.3377    1.9346 H   0  0  0  0  0  0  0  0  0  0  0  0
    0.5063    3.3565    1.5109 C   0  0  0  0  0  0  0  0  0  0  0  0
   -0.4753    3.6674    1.8828 H   0  0  0  0  0  0  0  0  0  0  0  0
    1.2643    3.6472    2.2443 H   0  0  0  0  0  0  0  0  0  0  0  0
    0.7136    3.8827    0.5735 H   0  0  0  0  0  0  0  0  0  0  0  0
  1  2  1  0  0  0  0
  2  3  1  0  0  0  0
  2  4  1  0  0  0  0
  2  5  1  0  0  0  0
  5  6  2  0  0  0  0
  5  7  1  0  0  0  0
  7  8  1  0  0  0  0
  7  9  1  0  0  0  0
  9 10  1  0  0  0  0
  9 11  1  0  0  0  0
  9 20  1  0  0  0  0
 11 12  1  0  0  0  0
 11 13  1  0  0  0  0
 11 14  1  0  0  0  0
 14 15  1  0  0  0  0
 14 16  1  0  0  0  0
 14 17  1  0  0  0  0
 17 18  1  0  0  0  0
 17 19  2  0  0  0  0
 20 21  2  0  0  0  0
 20 22  1  0  0  0  0
 22 23  1  0  0  0  0
 22 24  1  0  0  0  0
 24 25  1  0  0  0  0
 24 26  1  0  0  0  0
 24 27  1  0  0  0  0
M  CHG  1  18  -1
M  END
$$$$

  -OEChem-03222214043D

 27 26  0     1  0  0  0  0  0999 V2000
   -2.7855   -3.9352    0.8842 H   0  0  0  0  0  0  0  0  0  0  0  0
   -3.0501   -2.8835    0.7455 C   0  0  0  0  0  0  0  0  0  0  0  0
   -3.8914   -2.6312    1.3944 H   0  0  0  0  0  0  0  0  0  0  0  0
   -3.3466   -2.7373   -0.2960 H   0  0  0  0  0  0  0  0  0  0  0  0
   -1.8531   -2.0116    1.0807 C   0  0  0  0  0  0  0  0  0  0  0  0
   -1.3634   -2.0816    2.2026 O   0  0  0  0  0  0  0  0  0  0  0  0
   -1.5490   -0.9093    0.3016 N   0  0  0  0  0  0  0  0  0  0  0  0
   -2.0127   -0.9118   -0.6028 H   0  0  0  0  0  0  0  0  0  0  0  0
   -0.2103   -0.2919    0.3185 C   0  0  1  0  0  0  0  0  0  0  0  0
    0.3563   -0.6701    1.1757 H   0  0  0  0  0  0  0  0  0  0  0  0
    0.6371   -0.5396   -0.9719 C   0  0  0  0  0  0  0  0  0  0  0  0
    0.4874    0.2915   -1.6699 H   0  0  0  0  0  0  0  0  0  0  0  0
    1.6847   -0.4973   -0.6567 H   0  0  0  0  0  0  0  0  0  0  0  0
    0.4788   -1.8219   -1.8214 C   0  0  0  0  0  0  0  0  0  0  0  0
   -0.2777   -1.6198   -2.5863 H   0  0  0  0  0  0  0  0  0  0  0  0
    1.4202   -2.0129   -2.3444 H   0  0  0  0  0  0  0  0  0  0  0  0
    0.0677   -3.0966   -1.0966 C   0  0  0  0  0  0  0  0  0  0  0  0
    0.8495   -3.5451   -0.2250 O   0  5  0  0  0  0  0  0  0  0  0  0
   -1.0180   -3.6318   -1.4346 O   0  0  0  0  0  0  0  0  0  0  0  0
   -0.3270    1.2455    0.4152 C   0  0  0  0  0  0  0  0  0  0  0  0
   -1.1060    1.8906   -0.2816 O   0  0  0  0  0  0  0  0  0  0  0  0
    0.4891    1.9251    1.3014 N   0  0  0  0  0  0  0  0  0  0  0  0
    1.0461    1.3573    1.9328 H   0  0  0  0  0  0  0  0  0  0  0  0
    0.4095    3.3607    1.5279 C   0  0  0  0  0  0  0  0  0  0  0  0
   -0.5637    3.6265    1.9530 H   0  0  0  0  0  0  0  0  0  0  0  0
    1.1917    3.6744    2.2252 H   0  0  0  0  0  0  0  0  0  0  0  0
    0.5472    3.9053    0.5882 H   0  0  0  0  0  0  0  0  0  0  0  0
  1  2  1  0  0  0  0
  2  3  1  0  0  0  0
  2  4  1  0  0  0  0
  2  5  1  0  0  0  0
  5  6  2  0  0  0  0
  5  7  1  0  0  0  0
  7  8  1  0  0  0  0
  7  9  1  0  0  0  0
  9 10  1  0  0  0  0
  9 11  1  0  0  0  0
  9 20  1  0  0  0  0
 11 12  1  0  0  0  0
 11 13  1  0  0  0  0
 11 14  1  0  0  0  0
 14 15  1  0  0  0  0
 14 16  1  0  0  0  0
 14 17  1  0  0  0  0
 17 18  1  0  0  0  0
 17 19  2  0  0  0  0
 20 21  2  0  0  0  0
 20 22  1  0  0  0  0
 22 23  1  0  0  0  0
 22 24  1  0  0  0  0
 24 25  1  0  0  0  0
 24 26  1  0  0  0  0
 24 27  1  0  0  0  0
M  CHG  1  18  -1
M  END
$$$$

  -OEChem-03222214043D

 27 26  0     1  0  0  0  0  0999 V2000
   -2.7573   -3.9093    0.3643 H   0  0  0  0  0  0  0  0  0  0  0  0
   -3.1071   -2.8950    0.5753 C   0  0  0  0  0  0  0  0  0  0  0  0
   -3.8469   -2.9280    1.3782 H   0  0  0  0  0  0  0  0  0  0  0  0
   -3.5787   -2.4957   -0.3261 H   0  0  0  0  0  0  0  0  0  0  0  0
   -1.9279   -2.0286    0.9837 C   0  0  0  0  0  0  0  0  0  0  0  0
   -1.4777   -2.1429    2.1198 O   0  0  0  0  0  0  0  0  0  0  0  0
   -1.5882   -0.9011    0.2540 N   0  0  0  0  0  0  0  0  0  0  0  0
   -1.9791   -0.9148   -0.6867 H   0  0  0  0  0  0  0  0  0  0  0  0
   -0.2416   -0.3096    0.3594 C   0  0  1  0  0  0  0  0  0  0  0  0
    0.2763   -0.7241    1.2297 H   0  0  0  0  0  0  0  0  0  0  0  0
    0.6863   -0.4992   -0.8892 C   0  0  0  0  0  0  0  0  0  0  0  0
    0.5820    0.3731   -1.5441 H   0  0  0  0  0  0  0  0  0  0  0  0
    1.7109   -0.4729   -0.5049 H   0  0  0  0  0  0  0  0  0  0  0  0
    0.6023   -1.7195   -1.8416 C   0  0  0  0  0  0  0  0  0  0  0  0
    0.1412   -1.3769   -2.7734 H   0  0  0  0  0  0  0  0  0  0  0  0
    1.6195   -2.0314   -2.0959 H   0  0  0  0  0  0  0  0  0  0  0  0
   -0.1667   -2.9519   -1.3903 C   0  0  0  0  0  0  0  0  0  0  0  0
   -1.3137   -3.1184   -1.8781 O   0  5  0  0  0  0  0  0  0  0  0  0
    0.3704   -3.7076   -0.5468 O   0  0  0  0  0  0  0  0  0  0  0  0
   -0.3519    1.2256    0.5113 C   0  0  0  0  0  0  0  0  0  0  0  0
   -1.0815    1.9104   -0.2005 O   0  0  0  0  0  0  0  0  0  0  0  0
    0.4255    1.8612    1.4632 N   0  0  0  0  0  0  0  0  0  0  0  0
    0.9360    1.2639    2.1063 H   0  0  0  0  0  0  0  0  0  0  0  0
    0.3525    3.2896    1.7341 C   0  0  0  0  0  0  0  0  0  0  0  0
   -0.6486    3.5610    2.0841 H   0  0  0  0  0  0  0  0  0  0  0  0
    1.0775    3.5629    2.5063 H   0  0  0  0  0  0  0  0  0  0  0  0
    0.5794    3.8630    0.8295 H   0  0  0  0  0  0  0  0  0  0  0  0
  1  2  1  0  0  0  0
  2  3  1  0  0  0  0
  2  4  1  0  0  0  0
  2  5  1  0  0  0  0
  5  6  2  0  0  0  0
  5  7  1  0  0  0  0
  7  8  1  0  0  0  0
  7  9  1  0  0  0  0
  9 10  1  0  0  0  0
  9 11  1  0  0  0  0
  9 20  1  0  0  0  0
 11 12  1  0  0  0  0
 11 13  1  0  0  0  0
 11 14  1  0  0  0  0
 14 15  1  0  0  0  0
 14 16  1  0  0  0  0
 14 17  1  0  0  0  0
 17 18  1  0  0  0  0
 17 19  2  0  0  0  0
 20 21  2  0  0  0  0
 20 22  1  0  0  0  0
 22 23  1  0  0  0  0
 22 24  1  0  0  0  0
 24 25  1  0  0  0  0
 24 26  1  0  0  0  0
 24 27  1  0  0  0  0
M  CHG  1  18  -1
M  END
$$$$

  -OEChem-03222214043D

 27 26  0     1  0  0  0  0  0999 V2000
   -2.7979   -3.8011    0.2864 H   0  0  0  0  0  0  0  0  0  0  0  0
   -3.1685   -2.8316    0.6304 C   0  0  0  0  0  0  0  0  0  0  0  0
   -3.8318   -2.9837    1.4849 H   0  0  0  0  0  0  0  0  0  0  0  0
   -3.7354   -2.3676   -0.1804 H   0  0  0  0  0  0  0  0  0  0  0  0
   -1.9956   -1.9500    1.0253 C   0  0  0  0  0  0  0  0  0  0  0  0
   -1.5510   -2.0326    2.1670 O   0  0  0  0  0  0  0  0  0  0  0  0
   -1.6235   -0.8675    0.2443 N   0  0  0  0  0  0  0  0  0  0  0  0
   -1.9702   -0.9593   -0.7137 H   0  0  0  0  0  0  0  0  0  0  0  0
   -0.2708   -0.2929    0.3556 C   0  0  1  0  0  0  0  0  0  0  0  0
    0.2090   -0.6600    1.2673 H   0  0  0  0  0  0  0  0  0  0  0  0
    0.7073   -0.5742   -0.8379 C   0  0  0  0  0  0  0  0  0  0  0  0
    0.6046    0.2503   -1.5523 H   0  0  0  0  0  0  0  0  0  0  0  0
    1.7217   -0.5015   -0.4329 H   0  0  0  0  0  0  0  0  0  0  0  0
    0.6619   -1.8480   -1.7276 C   0  0  0  0  0  0  0  0  0  0  0  0
    0.5435   -1.5316   -2.7684 H   0  0  0  0  0  0  0  0  0  0  0  0
    1.6402   -2.3337   -1.6626 H   0  0  0  0  0  0  0  0  0  0  0  0
   -0.3895   -2.9143   -1.4557 C   0  0  0  0  0  0  0  0  0  0  0  0
   -0.0865   -3.8825   -0.7194 O   0  5  0  0  0  0  0  0  0  0  0  0
   -1.5222   -2.7334   -1.9731 O   0  0  0  0  0  0  0  0  0  0  0  0
   -0.3568    1.2505    0.4234 C   0  0  0  0  0  0  0  0  0  0  0  0
   -1.0510    1.9127   -0.3422 O   0  0  0  0  0  0  0  0  0  0  0  0
    0.4074    1.9207    1.3627 N   0  0  0  0  0  0  0  0  0  0  0  0
    0.8881    1.3491    2.0500 H   0  0  0  0  0  0  0  0  0  0  0  0
    0.3504    3.3618    1.5608 C   0  0  0  0  0  0  0  0  0  0  0  0
   -0.6523    3.6637    1.8803 H   0  0  0  0  0  0  0  0  0  0  0  0
    1.0667    3.6636    2.3305 H   0  0  0  0  0  0  0  0  0  0  0  0
    0.6001    3.8862    0.6327 H   0  0  0  0  0  0  0  0  0  0  0  0
  1  2  1  0  0  0  0
  2  3  1  0  0  0  0
  2  4  1  0  0  0  0
  2  5  1  0  0  0  0
  5  6  2  0  0  0  0
  5  7  1  0  0  0  0
  7  8  1  0  0  0  0
  7  9  1  0  0  0  0
  9 10  1  0  0  0  0
  9 11  1  0  0  0  0
  9 20  1  0  0  0  0
 11 12  1  0  0  0  0
 11 13  1  0  0  0  0
 11 14  1  0  0  0  0
 14 15  1  0  0  0  0
 14 16  1  0  0  0  0
 14 17  1  0  0  0  0
 17 18  1  0  0  0  0
 17 19  2  0  0  0  0
 20 21  2  0  0  0  0
 20 22  1  0  0  0  0
 22 23  1  0  0  0  0
 22 24  1  0  0  0  0
 24 25  1  0  0  0  0
 24 26  1  0  0  0  0
 24 27  1  0  0  0  0
M  CHG  1  18  -1
M  END
$$$$

  -OEChem-03222214043D

 27 26  0     1  0  0  0  0  0999 V2000
   -3.5912   -3.1073    1.7569 H   0  0  0  0  0  0  0  0  0  0  0  0
   -3.0755   -2.8771    0.8220 C   0  0  0  0  0  0  0  0  0  0  0  0
   -3.7612   -2.3399    0.1621 H   0  0  0  0  0  0  0  0  0  0  0  0
   -2.7827   -3.8101    0.3335 H   0  0  0  0  0  0  0  0  0  0  0  0
   -1.8408   -2.0357    1.0966 C   0  0  0  0  0  0  0  0  0  0  0  0
   -1.1801   -2.2566    2.1077 O   0  0  0  0  0  0  0  0  0  0  0  0
   -1.5991   -0.8813    0.3720 N   0  0  0  0  0  0  0  0  0  0  0  0
   -2.1102   -0.8793   -0.5177 H   0  0  0  0  0  0  0  0  0  0  0  0
   -0.2535   -0.2892    0.3043 C   0  0  1  0  0  0  0  0  0  0  0  0
    0.3656   -0.7189    1.0963 H   0  0  0  0  0  0  0  0  0  0  0  0
    0.5211   -0.4880   -1.0425 C   0  0  0  0  0  0  0  0  0  0  0  0
    0.2552    0.3635   -1.6789 H   0  0  0  0  0  0  0  0  0  0  0  0
    1.5891   -0.3885   -0.8248 H   0  0  0  0  0  0  0  0  0  0  0  0
    0.3462   -1.7133   -1.9862 C   0  0  0  0  0  0  0  0  0  0  0  0
    0.3451   -1.3535   -3.0194 H   0  0  0  0  0  0  0  0  0  0  0  0
    1.2394   -2.3354   -1.8733 H   0  0  0  0  0  0  0  0  0  0  0  0
   -0.8579   -2.6341   -1.8152 C   0  0  0  0  0  0  0  0  0  0  0  0
   -1.9869   -2.1610   -2.1082 O   0  5  0  0  0  0  0  0  0  0  0  0
   -0.6634   -3.7954   -1.3838 O   0  0  0  0  0  0  0  0  0  0  0  0
   -0.3167    1.2411    0.5224 C   0  0  0  0  0  0  0  0  0  0  0  0
   -1.1267    1.9638   -0.0490 O   0  0  0  0  0  0  0  0  0  0  0  0
    0.6019    1.8315    1.3731 N   0  0  0  0  0  0  0  0  0  0  0  0
    1.1925    1.2058    1.9111 H   0  0  0  0  0  0  0  0  0  0  0  0
    0.5935    3.2495    1.7030 C   0  0  0  0  0  0  0  0  0  0  0  0
   -0.3364    3.5171    2.2152 H   0  0  0  0  0  0  0  0  0  0  0  0
    1.4342    3.4868    2.3615 H   0  0  0  0  0  0  0  0  0  0  0  0
    0.6853    3.8547    0.7953 H   0  0  0  0  0  0  0  0  0  0  0  0
  1  2  1  0  0  0  0
  2  3  1  0  0  0  0
  2  4  1  0  0  0  0
  2  5  1  0  0  0  0
  5  6  2  0  0  0  0
  5  7  1  0  0  0  0
  7  8  1  0  0  0  0
  7  9  1  0  0  0  0
  9 10  1  0  0  0  0
  9 11  1  0  0  0  0
  9 20  1  0  0  0  0
 11 12  1  0  0  0  0
 11 13  1  0  0  0  0
 11 14  1  0  0  0  0
 14 15  1  0  0  0  0
 14 16  1  0  0  0  0
 14 17  1  0  0  0  0
 17 18  1  0  0  0  0
 17 19  2  0  0  0  0
 20 21  2  0  0  0  0
 20 22  1  0  0  0  0
 22 23  1  0  0  0  0
 22 24  1  0  0  0  0
 24 25  1  0  0  0  0
 24 26  1  0  0  0  0
 24 27  1  0  0  0  0
M  CHG  1  18  -1
M  END
$$$$

  -OEChem-03222214043D

 27 26  0     1  0  0  0  0  0999 V2000
   -3.1402   -3.6294    1.5497 H   0  0  0  0  0  0  0  0  0  0  0  0
   -3.1955   -2.6464    1.0754 C   0  0  0  0  0  0  0  0  0  0  0  0
   -3.9717   -2.0530    1.5629 H   0  0  0  0  0  0  0  0  0  0  0  0
   -3.4657   -2.7856    0.0257 H   0  0  0  0  0  0  0  0  0  0  0  0
   -1.8564   -1.9371    1.1865 C   0  0  0  0  0  0  0  0  0  0  0  0
   -1.1023   -2.2241    2.1119 O   0  0  0  0  0  0  0  0  0  0  0  0
   -1.5938   -0.8180    0.4171 N   0  0  0  0  0  0  0  0  0  0  0  0
   -2.1862   -0.7671   -0.4208 H   0  0  0  0  0  0  0  0  0  0  0  0
   -0.2309   -0.2942    0.2364 C   0  0  1  0  0  0  0  0  0  0  0  0
    0.4113   -0.7245    1.0091 H   0  0  0  0  0  0  0  0  0  0  0  0
    0.4469   -0.6135   -1.1361 C   0  0  0  0  0  0  0  0  0  0  0  0
    0.1661    0.2041   -1.8095 H   0  0  0  0  0  0  0  0  0  0  0  0
    1.5310   -0.5504   -1.0013 H   0  0  0  0  0  0  0  0  0  0  0  0
    0.1415   -1.8940   -1.9639 C   0  0  0  0  0  0  0  0  0  0  0  0
    0.3447   -1.6798   -3.0169 H   0  0  0  0  0  0  0  0  0  0  0  0
    0.8596   -2.6573   -1.6485 H   0  0  0  0  0  0  0  0  0  0  0  0
   -1.2484   -2.5225   -1.8728 C   0  0  0  0  0  0  0  0  0  0  0  0
   -2.2346   -1.7890   -2.1426 O   0  5  0  0  0  0  0  0  0  0  0  0
   -1.3343   -3.7211   -1.5128 O   0  0  0  0  0  0  0  0  0  0  0  0
   -0.1872    1.2422    0.4059 C   0  0  0  0  0  0  0  0  0  0  0  0
   -1.0007    1.9950   -0.1185 O   0  0  0  0  0  0  0  0  0  0  0  0
    0.8246    1.8015    1.1677 N   0  0  0  0  0  0  0  0  0  0  0  0
    1.4318    1.1590    1.6657 H   0  0  0  0  0  0  0  0  0  0  0  0
    0.9273    3.2273    1.4437 C   0  0  0  0  0  0  0  0  0  0  0  0
    0.0421    3.5765    1.9850 H   0  0  0  0  0  0  0  0  0  0  0  0
    1.8109    3.4287    2.0563 H   0  0  0  0  0  0  0  0  0  0  0  0
    1.0182    3.7922    0.5103 H   0  0  0  0  0  0  0  0  0  0  0  0
  1  2  1  0  0  0  0
  2  3  1  0  0  0  0
  2  4  1  0  0  0  0
  2  5  1  0  0  0  0
  5  6  2  0  0  0  0
  5  7  1  0  0  0  0
  7  8  1  0  0  0  0
  7  9  1  0  0  0  0
  9 10  1  0  0  0  0
  9 11  1  0  0  0  0
  9 20  1  0  0  0  0
 11 12  1  0  0  0  0
 11 13  1  0  0  0  0
 11 14  1  0  0  0  0
 14 15  1  0  0  0  0
 14 16  1  0  0  0  0
 14 17  1  0  0  0  0
 17 18  1  0  0  0  0
 17 19  2  0  0  0  0
 20 21  2  0  0  0  0
 20 22  1  0  0  0  0
 22 23  1  0  0  0  0
 22 24  1  0  0  0  0
 24 25  1  0  0  0  0
 24 26  1  0  0  0  0
 24 27  1  0  0  0  0
M  CHG  1  18  -1
M  END
$$$$

  -OEChem-03222214043D

 27 26  0     1  0  0  0  0  0999 V2000
   -2.9515   -3.8600    0.9156 H   0  0  0  0  0  0  0  0  0  0  0  0
   -3.1333   -2.7973    0.7357 C   0  0  0  0  0  0  0  0  0  0  0  0
   -3.9433   -2.4522    1.3817 H   0  0  0  0  0  0  0  0  0  0  0  0
   -3.4352   -2.6723   -0.3079 H   0  0  0  0  0  0  0  0  0  0  0  0
   -1.8707   -2.0016    1.0167 C   0  0  0  0  0  0  0  0  0  0  0  0
   -1.1791   -2.2925    1.9880 O   0  0  0  0  0  0  0  0  0  0  0  0
   -1.5951   -0.8564    0.2950 N   0  0  0  0  0  0  0  0  0  0  0  0
   -2.1221   -0.7925   -0.5856 H   0  0  0  0  0  0  0  0  0  0  0  0
   -0.2596   -0.2456    0.2495 C   0  0  1  0  0  0  0  0  0  0  0  0
    0.3251   -0.6457    1.0815 H   0  0  0  0  0  0  0  0  0  0  0  0
    0.5505   -0.5547   -1.0466 C   0  0  0  0  0  0  0  0  0  0  0  0
    0.3000    0.2310   -1.7682 H   0  0  0  0  0  0  0  0  0  0  0  0
    1.6151   -0.4482   -0.8176 H   0  0  0  0  0  0  0  0  0  0  0  0
    0.3543   -1.8856   -1.8247 C   0  0  0  0  0  0  0  0  0  0  0  0
    0.8538   -1.7905   -2.7927 H   0  0  0  0  0  0  0  0  0  0  0  0
    0.8746   -2.6688   -1.2650 H   0  0  0  0  0  0  0  0  0  0  0  0
   -1.0725   -2.3783   -2.0852 C   0  0  0  0  0  0  0  0  0  0  0  0
   -1.9432   -1.5316   -2.4118 O   0  5  0  0  0  0  0  0  0  0  0  0
   -1.3037   -3.5998   -1.9163 O   0  0  0  0  0  0  0  0  0  0  0  0
   -0.3035    1.2881    0.4359 C   0  0  0  0  0  0  0  0  0  0  0  0
   -1.1046    2.0086   -0.1480 O   0  0  0  0  0  0  0  0  0  0  0  0
    0.6063    1.8847    1.2924 N   0  0  0  0  0  0  0  0  0  0  0  0
    1.2080    1.2673    1.8271 H   0  0  0  0  0  0  0  0  0  0  0  0
    0.6251    3.3124    1.5778 C   0  0  0  0  0  0  0  0  0  0  0  0
   -0.3223    3.6251    2.0286 H   0  0  0  0  0  0  0  0  0  0  0  0
    1.4351    3.5458    2.2751 H   0  0  0  0  0  0  0  0  0  0  0  0
    0.7859    3.8840    0.6579 H   0  0  0  0  0  0  0  0  0  0  0  0
  1  2  1  0  0  0  0
  2  3  1  0  0  0  0
  2  4  1  0  0  0  0
  2  5  1  0  0  0  0
  5  6  2  0  0  0  0
  5  7  1  0  0  0  0
  7  8  1  0  0  0  0
  7  9  1  0  0  0  0
  9 10  1  0  0  0  0
  9 11  1  0  0  0  0
  9 20  1  0  0  0  0
 11 12  1  0  0  0  0
 11 13  1  0  0  0  0
 11 14  1  0  0  0  0
 14 15  1  0  0  0  0
 14 16  1  0  0  0  0
 14 17  1  0  0  0  0
 17 18  1  0  0  0  0
 17 19  2  0  0  0  0
 20 21  2  0  0  0  0
 20 22  1  0  0  0  0
 22 23  1  0  0  0  0
 22 24  1  0  0  0  0
 24 25  1  0  0  0  0
 24 26  1  0  0  0  0
 24 27  1  0  0  0  0
M  CHG  1  18  -1
M  END
$$$$

  -OEChem-03222214043D

 27 26  0     1  0  0  0  0  0999 V2000
   -3.1110   -3.7464    1.2270 H   0  0  0  0  0  0  0  0  0  0  0  0
   -3.0972   -2.8170    0.6519 C   0  0  0  0  0  0  0  0  0  0  0  0
   -3.9768   -2.2228    0.9094 H   0  0  0  0  0  0  0  0  0  0  0  0
   -3.1397   -3.0645   -0.4120 H   0  0  0  0  0  0  0  0  0  0  0  0
   -1.8346   -2.0286    0.9532 C   0  0  0  0  0  0  0  0  0  0  0  0
   -1.1195   -2.3612    1.8930 O   0  0  0  0  0  0  0  0  0  0  0  0
   -1.5670   -0.8675    0.2576 N   0  0  0  0  0  0  0  0  0  0  0  0
   -2.1062   -0.7677   -0.6130 H   0  0  0  0  0  0  0  0  0  0  0  0
   -0.2458   -0.2268    0.2253 C   0  0  1  0  0  0  0  0  0  0  0  0
    0.3418   -0.6280    1.0547 H   0  0  0  0  0  0  0  0  0  0  0  0
    0.5547   -0.5358   -1.0716 C   0  0  0  0  0  0  0  0  0  0  0  0
    0.3153    0.2419   -1.8058 H   0  0  0  0  0  0  0  0  0  0  0  0
    1.6209   -0.4431   -0.8438 H   0  0  0  0  0  0  0  0  0  0  0  0
    0.3262   -1.8922   -1.7896 C   0  0  0  0  0  0  0  0  0  0  0  0
    0.9974   -1.9314   -2.6519 H   0  0  0  0  0  0  0  0  0  0  0  0
    0.6256   -2.6886   -1.1017 H   0  0  0  0  0  0  0  0  0  0  0  0
   -1.0862   -2.2129   -2.2978 C   0  0  0  0  0  0  0  0  0  0  0  0
   -1.8980   -1.2721   -2.4903 O   0  5  0  0  0  0  0  0  0  0  0  0
   -1.3666   -3.4268   -2.4446 O   0  0  0  0  0  0  0  0  0  0  0  0
   -0.3027    1.3028    0.4339 C   0  0  0  0  0  0  0  0  0  0  0  0
   -1.1230    2.0230   -0.1219 O   0  0  0  0  0  0  0  0  0  0  0  0
    0.6020    1.8937    1.2997 N   0  0  0  0  0  0  0  0  0  0  0  0
    1.2223    1.2752    1.8111 H   0  0  0  0  0  0  0  0  0  0  0  0
    0.6044    3.3158    1.6122 C   0  0  0  0  0  0  0  0  0  0  0  0
   -0.3494    3.6104    2.0620 H   0  0  0  0  0  0  0  0  0  0  0  0
    1.4066    3.5435    2.3200 H   0  0  0  0  0  0  0  0  0  0  0  0
    0.7660    3.9062    0.7044 H   0  0  0  0  0  0  0  0  0  0  0  0
  1  2  1  0  0  0  0
  2  3  1  0  0  0  0
  2  4  1  0  0  0  0
  2  5  1  0  0  0  0
  5  6  2  0  0  0  0
  5  7  1  0  0  0  0
  7  8  1  0  0  0  0
  7  9  1  0  0  0  0
  9 10  1  0  0  0  0
  9 11  1  0  0  0  0
  9 20  1  0  0  0  0
 11 12  1  0  0  0  0
 11 13  1  0  0  0  0
 11 14  1  0  0  0  0
 14 15  1  0  0  0  0
 14 16  1  0  0  0  0
 14 17  1  0  0  0  0
 17 18  1  0  0  0  0
 17 19  2  0  0  0  0
 20 21  2  0  0  0  0
 20 22  1  0  0  0  0
 22 23  1  0  0  0  0
 22 24  1  0  0  0  0
 24 25  1  0  0  0  0
 24 26  1  0  0  0  0
 24 27  1  0  0  0  0
M  CHG  1  18  -1
M  END
$$$$

  -OEChem-03222214043D

 27 26  0     1  0  0  0  0  0999 V2000
   -3.1387   -3.7010    1.2112 H   0  0  0  0  0  0  0  0  0  0  0  0
   -3.0407   -2.8388    0.5469 C   0  0  0  0  0  0  0  0  0  0  0  0
   -3.9464   -2.2318    0.6155 H   0  0  0  0  0  0  0  0  0  0  0  0
   -2.9331   -3.1961   -0.4813 H   0  0  0  0  0  0  0  0  0  0  0  0
   -1.8303   -2.0074    0.9323 C   0  0  0  0  0  0  0  0  0  0  0  0
   -1.1330   -2.3434    1.8836 O   0  0  0  0  0  0  0  0  0  0  0  0
   -1.5555   -0.8475    0.2414 N   0  0  0  0  0  0  0  0  0  0  0  0
   -2.0808   -0.7516   -0.6390 H   0  0  0  0  0  0  0  0  0  0  0  0
   -0.2374   -0.2021    0.2191 C   0  0  1  0  0  0  0  0  0  0  0  0
    0.3456   -0.6029    1.0519 H   0  0  0  0  0  0  0  0  0  0  0  0
    0.5498   -0.5400   -1.0760 C   0  0  0  0  0  0  0  0  0  0  0  0
    0.3321    0.2251   -1.8298 H   0  0  0  0  0  0  0  0  0  0  0  0
    1.6178   -0.4717   -0.8485 H   0  0  0  0  0  0  0  0  0  0  0  0
    0.2748   -1.9191   -1.7304 C   0  0  0  0  0  0  0  0  0  0  0  0
    1.0845   -2.1094   -2.4406 H   0  0  0  0  0  0  0  0  0  0  0  0
    0.3315   -2.6904   -0.9569 H   0  0  0  0  0  0  0  0  0  0  0  0
   -1.0425   -2.0997   -2.5021 C   0  0  0  0  0  0  0  0  0  0  0  0
   -1.9155   -1.1951   -2.4717 O   0  5  0  0  0  0  0  0  0  0  0  0
   -1.1966   -3.2077   -3.0692 O   0  0  0  0  0  0  0  0  0  0  0  0
   -0.2865    1.3279    0.4242 C   0  0  0  0  0  0  0  0  0  0  0  0
   -1.1033    2.0507   -0.1331 O   0  0  0  0  0  0  0  0  0  0  0  0
    0.6159    1.9152    1.2951 N   0  0  0  0  0  0  0  0  0  0  0  0
    1.2276    1.2939    1.8133 H   0  0  0  0  0  0  0  0  0  0  0  0
    0.6135    3.3352    1.6171 C   0  0  0  0  0  0  0  0  0  0  0  0
   -0.3355    3.6198    2.0830 H   0  0  0  0  0  0  0  0  0  0  0  0
    1.4251    3.5637    2.3140 H   0  0  0  0  0  0  0  0  0  0  0  0
    0.7575    3.9334    0.7114 H   0  0  0  0  0  0  0  0  0  0  0  0
  1  2  1  0  0  0  0
  2  3  1  0  0  0  0
  2  4  1  0  0  0  0
  2  5  1  0  0  0  0
  5  6  2  0  0  0  0
  5  7  1  0  0  0  0
  7  8  1  0  0  0  0
  7  9  1  0  0  0  0
  9 10  1  0  0  0  0
  9 11  1  0  0  0  0
  9 20  1  0  0  0  0
 11 12  1  0  0  0  0
 11 13  1  0  0  0  0
 11 14  1  0  0  0  0
 14 15  1  0  0  0  0
 14 16  1  0  0  0  0
 14 17  1  0  0  0  0
 17 18  1  0  0  0  0
 17 19  2  0  0  0  0
 20 21  2  0  0  0  0
 20 22  1  0  0  0  0
 22 23  1  0  0  0  0
 22 24  1  0  0  0  0
 24 25  1  0  0  0  0
 24 26  1  0  0  0  0
 24 27  1  0  0  0  0
M  CHG  1  18  -1
M  END
$$$$

  -OEChem-03222214043D

 27 26  0     1  0  0  0  0  0999 V2000
   -3.3278   -3.5073    1.4083 H   0  0  0  0  0  0  0  0  0  0  0  0
   -3.0662   -2.8328    0.5893 C   0  0  0  0  0  0  0  0  0  0  0  0
   -3.9184   -2.1820    0.3793 H   0  0  0  0  0  0  0  0  0  0  0  0
   -2.8486   -3.4245   -0.3038 H   0  0  0  0  0  0  0  0  0  0  0  0
   -1.8540   -1.9960    0.9574 C   0  0  0  0  0  0  0  0  0  0  0  0
   -1.1838   -2.3008    1.9389 O   0  0  0  0  0  0  0  0  0  0  0  0
   -1.5549   -0.8621    0.2320 N   0  0  0  0  0  0  0  0  0  0  0  0
   -2.0402   -0.8378   -0.6752 H   0  0  0  0  0  0  0  0  0  0  0  0
   -0.2200   -0.2439    0.2297 C   0  0  1  0  0  0  0  0  0  0  0  0
    0.3474   -0.6361    1.0775 H   0  0  0  0  0  0  0  0  0  0  0  0
    0.5781   -0.5911   -1.0558 C   0  0  0  0  0  0  0  0  0  0  0  0
    0.4057    0.1843   -1.8112 H   0  0  0  0  0  0  0  0  0  0  0  0
    1.6427   -0.5599   -0.8052 H   0  0  0  0  0  0  0  0  0  0  0  0
    0.2712   -1.9579   -1.7104 C   0  0  0  0  0  0  0  0  0  0  0  0
    1.1765   -2.3024   -2.2195 H   0  0  0  0  0  0  0  0  0  0  0  0
    0.0347   -2.7073   -0.9509 H   0  0  0  0  0  0  0  0  0  0  0  0
   -0.8535   -1.8883   -2.7513 C   0  0  0  0  0  0  0  0  0  0  0  0
   -2.0382   -1.7977   -2.3361 O   0  5  0  0  0  0  0  0  0  0  0  0
   -0.5252   -1.9409   -3.9611 O   0  0  0  0  0  0  0  0  0  0  0  0
   -0.2638    1.2915    0.3899 C   0  0  0  0  0  0  0  0  0  0  0  0
   -1.0540    1.9995   -0.2226 O   0  0  0  0  0  0  0  0  0  0  0  0
    0.6142    1.9004    1.2702 N   0  0  0  0  0  0  0  0  0  0  0  0
    1.2097    1.2931    1.8229 H   0  0  0  0  0  0  0  0  0  0  0  0
    0.6134    3.3304    1.5437 C   0  0  0  0  0  0  0  0  0  0  0  0
   -0.3528    3.6406    1.9545 H   0  0  0  0  0  0  0  0  0  0  0  0
    1.3936    3.5748    2.2704 H   0  0  0  0  0  0  0  0  0  0  0  0
    0.8065    3.8951    0.6257 H   0  0  0  0  0  0  0  0  0  0  0  0
  1  2  1  0  0  0  0
  2  3  1  0  0  0  0
  2  4  1  0  0  0  0
  2  5  1  0  0  0  0
  5  6  2  0  0  0  0
  5  7  1  0  0  0  0
  7  8  1  0  0  0  0
  7  9  1  0  0  0  0
  9 10  1  0  0  0  0
  9 11  1  0  0  0  0
  9 20  1  0  0  0  0
 11 12  1  0  0  0  0
 11 13  1  0  0  0  0
 11 14  1  0  0  0  0
 14 15  1  0  0  0  0
 14 16  1  0  0  0  0
 14 17  1  0  0  0  0
 17 18  1  0  0  0  0
 17 19  2  0  0  0  0
 20 21  2  0  0  0  0
 20 22  1  0  0  0  0
 22 23  1  0  0  0  0
 22 24  1  0  0  0  0
 24 25  1  0  0  0  0
 24 26  1  0  0  0  0
 24 27  1  0  0  0  0
M  CHG  1  18  -1
M  END
$$$$

  -OEChem-03222214043D

 27 26  0     1  0  0  0  0  0999 V2000
   -3.1497   -3.7155    1.1395 H   0  0  0  0  0  0  0  0  0  0  0  0
   -3.0631   -2.8247    0.5121 C   0  0  0  0  0  0  0  0  0  0  0  0
   -3.9780   -2.2343    0.6020 H   0  0  0  0  0  0  0  0  0  0  0  0
   -2.9456   -3.1365   -0.5297 H   0  0  0  0  0  0  0  0  0  0  0  0
   -1.8665   -1.9921    0.9354 C   0  0  0  0  0  0  0  0  0  0  0  0
   -1.2181   -2.3084    1.9266 O   0  0  0  0  0  0  0  0  0  0  0  0
   -1.5386   -0.8639    0.2155 N   0  0  0  0  0  0  0  0  0  0  0  0
   -2.0178   -0.8061   -0.6912 H   0  0  0  0  0  0  0  0  0  0  0  0
   -0.2049   -0.2370    0.2349 C   0  0  1  0  0  0  0  0  0  0  0  0
    0.3522   -0.6276    1.0906 H   0  0  0  0  0  0  0  0  0  0  0  0
    0.5846   -0.6069   -1.0465 C   0  0  0  0  0  0  0  0  0  0  0  0
    0.4136    0.1585   -1.8128 H   0  0  0  0  0  0  0  0  0  0  0  0
    1.6515   -0.5785   -0.8054 H   0  0  0  0  0  0  0  0  0  0  0  0
    0.2523   -1.9897   -1.6563 C   0  0  0  0  0  0  0  0  0  0  0  0
    1.1951   -2.4539   -1.9606 H   0  0  0  0  0  0  0  0  0  0  0  0
   -0.1973   -2.6785   -0.9407 H   0  0  0  0  0  0  0  0  0  0  0  0
   -0.6125   -1.8580   -2.9048 C   0  0  0  0  0  0  0  0  0  0  0  0
   -1.8380   -1.6576   -2.6961 O   0  5  0  0  0  0  0  0  0  0  0  0
   -0.0780   -1.9612   -4.0355 O   0  0  0  0  0  0  0  0  0  0  0  0
   -0.2468    1.2995    0.3815 C   0  0  0  0  0  0  0  0  0  0  0  0
   -1.0433    2.0003   -0.2308 O   0  0  0  0  0  0  0  0  0  0  0  0
    0.6165    1.9133    1.2728 N   0  0  0  0  0  0  0  0  0  0  0  0
    1.2265    1.3119    1.8158 H   0  0  0  0  0  0  0  0  0  0  0  0
    0.6223    3.3462    1.5309 C   0  0  0  0  0  0  0  0  0  0  0  0
   -0.3407    3.6644    1.9434 H   0  0  0  0  0  0  0  0  0  0  0  0
    1.4074    3.5945    2.2511 H   0  0  0  0  0  0  0  0  0  0  0  0
    0.8129    3.9012    0.6065 H   0  0  0  0  0  0  0  0  0  0  0  0
  1  2  1  0  0  0  0
  2  3  1  0  0  0  0
  2  4  1  0  0  0  0
  2  5  1  0  0  0  0
  5  6  2  0  0  0  0
  5  7  1  0  0  0  0
  7  8  1  0  0  0  0
  7  9  1  0  0  0  0
  9 10  1  0  0  0  0
  9 11  1  0  0  0  0
  9 20  1  0  0  0  0
 11 12  1  0  0  0  0
 11 13  1  0  0  0  0
 11 14  1  0  0  0  0
 14 15  1  0  0  0  0
 14 16  1  0  0  0  0
 14 17  1  0  0  0  0
 17 18  1  0  0  0  0
 17 19  2  0  0  0  0
 20 21  2  0  0  0  0
 20 22  1  0  0  0  0
 22 23  1  0  0  0  0
 22 24  1  0  0  0  0
 24 25  1  0  0  0  0
 24 26  1  0  0  0  0
 24 27  1  0  0  0  0
M  CHG  1  18  -1
M  END
$$$$

  -OEChem-03222214043D

 27 26  0     1  0  0  0  0  0999 V2000
   -3.2257   -3.6726    1.1687 H   0  0  0  0  0  0  0  0  0  0  0  0
   -3.1318   -2.7703    0.5587 C   0  0  0  0  0  0  0  0  0  0  0  0
   -4.0139   -2.1440    0.7116 H   0  0  0  0  0  0  0  0  0  0  0  0
   -3.0807   -3.0601   -0.4948 H   0  0  0  0  0  0  0  0  0  0  0  0
   -1.8791   -2.0021    0.9392 C   0  0  0  0  0  0  0  0  0  0  0  0
   -1.1954   -2.3706    1.8863 O   0  0  0  0  0  0  0  0  0  0  0  0
   -1.5420   -0.8703    0.2283 N   0  0  0  0  0  0  0  0  0  0  0  0
   -2.0915   -0.7121   -0.6177 H   0  0  0  0  0  0  0  0  0  0  0  0
   -0.2032   -0.2575    0.2249 C   0  0  1  0  0  0  0  0  0  0  0  0
    0.3555   -0.6508    1.0782 H   0  0  0  0  0  0  0  0  0  0  0  0
    0.5971   -0.6222   -1.0523 C   0  0  0  0  0  0  0  0  0  0  0  0
    0.4060    0.1499   -1.8070 H   0  0  0  0  0  0  0  0  0  0  0  0
    1.6652   -0.5720   -0.8197 H   0  0  0  0  0  0  0  0  0  0  0  0
    0.2936   -2.0006   -1.6953 C   0  0  0  0  0  0  0  0  0  0  0  0
    1.2249   -2.5740   -1.7247 H   0  0  0  0  0  0  0  0  0  0  0  0
   -0.4057   -2.6056   -1.1205 H   0  0  0  0  0  0  0  0  0  0  0  0
   -0.2163   -1.8611   -3.1256 C   0  0  0  0  0  0  0  0  0  0  0  0
   -1.4639   -1.7948   -3.2674 O   0  5  0  0  0  0  0  0  0  0  0  0
    0.6212   -1.8024   -4.0593 O   0  0  0  0  0  0  0  0  0  0  0  0
   -0.2491    1.2769    0.3875 C   0  0  0  0  0  0  0  0  0  0  0  0
   -1.0949    1.9649   -0.1716 O   0  0  0  0  0  0  0  0  0  0  0  0
    0.6261    1.8931    1.2650 N   0  0  0  0  0  0  0  0  0  0  0  0
    1.2900    1.3011    1.7528 H   0  0  0  0  0  0  0  0  0  0  0  0
    0.6172    3.3232    1.5380 C   0  0  0  0  0  0  0  0  0  0  0  0
   -0.3344    3.6198    1.9908 H   0  0  0  0  0  0  0  0  0  0  0  0
    1.4253    3.5789    2.2297 H   0  0  0  0  0  0  0  0  0  0  0  0
    0.7618    3.8905    0.6128 H   0  0  0  0  0  0  0  0  0  0  0  0
  1  2  1  0  0  0  0
  2  3  1  0  0  0  0
  2  4  1  0  0  0  0
  2  5  1  0  0  0  0
  5  6  2  0  0  0  0
  5  7  1  0  0  0  0
  7  8  1  0  0  0  0
  7  9  1  0  0  0  0
  9 10  1  0  0  0  0
  9 11  1  0  0  0  0
  9 20  1  0  0  0  0
 11 12  1  0  0  0  0
 11 13  1  0  0  0  0
 11 14  1  0  0  0  0
 14 15  1  0  0  0  0
 14 16  1  0  0  0  0
 14 17  1  0  0  0  0
 17 18  1  0  0  0  0
 17 19  2  0  0  0  0
 20 21  2  0  0  0  0
 20 22  1  0  0  0  0
 22 23  1  0  0  0  0
 22 24  1  0  0  0  0
 24 25  1  0  0  0  0
 24 26  1  0  0  0  0
 24 27  1  0  0  0  0
M  CHG  1  18  -1
M  END
$$$$

  -OEChem-03222214043D

 27 26  0     1  0  0  0  0  0999 V2000
   -3.1364   -3.7496    1.2480 H   0  0  0  0  0  0  0  0  0  0  0  0
   -3.0704   -2.8547    0.6233 C   0  0  0  0  0  0  0  0  0  0  0  0
   -3.9497   -2.2312    0.8026 H   0  0  0  0  0  0  0  0  0  0  0  0
   -3.0577   -3.1583   -0.4272 H   0  0  0  0  0  0  0  0  0  0  0  0
   -1.8074   -2.0772    0.9473 C   0  0  0  0  0  0  0  0  0  0  0  0
   -1.0678   -2.4581    1.8452 O   0  0  0  0  0  0  0  0  0  0  0  0
   -1.5271   -0.9238    0.2458 N   0  0  0  0  0  0  0  0  0  0  0  0
   -2.1446   -0.7155   -0.5372 H   0  0  0  0  0  0  0  0  0  0  0  0
   -0.2114   -0.2656    0.2129 C   0  0  1  0  0  0  0  0  0  0  0  0
    0.3767   -0.6438    1.0537 H   0  0  0  0  0  0  0  0  0  0  0  0
    0.5963   -0.5811   -1.0729 C   0  0  0  0  0  0  0  0  0  0  0  0
    0.3346    0.1863   -1.8111 H   0  0  0  0  0  0  0  0  0  0  0  0
    1.6651   -0.4655   -0.8677 H   0  0  0  0  0  0  0  0  0  0  0  0
    0.3606   -1.9596   -1.7436 C   0  0  0  0  0  0  0  0  0  0  0  0
    1.2116   -2.6098   -1.5220 H   0  0  0  0  0  0  0  0  0  0  0  0
   -0.5248   -2.4705   -1.3672 H   0  0  0  0  0  0  0  0  0  0  0  0
    0.2103   -1.8305   -3.2581 C   0  0  0  0  0  0  0  0  0  0  0  0
    1.2516   -1.6444   -3.9354 O   0  5  0  0  0  0  0  0  0  0  0  0
   -0.9517   -1.9072   -3.7304 O   0  0  0  0  0  0  0  0  0  0  0  0
   -0.3184    1.2626    0.4010 C   0  0  0  0  0  0  0  0  0  0  0  0
   -1.2232    1.9113   -0.1120 O   0  0  0  0  0  0  0  0  0  0  0  0
    0.5522    1.9074    1.2618 N   0  0  0  0  0  0  0  0  0  0  0  0
    1.2833    1.3486    1.6892 H   0  0  0  0  0  0  0  0  0  0  0  0
    0.4977    3.3355    1.5396 C   0  0  0  0  0  0  0  0  0  0  0  0
   -0.4508    3.5949    2.0207 H   0  0  0  0  0  0  0  0  0  0  0  0
    1.3151    3.6195    2.2088 H   0  0  0  0  0  0  0  0  0  0  0  0
    0.5944    3.9102    0.6127 H   0  0  0  0  0  0  0  0  0  0  0  0
  1  2  1  0  0  0  0
  2  3  1  0  0  0  0
  2  4  1  0  0  0  0
  2  5  1  0  0  0  0
  5  6  2  0  0  0  0
  5  7  1  0  0  0  0
  7  8  1  0  0  0  0
  7  9  1  0  0  0  0
  9 10  1  0  0  0  0
  9 11  1  0  0  0  0
  9 20  1  0  0  0  0
 11 12  1  0  0  0  0
 11 13  1  0  0  0  0
 11 14  1  0  0  0  0
 14 15  1  0  0  0  0
 14 16  1  0  0  0  0
 14 17  1  0  0  0  0
 17 18  1  0  0  0  0
 17 19  2  0  0  0  0
 20 21  2  0  0  0  0
 20 22  1  0  0  0  0
 22 23  1  0  0  0  0
 22 24  1  0  0  0  0
 24 25  1  0  0  0  0
 24 26  1  0  0  0  0
 24 27  1  0  0  0  0
M  CHG  1  18  -1
M  END
$$$$

  -OEChem-03222214043D

 27 26  0     1  0  0  0  0  0999 V2000
   -3.1569   -3.7317    1.2654 H   0  0  0  0  0  0  0  0  0  0  0  0
   -3.0880   -2.8371    0.6404 C   0  0  0  0  0  0  0  0  0  0  0  0
   -3.9530   -2.1991    0.8374 H   0  0  0  0  0  0  0  0  0  0  0  0
   -3.1009   -3.1404   -0.4101 H   0  0  0  0  0  0  0  0  0  0  0  0
   -1.8065   -2.0810    0.9416 C   0  0  0  0  0  0  0  0  0  0  0  0
   -1.0599   -2.4742    1.8278 O   0  0  0  0  0  0  0  0  0  0  0  0
   -1.5227   -0.9283    0.2404 N   0  0  0  0  0  0  0  0  0  0  0  0
   -2.1607   -0.6877   -0.5152 H   0  0  0  0  0  0  0  0  0  0  0  0
   -0.2059   -0.2734    0.2068 C   0  0  1  0  0  0  0  0  0  0  0  0
    0.3811   -0.6505    1.0488 H   0  0  0  0  0  0  0  0  0  0  0  0
    0.6054   -0.5918   -1.0750 C   0  0  0  0  0  0  0  0  0  0  0  0
    0.3371    0.1677   -1.8189 H   0  0  0  0  0  0  0  0  0  0  0  0
    1.6751   -0.4750   -0.8737 H   0  0  0  0  0  0  0  0  0  0  0  0
    0.3621   -1.9708   -1.7361 C   0  0  0  0  0  0  0  0  0  0  0  0
    1.0340   -2.7111   -1.2931 H   0  0  0  0  0  0  0  0  0  0  0  0
   -0.6582   -2.3240   -1.5811 H   0  0  0  0  0  0  0  0  0  0  0  0
    0.5849   -1.9061   -3.2472 C   0  0  0  0  0  0  0  0  0  0  0  0
    1.7520   -1.6752   -3.6509 O   0  5  0  0  0  0  0  0  0  0  0  0
   -0.4098   -2.0872   -3.9929 O   0  0  0  0  0  0  0  0  0  0  0  0
   -0.3158    1.2542    0.3947 C   0  0  0  0  0  0  0  0  0  0  0  0
   -1.2269    1.8958   -0.1172 O   0  0  0  0  0  0  0  0  0  0  0  0
    0.5516    1.9041    1.2547 N   0  0  0  0  0  0  0  0  0  0  0  0
    1.2982    1.3533    1.6658 H   0  0  0  0  0  0  0  0  0  0  0  0
    0.4991    3.3350    1.5190 C   0  0  0  0  0  0  0  0  0  0  0  0
   -0.4631    3.6065    1.9652 H   0  0  0  0  0  0  0  0  0  0  0  0
    1.2948    3.6185    2.2140 H   0  0  0  0  0  0  0  0  0  0  0  0
    0.6317    3.9005    0.5909 H   0  0  0  0  0  0  0  0  0  0  0  0
  1  2  1  0  0  0  0
  2  3  1  0  0  0  0
  2  4  1  0  0  0  0
  2  5  1  0  0  0  0
  5  6  2  0  0  0  0
  5  7  1  0  0  0  0
  7  8  1  0  0  0  0
  7  9  1  0  0  0  0
  9 10  1  0  0  0  0
  9 11  1  0  0  0  0
  9 20  1  0  0  0  0
 11 12  1  0  0  0  0
 11 13  1  0  0  0  0
 11 14  1  0  0  0  0
 14 15  1  0  0  0  0
 14 16  1  0  0  0  0
 14 17  1  0  0  0  0
 17 18  1  0  0  0  0
 17 19  2  0  0  0  0
 20 21  2  0  0  0  0
 20 22  1  0  0  0  0
 22 23  1  0  0  0  0
 22 24  1  0  0  0  0
 24 25  1  0  0  0  0
 24 26  1  0  0  0  0
 24 27  1  0  0  0  0
M  CHG  1  18  -1
M  END
$$$$

  -OEChem-03222214043D

 27 26  0     1  0  0  0  0  0999 V2000
   -3.1593   -3.7272    1.2571 H   0  0  0  0  0  0  0  0  0  0  0  0
   -3.0820   -2.8381    0.6252 C   0  0  0  0  0  0  0  0  0  0  0  0
   -3.9467   -2.1960    0.8096 H   0  0  0  0  0  0  0  0  0  0  0  0
   -3.0865   -3.1500   -0.4227 H   0  0  0  0  0  0  0  0  0  0  0  0
   -1.8007   -2.0834    0.9310 C   0  0  0  0  0  0  0  0  0  0  0  0
   -1.0562   -2.4794    1.8172 O   0  0  0  0  0  0  0  0  0  0  0  0
   -1.5160   -0.9287    0.2336 N   0  0  0  0  0  0  0  0  0  0  0  0
   -2.1594   -0.6764   -0.5126 H   0  0  0  0  0  0  0  0  0  0  0  0
   -0.2001   -0.2713    0.2059 C   0  0  1  0  0  0  0  0  0  0  0  0
    0.3872   -0.6505    1.0470 H   0  0  0  0  0  0  0  0  0  0  0  0
    0.6068   -0.5874   -1.0768 C   0  0  0  0  0  0  0  0  0  0  0  0
    0.3507    0.1682   -1.8286 H   0  0  0  0  0  0  0  0  0  0  0  0
    1.6770   -0.4853   -0.8683 H   0  0  0  0  0  0  0  0  0  0  0  0
    0.3421   -1.9673   -1.7188 C   0  0  0  0  0  0  0  0  0  0  0  0
    0.8027   -2.7506   -1.1104 H   0  0  0  0  0  0  0  0  0  0  0  0
   -0.7293   -2.1729   -1.7778 H   0  0  0  0  0  0  0  0  0  0  0  0
    0.8968   -2.0259   -3.1429 C   0  0  0  0  0  0  0  0  0  0  0  0
    2.1294   -1.8334   -3.2946 O   0  5  0  0  0  0  0  0  0  0  0  0
    0.0898   -2.2701   -4.0741 O   0  0  0  0  0  0  0  0  0  0  0  0
   -0.3112    1.2552    0.3962 C   0  0  0  0  0  0  0  0  0  0  0  0
   -1.2199    1.8958   -0.1219 O   0  0  0  0  0  0  0  0  0  0  0  0
    0.5530    1.9038    1.2601 N   0  0  0  0  0  0  0  0  0  0  0  0
    1.3071    1.3548    1.6604 H   0  0  0  0  0  0  0  0  0  0  0  0
    0.5116    3.3373    1.5108 C   0  0  0  0  0  0  0  0  0  0  0  0
   -0.4521    3.6220    1.9454 H   0  0  0  0  0  0  0  0  0  0  0  0
    1.3035    3.6192    2.2109 H   0  0  0  0  0  0  0  0  0  0  0  0
    0.6588    3.8929    0.5789 H   0  0  0  0  0  0  0  0  0  0  0  0
  1  2  1  0  0  0  0
  2  3  1  0  0  0  0
  2  4  1  0  0  0  0
  2  5  1  0  0  0  0
  5  6  2  0  0  0  0
  5  7  1  0  0  0  0
  7  8  1  0  0  0  0
  7  9  1  0  0  0  0
  9 10  1  0  0  0  0
  9 11  1  0  0  0  0
  9 20  1  0  0  0  0
 11 12  1  0  0  0  0
 11 13  1  0  0  0  0
 11 14  1  0  0  0  0
 14 15  1  0  0  0  0
 14 16  1  0  0  0  0
 14 17  1  0  0  0  0
 17 18  1  0  0  0  0
 17 19  2  0  0  0  0
 20 21  2  0  0  0  0
 20 22  1  0  0  0  0
 22 23  1  0  0  0  0
 22 24  1  0  0  0  0
 24 25  1  0  0  0  0
 24 26  1  0  0  0  0
 24 27  1  0  0  0  0
M  CHG  1  18  -1
M  END
$$$$

  -OEChem-03222214043D

 27 26  0     1  0  0  0  0  0999 V2000
   -3.1672   -3.7046    1.2654 H   0  0  0  0  0  0  0  0  0  0  0  0
   -3.0766   -2.8287    0.6170 C   0  0  0  0  0  0  0  0  0  0  0  0
   -3.9387   -2.1772    0.7791 H   0  0  0  0  0  0  0  0  0  0  0  0
   -3.0712   -3.1606   -0.4246 H   0  0  0  0  0  0  0  0  0  0  0  0
   -1.7933   -2.0773    0.9223 C   0  0  0  0  0  0  0  0  0  0  0  0
   -1.0451   -2.4799    1.8020 O   0  0  0  0  0  0  0  0  0  0  0  0
   -1.5098   -0.9193    0.2309 N   0  0  0  0  0  0  0  0  0  0  0  0
   -2.1561   -0.6604   -0.5103 H   0  0  0  0  0  0  0  0  0  0  0  0
   -0.1924   -0.2636    0.1998 C   0  0  1  0  0  0  0  0  0  0  0  0
    0.3989   -0.6461    1.0369 H   0  0  0  0  0  0  0  0  0  0  0  0
    0.6044   -0.5778   -1.0921 C   0  0  0  0  0  0  0  0  0  0  0  0
    0.5942    0.3018   -1.7454 H   0  0  0  0  0  0  0  0  0  0  0  0
    1.6485   -0.7630   -0.8179 H   0  0  0  0  0  0  0  0  0  0  0  0
    0.0767   -1.7681   -1.9220 C   0  0  0  0  0  0  0  0  0  0  0  0
    0.0959   -2.6759   -1.3124 H   0  0  0  0  0  0  0  0  0  0  0  0
   -0.9572   -1.5798   -2.2265 H   0  0  0  0  0  0  0  0  0  0  0  0
    0.9187   -2.0100   -3.1778 C   0  0  0  0  0  0  0  0  0  0  0  0
    2.1688   -2.0542   -3.0527 O   0  5  0  0  0  0  0  0  0  0  0  0
    0.3027   -2.1772   -4.2595 O   0  0  0  0  0  0  0  0  0  0  0  0
   -0.3048    1.2613    0.4003 C   0  0  0  0  0  0  0  0  0  0  0  0
   -1.2161    1.9035   -0.1112 O   0  0  0  0  0  0  0  0  0  0  0  0
    0.5624    1.9064    1.2635 N   0  0  0  0  0  0  0  0  0  0  0  0
    1.3194    1.3564    1.6572 H   0  0  0  0  0  0  0  0  0  0  0  0
    0.5154    3.3370    1.5285 C   0  0  0  0  0  0  0  0  0  0  0  0
   -0.4545    3.6159    1.9529 H   0  0  0  0  0  0  0  0  0  0  0  0
    1.2969    3.6131    2.2426 H   0  0  0  0  0  0  0  0  0  0  0  0
    0.6743    3.9025    0.6046 H   0  0  0  0  0  0  0  0  0  0  0  0
  1  2  1  0  0  0  0
  2  3  1  0  0  0  0
  2  4  1  0  0  0  0
  2  5  1  0  0  0  0
  5  6  2  0  0  0  0
  5  7  1  0  0  0  0
  7  8  1  0  0  0  0
  7  9  1  0  0  0  0
  9 10  1  0  0  0  0
  9 11  1  0  0  0  0
  9 20  1  0  0  0  0
 11 12  1  0  0  0  0
 11 13  1  0  0  0  0
 11 14  1  0  0  0  0
 14 15  1  0  0  0  0
 14 16  1  0  0  0  0
 14 17  1  0  0  0  0
 17 18  1  0  0  0  0
 17 19  2  0  0  0  0
 20 21  2  0  0  0  0
 20 22  1  0  0  0  0
 22 23  1  0  0  0  0
 22 24  1  0  0  0  0
 24 25  1  0  0  0  0
 24 26  1  0  0  0  0
 24 27  1  0  0  0  0
M  CHG  1  18  -1
M  END
$$$$

  -OEChem-03222214043D

 27 26  0     1  0  0  0  0  0999 V2000
   -3.2028   -3.6989    1.1946 H   0  0  0  0  0  0  0  0  0  0  0  0
   -3.1079   -2.8051    0.5718 C   0  0  0  0  0  0  0  0  0  0  0  0
   -3.9734   -2.1602    0.7421 H   0  0  0  0  0  0  0  0  0  0  0  0
   -3.0896   -3.1091   -0.4782 H   0  0  0  0  0  0  0  0  0  0  0  0
   -1.8299   -2.0602    0.9127 C   0  0  0  0  0  0  0  0  0  0  0  0
   -1.1124   -2.4609    1.8185 O   0  0  0  0  0  0  0  0  0  0  0  0
   -1.5171   -0.9062    0.2264 N   0  0  0  0  0  0  0  0  0  0  0  0
   -2.1385   -0.6469   -0.5351 H   0  0  0  0  0  0  0  0  0  0  0  0
   -0.1871   -0.2746    0.2207 C   0  0  1  0  0  0  0  0  0  0  0  0
    0.3889   -0.6713    1.0619 H   0  0  0  0  0  0  0  0  0  0  0  0
    0.6159   -0.5818   -1.0694 C   0  0  0  0  0  0  0  0  0  0  0  0
    0.6507    0.3086   -1.7073 H   0  0  0  0  0  0  0  0  0  0  0  0
    1.6465   -0.8054   -0.7732 H   0  0  0  0  0  0  0  0  0  0  0  0
    0.0778   -1.7475   -1.9309 C   0  0  0  0  0  0  0  0  0  0  0  0
   -0.1556   -2.5974   -1.2835 H   0  0  0  0  0  0  0  0  0  0  0  0
   -0.8400   -1.4344   -2.4365 H   0  0  0  0  0  0  0  0  0  0  0  0
    1.0801   -2.2465   -2.9787 C   0  0  0  0  0  0  0  0  0  0  0  0
    2.0684   -1.5255   -3.2713 O   0  5  0  0  0  0  0  0  0  0  0  0
    0.8281   -3.3575   -3.5073 O   0  0  0  0  0  0  0  0  0  0  0  0
   -0.2838    1.2517    0.4225 C   0  0  0  0  0  0  0  0  0  0  0  0
   -1.1734    1.9072   -0.1111 O   0  0  0  0  0  0  0  0  0  0  0  0
    0.5743    1.8852    1.3033 N   0  0  0  0  0  0  0  0  0  0  0  0
    1.3187    1.3258    1.7074 H   0  0  0  0  0  0  0  0  0  0  0  0
    0.5531    3.3195    1.5525 C   0  0  0  0  0  0  0  0  0  0  0  0
   -0.4164    3.6230    1.9606 H   0  0  0  0  0  0  0  0  0  0  0  0
    1.3307    3.5867    2.2741 H   0  0  0  0  0  0  0  0  0  0  0  0
    0.7362    3.8716    0.6249 H   0  0  0  0  0  0  0  0  0  0  0  0
  1  2  1  0  0  0  0
  2  3  1  0  0  0  0
  2  4  1  0  0  0  0
  2  5  1  0  0  0  0
  5  6  2  0  0  0  0
  5  7  1  0  0  0  0
  7  8  1  0  0  0  0
  7  9  1  0  0  0  0
  9 10  1  0  0  0  0
  9 11  1  0  0  0  0
  9 20  1  0  0  0  0
 11 12  1  0  0  0  0
 11 13  1  0  0  0  0
 11 14  1  0  0  0  0
 14 15  1  0  0  0  0
 14 16  1  0  0  0  0
 14 17  1  0  0  0  0
 17 18  1  0  0  0  0
 17 19  2  0  0  0  0
 20 21  2  0  0  0  0
 20 22  1  0  0  0  0
 22 23  1  0  0  0  0
 22 24  1  0  0  0  0
 24 25  1  0  0  0  0
 24 26  1  0  0  0  0
 24 27  1  0  0  0  0
M  CHG  1  18  -1
M  END
$$$$

  -OEChem-03222214043D

 27 26  0     1  0  0  0  0  0999 V2000
   -3.2368   -3.6906    1.2015 H   0  0  0  0  0  0  0  0  0  0  0  0
   -3.1397   -2.7962    0.5799 C   0  0  0  0  0  0  0  0  0  0  0  0
   -4.0055   -2.1514    0.7483 H   0  0  0  0  0  0  0  0  0  0  0  0
   -3.1184   -3.1000   -0.4700 H   0  0  0  0  0  0  0  0  0  0  0  0
   -1.8620   -2.0525    0.9254 C   0  0  0  0  0  0  0  0  0  0  0  0
   -1.1595   -2.4423    1.8473 O   0  0  0  0  0  0  0  0  0  0  0  0
   -1.5388   -0.9034    0.2344 N   0  0  0  0  0  0  0  0  0  0  0  0
   -2.1542   -0.6447   -0.5320 H   0  0  0  0  0  0  0  0  0  0  0  0
   -0.2016   -0.2872    0.2278 C   0  0  1  0  0  0  0  0  0  0  0  0
    0.3703   -0.6888    1.0697 H   0  0  0  0  0  0  0  0  0  0  0  0
    0.6072   -0.5903   -1.0620 C   0  0  0  0  0  0  0  0  0  0  0  0
    0.6668    0.3062   -1.6891 H   0  0  0  0  0  0  0  0  0  0  0  0
    1.6305   -0.8224   -0.7478 H   0  0  0  0  0  0  0  0  0  0  0  0
    0.0894   -1.7419   -1.9577 C   0  0  0  0  0  0  0  0  0  0  0  0
   -0.3890   -2.5103   -1.3462 H   0  0  0  0  0  0  0  0  0  0  0  0
   -0.6518   -1.3557   -2.6628 H   0  0  0  0  0  0  0  0  0  0  0  0
    1.2201   -2.4385   -2.7236 C   0  0  0  0  0  0  0  0  0  0  0  0
    2.1415   -1.7262   -3.1975 O   0  5  0  0  0  0  0  0  0  0  0  0
    1.1375   -3.6837   -2.8642 O   0  0  0  0  0  0  0  0  0  0  0  0
   -0.2850    1.2404    0.4261 C   0  0  0  0  0  0  0  0  0  0  0  0
   -1.1616    1.9050   -0.1178 O   0  0  0  0  0  0  0  0  0  0  0  0
    0.5785    1.8670    1.3065 N   0  0  0  0  0  0  0  0  0  0  0  0
    1.3104    1.2983    1.7206 H   0  0  0  0  0  0  0  0  0  0  0  0
    0.5739    3.3018    1.5525 C   0  0  0  0  0  0  0  0  0  0  0  0
   -0.3943    3.6182    1.9540 H   0  0  0  0  0  0  0  0  0  0  0  0
    1.3506    3.5608    2.2782 H   0  0  0  0  0  0  0  0  0  0  0  0
    0.7698    3.8495    0.6250 H   0  0  0  0  0  0  0  0  0  0  0  0
  1  2  1  0  0  0  0
  2  3  1  0  0  0  0
  2  4  1  0  0  0  0
  2  5  1  0  0  0  0
  5  6  2  0  0  0  0
  5  7  1  0  0  0  0
  7  8  1  0  0  0  0
  7  9  1  0  0  0  0
  9 10  1  0  0  0  0
  9 11  1  0  0  0  0
  9 20  1  0  0  0  0
 11 12  1  0  0  0  0
 11 13  1  0  0  0  0
 11 14  1  0  0  0  0
 14 15  1  0  0  0  0
 14 16  1  0  0  0  0
 14 17  1  0  0  0  0
 17 18  1  0  0  0  0
 17 19  2  0  0  0  0
 20 21  2  0  0  0  0
 20 22  1  0  0  0  0
 22 23  1  0  0  0  0
 22 24  1  0  0  0  0
 24 25  1  0  0  0  0
 24 26  1  0  0  0  0
 24 27  1  0  0  0  0
M  CHG  1  18  -1
M  END
$$$$

  -OEChem-03222214043D

 27 26  0     1  0  0  0  0  0999 V2000
   -3.2406   -3.6915    1.2079 H   0  0  0  0  0  0  0  0  0  0  0  0
   -3.1456   -2.7995    0.5825 C   0  0  0  0  0  0  0  0  0  0  0  0
   -4.0197   -2.1625    0.7369 H   0  0  0  0  0  0  0  0  0  0  0  0
   -3.1083   -3.1090   -0.4653 H   0  0  0  0  0  0  0  0  0  0  0  0
   -1.8806   -2.0400    0.9397 C   0  0  0  0  0  0  0  0  0  0  0  0
   -1.2004   -2.4003    1.8899 O   0  0  0  0  0  0  0  0  0  0  0  0
   -1.5579   -0.8943    0.2422 N   0  0  0  0  0  0  0  0  0  0  0  0
   -2.1589   -0.6587   -0.5426 H   0  0  0  0  0  0  0  0  0  0  0  0
   -0.2165   -0.2885    0.2334 C   0  0  1  0  0  0  0  0  0  0  0  0
    0.3521   -0.6925    1.0766 H   0  0  0  0  0  0  0  0  0  0  0  0
    0.6003   -0.5925   -1.0537 C   0  0  0  0  0  0  0  0  0  0  0  0
    0.6604    0.3086   -1.6738 H   0  0  0  0  0  0  0  0  0  0  0  0
    1.6234   -0.8121   -0.7302 H   0  0  0  0  0  0  0  0  0  0  0  0
    0.1071   -1.7381   -1.9779 C   0  0  0  0  0  0  0  0  0  0  0  0
   -0.6154   -2.3798   -1.4724 H   0  0  0  0  0  0  0  0  0  0  0  0
   -0.3887   -1.3094   -2.8533 H   0  0  0  0  0  0  0  0  0  0  0  0
    1.2549   -2.6434   -2.4369 C   0  0  0  0  0  0  0  0  0  0  0  0
    2.2714   -2.0937   -2.9317 O   0  5  0  0  0  0  0  0  0  0  0  0
    1.0976   -3.8842   -2.3243 O   0  0  0  0  0  0  0  0  0  0  0  0
   -0.2912    1.2400    0.4285 C   0  0  0  0  0  0  0  0  0  0  0  0
   -1.1509    1.9132   -0.1318 O   0  0  0  0  0  0  0  0  0  0  0  0
    0.5769    1.8610    1.3081 N   0  0  0  0  0  0  0  0  0  0  0  0
    1.2866    1.2812    1.7454 H   0  0  0  0  0  0  0  0  0  0  0  0
    0.5812    3.2947    1.5595 C   0  0  0  0  0  0  0  0  0  0  0  0
   -0.3872    3.6167    1.9557 H   0  0  0  0  0  0  0  0  0  0  0  0
    1.3547    3.5445    2.2917 H   0  0  0  0  0  0  0  0  0  0  0  0
    0.7878    3.8445    0.6356 H   0  0  0  0  0  0  0  0  0  0  0  0
  1  2  1  0  0  0  0
  2  3  1  0  0  0  0
  2  4  1  0  0  0  0
  2  5  1  0  0  0  0
  5  6  2  0  0  0  0
  5  7  1  0  0  0  0
  7  8  1  0  0  0  0
  7  9  1  0  0  0  0
  9 10  1  0  0  0  0
  9 11  1  0  0  0  0
  9 20  1  0  0  0  0
 11 12  1  0  0  0  0
 11 13  1  0  0  0  0
 11 14  1  0  0  0  0
 14 15  1  0  0  0  0
 14 16  1  0  0  0  0
 14 17  1  0  0  0  0
 17 18  1  0  0  0  0
 17 19  2  0  0  0  0
 20 21  2  0  0  0  0
 20 22  1  0  0  0  0
 22 23  1  0  0  0  0
 22 24  1  0  0  0  0
 24 25  1  0  0  0  0
 24 26  1  0  0  0  0
 24 27  1  0  0  0  0
M  CHG  1  18  -1
M  END
$$$$

  -OEChem-03222214043D

 27 26  0     1  0  0  0  0  0999 V2000
   -3.2356   -3.6704    1.2459 H   0  0  0  0  0  0  0  0  0  0  0  0
   -3.0914   -2.8394    0.5498 C   0  0  0  0  0  0  0  0  0  0  0  0
   -3.9900   -2.2180    0.5482 H   0  0  0  0  0  0  0  0  0  0  0  0
   -2.9351   -3.2461   -0.4530 H   0  0  0  0  0  0  0  0  0  0  0  0
   -1.8864   -2.0124    0.9609 C   0  0  0  0  0  0  0  0  0  0  0  0
   -1.2549   -2.3089    1.9656 O   0  0  0  0  0  0  0  0  0  0  0  0
   -1.5730   -0.8694    0.2539 N   0  0  0  0  0  0  0  0  0  0  0  0
   -2.1353   -0.6937   -0.5738 H   0  0  0  0  0  0  0  0  0  0  0  0
   -0.2276   -0.2744    0.2481 C   0  0  1  0  0  0  0  0  0  0  0  0
    0.3386   -0.6815    1.0913 H   0  0  0  0  0  0  0  0  0  0  0  0
    0.5891   -0.5878   -1.0388 C   0  0  0  0  0  0  0  0  0  0  0  0
    0.6253    0.3148   -1.6585 H   0  0  0  0  0  0  0  0  0  0  0  0
    1.6218   -0.7861   -0.7323 H   0  0  0  0  0  0  0  0  0  0  0  0
    0.0957   -1.7295   -1.9720 C   0  0  0  0  0  0  0  0  0  0  0  0
   -0.8392   -2.1791   -1.6388 H   0  0  0  0  0  0  0  0  0  0  0  0
   -0.0982   -1.3069   -2.9619 H   0  0  0  0  0  0  0  0  0  0  0  0
    1.1327   -2.8440   -2.1314 C   0  0  0  0  0  0  0  0  0  0  0  0
    2.2777   -2.5286   -2.5429 O   0  5  0  0  0  0  0  0  0  0  0  0
    0.7629   -4.0156   -1.8722 O   0  0  0  0  0  0  0  0  0  0  0  0
   -0.2904    1.2552    0.4391 C   0  0  0  0  0  0  0  0  0  0  0  0
   -1.1245    1.9391   -0.1464 O   0  0  0  0  0  0  0  0  0  0  0  0
    0.5795    1.8714    1.3202 N   0  0  0  0  0  0  0  0  0  0  0  0
    1.2585    1.2812    1.7910 H   0  0  0  0  0  0  0  0  0  0  0  0
    0.5893    3.3047    1.5733 C   0  0  0  0  0  0  0  0  0  0  0  0
   -0.3782    3.6295    1.9696 H   0  0  0  0  0  0  0  0  0  0  0  0
    1.3638    3.5513    2.3056 H   0  0  0  0  0  0  0  0  0  0  0  0
    0.7975    3.8550    0.6500 H   0  0  0  0  0  0  0  0  0  0  0  0
  1  2  1  0  0  0  0
  2  3  1  0  0  0  0
  2  4  1  0  0  0  0
  2  5  1  0  0  0  0
  5  6  2  0  0  0  0
  5  7  1  0  0  0  0
  7  8  1  0  0  0  0
  7  9  1  0  0  0  0
  9 10  1  0  0  0  0
  9 11  1  0  0  0  0
  9 20  1  0  0  0  0
 11 12  1  0  0  0  0
 11 13  1  0  0  0  0
 11 14  1  0  0  0  0
 14 15  1  0  0  0  0
 14 16  1  0  0  0  0
 14 17  1  0  0  0  0
 17 18  1  0  0  0  0
 17 19  2  0  0  0  0
 20 21  2  0  0  0  0
 20 22  1  0  0  0  0
 22 23  1  0  0  0  0
 22 24  1  0  0  0  0
 24 25  1  0  0  0  0
 24 26  1  0  0  0  0
 24 27  1  0  0  0  0
M  CHG  1  18  -1
M  END
$$$$

  -OEChem-03222214043D

 27 26  0     1  0  0  0  0  0999 V2000
   -3.1799   -3.6760    1.2505 H   0  0  0  0  0  0  0  0  0  0  0  0
   -2.9831   -2.9079    0.4978 C   0  0  0  0  0  0  0  0  0  0  0  0
   -3.9019   -2.3461    0.3151 H   0  0  0  0  0  0  0  0  0  0  0  0
   -2.6714   -3.3984   -0.4288 H   0  0  0  0  0  0  0  0  0  0  0  0
   -1.8842   -1.9753    0.9744 C   0  0  0  0  0  0  0  0  0  0  0  0
   -1.3315   -2.1759    2.0481 O   0  0  0  0  0  0  0  0  0  0  0  0
   -1.5902   -0.8349    0.2534 N   0  0  0  0  0  0  0  0  0  0  0  0
   -2.0982   -0.7385   -0.6208 H   0  0  0  0  0  0  0  0  0  0  0  0
   -0.2409   -0.2490    0.2592 C   0  0  1  0  0  0  0  0  0  0  0  0
    0.3211   -0.6599    1.1036 H   0  0  0  0  0  0  0  0  0  0  0  0
    0.5710   -0.5777   -1.0275 C   0  0  0  0  0  0  0  0  0  0  0  0
    0.5917    0.3212   -1.6530 H   0  0  0  0  0  0  0  0  0  0  0  0
    1.6104   -0.7742   -0.7435 H   0  0  0  0  0  0  0  0  0  0  0  0
    0.0506   -1.7166   -1.9458 C   0  0  0  0  0  0  0  0  0  0  0  0
   -1.0096   -1.9348   -1.8149 H   0  0  0  0  0  0  0  0  0  0  0  0
    0.1591   -1.3805   -2.9810 H   0  0  0  0  0  0  0  0  0  0  0  0
    0.8719   -2.9984   -1.8171 C   0  0  0  0  0  0  0  0  0  0  0  0
    2.0949   -2.9537   -2.1018 O   0  5  0  0  0  0  0  0  0  0  0  0
    0.2565   -4.0296   -1.4499 O   0  0  0  0  0  0  0  0  0  0  0  0
   -0.2876    1.2824    0.4432 C   0  0  0  0  0  0  0  0  0  0  0  0
   -1.0835    1.9804   -0.1779 O   0  0  0  0  0  0  0  0  0  0  0  0
    0.5816    1.8898    1.3312 N   0  0  0  0  0  0  0  0  0  0  0  0
    1.2125    1.2851    1.8483 H   0  0  0  0  0  0  0  0  0  0  0  0
    0.6042    3.3227    1.5858 C   0  0  0  0  0  0  0  0  0  0  0  0
   -0.3602    3.6561    1.9824 H   0  0  0  0  0  0  0  0  0  0  0  0
    1.3813    3.5621    2.3177 H   0  0  0  0  0  0  0  0  0  0  0  0
    0.8172    3.8717    0.6630 H   0  0  0  0  0  0  0  0  0  0  0  0
  1  2  1  0  0  0  0
  2  3  1  0  0  0  0
  2  4  1  0  0  0  0
  2  5  1  0  0  0  0
  5  6  2  0  0  0  0
  5  7  1  0  0  0  0
  7  8  1  0  0  0  0
  7  9  1  0  0  0  0
  9 10  1  0  0  0  0
  9 11  1  0  0  0  0
  9 20  1  0  0  0  0
 11 12  1  0  0  0  0
 11 13  1  0  0  0  0
 11 14  1  0  0  0  0
 14 15  1  0  0  0  0
 14 16  1  0  0  0  0
 14 17  1  0  0  0  0
 17 18  1  0  0  0  0
 17 19  2  0  0  0  0
 20 21  2  0  0  0  0
 20 22  1  0  0  0  0
 22 23  1  0  0  0  0
 22 24  1  0  0  0  0
 24 25  1  0  0  0  0
 24 26  1  0  0  0  0
 24 27  1  0  0  0  0
M  CHG  1  18  -1
M  END
$$$$

  -OEChem-03222214043D

 27 26  0     1  0  0  0  0  0999 V2000
   -3.0397   -3.7753    1.1587 H   0  0  0  0  0  0  0  0  0  0  0  0
   -2.9844   -2.8993    0.5067 C   0  0  0  0  0  0  0  0  0  0  0  0
   -3.9407   -2.3722    0.5314 H   0  0  0  0  0  0  0  0  0  0  0  0
   -2.7882   -3.2398   -0.5136 H   0  0  0  0  0  0  0  0  0  0  0  0
   -1.8676   -1.9784    0.9631 C   0  0  0  0  0  0  0  0  0  0  0  0
   -1.3417   -2.1449    2.0569 O   0  0  0  0  0  0  0  0  0  0  0  0
   -1.5714   -0.8429    0.2345 N   0  0  0  0  0  0  0  0  0  0  0  0
   -2.0603   -0.7708   -0.6527 H   0  0  0  0  0  0  0  0  0  0  0  0
   -0.2248   -0.2503    0.2573 C   0  0  1  0  0  0  0  0  0  0  0  0
    0.3313   -0.6562    1.1081 H   0  0  0  0  0  0  0  0  0  0  0  0
    0.5956   -0.5794   -1.0234 C   0  0  0  0  0  0  0  0  0  0  0  0
    0.6164    0.3155   -1.6546 H   0  0  0  0  0  0  0  0  0  0  0  0
    1.6337   -0.7813   -0.7393 H   0  0  0  0  0  0  0  0  0  0  0  0
    0.0675   -1.7200   -1.9276 C   0  0  0  0  0  0  0  0  0  0  0  0
   -1.0228   -1.7430   -1.9845 H   0  0  0  0  0  0  0  0  0  0  0  0
    0.4171   -1.5215   -2.9449 H   0  0  0  0  0  0  0  0  0  0  0  0
    0.6234   -3.0890   -1.5405 C   0  0  0  0  0  0  0  0  0  0  0  0
    1.8681   -3.2567   -1.5651 O   0  5  0  0  0  0  0  0  0  0  0  0
   -0.2163   -3.9735   -1.2405 O   0  0  0  0  0  0  0  0  0  0  0  0
   -0.2810    1.2827    0.4269 C   0  0  0  0  0  0  0  0  0  0  0  0
   -1.0573    1.9752   -0.2246 O   0  0  0  0  0  0  0  0  0  0  0  0
    0.5711    1.9009    1.3242 N   0  0  0  0  0  0  0  0  0  0  0  0
    1.1670    1.2989    1.8844 H   0  0  0  0  0  0  0  0  0  0  0  0
    0.5765    3.3347    1.5748 C   0  0  0  0  0  0  0  0  0  0  0  0
   -0.3946    3.6590    1.9627 H   0  0  0  0  0  0  0  0  0  0  0  0
    1.3454    3.5840    2.3120 H   0  0  0  0  0  0  0  0  0  0  0  0
    0.7915    3.8834    0.6522 H   0  0  0  0  0  0  0  0  0  0  0  0
  1  2  1  0  0  0  0
  2  3  1  0  0  0  0
  2  4  1  0  0  0  0
  2  5  1  0  0  0  0
  5  6  2  0  0  0  0
  5  7  1  0  0  0  0
  7  8  1  0  0  0  0
  7  9  1  0  0  0  0
  9 10  1  0  0  0  0
  9 11  1  0  0  0  0
  9 20  1  0  0  0  0
 11 12  1  0  0  0  0
 11 13  1  0  0  0  0
 11 14  1  0  0  0  0
 14 15  1  0  0  0  0
 14 16  1  0  0  0  0
 14 17  1  0  0  0  0
 17 18  1  0  0  0  0
 17 19  2  0  0  0  0
 20 21  2  0  0  0  0
 20 22  1  0  0  0  0
 22 23  1  0  0  0  0
 22 24  1  0  0  0  0
 24 25  1  0  0  0  0
 24 26  1  0  0  0  0
 24 27  1  0  0  0  0
M  CHG  1  18  -1
M  END
$$$$

  -OEChem-03222214043D

 27 26  0     1  0  0  0  0  0999 V2000
   -3.0249   -3.8065    1.1080 H   0  0  0  0  0  0  0  0  0  0  0  0
   -3.0482   -2.8567    0.5670 C   0  0  0  0  0  0  0  0  0  0  0  0
   -3.9771   -2.3315    0.7996 H   0  0  0  0  0  0  0  0  0  0  0  0
   -3.0170   -3.0696   -0.5048 H   0  0  0  0  0  0  0  0  0  0  0  0
   -1.8543   -2.0055    0.9614 C   0  0  0  0  0  0  0  0  0  0  0  0
   -1.3140   -2.1785    2.0474 O   0  0  0  0  0  0  0  0  0  0  0  0
   -1.5435   -0.8762    0.2284 N   0  0  0  0  0  0  0  0  0  0  0  0
   -2.0371   -0.7997   -0.6558 H   0  0  0  0  0  0  0  0  0  0  0  0
   -0.2021   -0.2690    0.2581 C   0  0  1  0  0  0  0  0  0  0  0  0
    0.3547   -0.6653    1.1130 H   0  0  0  0  0  0  0  0  0  0  0  0
    0.6277   -0.5782   -1.0218 C   0  0  0  0  0  0  0  0  0  0  0  0
    0.6548    0.3193   -1.6487 H   0  0  0  0  0  0  0  0  0  0  0  0
    1.6623   -0.7845   -0.7284 H   0  0  0  0  0  0  0  0  0  0  0  0
    0.1176   -1.7165   -1.9323 C   0  0  0  0  0  0  0  0  0  0  0  0
   -0.9452   -1.5894   -2.1562 H   0  0  0  0  0  0  0  0  0  0  0  0
    0.6500   -1.6523   -2.8854 H   0  0  0  0  0  0  0  0  0  0  0  0
    0.3818   -3.1104   -1.3628 C   0  0  0  0  0  0  0  0  0  0  0  0
    1.5556   -3.3987   -1.0214 O   0  5  0  0  0  0  0  0  0  0  0  0
   -0.5964   -3.8966   -1.3087 O   0  0  0  0  0  0  0  0  0  0  0  0
   -0.2802    1.2648    0.4100 C   0  0  0  0  0  0  0  0  0  0  0  0
   -1.0567    1.9430   -0.2564 O   0  0  0  0  0  0  0  0  0  0  0  0
    0.5561    1.9000    1.3102 N   0  0  0  0  0  0  0  0  0  0  0  0
    1.1473    1.3077    1.8855 H   0  0  0  0  0  0  0  0  0  0  0  0
    0.5373    3.3347    1.5552 C   0  0  0  0  0  0  0  0  0  0  0  0
   -0.4430    3.6459    1.9301 H   0  0  0  0  0  0  0  0  0  0  0  0
    1.2934    3.5979    2.3008 H   0  0  0  0  0  0  0  0  0  0  0  0
    0.7553    3.8833    0.6331 H   0  0  0  0  0  0  0  0  0  0  0  0
  1  2  1  0  0  0  0
  2  3  1  0  0  0  0
  2  4  1  0  0  0  0
  2  5  1  0  0  0  0
  5  6  2  0  0  0  0
  5  7  1  0  0  0  0
  7  8  1  0  0  0  0
  7  9  1  0  0  0  0
  9 10  1  0  0  0  0
  9 11  1  0  0  0  0
  9 20  1  0  0  0  0
 11 12  1  0  0  0  0
 11 13  1  0  0  0  0
 11 14  1  0  0  0  0
 14 15  1  0  0  0  0
 14 16  1  0  0  0  0
 14 17  1  0  0  0  0
 17 18  1  0  0  0  0
 17 19  2  0  0  0  0
 20 21  2  0  0  0  0
 20 22  1  0  0  0  0
 22 23  1  0  0  0  0
 22 24  1  0  0  0  0
 24 25  1  0  0  0  0
 24 26  1  0  0  0  0
 24 27  1  0  0  0  0
M  CHG  1  18  -1
M  END
$$$$

  -OEChem-03222214043D

 27 26  0     1  0  0  0  0  0999 V2000
   -2.9272   -3.8661    0.9147 H   0  0  0  0  0  0  0  0  0  0  0  0
   -3.0944   -2.8226    0.6346 C   0  0  0  0  0  0  0  0  0  0  0  0
   -3.9735   -2.4419    1.1587 H   0  0  0  0  0  0  0  0  0  0  0  0
   -3.2753   -2.7811   -0.4424 H   0  0  0  0  0  0  0  0  0  0  0  0
   -1.8732   -1.9950    0.9940 C   0  0  0  0  0  0  0  0  0  0  0  0
   -1.3537   -2.1388    2.0946 O   0  0  0  0  0  0  0  0  0  0  0  0
   -1.5395   -0.8857    0.2394 N   0  0  0  0  0  0  0  0  0  0  0  0
   -2.0155   -0.8348   -0.6568 H   0  0  0  0  0  0  0  0  0  0  0  0
   -0.1929   -0.2879    0.2756 C   0  0  1  0  0  0  0  0  0  0  0  0
    0.3544   -0.6743    1.1412 H   0  0  0  0  0  0  0  0  0  0  0  0
    0.6544   -0.5908   -0.9985 C   0  0  0  0  0  0  0  0  0  0  0  0
    0.7224    0.3123   -1.6146 H   0  0  0  0  0  0  0  0  0  0  0  0
    1.6734   -0.8250   -0.6729 H   0  0  0  0  0  0  0  0  0  0  0  0
    0.1808   -1.7155   -1.9425 C   0  0  0  0  0  0  0  0  0  0  0  0
   -0.7975   -1.4496   -2.3542 H   0  0  0  0  0  0  0  0  0  0  0  0
    0.8794   -1.7818   -2.7812 H   0  0  0  0  0  0  0  0  0  0  0  0
    0.0979   -3.0956   -1.2933 C   0  0  0  0  0  0  0  0  0  0  0  0
    1.1011   -3.5091   -0.6627 O   0  5  0  0  0  0  0  0  0  0  0  0
   -0.9635   -3.7460   -1.4634 O   0  0  0  0  0  0  0  0  0  0  0  0
   -0.2774    1.2497    0.3923 C   0  0  0  0  0  0  0  0  0  0  0  0
   -1.0413    1.9146   -0.3019 O   0  0  0  0  0  0  0  0  0  0  0  0
    0.5437    1.9055    1.2920 N   0  0  0  0  0  0  0  0  0  0  0  0
    1.1074    1.3245    1.9051 H   0  0  0  0  0  0  0  0  0  0  0  0
    0.5040    3.3429    1.5183 C   0  0  0  0  0  0  0  0  0  0  0  0
   -0.4762    3.6418    1.9032 H   0  0  0  0  0  0  0  0  0  0  0  0
    1.2666    3.6297    2.2483 H   0  0  0  0  0  0  0  0  0  0  0  0
    0.6986    3.8827    0.5859 H   0  0  0  0  0  0  0  0  0  0  0  0
  1  2  1  0  0  0  0
  2  3  1  0  0  0  0
  2  4  1  0  0  0  0
  2  5  1  0  0  0  0
  5  6  2  0  0  0  0
  5  7  1  0  0  0  0
  7  8  1  0  0  0  0
  7  9  1  0  0  0  0
  9 10  1  0  0  0  0
  9 11  1  0  0  0  0
  9 20  1  0  0  0  0
 11 12  1  0  0  0  0
 11 13  1  0  0  0  0
 11 14  1  0  0  0  0
 14 15  1  0  0  0  0
 14 16  1  0  0  0  0
 14 17  1  0  0  0  0
 17 18  1  0  0  0  0
 17 19  2  0  0  0  0
 20 21  2  0  0  0  0
 20 22  1  0  0  0  0
 22 23  1  0  0  0  0
 22 24  1  0  0  0  0
 24 25  1  0  0  0  0
 24 26  1  0  0  0  0
 24 27  1  0  0  0  0
M  CHG  1  18  -1
M  END
$$$$

  -OEChem-03222214043D

 27 26  0     1  0  0  0  0  0999 V2000
   -2.8327   -3.8678    0.6699 H   0  0  0  0  0  0  0  0  0  0  0  0
   -3.1203   -2.8145    0.7278 C   0  0  0  0  0  0  0  0  0  0  0  0
   -3.8818   -2.6888    1.5006 H   0  0  0  0  0  0  0  0  0  0  0  0
   -3.5397   -2.5180   -0.2368 H   0  0  0  0  0  0  0  0  0  0  0  0
   -1.8987   -1.9735    1.0548 C   0  0  0  0  0  0  0  0  0  0  0  0
   -1.3896   -2.0761    2.1659 O   0  0  0  0  0  0  0  0  0  0  0  0
   -1.5622   -0.8839    0.2701 N   0  0  0  0  0  0  0  0  0  0  0  0
   -2.0142   -0.8864   -0.6414 H   0  0  0  0  0  0  0  0  0  0  0  0
   -0.2083   -0.3011    0.3011 C   0  0  1  0  0  0  0  0  0  0  0  0
    0.3336   -0.6735    1.1758 H   0  0  0  0  0  0  0  0  0  0  0  0
    0.6606   -0.5962   -0.9657 C   0  0  0  0  0  0  0  0  0  0  0  0
    0.7740    0.3162   -1.5611 H   0  0  0  0  0  0  0  0  0  0  0  0
    1.6602   -0.8546   -0.6011 H   0  0  0  0  0  0  0  0  0  0  0  0
    0.2460   -1.7020   -1.9613 C   0  0  0  0  0  0  0  0  0  0  0  0
   -0.5776   -1.3147   -2.5688 H   0  0  0  0  0  0  0  0  0  0  0  0
    1.0841   -1.8945   -2.6368 H   0  0  0  0  0  0  0  0  0  0  0  0
   -0.1922   -3.0320   -1.3595 C   0  0  0  0  0  0  0  0  0  0  0  0
    0.6088   -3.6222   -0.5961 O   0  5  0  0  0  0  0  0  0  0  0  0
   -1.3312   -3.4583   -1.6762 O   0  0  0  0  0  0  0  0  0  0  0  0
   -0.2960    1.2395    0.3850 C   0  0  0  0  0  0  0  0  0  0  0  0
   -1.0453    1.8947   -0.3338 O   0  0  0  0  0  0  0  0  0  0  0  0
    0.5206    1.9108    1.2776 N   0  0  0  0  0  0  0  0  0  0  0  0
    1.0616    1.3394    1.9193 H   0  0  0  0  0  0  0  0  0  0  0  0
    0.4816    3.3522    1.4760 C   0  0  0  0  0  0  0  0  0  0  0  0
   -0.4871    3.6548    1.8866 H   0  0  0  0  0  0  0  0  0  0  0  0
    1.2667    3.6559    2.1746 H   0  0  0  0  0  0  0  0  0  0  0  0
    0.6443    3.8746    0.5276 H   0  0  0  0  0  0  0  0  0  0  0  0
  1  2  1  0  0  0  0
  2  3  1  0  0  0  0
  2  4  1  0  0  0  0
  2  5  1  0  0  0  0
  5  6  2  0  0  0  0
  5  7  1  0  0  0  0
  7  8  1  0  0  0  0
  7  9  1  0  0  0  0
  9 10  1  0  0  0  0
  9 11  1  0  0  0  0
  9 20  1  0  0  0  0
 11 12  1  0  0  0  0
 11 13  1  0  0  0  0
 11 14  1  0  0  0  0
 14 15  1  0  0  0  0
 14 16  1  0  0  0  0
 14 17  1  0  0  0  0
 17 18  1  0  0  0  0
 17 19  2  0  0  0  0
 20 21  2  0  0  0  0
 20 22  1  0  0  0  0
 22 23  1  0  0  0  0
 22 24  1  0  0  0  0
 24 25  1  0  0  0  0
 24 26  1  0  0  0  0
 24 27  1  0  0  0  0
M  CHG  1  18  -1
M  END
$$$$

  -OEChem-03222214043D

 27 26  0     1  0  0  0  0  0999 V2000
   -2.7808   -3.8399    0.4451 H   0  0  0  0  0  0  0  0  0  0  0  0
   -3.1133   -2.8477    0.7628 C   0  0  0  0  0  0  0  0  0  0  0  0
   -3.7468   -2.9467    1.6474 H   0  0  0  0  0  0  0  0  0  0  0  0
   -3.6992   -2.4019   -0.0447 H   0  0  0  0  0  0  0  0  0  0  0  0
   -1.9029   -1.9850    1.0768 C   0  0  0  0  0  0  0  0  0  0  0  0
   -1.3709   -2.0957    2.1776 O   0  0  0  0  0  0  0  0  0  0  0  0
   -1.5878   -0.8857    0.2943 N   0  0  0  0  0  0  0  0  0  0  0  0
   -2.0269   -0.9225   -0.6260 H   0  0  0  0  0  0  0  0  0  0  0  0
   -0.2316   -0.3072    0.3217 C   0  0  1  0  0  0  0  0  0  0  0  0
    0.3152   -0.6838    1.1911 H   0  0  0  0  0  0  0  0  0  0  0  0
    0.6501   -0.5668   -0.9485 C   0  0  0  0  0  0  0  0  0  0  0  0
    0.7866    0.3663   -1.5060 H   0  0  0  0  0  0  0  0  0  0  0  0
    1.6385   -0.8395   -0.5650 H   0  0  0  0  0  0  0  0  0  0  0  0
    0.2927   -1.6377   -2.0085 C   0  0  0  0  0  0  0  0  0  0  0  0
   -0.3179   -1.1472   -2.7730 H   0  0  0  0  0  0  0  0  0  0  0  0
    1.2160   -1.9591   -2.4990 H   0  0  0  0  0  0  0  0  0  0  0  0
   -0.4610   -2.8812   -1.5572 C   0  0  0  0  0  0  0  0  0  0  0  0
    0.1438   -3.7129   -0.8403 O   0  5  0  0  0  0  0  0  0  0  0  0
   -1.6620   -2.9807   -1.9160 O   0  0  0  0  0  0  0  0  0  0  0  0
   -0.3295    1.2327    0.4253 C   0  0  0  0  0  0  0  0  0  0  0  0
   -1.0782    1.8969   -0.2855 O   0  0  0  0  0  0  0  0  0  0  0  0
    0.4894    1.8977    1.3210 N   0  0  0  0  0  0  0  0  0  0  0  0
    1.0276    1.3219    1.9606 H   0  0  0  0  0  0  0  0  0  0  0  0
    0.4379    3.3359    1.5397 C   0  0  0  0  0  0  0  0  0  0  0  0
   -0.5469    3.6297    1.9169 H   0  0  0  0  0  0  0  0  0  0  0  0
    1.1936    3.6317    2.2732 H   0  0  0  0  0  0  0  0  0  0  0  0
    0.6349    3.8725    0.6059 H   0  0  0  0  0  0  0  0  0  0  0  0
  1  2  1  0  0  0  0
  2  3  1  0  0  0  0
  2  4  1  0  0  0  0
  2  5  1  0  0  0  0
  5  6  2  0  0  0  0
  5  7  1  0  0  0  0
  7  8  1  0  0  0  0
  7  9  1  0  0  0  0
  9 10  1  0  0  0  0
  9 11  1  0  0  0  0
  9 20  1  0  0  0  0
 11 12  1  0  0  0  0
 11 13  1  0  0  0  0
 11 14  1  0  0  0  0
 14 15  1  0  0  0  0
 14 16  1  0  0  0  0
 14 17  1  0  0  0  0
 17 18  1  0  0  0  0
 17 19  2  0  0  0  0
 20 21  2  0  0  0  0
 20 22  1  0  0  0  0
 22 23  1  0  0  0  0
 22 24  1  0  0  0  0
 24 25  1  0  0  0  0
 24 26  1  0  0  0  0
 24 27  1  0  0  0  0
M  CHG  1  18  -1
M  END
$$$$

  -OEChem-03222214043D

 27 26  0     1  0  0  0  0  0999 V2000
   -2.8515   -3.7325    0.2457 H   0  0  0  0  0  0  0  0  0  0  0  0
   -3.2047   -2.7886    0.6699 C   0  0  0  0  0  0  0  0  0  0  0  0
   -3.8137   -2.9984    1.5522 H   0  0  0  0  0  0  0  0  0  0  0  0
   -3.8224   -2.2809   -0.0751 H   0  0  0  0  0  0  0  0  0  0  0  0
   -2.0140   -1.9224    1.0444 C   0  0  0  0  0  0  0  0  0  0  0  0
   -1.5388   -2.0240    2.1723 O   0  0  0  0  0  0  0  0  0  0  0  0
   -1.6347   -0.8524    0.2504 N   0  0  0  0  0  0  0  0  0  0  0  0
   -2.0030   -0.9359   -0.7020 H   0  0  0  0  0  0  0  0  0  0  0  0
   -0.2765   -0.2891    0.3468 C   0  0  1  0  0  0  0  0  0  0  0  0
    0.1976   -0.6350    1.2694 H   0  0  0  0  0  0  0  0  0  0  0  0
    0.7031   -0.6151   -0.8363 C   0  0  0  0  0  0  0  0  0  0  0  0
    0.8816    0.2966   -1.4171 H   0  0  0  0  0  0  0  0  0  0  0  0
    1.6583   -0.8599   -0.3611 H   0  0  0  0  0  0  0  0  0  0  0  0
    0.4542   -1.7281   -1.8932 C   0  0  0  0  0  0  0  0  0  0  0  0
    0.1763   -1.2328   -2.8288 H   0  0  0  0  0  0  0  0  0  0  0  0
    1.4038   -2.2372   -2.0825 H   0  0  0  0  0  0  0  0  0  0  0  0
   -0.6025   -2.7930   -1.6314 C   0  0  0  0  0  0  0  0  0  0  0  0
   -0.2740   -3.8080   -0.9728 O   0  5  0  0  0  0  0  0  0  0  0  0
   -1.7626   -2.5613   -2.0605 O   0  0  0  0  0  0  0  0  0  0  0  0
   -0.3551    1.2552    0.3953 C   0  0  0  0  0  0  0  0  0  0  0  0
   -1.0389    1.9107   -0.3847 O   0  0  0  0  0  0  0  0  0  0  0  0
    0.4170    1.9346    1.3218 N   0  0  0  0  0  0  0  0  0  0  0  0
    0.8941    1.3707    2.0176 H   0  0  0  0  0  0  0  0  0  0  0  0
    0.3746    3.3795    1.4944 C   0  0  0  0  0  0  0  0  0  0  0  0
   -0.6244    3.6970    1.8101 H   0  0  0  0  0  0  0  0  0  0  0  0
    1.0953    3.6883    2.2573 H   0  0  0  0  0  0  0  0  0  0  0  0
    0.6278    3.8853    0.5569 H   0  0  0  0  0  0  0  0  0  0  0  0
  1  2  1  0  0  0  0
  2  3  1  0  0  0  0
  2  4  1  0  0  0  0
  2  5  1  0  0  0  0
  5  6  2  0  0  0  0
  5  7  1  0  0  0  0
  7  8  1  0  0  0  0
  7  9  1  0  0  0  0
  9 10  1  0  0  0  0
  9 11  1  0  0  0  0
  9 20  1  0  0  0  0
 11 12  1  0  0  0  0
 11 13  1  0  0  0  0
 11 14  1  0  0  0  0
 14 15  1  0  0  0  0
 14 16  1  0  0  0  0
 14 17  1  0  0  0  0
 17 18  1  0  0  0  0
 17 19  2  0  0  0  0
 20 21  2  0  0  0  0
 20 22  1  0  0  0  0
 22 23  1  0  0  0  0
 22 24  1  0  0  0  0
 24 25  1  0  0  0  0
 24 26  1  0  0  0  0
 24 27  1  0  0  0  0
M  CHG  1  18  -1
M  END
$$$$

  -OEChem-03222214043D

 27 26  0     1  0  0  0  0  0999 V2000
   -3.5408   -3.2237    1.7265 H   0  0  0  0  0  0  0  0  0  0  0  0
   -3.1115   -2.8573    0.7911 C   0  0  0  0  0  0  0  0  0  0  0  0
   -3.8555   -2.2451    0.2752 H   0  0  0  0  0  0  0  0  0  0  0  0
   -2.8607   -3.7100    0.1550 H   0  0  0  0  0  0  0  0  0  0  0  0
   -1.8616   -2.0391    1.0694 C   0  0  0  0  0  0  0  0  0  0  0  0
   -1.1918   -2.2879    2.0681 O   0  0  0  0  0  0  0  0  0  0  0  0
   -1.6081   -0.8826    0.3533 N   0  0  0  0  0  0  0  0  0  0  0  0
   -2.1305   -0.8529   -0.5306 H   0  0  0  0  0  0  0  0  0  0  0  0
   -0.2662   -0.2825    0.3007 C   0  0  1  0  0  0  0  0  0  0  0  0
    0.3349   -0.6974    1.1140 H   0  0  0  0  0  0  0  0  0  0  0  0
    0.5481   -0.5014   -1.0230 C   0  0  0  0  0  0  0  0  0  0  0  0
    0.5714    0.4535   -1.5598 H   0  0  0  0  0  0  0  0  0  0  0  0
    1.5802   -0.6988   -0.7170 H   0  0  0  0  0  0  0  0  0  0  0  0
    0.1995   -1.5536   -2.1205 C   0  0  0  0  0  0  0  0  0  0  0  0
    0.0627   -1.0160   -3.0638 H   0  0  0  0  0  0  0  0  0  0  0  0
    1.0771   -2.1937   -2.2546 H   0  0  0  0  0  0  0  0  0  0  0  0
   -1.0103   -2.4690   -1.9585 C   0  0  0  0  0  0  0  0  0  0  0  0
   -2.1466   -1.9719   -2.1726 O   0  5  0  0  0  0  0  0  0  0  0  0
   -0.8092   -3.6515   -1.5926 O   0  0  0  0  0  0  0  0  0  0  0  0
   -0.3467    1.2468    0.5198 C   0  0  0  0  0  0  0  0  0  0  0  0
   -1.1506    1.9627   -0.0678 O   0  0  0  0  0  0  0  0  0  0  0  0
    0.5558    1.8464    1.3815 N   0  0  0  0  0  0  0  0  0  0  0  0
    1.1476    1.2277    1.9259 H   0  0  0  0  0  0  0  0  0  0  0  0
    0.5343    3.2658    1.7048 C   0  0  0  0  0  0  0  0  0  0  0  0
   -0.4185    3.5373    2.1705 H   0  0  0  0  0  0  0  0  0  0  0  0
    1.3424    3.5046    2.4022 H   0  0  0  0  0  0  0  0  0  0  0  0
    0.6705    3.8668    0.8000 H   0  0  0  0  0  0  0  0  0  0  0  0
  1  2  1  0  0  0  0
  2  3  1  0  0  0  0
  2  4  1  0  0  0  0
  2  5  1  0  0  0  0
  5  6  2  0  0  0  0
  5  7  1  0  0  0  0
  7  8  1  0  0  0  0
  7  9  1  0  0  0  0
  9 10  1  0  0  0  0
  9 11  1  0  0  0  0
  9 20  1  0  0  0  0
 11 12  1  0  0  0  0
 11 13  1  0  0  0  0
 11 14  1  0  0  0  0
 14 15  1  0  0  0  0
 14 16  1  0  0  0  0
 14 17  1  0  0  0  0
 17 18  1  0  0  0  0
 17 19  2  0  0  0  0
 20 21  2  0  0  0  0
 20 22  1  0  0  0  0
 22 23  1  0  0  0  0
 22 24  1  0  0  0  0
 24 25  1  0  0  0  0
 24 26  1  0  0  0  0
 24 27  1  0  0  0  0
M  CHG  1  18  -1
M  END
$$$$

  -OEChem-03222214043D

 27 26  0     1  0  0  0  0  0999 V2000
   -3.0969   -3.6000    1.7135 H   0  0  0  0  0  0  0  0  0  0  0  0
   -3.1596   -2.6389    1.1971 C   0  0  0  0  0  0  0  0  0  0  0  0
   -3.9203   -2.0203    1.6780 H   0  0  0  0  0  0  0  0  0  0  0  0
   -3.4583   -2.8221    0.1619 H   0  0  0  0  0  0  0  0  0  0  0  0
   -1.8150   -1.9325    1.2396 C   0  0  0  0  0  0  0  0  0  0  0  0
   -1.0086   -2.2293    2.1167 O   0  0  0  0  0  0  0  0  0  0  0  0
   -1.5910   -0.8173    0.4537 N   0  0  0  0  0  0  0  0  0  0  0  0
   -2.2352   -0.7486   -0.3450 H   0  0  0  0  0  0  0  0  0  0  0  0
   -0.2473   -0.2707    0.2162 C   0  0  1  0  0  0  0  0  0  0  0  0
    0.4187   -0.6673    0.9865 H   0  0  0  0  0  0  0  0  0  0  0  0
    0.4156   -0.6252   -1.1588 C   0  0  0  0  0  0  0  0  0  0  0  0
    0.3560    0.2807   -1.7722 H   0  0  0  0  0  0  0  0  0  0  0  0
    1.4803   -0.7976   -0.9734 H   0  0  0  0  0  0  0  0  0  0  0  0
   -0.0804   -1.7534   -2.1153 C   0  0  0  0  0  0  0  0  0  0  0  0
   -0.0237   -1.3782   -3.1412 H   0  0  0  0  0  0  0  0  0  0  0  0
    0.6420   -2.5721   -2.0419 H   0  0  0  0  0  0  0  0  0  0  0  0
   -1.4666   -2.3704   -1.9308 C   0  0  0  0  0  0  0  0  0  0  0  0
   -2.4642   -1.6186   -2.0803 O   0  5  0  0  0  0  0  0  0  0  0  0
   -1.5348   -3.5822   -1.6124 O   0  0  0  0  0  0  0  0  0  0  0  0
   -0.2285    1.2682    0.3694 C   0  0  0  0  0  0  0  0  0  0  0  0
   -1.0737    1.9992   -0.1342 O   0  0  0  0  0  0  0  0  0  0  0  0
    0.7994    1.8561    1.0869 N   0  0  0  0  0  0  0  0  0  0  0  0
    1.4409    1.2324    1.5653 H   0  0  0  0  0  0  0  0  0  0  0  0
    0.8858    3.2875    1.3389 C   0  0  0  0  0  0  0  0  0  0  0  0
    0.0091    3.6308    1.8976 H   0  0  0  0  0  0  0  0  0  0  0  0
    1.7814    3.5123    1.9255 H   0  0  0  0  0  0  0  0  0  0  0  0
    0.9435    3.8396    0.3953 H   0  0  0  0  0  0  0  0  0  0  0  0
  1  2  1  0  0  0  0
  2  3  1  0  0  0  0
  2  4  1  0  0  0  0
  2  5  1  0  0  0  0
  5  6  2  0  0  0  0
  5  7  1  0  0  0  0
  7  8  1  0  0  0  0
  7  9  1  0  0  0  0
  9 10  1  0  0  0  0
  9 11  1  0  0  0  0
  9 20  1  0  0  0  0
 11 12  1  0  0  0  0
 11 13  1  0  0  0  0
 11 14  1  0  0  0  0
 14 15  1  0  0  0  0
 14 16  1  0  0  0  0
 14 17  1  0  0  0  0
 17 18  1  0  0  0  0
 17 19  2  0  0  0  0
 20 21  2  0  0  0  0
 20 22  1  0  0  0  0
 22 23  1  0  0  0  0
 22 24  1  0  0  0  0
 24 25  1  0  0  0  0
 24 26  1  0  0  0  0
 24 27  1  0  0  0  0
M  CHG  1  18  -1
M  END
$$$$

  -OEChem-03222214043D

 27 26  0     1  0  0  0  0  0999 V2000
   -2.8565   -3.8602    0.9794 H   0  0  0  0  0  0  0  0  0  0  0  0
   -3.0698   -2.7884    0.9668 C   0  0  0  0  0  0  0  0  0  0  0  0
   -3.7536   -2.5434    1.7820 H   0  0  0  0  0  0  0  0  0  0  0  0
   -3.5516   -2.5450    0.0156 H   0  0  0  0  0  0  0  0  0  0  0  0
   -1.7784   -2.0043    1.1173 C   0  0  0  0  0  0  0  0  0  0  0  0
   -0.9724   -2.3308    1.9836 O   0  0  0  0  0  0  0  0  0  0  0  0
   -1.5800   -0.8465    0.3915 N   0  0  0  0  0  0  0  0  0  0  0  0
   -2.2232   -0.7356   -0.4039 H   0  0  0  0  0  0  0  0  0  0  0  0
   -0.2638   -0.2232    0.2077 C   0  0  1  0  0  0  0  0  0  0  0  0
    0.3947   -0.6171    0.9856 H   0  0  0  0  0  0  0  0  0  0  0  0
    0.4435   -0.5401   -1.1501 C   0  0  0  0  0  0  0  0  0  0  0  0
    0.3389    0.3599   -1.7659 H   0  0  0  0  0  0  0  0  0  0  0  0
    1.5134   -0.6595   -0.9539 H   0  0  0  0  0  0  0  0  0  0  0  0
   -0.0012   -1.6989   -2.0931 C   0  0  0  0  0  0  0  0  0  0  0  0
    0.2967   -1.4398   -3.1131 H   0  0  0  0  0  0  0  0  0  0  0  0
    0.5803   -2.5799   -1.8045 H   0  0  0  0  0  0  0  0  0  0  0  0
   -1.4698   -2.1310   -2.1360 C   0  0  0  0  0  0  0  0  0  0  0  0
   -2.3462   -1.2413   -2.2778 O   0  5  0  0  0  0  0  0  0  0  0  0
   -1.7212   -3.3503   -1.9787 O   0  0  0  0  0  0  0  0  0  0  0  0
   -0.2995    1.3074    0.4219 C   0  0  0  0  0  0  0  0  0  0  0  0
   -1.1718    2.0280   -0.0479 O   0  0  0  0  0  0  0  0  0  0  0  0
    0.6951    1.9001    1.1817 N   0  0  0  0  0  0  0  0  0  0  0  0
    1.3591    1.2809    1.6338 H   0  0  0  0  0  0  0  0  0  0  0  0
    0.7183    3.3196    1.5053 C   0  0  0  0  0  0  0  0  0  0  0  0
   -0.1882    3.6025    2.0503 H   0  0  0  0  0  0  0  0  0  0  0  0
    1.5849    3.5483    2.1322 H   0  0  0  0  0  0  0  0  0  0  0  0
    0.7843    3.9189    0.5915 H   0  0  0  0  0  0  0  0  0  0  0  0
  1  2  1  0  0  0  0
  2  3  1  0  0  0  0
  2  4  1  0  0  0  0
  2  5  1  0  0  0  0
  5  6  2  0  0  0  0
  5  7  1  0  0  0  0
  7  8  1  0  0  0  0
  7  9  1  0  0  0  0
  9 10  1  0  0  0  0
  9 11  1  0  0  0  0
  9 20  1  0  0  0  0
 11 12  1  0  0  0  0
 11 13  1  0  0  0  0
 11 14  1  0  0  0  0
 14 15  1  0  0  0  0
 14 16  1  0  0  0  0
 14 17  1  0  0  0  0
 17 18  1  0  0  0  0
 17 19  2  0  0  0  0
 20 21  2  0  0  0  0
 20 22  1  0  0  0  0
 22 23  1  0  0  0  0
 22 24  1  0  0  0  0
 24 25  1  0  0  0  0
 24 26  1  0  0  0  0
 24 27  1  0  0  0  0
M  CHG  1  18  -1
M  END
$$$$

  -OEChem-03222214043D

 27 26  0     1  0  0  0  0  0999 V2000
   -3.1475   -3.7147    1.2987 H   0  0  0  0  0  0  0  0  0  0  0  0
   -3.1322   -2.7872    0.7209 C   0  0  0  0  0  0  0  0  0  0  0  0
   -3.9802   -2.1664    1.0182 H   0  0  0  0  0  0  0  0  0  0  0  0
   -3.2319   -3.0345   -0.3389 H   0  0  0  0  0  0  0  0  0  0  0  0
   -1.8340   -2.0366    0.9598 C   0  0  0  0  0  0  0  0  0  0  0  0
   -1.0619   -2.4195    1.8330 O   0  0  0  0  0  0  0  0  0  0  0  0
   -1.5894   -0.8580    0.2864 N   0  0  0  0  0  0  0  0  0  0  0  0
   -2.1956   -0.6914   -0.5285 H   0  0  0  0  0  0  0  0  0  0  0  0
   -0.2758   -0.2080    0.2114 C   0  0  1  0  0  0  0  0  0  0  0  0
    0.3250   -0.6114    1.0302 H   0  0  0  0  0  0  0  0  0  0  0  0
    0.5254   -0.5174   -1.0898 C   0  0  0  0  0  0  0  0  0  0  0  0
    0.4614    0.3761   -1.7206 H   0  0  0  0  0  0  0  0  0  0  0  0
    1.5789   -0.6401   -0.8211 H   0  0  0  0  0  0  0  0  0  0  0  0
    0.1225   -1.6959   -2.0213 C   0  0  0  0  0  0  0  0  0  0  0  0
    0.6788   -1.5907   -2.9567 H   0  0  0  0  0  0  0  0  0  0  0  0
    0.4671   -2.6160   -1.5393 H   0  0  0  0  0  0  0  0  0  0  0  0
   -1.3537   -1.8998   -2.3845 C   0  0  0  0  0  0  0  0  0  0  0  0
   -2.1040   -0.8958   -2.4691 O   0  5  0  0  0  0  0  0  0  0  0  0
   -1.7411   -3.0836   -2.5353 O   0  0  0  0  0  0  0  0  0  0  0  0
   -0.3274    1.3170    0.4582 C   0  0  0  0  0  0  0  0  0  0  0  0
   -1.1852    2.0463   -0.0232 O   0  0  0  0  0  0  0  0  0  0  0  0
    0.6149    1.8890    1.2968 N   0  0  0  0  0  0  0  0  0  0  0  0
    1.2729    1.2626    1.7475 H   0  0  0  0  0  0  0  0  0  0  0  0
    0.6280    3.3019    1.6486 C   0  0  0  0  0  0  0  0  0  0  0  0
   -0.3048    3.5804    2.1494 H   0  0  0  0  0  0  0  0  0  0  0  0
    1.4612    3.5132    2.3253 H   0  0  0  0  0  0  0  0  0  0  0  0
    0.7464    3.9178    0.7513 H   0  0  0  0  0  0  0  0  0  0  0  0
  1  2  1  0  0  0  0
  2  3  1  0  0  0  0
  2  4  1  0  0  0  0
  2  5  1  0  0  0  0
  5  6  2  0  0  0  0
  5  7  1  0  0  0  0
  7  8  1  0  0  0  0
  7  9  1  0  0  0  0
  9 10  1  0  0  0  0
  9 11  1  0  0  0  0
  9 20  1  0  0  0  0
 11 12  1  0  0  0  0
 11 13  1  0  0  0  0
 11 14  1  0  0  0  0
 14 15  1  0  0  0  0
 14 16  1  0  0  0  0
 14 17  1  0  0  0  0
 17 18  1  0  0  0  0
 17 19  2  0  0  0  0
 20 21  2  0  0  0  0
 20 22  1  0  0  0  0
 22 23  1  0  0  0  0
 22 24  1  0  0  0  0
 24 25  1  0  0  0  0
 24 26  1  0  0  0  0
 24 27  1  0  0  0  0
M  CHG  1  18  -1
M  END
$$$$

  -OEChem-03222214043D

 27 26  0     1  0  0  0  0  0999 V2000
   -3.1274   -3.7236    1.1819 H   0  0  0  0  0  0  0  0  0  0  0  0
   -3.0803   -2.8103    0.5834 C   0  0  0  0  0  0  0  0  0  0  0  0
   -3.9664   -2.2042    0.7860 H   0  0  0  0  0  0  0  0  0  0  0  0
   -3.0753   -3.0838   -0.4755 H   0  0  0  0  0  0  0  0  0  0  0  0
   -1.8268   -2.0217    0.9164 C   0  0  0  0  0  0  0  0  0  0  0  0
   -1.0709   -2.4138    1.7990 O   0  0  0  0  0  0  0  0  0  0  0  0
   -1.5741   -0.8402    0.2547 N   0  0  0  0  0  0  0  0  0  0  0  0
   -2.1701   -0.6611   -0.5651 H   0  0  0  0  0  0  0  0  0  0  0  0
   -0.2666   -0.1776    0.1996 C   0  0  1  0  0  0  0  0  0  0  0  0
    0.3230   -0.5793    1.0272 H   0  0  0  0  0  0  0  0  0  0  0  0
    0.5319   -0.5188   -1.0911 C   0  0  0  0  0  0  0  0  0  0  0  0
    0.4924    0.3550   -1.7510 H   0  0  0  0  0  0  0  0  0  0  0  0
    1.5807   -0.6648   -0.8161 H   0  0  0  0  0  0  0  0  0  0  0  0
    0.0777   -1.7318   -1.9489 C   0  0  0  0  0  0  0  0  0  0  0  0
    0.7762   -1.8243   -2.7851 H   0  0  0  0  0  0  0  0  0  0  0  0
    0.1813   -2.6313   -1.3347 H   0  0  0  0  0  0  0  0  0  0  0  0
   -1.3377   -1.7312   -2.5436 C   0  0  0  0  0  0  0  0  0  0  0  0
   -2.0254   -0.6814   -2.5076 O   0  5  0  0  0  0  0  0  0  0  0  0
   -1.7587   -2.8347   -2.9663 O   0  0  0  0  0  0  0  0  0  0  0  0
   -0.3134    1.3471    0.4473 C   0  0  0  0  0  0  0  0  0  0  0  0
   -1.1771    2.0780   -0.0202 O   0  0  0  0  0  0  0  0  0  0  0  0
    0.6228    1.9132    1.2971 N   0  0  0  0  0  0  0  0  0  0  0  0
    1.2820    1.2850    1.7436 H   0  0  0  0  0  0  0  0  0  0  0  0
    0.6314    3.3233    1.6597 C   0  0  0  0  0  0  0  0  0  0  0  0
   -0.2969    3.5913    2.1744 H   0  0  0  0  0  0  0  0  0  0  0  0
    1.4721    3.5351    2.3268 H   0  0  0  0  0  0  0  0  0  0  0  0
    0.7337    3.9470    0.7656 H   0  0  0  0  0  0  0  0  0  0  0  0
  1  2  1  0  0  0  0
  2  3  1  0  0  0  0
  2  4  1  0  0  0  0
  2  5  1  0  0  0  0
  5  6  2  0  0  0  0
  5  7  1  0  0  0  0
  7  8  1  0  0  0  0
  7  9  1  0  0  0  0
  9 10  1  0  0  0  0
  9 11  1  0  0  0  0
  9 20  1  0  0  0  0
 11 12  1  0  0  0  0
 11 13  1  0  0  0  0
 11 14  1  0  0  0  0
 14 15  1  0  0  0  0
 14 16  1  0  0  0  0
 14 17  1  0  0  0  0
 17 18  1  0  0  0  0
 17 19  2  0  0  0  0
 20 21  2  0  0  0  0
 20 22  1  0  0  0  0
 22 23  1  0  0  0  0
 22 24  1  0  0  0  0
 24 25  1  0  0  0  0
 24 26  1  0  0  0  0
 24 27  1  0  0  0  0
M  CHG  1  18  -1
M  END
$$$$

  -OEChem-03222214043D

 27 26  0     1  0  0  0  0  0999 V2000
   -3.3471   -3.4692    1.4792 H   0  0  0  0  0  0  0  0  0  0  0  0
   -3.1111   -2.7927    0.6542 C   0  0  0  0  0  0  0  0  0  0  0  0
   -3.9545   -2.1156    0.4978 H   0  0  0  0  0  0  0  0  0  0  0  0
   -2.9599   -3.3792   -0.2557 H   0  0  0  0  0  0  0  0  0  0  0  0
   -1.8570   -1.9946    0.9634 C   0  0  0  0  0  0  0  0  0  0  0  0
   -1.1335   -2.3428    1.8914 O   0  0  0  0  0  0  0  0  0  0  0  0
   -1.5758   -0.8500    0.2475 N   0  0  0  0  0  0  0  0  0  0  0  0
   -2.1232   -0.7757   -0.6203 H   0  0  0  0  0  0  0  0  0  0  0  0
   -0.2417   -0.2327    0.2083 C   0  0  1  0  0  0  0  0  0  0  0  0
    0.3324   -0.6198    1.0538 H   0  0  0  0  0  0  0  0  0  0  0  0
    0.5649   -0.5896   -1.0736 C   0  0  0  0  0  0  0  0  0  0  0  0
    0.6008    0.2881   -1.7292 H   0  0  0  0  0  0  0  0  0  0  0  0
    1.5944   -0.8021   -0.7700 H   0  0  0  0  0  0  0  0  0  0  0  0
    0.0658   -1.7736   -1.9350 C   0  0  0  0  0  0  0  0  0  0  0  0
    0.8679   -2.0644   -2.6199 H   0  0  0  0  0  0  0  0  0  0  0  0
   -0.1348   -2.6383   -1.2963 H   0  0  0  0  0  0  0  0  0  0  0  0
   -1.1772   -1.4549   -2.7753 C   0  0  0  0  0  0  0  0  0  0  0  0
   -2.3100   -1.6945   -2.2825 O   0  5  0  0  0  0  0  0  0  0  0  0
   -0.9853   -0.9828   -3.9213 O   0  0  0  0  0  0  0  0  0  0  0  0
   -0.2818    1.3007    0.3923 C   0  0  0  0  0  0  0  0  0  0  0  0
   -1.1111    2.0133   -0.1589 O   0  0  0  0  0  0  0  0  0  0  0  0
    0.6258    1.8974    1.2512 N   0  0  0  0  0  0  0  0  0  0  0  0
    1.2562    1.2846    1.7568 H   0  0  0  0  0  0  0  0  0  0  0  0
    0.6243    3.3206    1.5581 C   0  0  0  0  0  0  0  0  0  0  0  0
   -0.3242    3.6108    2.0216 H   0  0  0  0  0  0  0  0  0  0  0  0
    1.4362    3.5560    2.2524 H   0  0  0  0  0  0  0  0  0  0  0  0
    0.7676    3.9086    0.6457 H   0  0  0  0  0  0  0  0  0  0  0  0
  1  2  1  0  0  0  0
  2  3  1  0  0  0  0
  2  4  1  0  0  0  0
  2  5  1  0  0  0  0
  5  6  2  0  0  0  0
  5  7  1  0  0  0  0
  7  8  1  0  0  0  0
  7  9  1  0  0  0  0
  9 10  1  0  0  0  0
  9 11  1  0  0  0  0
  9 20  1  0  0  0  0
 11 12  1  0  0  0  0
 11 13  1  0  0  0  0
 11 14  1  0  0  0  0
 14 15  1  0  0  0  0
 14 16  1  0  0  0  0
 14 17  1  0  0  0  0
 17 18  1  0  0  0  0
 17 19  2  0  0  0  0
 20 21  2  0  0  0  0
 20 22  1  0  0  0  0
 22 23  1  0  0  0  0
 22 24  1  0  0  0  0
 24 25  1  0  0  0  0
 24 26  1  0  0  0  0
 24 27  1  0  0  0  0
M  CHG  1  18  -1
M  END
$$$$

  -OEChem-03222214043D

 27 26  0     1  0  0  0  0  0999 V2000
   -3.1595   -3.7030    1.1609 H   0  0  0  0  0  0  0  0  0  0  0  0
   -3.0997   -2.7880    0.5662 C   0  0  0  0  0  0  0  0  0  0  0  0
   -3.9912   -2.1833    0.7495 H   0  0  0  0  0  0  0  0  0  0  0  0
   -3.0683   -3.0564   -0.4937 H   0  0  0  0  0  0  0  0  0  0  0  0
   -1.8567   -1.9974    0.9319 C   0  0  0  0  0  0  0  0  0  0  0  0
   -1.1496   -2.3631    1.8646 O   0  0  0  0  0  0  0  0  0  0  0  0
   -1.5527   -0.8548    0.2262 N   0  0  0  0  0  0  0  0  0  0  0  0
   -2.0889   -0.7508   -0.6468 H   0  0  0  0  0  0  0  0  0  0  0  0
   -0.2240   -0.2218    0.2071 C   0  0  1  0  0  0  0  0  0  0  0  0
    0.3419   -0.6078    1.0587 H   0  0  0  0  0  0  0  0  0  0  0  0
    0.5763   -0.5971   -1.0713 C   0  0  0  0  0  0  0  0  0  0  0  0
    0.6206    0.2658   -1.7459 H   0  0  0  0  0  0  0  0  0  0  0  0
    1.6045   -0.8157   -0.7678 H   0  0  0  0  0  0  0  0  0  0  0  0
    0.0411   -1.8041   -1.8769 C   0  0  0  0  0  0  0  0  0  0  0  0
    0.8885   -2.2551   -2.4019 H   0  0  0  0  0  0  0  0  0  0  0  0
   -0.3609   -2.5860   -1.2292 H   0  0  0  0  0  0  0  0  0  0  0  0
   -0.9790   -1.3946   -2.9368 C   0  0  0  0  0  0  0  0  0  0  0  0
   -2.1735   -1.2986   -2.5492 O   0  5  0  0  0  0  0  0  0  0  0  0
   -0.5837   -1.1999   -4.1118 O   0  0  0  0  0  0  0  0  0  0  0  0
   -0.2680    1.3121    0.3834 C   0  0  0  0  0  0  0  0  0  0  0  0
   -1.0986    2.0199   -0.1714 O   0  0  0  0  0  0  0  0  0  0  0  0
    0.6258    1.9139    1.2532 N   0  0  0  0  0  0  0  0  0  0  0  0
    1.2596    1.3059    1.7602 H   0  0  0  0  0  0  0  0  0  0  0  0
    0.6218    3.3390    1.5519 C   0  0  0  0  0  0  0  0  0  0  0  0
   -0.3167    3.6249    2.0378 H   0  0  0  0  0  0  0  0  0  0  0  0
    1.4497    3.5845    2.2233 H   0  0  0  0  0  0  0  0  0  0  0  0
    0.7376    3.9230    0.6331 H   0  0  0  0  0  0  0  0  0  0  0  0
  1  2  1  0  0  0  0
  2  3  1  0  0  0  0
  2  4  1  0  0  0  0
  2  5  1  0  0  0  0
  5  6  2  0  0  0  0
  5  7  1  0  0  0  0
  7  8  1  0  0  0  0
  7  9  1  0  0  0  0
  9 10  1  0  0  0  0
  9 11  1  0  0  0  0
  9 20  1  0  0  0  0
 11 12  1  0  0  0  0
 11 13  1  0  0  0  0
 11 14  1  0  0  0  0
 14 15  1  0  0  0  0
 14 16  1  0  0  0  0
 14 17  1  0  0  0  0
 17 18  1  0  0  0  0
 17 19  2  0  0  0  0
 20 21  2  0  0  0  0
 20 22  1  0  0  0  0
 22 23  1  0  0  0  0
 22 24  1  0  0  0  0
 24 25  1  0  0  0  0
 24 26  1  0  0  0  0
 24 27  1  0  0  0  0
M  CHG  1  18  -1
M  END
$$$$

  -OEChem-03222214043D

 27 26  0     1  0  0  0  0  0999 V2000
   -3.1949   -3.6884    1.1635 H   0  0  0  0  0  0  0  0  0  0  0  0
   -3.1317   -2.7643    0.5830 C   0  0  0  0  0  0  0  0  0  0  0  0
   -4.0062   -2.1462    0.8001 H   0  0  0  0  0  0  0  0  0  0  0  0
   -3.1312   -3.0150   -0.4818 H   0  0  0  0  0  0  0  0  0  0  0  0
   -1.8639   -2.0056    0.9312 C   0  0  0  0  0  0  0  0  0  0  0  0
   -1.1430   -2.3989    1.8404 O   0  0  0  0  0  0  0  0  0  0  0  0
   -1.5517   -0.8615    0.2304 N   0  0  0  0  0  0  0  0  0  0  0  0
   -2.1218   -0.6959   -0.6042 H   0  0  0  0  0  0  0  0  0  0  0  0
   -0.2204   -0.2345    0.2023 C   0  0  1  0  0  0  0  0  0  0  0  0
    0.3475   -0.6234    1.0514 H   0  0  0  0  0  0  0  0  0  0  0  0
    0.5790   -0.6046   -1.0775 C   0  0  0  0  0  0  0  0  0  0  0  0
    0.6262    0.2665   -1.7417 H   0  0  0  0  0  0  0  0  0  0  0  0
    1.6080   -0.8215   -0.7752 H   0  0  0  0  0  0  0  0  0  0  0  0
    0.0526   -1.8093   -1.8974 C   0  0  0  0  0  0  0  0  0  0  0  0
    0.9205   -2.3973   -2.2104 H   0  0  0  0  0  0  0  0  0  0  0  0
   -0.5674   -2.4962   -1.3219 H   0  0  0  0  0  0  0  0  0  0  0  0
   -0.6650   -1.3705   -3.1671 C   0  0  0  0  0  0  0  0  0  0  0  0
   -1.9086   -1.2131   -3.0633 O   0  5  0  0  0  0  0  0  0  0  0  0
    0.0031   -1.1940   -4.2154 O   0  0  0  0  0  0  0  0  0  0  0  0
   -0.2676    1.2983    0.3861 C   0  0  0  0  0  0  0  0  0  0  0  0
   -1.1363    1.9942   -0.1245 O   0  0  0  0  0  0  0  0  0  0  0  0
    0.6303    1.9014    1.2503 N   0  0  0  0  0  0  0  0  0  0  0  0
    1.3120    1.3035    1.7047 H   0  0  0  0  0  0  0  0  0  0  0  0
    0.6214    3.3254    1.5541 C   0  0  0  0  0  0  0  0  0  0  0  0
   -0.3229    3.6085    2.0303 H   0  0  0  0  0  0  0  0  0  0  0  0
    1.4408    3.5694    2.2366 H   0  0  0  0  0  0  0  0  0  0  0  0
    0.7470    3.9127    0.6386 H   0  0  0  0  0  0  0  0  0  0  0  0
  1  2  1  0  0  0  0
  2  3  1  0  0  0  0
  2  4  1  0  0  0  0
  2  5  1  0  0  0  0
  5  6  2  0  0  0  0
  5  7  1  0  0  0  0
  7  8  1  0  0  0  0
  7  9  1  0  0  0  0
  9 10  1  0  0  0  0
  9 11  1  0  0  0  0
  9 20  1  0  0  0  0
 11 12  1  0  0  0  0
 11 13  1  0  0  0  0
 11 14  1  0  0  0  0
 14 15  1  0  0  0  0
 14 16  1  0  0  0  0
 14 17  1  0  0  0  0
 17 18  1  0  0  0  0
 17 19  2  0  0  0  0
 20 21  2  0  0  0  0
 20 22  1  0  0  0  0
 22 23  1  0  0  0  0
 22 24  1  0  0  0  0
 24 25  1  0  0  0  0
 24 26  1  0  0  0  0
 24 27  1  0  0  0  0
M  CHG  1  18  -1
M  END
$$$$

  -OEChem-03222214043D

 27 26  0     1  0  0  0  0  0999 V2000
   -3.1370   -3.7478    1.2380 H   0  0  0  0  0  0  0  0  0  0  0  0
   -3.0874   -2.8373    0.6349 C   0  0  0  0  0  0  0  0  0  0  0  0
   -3.9516   -2.2102    0.8671 H   0  0  0  0  0  0  0  0  0  0  0  0
   -3.1221   -3.1128   -0.4227 H   0  0  0  0  0  0  0  0  0  0  0  0
   -1.8045   -2.0799    0.9268 C   0  0  0  0  0  0  0  0  0  0  0  0
   -1.0344   -2.4901    1.7857 O   0  0  0  0  0  0  0  0  0  0  0  0
   -1.5389   -0.9142    0.2410 N   0  0  0  0  0  0  0  0  0  0  0  0
   -2.1763   -0.6868   -0.5222 H   0  0  0  0  0  0  0  0  0  0  0  0
   -0.2276   -0.2493    0.1931 C   0  0  1  0  0  0  0  0  0  0  0  0
    0.3637   -0.6289    1.0309 H   0  0  0  0  0  0  0  0  0  0  0  0
    0.5866   -0.5621   -1.0934 C   0  0  0  0  0  0  0  0  0  0  0  0
    0.5770    0.3314   -1.7289 H   0  0  0  0  0  0  0  0  0  0  0  0
    1.6306   -0.7222   -0.8065 H   0  0  0  0  0  0  0  0  0  0  0  0
    0.1327   -1.7653   -1.9643 C   0  0  0  0  0  0  0  0  0  0  0  0
    0.9699   -2.4656   -2.0358 H   0  0  0  0  0  0  0  0  0  0  0  0
   -0.6919   -2.3316   -1.5330 H   0  0  0  0  0  0  0  0  0  0  0  0
   -0.2433   -1.3425   -3.3821 C   0  0  0  0  0  0  0  0  0  0  0  0
    0.6849   -1.0510   -4.1768 O   0  5  0  0  0  0  0  0  0  0  0  0
   -1.4678   -1.3177   -3.6631 O   0  0  0  0  0  0  0  0  0  0  0  0
   -0.3370    1.2758    0.4081 C   0  0  0  0  0  0  0  0  0  0  0  0
   -1.2664    1.9280   -0.0525 O   0  0  0  0  0  0  0  0  0  0  0  0
    0.5501    1.9068    1.2628 N   0  0  0  0  0  0  0  0  0  0  0  0
    1.2996    1.3458    1.6529 H   0  0  0  0  0  0  0  0  0  0  0  0
    0.4894    3.3264    1.5800 C   0  0  0  0  0  0  0  0  0  0  0  0
   -0.4553    3.5666    2.0783 H   0  0  0  0  0  0  0  0  0  0  0  0
    1.3121    3.5978    2.2481 H   0  0  0  0  0  0  0  0  0  0  0  0
    0.5721    3.9264    0.6679 H   0  0  0  0  0  0  0  0  0  0  0  0
  1  2  1  0  0  0  0
  2  3  1  0  0  0  0
  2  4  1  0  0  0  0
  2  5  1  0  0  0  0
  5  6  2  0  0  0  0
  5  7  1  0  0  0  0
  7  8  1  0  0  0  0
  7  9  1  0  0  0  0
  9 10  1  0  0  0  0
  9 11  1  0  0  0  0
  9 20  1  0  0  0  0
 11 12  1  0  0  0  0
 11 13  1  0  0  0  0
 11 14  1  0  0  0  0
 14 15  1  0  0  0  0
 14 16  1  0  0  0  0
 14 17  1  0  0  0  0
 17 18  1  0  0  0  0
 17 19  2  0  0  0  0
 20 21  2  0  0  0  0
 20 22  1  0  0  0  0
 22 23  1  0  0  0  0
 22 24  1  0  0  0  0
 24 25  1  0  0  0  0
 24 26  1  0  0  0  0
 24 27  1  0  0  0  0
M  CHG  1  18  -1
M  END
$$$$

  -OEChem-03222214043D

 27 26  0     1  0  0  0  0  0999 V2000
   -3.1628   -3.7311    1.2777 H   0  0  0  0  0  0  0  0  0  0  0  0
   -3.1131   -2.8207    0.6743 C   0  0  0  0  0  0  0  0  0  0  0  0
   -3.9588   -2.1784    0.9314 H   0  0  0  0  0  0  0  0  0  0  0  0
   -3.1819   -3.0941   -0.3820 H   0  0  0  0  0  0  0  0  0  0  0  0
   -1.8081   -2.0887    0.9315 C   0  0  0  0  0  0  0  0  0  0  0  0
   -1.0228   -2.5179    1.7662 O   0  0  0  0  0  0  0  0  0  0  0  0
   -1.5410   -0.9238    0.2447 N   0  0  0  0  0  0  0  0  0  0  0  0
   -2.2069   -0.6563   -0.4779 H   0  0  0  0  0  0  0  0  0  0  0  0
   -0.2285   -0.2630    0.1883 C   0  0  1  0  0  0  0  0  0  0  0  0
    0.3632   -0.6393    1.0273 H   0  0  0  0  0  0  0  0  0  0  0  0
    0.5909   -0.5781   -1.0944 C   0  0  0  0  0  0  0  0  0  0  0  0
    0.5476    0.3142   -1.7300 H   0  0  0  0  0  0  0  0  0  0  0  0
    1.6429   -0.7123   -0.8241 H   0  0  0  0  0  0  0  0  0  0  0  0
    0.1478   -1.7812   -1.9712 C   0  0  0  0  0  0  0  0  0  0  0  0
    0.8339   -2.6158   -1.8012 H   0  0  0  0  0  0  0  0  0  0  0  0
   -0.8510   -2.1393   -1.7224 H   0  0  0  0  0  0  0  0  0  0  0  0
    0.1451   -1.4293   -3.4595 C   0  0  0  0  0  0  0  0  0  0  0  0
    1.2477   -1.1449   -3.9911 O   0  5  0  0  0  0  0  0  0  0  0  0
   -0.9565   -1.4592   -4.0628 O   0  0  0  0  0  0  0  0  0  0  0  0
   -0.3423    1.2614    0.4041 C   0  0  0  0  0  0  0  0  0  0  0  0
   -1.2838    1.9027   -0.0488 O   0  0  0  0  0  0  0  0  0  0  0  0
    0.5447    1.9000    1.2528 N   0  0  0  0  0  0  0  0  0  0  0  0
    1.3180    1.3518    1.6145 H   0  0  0  0  0  0  0  0  0  0  0  0
    0.4892    3.3248    1.5473 C   0  0  0  0  0  0  0  0  0  0  0  0
   -0.4626    3.5798    2.0242 H   0  0  0  0  0  0  0  0  0  0  0  0
    1.3011    3.6000    2.2268 H   0  0  0  0  0  0  0  0  0  0  0  0
    0.5931    3.9100    0.6278 H   0  0  0  0  0  0  0  0  0  0  0  0
  1  2  1  0  0  0  0
  2  3  1  0  0  0  0
  2  4  1  0  0  0  0
  2  5  1  0  0  0  0
  5  6  2  0  0  0  0
  5  7  1  0  0  0  0
  7  8  1  0  0  0  0
  7  9  1  0  0  0  0
  9 10  1  0  0  0  0
  9 11  1  0  0  0  0
  9 20  1  0  0  0  0
 11 12  1  0  0  0  0
 11 13  1  0  0  0  0
 11 14  1  0  0  0  0
 14 15  1  0  0  0  0
 14 16  1  0  0  0  0
 14 17  1  0  0  0  0
 17 18  1  0  0  0  0
 17 19  2  0  0  0  0
 20 21  2  0  0  0  0
 20 22  1  0  0  0  0
 22 23  1  0  0  0  0
 22 24  1  0  0  0  0
 24 25  1  0  0  0  0
 24 26  1  0  0  0  0
 24 27  1  0  0  0  0
M  CHG  1  18  -1
M  END
$$$$

  -OEChem-03222214043D

 27 26  0     1  0  0  0  0  0999 V2000
   -3.1700   -3.7272    1.2766 H   0  0  0  0  0  0  0  0  0  0  0  0
   -3.1136   -2.8184    0.6713 C   0  0  0  0  0  0  0  0  0  0  0  0
   -3.9553   -2.1700    0.9265 H   0  0  0  0  0  0  0  0  0  0  0  0
   -3.1832   -3.0937   -0.3844 H   0  0  0  0  0  0  0  0  0  0  0  0
   -1.8042   -2.0945    0.9280 C   0  0  0  0  0  0  0  0  0  0  0  0
   -1.0217   -2.5271    1.7631 O   0  0  0  0  0  0  0  0  0  0  0  0
   -1.5330   -0.9304    0.2418 N   0  0  0  0  0  0  0  0  0  0  0  0
   -2.2038   -0.6497   -0.4702 H   0  0  0  0  0  0  0  0  0  0  0  0
   -0.2198   -0.2707    0.1917 C   0  0  1  0  0  0  0  0  0  0  0  0
    0.3725   -0.6490    1.0297 H   0  0  0  0  0  0  0  0  0  0  0  0
    0.5961   -0.5836   -1.0921 C   0  0  0  0  0  0  0  0  0  0  0  0
    0.5460    0.3055   -1.7316 H   0  0  0  0  0  0  0  0  0  0  0  0
    1.6499   -0.7226   -0.8301 H   0  0  0  0  0  0  0  0  0  0  0  0
    0.1327   -1.7824   -1.9582 C   0  0  0  0  0  0  0  0  0  0  0  0
    0.6070   -2.6989   -1.5969 H   0  0  0  0  0  0  0  0  0  0  0  0
   -0.9480   -1.9243   -1.9018 H   0  0  0  0  0  0  0  0  0  0  0  0
    0.4687   -1.5711   -3.4362 C   0  0  0  0  0  0  0  0  0  0  0  0
    1.6693   -1.3453   -3.7321 O   0  5  0  0  0  0  0  0  0  0  0  0
   -0.4697   -1.6574   -4.2669 O   0  0  0  0  0  0  0  0  0  0  0  0
   -0.3371    1.2530    0.4058 C   0  0  0  0  0  0  0  0  0  0  0  0
   -1.2723    1.8913   -0.0652 O   0  0  0  0  0  0  0  0  0  0  0  0
    0.5427    1.8959    1.2583 N   0  0  0  0  0  0  0  0  0  0  0  0
    1.3199    1.3517    1.6185 H   0  0  0  0  0  0  0  0  0  0  0  0
    0.4984    3.3265    1.5245 C   0  0  0  0  0  0  0  0  0  0  0  0
   -0.4579    3.6014    1.9810 H   0  0  0  0  0  0  0  0  0  0  0  0
    1.3025    3.6059    2.2115 H   0  0  0  0  0  0  0  0  0  0  0  0
    0.6236    3.8922    0.5955 H   0  0  0  0  0  0  0  0  0  0  0  0
  1  2  1  0  0  0  0
  2  3  1  0  0  0  0
  2  4  1  0  0  0  0
  2  5  1  0  0  0  0
  5  6  2  0  0  0  0
  5  7  1  0  0  0  0
  7  8  1  0  0  0  0
  7  9  1  0  0  0  0
  9 10  1  0  0  0  0
  9 11  1  0  0  0  0
  9 20  1  0  0  0  0
 11 12  1  0  0  0  0
 11 13  1  0  0  0  0
 11 14  1  0  0  0  0
 14 15  1  0  0  0  0
 14 16  1  0  0  0  0
 14 17  1  0  0  0  0
 17 18  1  0  0  0  0
 17 19  2  0  0  0  0
 20 21  2  0  0  0  0
 20 22  1  0  0  0  0
 22 23  1  0  0  0  0
 22 24  1  0  0  0  0
 24 25  1  0  0  0  0
 24 26  1  0  0  0  0
 24 27  1  0  0  0  0
M  CHG  1  18  -1
M  END
$$$$

  -OEChem-03222214043D

 27 26  0     1  0  0  0  0  0999 V2000
   -3.1643   -3.7223    1.2580 H   0  0  0  0  0  0  0  0  0  0  0  0
   -3.0979   -2.8228    0.6397 C   0  0  0  0  0  0  0  0  0  0  0  0
   -3.9509   -2.1769    0.8616 H   0  0  0  0  0  0  0  0  0  0  0  0
   -3.1367   -3.1161   -0.4130 H   0  0  0  0  0  0  0  0  0  0  0  0
   -1.8009   -2.0849    0.9207 C   0  0  0  0  0  0  0  0  0  0  0  0
   -1.0345   -2.5044    1.7769 O   0  0  0  0  0  0  0  0  0  0  0  0
   -1.5229   -0.9232    0.2328 N   0  0  0  0  0  0  0  0  0  0  0  0
   -2.1841   -0.6491   -0.4901 H   0  0  0  0  0  0  0  0  0  0  0  0
   -0.2072   -0.2652    0.1934 C   0  0  1  0  0  0  0  0  0  0  0  0
    0.3830   -0.6455    1.0321 H   0  0  0  0  0  0  0  0  0  0  0  0
    0.6007   -0.5822   -1.0920 C   0  0  0  0  0  0  0  0  0  0  0  0
    0.5673    0.2997   -1.7421 H   0  0  0  0  0  0  0  0  0  0  0  0
    1.6506   -0.7436   -0.8264 H   0  0  0  0  0  0  0  0  0  0  0  0
    0.1026   -1.7788   -1.9343 C   0  0  0  0  0  0  0  0  0  0  0  0
    0.3459   -2.7143   -1.4230 H   0  0  0  0  0  0  0  0  0  0  0  0
   -0.9820   -1.7316   -2.0621 H   0  0  0  0  0  0  0  0  0  0  0  0
    0.7225   -1.7820   -3.3341 C   0  0  0  0  0  0  0  0  0  0  0  0
    1.9676   -1.6337   -3.4250 O   0  5  0  0  0  0  0  0  0  0  0  0
   -0.0495   -1.9610   -4.3088 O   0  0  0  0  0  0  0  0  0  0  0  0
   -0.3199    1.2593    0.4011 C   0  0  0  0  0  0  0  0  0  0  0  0
   -1.2415    1.9013   -0.0918 O   0  0  0  0  0  0  0  0  0  0  0  0
    0.5540    1.9019    1.2597 N   0  0  0  0  0  0  0  0  0  0  0  0
    1.3210    1.3536    1.6356 H   0  0  0  0  0  0  0  0  0  0  0  0
    0.5115    3.3325    1.5262 C   0  0  0  0  0  0  0  0  0  0  0  0
   -0.4497    3.6107    1.9701 H   0  0  0  0  0  0  0  0  0  0  0  0
    1.3073    3.6082    2.2241 H   0  0  0  0  0  0  0  0  0  0  0  0
    0.6515    3.8987    0.5997 H   0  0  0  0  0  0  0  0  0  0  0  0
  1  2  1  0  0  0  0
  2  3  1  0  0  0  0
  2  4  1  0  0  0  0
  2  5  1  0  0  0  0
  5  6  2  0  0  0  0
  5  7  1  0  0  0  0
  7  8  1  0  0  0  0
  7  9  1  0  0  0  0
  9 10  1  0  0  0  0
  9 11  1  0  0  0  0
  9 20  1  0  0  0  0
 11 12  1  0  0  0  0
 11 13  1  0  0  0  0
 11 14  1  0  0  0  0
 14 15  1  0  0  0  0
 14 16  1  0  0  0  0
 14 17  1  0  0  0  0
 17 18  1  0  0  0  0
 17 19  2  0  0  0  0
 20 21  2  0  0  0  0
 20 22  1  0  0  0  0
 22 23  1  0  0  0  0
 22 24  1  0  0  0  0
 24 25  1  0  0  0  0
 24 26  1  0  0  0  0
 24 27  1  0  0  0  0
M  CHG  1  18  -1
M  END
$$$$

  -OEChem-03222214043D

 27 26  0     1  0  0  0  0  0999 V2000
   -3.1908   -3.6810    1.2760 H   0  0  0  0  0  0  0  0  0  0  0  0
   -3.0929   -2.8068    0.6264 C   0  0  0  0  0  0  0  0  0  0  0  0
   -3.9405   -2.1396    0.8010 H   0  0  0  0  0  0  0  0  0  0  0  0
   -3.1085   -3.1382   -0.4153 H   0  0  0  0  0  0  0  0  0  0  0  0
   -1.7918   -2.0794    0.9138 C   0  0  0  0  0  0  0  0  0  0  0  0
   -1.0331   -2.5023    1.7749 O   0  0  0  0  0  0  0  0  0  0  0  0
   -1.5018   -0.9204    0.2272 N   0  0  0  0  0  0  0  0  0  0  0  0
   -2.1534   -0.6435   -0.5031 H   0  0  0  0  0  0  0  0  0  0  0  0
   -0.1815   -0.2710    0.1987 C   0  0  1  0  0  0  0  0  0  0  0  0
    0.4113   -0.6497    1.0364 H   0  0  0  0  0  0  0  0  0  0  0  0
    0.6133   -0.5774   -1.0980 C   0  0  0  0  0  0  0  0  0  0  0  0
    0.8651    0.3591   -1.6081 H   0  0  0  0  0  0  0  0  0  0  0  0
    1.5590   -1.0486   -0.8100 H   0  0  0  0  0  0  0  0  0  0  0  0
   -0.1015   -1.4934   -2.1166 C   0  0  0  0  0  0  0  0  0  0  0  0
   -0.3184   -2.4584   -1.6500 H   0  0  0  0  0  0  0  0  0  0  0  0
   -1.0475   -1.0328   -2.4176 H   0  0  0  0  0  0  0  0  0  0  0  0
    0.7352   -1.7565   -3.3738 C   0  0  0  0  0  0  0  0  0  0  0  0
    1.9891   -1.7616   -3.2766 O   0  5  0  0  0  0  0  0  0  0  0  0
    0.1020   -1.9869   -4.4335 O   0  0  0  0  0  0  0  0  0  0  0  0
   -0.3036    1.2530    0.4059 C   0  0  0  0  0  0  0  0  0  0  0  0
   -1.2225    1.8920   -0.0962 O   0  0  0  0  0  0  0  0  0  0  0  0
    0.5591    1.8985    1.2736 N   0  0  0  0  0  0  0  0  0  0  0  0
    1.3269    1.3542    1.6538 H   0  0  0  0  0  0  0  0  0  0  0  0
    0.5048    3.3282    1.5433 C   0  0  0  0  0  0  0  0  0  0  0  0
   -0.4671    3.6010    1.9672 H   0  0  0  0  0  0  0  0  0  0  0  0
    1.2839    3.6056    2.2594 H   0  0  0  0  0  0  0  0  0  0  0  0
    0.6621    3.8974    0.6213 H   0  0  0  0  0  0  0  0  0  0  0  0
  1  2  1  0  0  0  0
  2  3  1  0  0  0  0
  2  4  1  0  0  0  0
  2  5  1  0  0  0  0
  5  6  2  0  0  0  0
  5  7  1  0  0  0  0
  7  8  1  0  0  0  0
  7  9  1  0  0  0  0
  9 10  1  0  0  0  0
  9 11  1  0  0  0  0
  9 20  1  0  0  0  0
 11 12  1  0  0  0  0
 11 13  1  0  0  0  0
 11 14  1  0  0  0  0
 14 15  1  0  0  0  0
 14 16  1  0  0  0  0
 14 17  1  0  0  0  0
 17 18  1  0  0  0  0
 17 19  2  0  0  0  0
 20 21  2  0  0  0  0
 20 22  1  0  0  0  0
 22 23  1  0  0  0  0
 22 24  1  0  0  0  0
 24 25  1  0  0  0  0
 24 26  1  0  0  0  0
 24 27  1  0  0  0  0
M  CHG  1  18  -1
M  END
$$$$

  -OEChem-03222214043D

 27 26  0     1  0  0  0  0  0999 V2000
   -3.2229   -3.6790    1.2240 H   0  0  0  0  0  0  0  0  0  0  0  0
   -3.1289   -2.7842    0.6025 C   0  0  0  0  0  0  0  0  0  0  0  0
   -3.9797   -2.1267    0.7966 H   0  0  0  0  0  0  0  0  0  0  0  0
   -3.1418   -3.0841   -0.4489 H   0  0  0  0  0  0  0  0  0  0  0  0
   -1.8318   -2.0595    0.9142 C   0  0  0  0  0  0  0  0  0  0  0  0
   -1.0963   -2.4769    1.7981 O   0  0  0  0  0  0  0  0  0  0  0  0
   -1.5194   -0.9059    0.2274 N   0  0  0  0  0  0  0  0  0  0  0  0
   -2.1508   -0.6324   -0.5213 H   0  0  0  0  0  0  0  0  0  0  0  0
   -0.1858   -0.2841    0.2112 C   0  0  1  0  0  0  0  0  0  0  0  0
    0.3968   -0.6743    1.0508 H   0  0  0  0  0  0  0  0  0  0  0  0
    0.6119   -0.5907   -1.0848 C   0  0  0  0  0  0  0  0  0  0  0  0
    0.9049    0.3434   -1.5772 H   0  0  0  0  0  0  0  0  0  0  0  0
    1.5371   -1.0955   -0.7862 H   0  0  0  0  0  0  0  0  0  0  0  0
   -0.1013   -1.4799   -2.1302 C   0  0  0  0  0  0  0  0  0  0  0  0
   -0.5562   -2.3421   -1.6354 H   0  0  0  0  0  0  0  0  0  0  0  0
   -0.8920   -0.9044   -2.6196 H   0  0  0  0  0  0  0  0  0  0  0  0
    0.8552   -2.0324   -3.1932 C   0  0  0  0  0  0  0  0  0  0  0  0
    1.8906   -1.3764   -3.4743 O   0  5  0  0  0  0  0  0  0  0  0  0
    0.5235   -3.1111   -3.7444 O   0  0  0  0  0  0  0  0  0  0  0  0
   -0.2874    1.2418    0.4184 C   0  0  0  0  0  0  0  0  0  0  0  0
   -1.1858    1.8964   -0.1014 O   0  0  0  0  0  0  0  0  0  0  0  0
    0.5756    1.8746    1.2951 N   0  0  0  0  0  0  0  0  0  0  0  0
    1.3236    1.3161    1.6937 H   0  0  0  0  0  0  0  0  0  0  0  0
    0.5444    3.3060    1.5588 C   0  0  0  0  0  0  0  0  0  0  0  0
   -0.4290    3.5992    1.9652 H   0  0  0  0  0  0  0  0  0  0  0  0
    1.3167    3.5711    2.2870 H   0  0  0  0  0  0  0  0  0  0  0  0
    0.7277    3.8681    0.6373 H   0  0  0  0  0  0  0  0  0  0  0  0
  1  2  1  0  0  0  0
  2  3  1  0  0  0  0
  2  4  1  0  0  0  0
  2  5  1  0  0  0  0
  5  6  2  0  0  0  0
  5  7  1  0  0  0  0
  7  8  1  0  0  0  0
  7  9  1  0  0  0  0
  9 10  1  0  0  0  0
  9 11  1  0  0  0  0
  9 20  1  0  0  0  0
 11 12  1  0  0  0  0
 11 13  1  0  0  0  0
 11 14  1  0  0  0  0
 14 15  1  0  0  0  0
 14 16  1  0  0  0  0
 14 17  1  0  0  0  0
 17 18  1  0  0  0  0
 17 19  2  0  0  0  0
 20 21  2  0  0  0  0
 20 22  1  0  0  0  0
 22 23  1  0  0  0  0
 22 24  1  0  0  0  0
 24 25  1  0  0  0  0
 24 26  1  0  0  0  0
 24 27  1  0  0  0  0
M  CHG  1  18  -1
M  END
$$$$

  -OEChem-03222214043D

 27 26  0     1  0  0  0  0  0999 V2000
   -3.2436   -3.6798    1.2297 H   0  0  0  0  0  0  0  0  0  0  0  0
   -3.1530   -2.7814    0.6129 C   0  0  0  0  0  0  0  0  0  0  0  0
   -4.0080   -2.1294    0.8080 H   0  0  0  0  0  0  0  0  0  0  0  0
   -3.1613   -3.0764   -0.4399 H   0  0  0  0  0  0  0  0  0  0  0  0
   -1.8595   -2.0534    0.9318 C   0  0  0  0  0  0  0  0  0  0  0  0
   -1.1381   -2.4568    1.8335 O   0  0  0  0  0  0  0  0  0  0  0  0
   -1.5421   -0.9032    0.2409 N   0  0  0  0  0  0  0  0  0  0  0  0
   -2.1659   -0.6396   -0.5174 H   0  0  0  0  0  0  0  0  0  0  0  0
   -0.2036   -0.2935    0.2199 C   0  0  1  0  0  0  0  0  0  0  0  0
    0.3770   -0.6876    1.0593 H   0  0  0  0  0  0  0  0  0  0  0  0
    0.5979   -0.5942   -1.0777 C   0  0  0  0  0  0  0  0  0  0  0  0
    0.9143    0.3391   -1.5565 H   0  0  0  0  0  0  0  0  0  0  0  0
    1.5132   -1.1070   -0.7619 H   0  0  0  0  0  0  0  0  0  0  0  0
   -0.0880   -1.4715   -2.1561 C   0  0  0  0  0  0  0  0  0  0  0  0
   -0.7630   -2.1971   -1.6980 H   0  0  0  0  0  0  0  0  0  0  0  0
   -0.6766   -0.8369   -2.8241 H   0  0  0  0  0  0  0  0  0  0  0  0
    0.9270   -2.2813   -2.9700 C   0  0  0  0  0  0  0  0  0  0  0  0
    1.9758   -1.7015   -3.3505 O   0  5  0  0  0  0  0  0  0  0  0  0
    0.6335   -3.4733   -3.2362 O   0  0  0  0  0  0  0  0  0  0  0  0
   -0.2947    1.2333    0.4255 C   0  0  0  0  0  0  0  0  0  0  0  0
   -1.1798    1.8964   -0.1061 O   0  0  0  0  0  0  0  0  0  0  0  0
    0.5748    1.8612    1.2994 N   0  0  0  0  0  0  0  0  0  0  0  0
    1.3123    1.2946    1.7060 H   0  0  0  0  0  0  0  0  0  0  0  0
    0.5630    3.2946    1.5534 C   0  0  0  0  0  0  0  0  0  0  0  0
   -0.4070    3.6043    1.9555 H   0  0  0  0  0  0  0  0  0  0  0  0
    1.3373    3.5535    2.2816 H   0  0  0  0  0  0  0  0  0  0  0  0
    0.7570    3.8483    0.6291 H   0  0  0  0  0  0  0  0  0  0  0  0
  1  2  1  0  0  0  0
  2  3  1  0  0  0  0
  2  4  1  0  0  0  0
  2  5  1  0  0  0  0
  5  6  2  0  0  0  0
  5  7  1  0  0  0  0
  7  8  1  0  0  0  0
  7  9  1  0  0  0  0
  9 10  1  0  0  0  0
  9 11  1  0  0  0  0
  9 20  1  0  0  0  0
 11 12  1  0  0  0  0
 11 13  1  0  0  0  0
 11 14  1  0  0  0  0
 14 15  1  0  0  0  0
 14 16  1  0  0  0  0
 14 17  1  0  0  0  0
 17 18  1  0  0  0  0
 17 19  2  0  0  0  0
 20 21  2  0  0  0  0
 20 22  1  0  0  0  0
 22 23  1  0  0  0  0
 22 24  1  0  0  0  0
 24 25  1  0  0  0  0
 24 26  1  0  0  0  0
 24 27  1  0  0  0  0
M  CHG  1  18  -1
M  END
$$$$

  -OEChem-03222214043D

 27 26  0     1  0  0  0  0  0999 V2000
   -3.2327   -3.6795    1.2379 H   0  0  0  0  0  0  0  0  0  0  0  0
   -3.1319   -2.8023    0.5928 C   0  0  0  0  0  0  0  0  0  0  0  0
   -4.0132   -2.1680    0.7153 H   0  0  0  0  0  0  0  0  0  0  0  0
   -3.0734   -3.1371   -0.4465 H   0  0  0  0  0  0  0  0  0  0  0  0
   -1.8779   -2.0265    0.9534 C   0  0  0  0  0  0  0  0  0  0  0  0
   -1.1914   -2.3817    1.9017 O   0  0  0  0  0  0  0  0  0  0  0  0
   -1.5632   -0.8812    0.2523 N   0  0  0  0  0  0  0  0  0  0  0  0
   -2.1565   -0.6651   -0.5443 H   0  0  0  0  0  0  0  0  0  0  0  0
   -0.2188   -0.2862    0.2313 C   0  0  1  0  0  0  0  0  0  0  0  0
    0.3582   -0.6834    1.0718 H   0  0  0  0  0  0  0  0  0  0  0  0
    0.5842   -0.5954   -1.0659 C   0  0  0  0  0  0  0  0  0  0  0  0
    0.9075    0.3380   -1.5395 H   0  0  0  0  0  0  0  0  0  0  0  0
    1.4989   -1.1043   -0.7423 H   0  0  0  0  0  0  0  0  0  0  0  0
   -0.0871   -1.4659   -2.1651 C   0  0  0  0  0  0  0  0  0  0  0  0
   -0.9719   -1.9882   -1.8007 H   0  0  0  0  0  0  0  0  0  0  0  0
   -0.4103   -0.8181   -2.9847 H   0  0  0  0  0  0  0  0  0  0  0  0
    0.8638   -2.5341   -2.7123 C   0  0  0  0  0  0  0  0  0  0  0  0
    1.9826   -2.1567   -3.1432 O   0  5  0  0  0  0  0  0  0  0  0  0
    0.4572   -3.7226   -2.7213 O   0  0  0  0  0  0  0  0  0  0  0  0
   -0.2943    1.2424    0.4305 C   0  0  0  0  0  0  0  0  0  0  0  0
   -1.1506    1.9195   -0.1299 O   0  0  0  0  0  0  0  0  0  0  0  0
    0.5801    1.8635    1.3042 N   0  0  0  0  0  0  0  0  0  0  0  0
    1.2798    1.2812    1.7536 H   0  0  0  0  0  0  0  0  0  0  0  0
    0.5765    3.2957    1.5641 C   0  0  0  0  0  0  0  0  0  0  0  0
   -0.3906    3.6079    1.9712 H   0  0  0  0  0  0  0  0  0  0  0  0
    1.3551    3.5478    2.2902 H   0  0  0  0  0  0  0  0  0  0  0  0
    0.7694    3.8523    0.6413 H   0  0  0  0  0  0  0  0  0  0  0  0
  1  2  1  0  0  0  0
  2  3  1  0  0  0  0
  2  4  1  0  0  0  0
  2  5  1  0  0  0  0
  5  6  2  0  0  0  0
  5  7  1  0  0  0  0
  7  8  1  0  0  0  0
  7  9  1  0  0  0  0
  9 10  1  0  0  0  0
  9 11  1  0  0  0  0
  9 20  1  0  0  0  0
 11 12  1  0  0  0  0
 11 13  1  0  0  0  0
 11 14  1  0  0  0  0
 14 15  1  0  0  0  0
 14 16  1  0  0  0  0
 14 17  1  0  0  0  0
 17 18  1  0  0  0  0
 17 19  2  0  0  0  0
 20 21  2  0  0  0  0
 20 22  1  0  0  0  0
 22 23  1  0  0  0  0
 22 24  1  0  0  0  0
 24 25  1  0  0  0  0
 24 26  1  0  0  0  0
 24 27  1  0  0  0  0
M  CHG  1  18  -1
M  END
$$$$

  -OEChem-03222214043D

 27 26  0     1  0  0  0  0  0999 V2000
   -3.1720   -3.7047    1.2067 H   0  0  0  0  0  0  0  0  0  0  0  0
   -3.0554   -2.8553    0.5282 C   0  0  0  0  0  0  0  0  0  0  0  0
   -3.9793   -2.2724    0.5259 H   0  0  0  0  0  0  0  0  0  0  0  0
   -2.8692   -3.2368   -0.4799 H   0  0  0  0  0  0  0  0  0  0  0  0
   -1.8910   -1.9870    0.9686 C   0  0  0  0  0  0  0  0  0  0  0  0
   -1.2711   -2.2617    1.9877 O   0  0  0  0  0  0  0  0  0  0  0  0
   -1.5852   -0.8454    0.2566 N   0  0  0  0  0  0  0  0  0  0  0  0
   -2.1286   -0.7015   -0.5901 H   0  0  0  0  0  0  0  0  0  0  0  0
   -0.2352   -0.2635    0.2461 C   0  0  1  0  0  0  0  0  0  0  0  0
    0.3341   -0.6650    1.0899 H   0  0  0  0  0  0  0  0  0  0  0  0
    0.5693   -0.5939   -1.0462 C   0  0  0  0  0  0  0  0  0  0  0  0
    0.8767    0.3411   -1.5269 H   0  0  0  0  0  0  0  0  0  0  0  0
    1.4952   -1.0881   -0.7319 H   0  0  0  0  0  0  0  0  0  0  0  0
   -0.1106   -1.4636   -2.1423 C   0  0  0  0  0  0  0  0  0  0  0  0
   -1.1492   -1.7119   -1.9255 H   0  0  0  0  0  0  0  0  0  0  0  0
   -0.1257   -0.8865   -3.0713 H   0  0  0  0  0  0  0  0  0  0  0  0
    0.6576   -2.7571   -2.4128 C   0  0  0  0  0  0  0  0  0  0  0  0
    1.8259   -2.6660   -2.8657 O   0  5  0  0  0  0  0  0  0  0  0  0
    0.0624   -3.8367   -2.1726 O   0  0  0  0  0  0  0  0  0  0  0  0
   -0.2908    1.2670    0.4381 C   0  0  0  0  0  0  0  0  0  0  0  0
   -1.1123    1.9590   -0.1551 O   0  0  0  0  0  0  0  0  0  0  0  0
    0.5844    1.8790    1.3173 N   0  0  0  0  0  0  0  0  0  0  0  0
    1.2419    1.2822    1.8093 H   0  0  0  0  0  0  0  0  0  0  0  0
    0.5936    3.3109    1.5786 C   0  0  0  0  0  0  0  0  0  0  0  0
   -0.3683    3.6302    1.9924 H   0  0  0  0  0  0  0  0  0  0  0  0
    1.3793    3.5563    2.2991 H   0  0  0  0  0  0  0  0  0  0  0  0
    0.7849    3.8670    0.6551 H   0  0  0  0  0  0  0  0  0  0  0  0
  1  2  1  0  0  0  0
  2  3  1  0  0  0  0
  2  4  1  0  0  0  0
  2  5  1  0  0  0  0
  5  6  2  0  0  0  0
  5  7  1  0  0  0  0
  7  8  1  0  0  0  0
  7  9  1  0  0  0  0
  9 10  1  0  0  0  0
  9 11  1  0  0  0  0
  9 20  1  0  0  0  0
 11 12  1  0  0  0  0
 11 13  1  0  0  0  0
 11 14  1  0  0  0  0
 14 15  1  0  0  0  0
 14 16  1  0  0  0  0
 14 17  1  0  0  0  0
 17 18  1  0  0  0  0
 17 19  2  0  0  0  0
 20 21  2  0  0  0  0
 20 22  1  0  0  0  0
 22 23  1  0  0  0  0
 22 24  1  0  0  0  0
 24 25  1  0  0  0  0
 24 26  1  0  0  0  0
 24 27  1  0  0  0  0
M  CHG  1  18  -1
M  END
$$$$

  -OEChem-03222214043D

 27 26  0     1  0  0  0  0  0999 V2000
   -3.1180   -3.7309    1.1857 H   0  0  0  0  0  0  0  0  0  0  0  0
   -3.0192   -2.8765    0.5109 C   0  0  0  0  0  0  0  0  0  0  0  0
   -3.9567   -2.3162    0.5042 H   0  0  0  0  0  0  0  0  0  0  0  0
   -2.8182   -3.2510   -0.4967 H   0  0  0  0  0  0  0  0  0  0  0  0
   -1.8781   -1.9819    0.9597 C   0  0  0  0  0  0  0  0  0  0  0  0
   -1.3008   -2.2051    2.0170 O   0  0  0  0  0  0  0  0  0  0  0  0
   -1.5777   -0.8420    0.2412 N   0  0  0  0  0  0  0  0  0  0  0  0
   -2.0888   -0.7413   -0.6312 H   0  0  0  0  0  0  0  0  0  0  0  0
   -0.2286   -0.2563    0.2508 C   0  0  1  0  0  0  0  0  0  0  0  0
    0.3333   -0.6561    1.1002 H   0  0  0  0  0  0  0  0  0  0  0  0
    0.5833   -0.5923   -1.0352 C   0  0  0  0  0  0  0  0  0  0  0  0
    0.8684    0.3461   -1.5229 H   0  0  0  0  0  0  0  0  0  0  0  0
    1.5203   -1.0734   -0.7342 H   0  0  0  0  0  0  0  0  0  0  0  0
   -0.1101   -1.4622   -2.1179 C   0  0  0  0  0  0  0  0  0  0  0  0
   -1.1997   -1.4439   -2.0650 H   0  0  0  0  0  0  0  0  0  0  0  0
    0.1424   -1.0345   -3.0925 H   0  0  0  0  0  0  0  0  0  0  0  0
    0.4041   -2.9000   -2.1289 C   0  0  0  0  0  0  0  0  0  0  0  0
    1.5933   -3.1058   -2.4773 O   0  5  0  0  0  0  0  0  0  0  0  0
   -0.4111   -3.7929   -1.7882 O   0  0  0  0  0  0  0  0  0  0  0  0
   -0.2881    1.2754    0.4340 C   0  0  0  0  0  0  0  0  0  0  0  0
   -1.0789    1.9693   -0.1975 O   0  0  0  0  0  0  0  0  0  0  0  0
    0.5722    1.8912    1.3255 N   0  0  0  0  0  0  0  0  0  0  0  0
    1.1896    1.2910    1.8634 H   0  0  0  0  0  0  0  0  0  0  0  0
    0.5789    3.3247    1.5786 C   0  0  0  0  0  0  0  0  0  0  0  0
   -0.3883    3.6468    1.9775 H   0  0  0  0  0  0  0  0  0  0  0  0
    1.3555    3.5739    2.3075 H   0  0  0  0  0  0  0  0  0  0  0  0
    0.7828    3.8753    0.6546 H   0  0  0  0  0  0  0  0  0  0  0  0
  1  2  1  0  0  0  0
  2  3  1  0  0  0  0
  2  4  1  0  0  0  0
  2  5  1  0  0  0  0
  5  6  2  0  0  0  0
  5  7  1  0  0  0  0
  7  8  1  0  0  0  0
  7  9  1  0  0  0  0
  9 10  1  0  0  0  0
  9 11  1  0  0  0  0
  9 20  1  0  0  0  0
 11 12  1  0  0  0  0
 11 13  1  0  0  0  0
 11 14  1  0  0  0  0
 14 15  1  0  0  0  0
 14 16  1  0  0  0  0
 14 17  1  0  0  0  0
 17 18  1  0  0  0  0
 17 19  2  0  0  0  0
 20 21  2  0  0  0  0
 20 22  1  0  0  0  0
 22 23  1  0  0  0  0
 22 24  1  0  0  0  0
 24 25  1  0  0  0  0
 24 26  1  0  0  0  0
 24 27  1  0  0  0  0
M  CHG  1  18  -1
M  END
$$$$

  -OEChem-03222214043D

 27 26  0     1  0  0  0  0  0999 V2000
   -3.0393   -3.8078    1.0566 H   0  0  0  0  0  0  0  0  0  0  0  0
   -3.0828   -2.8285    0.5727 C   0  0  0  0  0  0  0  0  0  0  0  0
   -3.9895   -2.3091    0.8901 H   0  0  0  0  0  0  0  0  0  0  0  0
   -3.1185   -2.9798   -0.5092 H   0  0  0  0  0  0  0  0  0  0  0  0
   -1.8583   -2.0106    0.9423 C   0  0  0  0  0  0  0  0  0  0  0  0
   -1.2701   -2.2368    1.9938 O   0  0  0  0  0  0  0  0  0  0  0  0
   -1.5448   -0.8766    0.2184 N   0  0  0  0  0  0  0  0  0  0  0  0
   -2.0507   -0.7805   -0.6577 H   0  0  0  0  0  0  0  0  0  0  0  0
   -0.2009   -0.2766    0.2472 C   0  0  1  0  0  0  0  0  0  0  0  0
    0.3544   -0.6652    1.1059 H   0  0  0  0  0  0  0  0  0  0  0  0
    0.6316   -0.5962   -1.0296 C   0  0  0  0  0  0  0  0  0  0  0  0
    0.9108    0.3457   -1.5139 H   0  0  0  0  0  0  0  0  0  0  0  0
    1.5690   -1.0737   -0.7253 H   0  0  0  0  0  0  0  0  0  0  0  0
   -0.0504   -1.4658   -2.1123 C   0  0  0  0  0  0  0  0  0  0  0  0
   -1.1159   -1.2430   -2.2078 H   0  0  0  0  0  0  0  0  0  0  0  0
    0.3996   -1.2094   -3.0758 H   0  0  0  0  0  0  0  0  0  0  0  0
    0.1833   -2.9615   -1.9073 C   0  0  0  0  0  0  0  0  0  0  0  0
    1.3581   -3.3970   -1.9939 O   0  5  0  0  0  0  0  0  0  0  0  0
   -0.8310   -3.6681   -1.6837 O   0  0  0  0  0  0  0  0  0  0  0  0
   -0.2864    1.2562    0.4112 C   0  0  0  0  0  0  0  0  0  0  0  0
   -1.0661    1.9349   -0.2502 O   0  0  0  0  0  0  0  0  0  0  0  0
    0.5477    1.8927    1.3132 N   0  0  0  0  0  0  0  0  0  0  0  0
    1.1429    1.3035    1.8870 H   0  0  0  0  0  0  0  0  0  0  0  0
    0.5264    3.3281    1.5557 C   0  0  0  0  0  0  0  0  0  0  0  0
   -0.4484    3.6354    1.9481 H   0  0  0  0  0  0  0  0  0  0  0  0
    1.2953    3.5968    2.2860 H   0  0  0  0  0  0  0  0  0  0  0  0
    0.7244    3.8760    0.6286 H   0  0  0  0  0  0  0  0  0  0  0  0
  1  2  1  0  0  0  0
  2  3  1  0  0  0  0
  2  4  1  0  0  0  0
  2  5  1  0  0  0  0
  5  6  2  0  0  0  0
  5  7  1  0  0  0  0
  7  8  1  0  0  0  0
  7  9  1  0  0  0  0
  9 10  1  0  0  0  0
  9 11  1  0  0  0  0
  9 20  1  0  0  0  0
 11 12  1  0  0  0  0
 11 13  1  0  0  0  0
 11 14  1  0  0  0  0
 14 15  1  0  0  0  0
 14 16  1  0  0  0  0
 14 17  1  0  0  0  0
 17 18  1  0  0  0  0
 17 19  2  0  0  0  0
 20 21  2  0  0  0  0
 20 22  1  0  0  0  0
 22 23  1  0  0  0  0
 22 24  1  0  0  0  0
 24 25  1  0  0  0  0
 24 26  1  0  0  0  0
 24 27  1  0  0  0  0
M  CHG  1  18  -1
M  END
$$$$

  -OEChem-03222214043D

 27 26  0     1  0  0  0  0  0999 V2000
   -2.8607   -3.8713    0.6361 H   0  0  0  0  0  0  0  0  0  0  0  0
   -3.1073   -2.8062    0.6236 C   0  0  0  0  0  0  0  0  0  0  0  0
   -3.8998   -2.6080    1.3483 H   0  0  0  0  0  0  0  0  0  0  0  0
   -3.4658   -2.5482   -0.3761 H   0  0  0  0  0  0  0  0  0  0  0  0
   -1.8711   -1.9943    0.9656 C   0  0  0  0  0  0  0  0  0  0  0  0
   -1.3032   -2.1907    2.0344 O   0  0  0  0  0  0  0  0  0  0  0  0
   -1.5364   -0.8812    0.2170 N   0  0  0  0  0  0  0  0  0  0  0  0
   -2.0124   -0.8271   -0.6804 H   0  0  0  0  0  0  0  0  0  0  0  0
   -0.1877   -0.2897    0.2593 C   0  0  1  0  0  0  0  0  0  0  0  0
    0.3568   -0.6655    1.1303 H   0  0  0  0  0  0  0  0  0  0  0  0
    0.6617   -0.6095   -1.0074 C   0  0  0  0  0  0  0  0  0  0  0  0
    0.9700    0.3263   -1.4855 H   0  0  0  0  0  0  0  0  0  0  0  0
    1.5817   -1.1087   -0.6854 H   0  0  0  0  0  0  0  0  0  0  0  0
   -0.0053   -1.4719   -2.1010 C   0  0  0  0  0  0  0  0  0  0  0  0
   -0.9925   -1.0699   -2.3480 H   0  0  0  0  0  0  0  0  0  0  0  0
    0.6024   -1.4000   -3.0073 H   0  0  0  0  0  0  0  0  0  0  0  0
   -0.1088   -2.9545   -1.7459 C   0  0  0  0  0  0  0  0  0  0  0  0
    0.9466   -3.5738   -1.4663 O   0  5  0  0  0  0  0  0  0  0  0  0
   -1.2550   -3.4676   -1.7815 O   0  0  0  0  0  0  0  0  0  0  0  0
   -0.2768    1.2471    0.3833 C   0  0  0  0  0  0  0  0  0  0  0  0
   -1.0343    1.9139   -0.3151 O   0  0  0  0  0  0  0  0  0  0  0  0
    0.5390    1.9026    1.2883 N   0  0  0  0  0  0  0  0  0  0  0  0
    1.1018    1.3233    1.9033 H   0  0  0  0  0  0  0  0  0  0  0  0
    0.4958    3.3401    1.5139 C   0  0  0  0  0  0  0  0  0  0  0  0
   -0.4901    3.6386    1.8847 H   0  0  0  0  0  0  0  0  0  0  0  0
    1.2476    3.6269    2.2550 H   0  0  0  0  0  0  0  0  0  0  0  0
    0.7040    3.8804    0.5847 H   0  0  0  0  0  0  0  0  0  0  0  0
  1  2  1  0  0  0  0
  2  3  1  0  0  0  0
  2  4  1  0  0  0  0
  2  5  1  0  0  0  0
  5  6  2  0  0  0  0
  5  7  1  0  0  0  0
  7  8  1  0  0  0  0
  7  9  1  0  0  0  0
  9 10  1  0  0  0  0
  9 11  1  0  0  0  0
  9 20  1  0  0  0  0
 11 12  1  0  0  0  0
 11 13  1  0  0  0  0
 11 14  1  0  0  0  0
 14 15  1  0  0  0  0
 14 16  1  0  0  0  0
 14 17  1  0  0  0  0
 17 18  1  0  0  0  0
 17 19  2  0  0  0  0
 20 21  2  0  0  0  0
 20 22  1  0  0  0  0
 22 23  1  0  0  0  0
 22 24  1  0  0  0  0
 24 25  1  0  0  0  0
 24 26  1  0  0  0  0
 24 27  1  0  0  0  0
M  CHG  1  18  -1
M  END
$$$$

  -OEChem-03222214043D

 27 26  0     1  0  0  0  0  0999 V2000
   -2.8222   -3.8207    0.4495 H   0  0  0  0  0  0  0  0  0  0  0  0
   -3.1254   -2.8006    0.7010 C   0  0  0  0  0  0  0  0  0  0  0  0
   -3.7969   -2.8259    1.5622 H   0  0  0  0  0  0  0  0  0  0  0  0
   -3.6596   -2.3772   -0.1533 H   0  0  0  0  0  0  0  0  0  0  0  0
   -1.8944   -1.9704    1.0195 C   0  0  0  0  0  0  0  0  0  0  0  0
   -1.3438   -2.1209    2.1055 O   0  0  0  0  0  0  0  0  0  0  0  0
   -1.5552   -0.8783    0.2399 N   0  0  0  0  0  0  0  0  0  0  0  0
   -2.0072   -0.8777   -0.6735 H   0  0  0  0  0  0  0  0  0  0  0  0
   -0.1986   -0.3025    0.2794 C   0  0  1  0  0  0  0  0  0  0  0  0
    0.3408   -0.6654    1.1592 H   0  0  0  0  0  0  0  0  0  0  0  0
    0.6676   -0.6188   -0.9809 C   0  0  0  0  0  0  0  0  0  0  0  0
    1.0183    0.3129   -1.4378 H   0  0  0  0  0  0  0  0  0  0  0  0
    1.5610   -1.1479   -0.6333 H   0  0  0  0  0  0  0  0  0  0  0  0
    0.0471   -1.4683   -2.1109 C   0  0  0  0  0  0  0  0  0  0  0  0
   -0.8065   -0.9247   -2.5277 H   0  0  0  0  0  0  0  0  0  0  0  0
    0.7869   -1.5713   -2.9097 H   0  0  0  0  0  0  0  0  0  0  0  0
   -0.3996   -2.8717   -1.7113 C   0  0  0  0  0  0  0  0  0  0  0  0
    0.4427   -3.6373   -1.1845 O   0  5  0  0  0  0  0  0  0  0  0  0
   -1.5999   -3.1689   -1.9352 O   0  0  0  0  0  0  0  0  0  0  0  0
   -0.2853    1.2380    0.3684 C   0  0  0  0  0  0  0  0  0  0  0  0
   -1.0267    1.8970   -0.3546 O   0  0  0  0  0  0  0  0  0  0  0  0
    0.5268    1.9068    1.2674 N   0  0  0  0  0  0  0  0  0  0  0  0
    1.0674    1.3348    1.9085 H   0  0  0  0  0  0  0  0  0  0  0  0
    0.4848    3.3478    1.4700 C   0  0  0  0  0  0  0  0  0  0  0  0
   -0.5035    3.6549    1.8268 H   0  0  0  0  0  0  0  0  0  0  0  0
    1.2303    3.6440    2.2137 H   0  0  0  0  0  0  0  0  0  0  0  0
    0.7032    3.8730    0.5345 H   0  0  0  0  0  0  0  0  0  0  0  0
  1  2  1  0  0  0  0
  2  3  1  0  0  0  0
  2  4  1  0  0  0  0
  2  5  1  0  0  0  0
  5  6  2  0  0  0  0
  5  7  1  0  0  0  0
  7  8  1  0  0  0  0
  7  9  1  0  0  0  0
  9 10  1  0  0  0  0
  9 11  1  0  0  0  0
  9 20  1  0  0  0  0
 11 12  1  0  0  0  0
 11 13  1  0  0  0  0
 11 14  1  0  0  0  0
 14 15  1  0  0  0  0
 14 16  1  0  0  0  0
 14 17  1  0  0  0  0
 17 18  1  0  0  0  0
 17 19  2  0  0  0  0
 20 21  2  0  0  0  0
 20 22  1  0  0  0  0
 22 23  1  0  0  0  0
 22 24  1  0  0  0  0
 24 25  1  0  0  0  0
 24 26  1  0  0  0  0
 24 27  1  0  0  0  0
M  CHG  1  18  -1
M  END
$$$$

  -OEChem-03222214043D

 27 26  0     1  0  0  0  0  0999 V2000
   -2.8223   -3.7506    0.3571 H   0  0  0  0  0  0  0  0  0  0  0  0
   -3.1441   -2.7912    0.7713 C   0  0  0  0  0  0  0  0  0  0  0  0
   -3.7207   -2.9686    1.6821 H   0  0  0  0  0  0  0  0  0  0  0  0
   -3.7833   -2.2917    0.0390 H   0  0  0  0  0  0  0  0  0  0  0  0
   -1.9257   -1.9373    1.0766 C   0  0  0  0  0  0  0  0  0  0  0  0
   -1.3747   -2.0631    2.1665 O   0  0  0  0  0  0  0  0  0  0  0  0
   -1.5872   -0.8624    0.2717 N   0  0  0  0  0  0  0  0  0  0  0  0
   -2.0252   -0.9091   -0.6508 H   0  0  0  0  0  0  0  0  0  0  0  0
   -0.2229   -0.3050    0.2999 C   0  0  1  0  0  0  0  0  0  0  0  0
    0.3109   -0.6535    1.1884 H   0  0  0  0  0  0  0  0  0  0  0  0
    0.6598   -0.6316   -0.9505 C   0  0  0  0  0  0  0  0  0  0  0  0
    1.0549    0.2923   -1.3868 H   0  0  0  0  0  0  0  0  0  0  0  0
    1.5243   -1.1835   -0.5678 H   0  0  0  0  0  0  0  0  0  0  0  0
    0.1016   -1.4789   -2.1185 C   0  0  0  0  0  0  0  0  0  0  0  0
   -0.5574   -0.8355   -2.7097 H   0  0  0  0  0  0  0  0  0  0  0  0
    0.9354   -1.7656   -2.7656 H   0  0  0  0  0  0  0  0  0  0  0  0
   -0.6715   -2.7431   -1.7613 C   0  0  0  0  0  0  0  0  0  0  0  0
   -0.0589   -3.6727   -1.1845 O   0  5  0  0  0  0  0  0  0  0  0  0
   -1.8994   -2.7513   -2.0316 O   0  0  0  0  0  0  0  0  0  0  0  0
   -0.3009    1.2378    0.3632 C   0  0  0  0  0  0  0  0  0  0  0  0
   -1.0248    1.8938   -0.3795 O   0  0  0  0  0  0  0  0  0  0  0  0
    0.5165    1.9152    1.2513 N   0  0  0  0  0  0  0  0  0  0  0  0
    1.0343    1.3501    1.9167 H   0  0  0  0  0  0  0  0  0  0  0  0
    0.4784    3.3591    1.4322 C   0  0  0  0  0  0  0  0  0  0  0  0
   -0.5044    3.6714    1.7998 H   0  0  0  0  0  0  0  0  0  0  0  0
    1.2357    3.6667    2.1591 H   0  0  0  0  0  0  0  0  0  0  0  0
    0.6819    3.8695    0.4852 H   0  0  0  0  0  0  0  0  0  0  0  0
  1  2  1  0  0  0  0
  2  3  1  0  0  0  0
  2  4  1  0  0  0  0
  2  5  1  0  0  0  0
  5  6  2  0  0  0  0
  5  7  1  0  0  0  0
  7  8  1  0  0  0  0
  7  9  1  0  0  0  0
  9 10  1  0  0  0  0
  9 11  1  0  0  0  0
  9 20  1  0  0  0  0
 11 12  1  0  0  0  0
 11 13  1  0  0  0  0
 11 14  1  0  0  0  0
 14 15  1  0  0  0  0
 14 16  1  0  0  0  0
 14 17  1  0  0  0  0
 17 18  1  0  0  0  0
 17 19  2  0  0  0  0
 20 21  2  0  0  0  0
 20 22  1  0  0  0  0
 22 23  1  0  0  0  0
 22 24  1  0  0  0  0
 24 25  1  0  0  0  0
 24 26  1  0  0  0  0
 24 27  1  0  0  0  0
M  CHG  1  18  -1
M  END
$$$$

  -OEChem-03222214043D

 27 26  0     1  0  0  0  0  0999 V2000
   -3.6372   -3.1591    1.6640 H   0  0  0  0  0  0  0  0  0  0  0  0
   -3.1496   -2.8199    0.7472 C   0  0  0  0  0  0  0  0  0  0  0  0
   -3.8694   -2.2533    0.1510 H   0  0  0  0  0  0  0  0  0  0  0  0
   -2.8273   -3.6912    0.1706 H   0  0  0  0  0  0  0  0  0  0  0  0
   -1.9457   -1.9548    1.0782 C   0  0  0  0  0  0  0  0  0  0  0  0
   -1.3726   -2.1175    2.1523 O   0  0  0  0  0  0  0  0  0  0  0  0
   -1.6220   -0.8590    0.2969 N   0  0  0  0  0  0  0  0  0  0  0  0
   -2.0718   -0.8920   -0.6249 H   0  0  0  0  0  0  0  0  0  0  0  0
   -0.2633   -0.2916    0.3183 C   0  0  1  0  0  0  0  0  0  0  0  0
    0.2728   -0.6495    1.2014 H   0  0  0  0  0  0  0  0  0  0  0  0
    0.6314   -0.5973   -0.9324 C   0  0  0  0  0  0  0  0  0  0  0  0
    1.0286    0.3373   -1.3432 H   0  0  0  0  0  0  0  0  0  0  0  0
    1.4934   -1.1425   -0.5350 H   0  0  0  0  0  0  0  0  0  0  0  0
    0.1409   -1.4412   -2.1410 C   0  0  0  0  0  0  0  0  0  0  0  0
   -0.2948   -0.7460   -2.8653 H   0  0  0  0  0  0  0  0  0  0  0  0
    1.0136   -1.8913   -2.6230 H   0  0  0  0  0  0  0  0  0  0  0  0
   -0.8894   -2.5405   -1.9064 C   0  0  0  0  0  0  0  0  0  0  0  0
   -0.4914   -3.6309   -1.4323 O   0  5  0  0  0  0  0  0  0  0  0  0
   -2.0927   -2.2608   -2.1463 O   0  0  0  0  0  0  0  0  0  0  0  0
   -0.3435    1.2495    0.4182 C   0  0  0  0  0  0  0  0  0  0  0  0
   -1.0673    1.9254   -0.3055 O   0  0  0  0  0  0  0  0  0  0  0  0
    0.4870    1.9057    1.3105 N   0  0  0  0  0  0  0  0  0  0  0  0
    1.0120    1.3265    1.9575 H   0  0  0  0  0  0  0  0  0  0  0  0
    0.4746    3.3482    1.5057 C   0  0  0  0  0  0  0  0  0  0  0  0
   -0.5055    3.6768    1.8665 H   0  0  0  0  0  0  0  0  0  0  0  0
    1.2304    3.6336    2.2432 H   0  0  0  0  0  0  0  0  0  0  0  0
    0.6980    3.8634    0.5656 H   0  0  0  0  0  0  0  0  0  0  0  0
  1  2  1  0  0  0  0
  2  3  1  0  0  0  0
  2  4  1  0  0  0  0
  2  5  1  0  0  0  0
  5  6  2  0  0  0  0
  5  7  1  0  0  0  0
  7  8  1  0  0  0  0
  7  9  1  0  0  0  0
  9 10  1  0  0  0  0
  9 11  1  0  0  0  0
  9 20  1  0  0  0  0
 11 12  1  0  0  0  0
 11 13  1  0  0  0  0
 11 14  1  0  0  0  0
 14 15  1  0  0  0  0
 14 16  1  0  0  0  0
 14 17  1  0  0  0  0
 17 18  1  0  0  0  0
 17 19  2  0  0  0  0
 20 21  2  0  0  0  0
 20 22  1  0  0  0  0
 22 23  1  0  0  0  0
 22 24  1  0  0  0  0
 24 25  1  0  0  0  0
 24 26  1  0  0  0  0
 24 27  1  0  0  0  0
M  CHG  1  18  -1
M  END
$$$$

  -OEChem-03222214043D

 27 26  0     1  0  0  0  0  0999 V2000
   -3.3911   -3.3923    1.7238 H   0  0  0  0  0  0  0  0  0  0  0  0
   -3.0906   -2.8612    0.8175 C   0  0  0  0  0  0  0  0  0  0  0  0
   -3.9032   -2.1995    0.5076 H   0  0  0  0  0  0  0  0  0  0  0  0
   -2.9107   -3.5890    0.0221 H   0  0  0  0  0  0  0  0  0  0  0  0
   -1.8285   -2.0546    1.0713 C   0  0  0  0  0  0  0  0  0  0  0  0
   -1.1099   -2.3416    2.0249 O   0  0  0  0  0  0  0  0  0  0  0  0
   -1.5912   -0.8916    0.3632 N   0  0  0  0  0  0  0  0  0  0  0  0
   -2.1629   -0.8187   -0.4881 H   0  0  0  0  0  0  0  0  0  0  0  0
   -0.2566   -0.2825    0.2807 C   0  0  1  0  0  0  0  0  0  0  0  0
    0.3653   -0.6864    1.0841 H   0  0  0  0  0  0  0  0  0  0  0  0
    0.5275   -0.5018   -1.0595 C   0  0  0  0  0  0  0  0  0  0  0  0
    0.8436    0.4708   -1.4521 H   0  0  0  0  0  0  0  0  0  0  0  0
    1.4466   -1.0179   -0.7645 H   0  0  0  0  0  0  0  0  0  0  0  0
   -0.0159   -1.3074   -2.2792 C   0  0  0  0  0  0  0  0  0  0  0  0
   -0.2892   -0.5795   -3.0493 H   0  0  0  0  0  0  0  0  0  0  0  0
    0.8087   -1.8973   -2.6908 H   0  0  0  0  0  0  0  0  0  0  0  0
   -1.2217   -2.2306   -2.1193 C   0  0  0  0  0  0  0  0  0  0  0  0
   -0.9985   -3.4389   -1.8673 O   0  5  0  0  0  0  0  0  0  0  0  0
   -2.3688   -1.7180   -2.1917 O   0  0  0  0  0  0  0  0  0  0  0  0
   -0.3465    1.2435    0.5136 C   0  0  0  0  0  0  0  0  0  0  0  0
   -1.1679    1.9559   -0.0524 O   0  0  0  0  0  0  0  0  0  0  0  0
    0.5713    1.8467    1.3568 N   0  0  0  0  0  0  0  0  0  0  0  0
    1.1847    1.2315    1.8810 H   0  0  0  0  0  0  0  0  0  0  0  0
    0.5524    3.2663    1.6792 C   0  0  0  0  0  0  0  0  0  0  0  0
   -0.3676    3.5240    2.2134 H   0  0  0  0  0  0  0  0  0  0  0  0
    1.4066    3.5185    2.3142 H   0  0  0  0  0  0  0  0  0  0  0  0
    0.6125    3.8678    0.7665 H   0  0  0  0  0  0  0  0  0  0  0  0
  1  2  1  0  0  0  0
  2  3  1  0  0  0  0
  2  4  1  0  0  0  0
  2  5  1  0  0  0  0
  5  6  2  0  0  0  0
  5  7  1  0  0  0  0
  7  8  1  0  0  0  0
  7  9  1  0  0  0  0
  9 10  1  0  0  0  0
  9 11  1  0  0  0  0
  9 20  1  0  0  0  0
 11 12  1  0  0  0  0
 11 13  1  0  0  0  0
 11 14  1  0  0  0  0
 14 15  1  0  0  0  0
 14 16  1  0  0  0  0
 14 17  1  0  0  0  0
 17 18  1  0  0  0  0
 17 19  2  0  0  0  0
 20 21  2  0  0  0  0
 20 22  1  0  0  0  0
 22 23  1  0  0  0  0
 22 24  1  0  0  0  0
 24 25  1  0  0  0  0
 24 26  1  0  0  0  0
 24 27  1  0  0  0  0
M  CHG  1  18  -1
M  END
$$$$

  -OEChem-03222214043D

 27 26  0     1  0  0  0  0  0999 V2000
   -2.9612   -3.5108    2.0906 H   0  0  0  0  0  0  0  0  0  0  0  0
   -3.0257   -2.6533    1.4164 C   0  0  0  0  0  0  0  0  0  0  0  0
   -3.7898   -1.9648    1.7839 H   0  0  0  0  0  0  0  0  0  0  0  0
   -3.3219   -3.0097    0.4267 H   0  0  0  0  0  0  0  0  0  0  0  0
   -1.6851   -1.9429    1.3363 C   0  0  0  0  0  0  0  0  0  0  0  0
   -0.7868   -2.2555    2.1129 O   0  0  0  0  0  0  0  0  0  0  0  0
   -1.5417   -0.8279    0.5341 N   0  0  0  0  0  0  0  0  0  0  0  0
   -2.2773   -0.7297   -0.1789 H   0  0  0  0  0  0  0  0  0  0  0  0
   -0.2380   -0.2559    0.1759 C   0  0  1  0  0  0  0  0  0  0  0  0
    0.4987   -0.6228    0.8950 H   0  0  0  0  0  0  0  0  0  0  0  0
    0.3147   -0.6218   -1.2439 C   0  0  0  0  0  0  0  0  0  0  0  0
    0.5170    0.3141   -1.7759 H   0  0  0  0  0  0  0  0  0  0  0  0
    1.2915   -1.0853   -1.0727 H   0  0  0  0  0  0  0  0  0  0  0  0
   -0.4185   -1.5364   -2.2771 C   0  0  0  0  0  0  0  0  0  0  0  0
   -0.5524   -0.9562   -3.1948 H   0  0  0  0  0  0  0  0  0  0  0  0
    0.2630   -2.3551   -2.5288 H   0  0  0  0  0  0  0  0  0  0  0  0
   -1.7778   -2.1595   -1.9566 C   0  0  0  0  0  0  0  0  0  0  0  0
   -1.8080   -3.3911   -1.7191 O   0  5  0  0  0  0  0  0  0  0  0  0
   -2.7789   -1.4007   -1.8924 O   0  0  0  0  0  0  0  0  0  0  0  0
   -0.2388    1.2837    0.3231 C   0  0  0  0  0  0  0  0  0  0  0  0
   -1.1371    1.9956   -0.1097 O   0  0  0  0  0  0  0  0  0  0  0  0
    0.8362    1.8975    0.9439 N   0  0  0  0  0  0  0  0  0  0  0  0
    1.5381    1.2922    1.3561 H   0  0  0  0  0  0  0  0  0  0  0  0
    0.9331    3.3357    1.1494 C   0  0  0  0  0  0  0  0  0  0  0  0
    0.0826    3.6972    1.7363 H   0  0  0  0  0  0  0  0  0  0  0  0
    1.8538    3.5769    1.6888 H   0  0  0  0  0  0  0  0  0  0  0  0
    0.9482    3.8586    0.1876 H   0  0  0  0  0  0  0  0  0  0  0  0
  1  2  1  0  0  0  0
  2  3  1  0  0  0  0
  2  4  1  0  0  0  0
  2  5  1  0  0  0  0
  5  6  2  0  0  0  0
  5  7  1  0  0  0  0
  7  8  1  0  0  0  0
  7  9  1  0  0  0  0
  9 10  1  0  0  0  0
  9 11  1  0  0  0  0
  9 20  1  0  0  0  0
 11 12  1  0  0  0  0
 11 13  1  0  0  0  0
 11 14  1  0  0  0  0
 14 15  1  0  0  0  0
 14 16  1  0  0  0  0
 14 17  1  0  0  0  0
 17 18  1  0  0  0  0
 17 19  2  0  0  0  0
 20 21  2  0  0  0  0
 20 22  1  0  0  0  0
 22 23  1  0  0  0  0
 22 24  1  0  0  0  0
 24 25  1  0  0  0  0
 24 26  1  0  0  0  0
 24 27  1  0  0  0  0
M  CHG  1  18  -1
M  END
$$$$

  -OEChem-03222214043D

 27 26  0     1  0  0  0  0  0999 V2000
   -3.3867   -3.3449    1.6458 H   0  0  0  0  0  0  0  0  0  0  0  0
   -3.1302   -2.7605    0.7590 C   0  0  0  0  0  0  0  0  0  0  0  0
   -3.9379   -2.0529    0.5550 H   0  0  0  0  0  0  0  0  0  0  0  0
   -3.0311   -3.4340   -0.0963 H   0  0  0  0  0  0  0  0  0  0  0  0
   -1.8260   -2.0151    0.9774 C   0  0  0  0  0  0  0  0  0  0  0  0
   -1.0189   -2.4299    1.8032 O   0  0  0  0  0  0  0  0  0  0  0  0
   -1.5920   -0.8305    0.3123 N   0  0  0  0  0  0  0  0  0  0  0  0
   -2.2496   -0.6115   -0.4481 H   0  0  0  0  0  0  0  0  0  0  0  0
   -0.2805   -0.1859    0.1949 C   0  0  1  0  0  0  0  0  0  0  0  0
    0.3355   -0.5883    1.0028 H   0  0  0  0  0  0  0  0  0  0  0  0
    0.4955   -0.5181   -1.1185 C   0  0  0  0  0  0  0  0  0  0  0  0
    0.6642    0.4356   -1.6304 H   0  0  0  0  0  0  0  0  0  0  0  0
    1.4826   -0.8997   -0.8397 H   0  0  0  0  0  0  0  0  0  0  0  0
   -0.0833   -1.4667   -2.2126 C   0  0  0  0  0  0  0  0  0  0  0  0
    0.3646   -1.1910   -3.1714 H   0  0  0  0  0  0  0  0  0  0  0  0
    0.2695   -2.4743   -1.9718 H   0  0  0  0  0  0  0  0  0  0  0  0
   -1.5985   -1.5672   -2.4227 C   0  0  0  0  0  0  0  0  0  0  0  0
   -2.2766   -0.5117   -2.4275 O   0  5  0  0  0  0  0  0  0  0  0  0
   -2.0883   -2.7194   -2.5121 O   0  0  0  0  0  0  0  0  0  0  0  0
   -0.3150    1.3374    0.4611 C   0  0  0  0  0  0  0  0  0  0  0  0
   -1.2041    2.0735    0.0538 O   0  0  0  0  0  0  0  0  0  0  0  0
    0.6630    1.8930    1.2698 N   0  0  0  0  0  0  0  0  0  0  0  0
    1.3400    1.2573    1.6770 H   0  0  0  0  0  0  0  0  0  0  0  0
    0.6713    3.2908    1.6776 C   0  0  0  0  0  0  0  0  0  0  0  0
   -0.2380    3.5308    2.2383 H   0  0  0  0  0  0  0  0  0  0  0  0
    1.5361    3.4907    2.3171 H   0  0  0  0  0  0  0  0  0  0  0  0
    0.7304    3.9447    0.8014 H   0  0  0  0  0  0  0  0  0  0  0  0
  1  2  1  0  0  0  0
  2  3  1  0  0  0  0
  2  4  1  0  0  0  0
  2  5  1  0  0  0  0
  5  6  2  0  0  0  0
  5  7  1  0  0  0  0
  7  8  1  0  0  0  0
  7  9  1  0  0  0  0
  9 10  1  0  0  0  0
  9 11  1  0  0  0  0
  9 20  1  0  0  0  0
 11 12  1  0  0  0  0
 11 13  1  0  0  0  0
 11 14  1  0  0  0  0
 14 15  1  0  0  0  0
 14 16  1  0  0  0  0
 14 17  1  0  0  0  0
 17 18  1  0  0  0  0
 17 19  2  0  0  0  0
 20 21  2  0  0  0  0
 20 22  1  0  0  0  0
 22 23  1  0  0  0  0
 22 24  1  0  0  0  0
 24 25  1  0  0  0  0
 24 26  1  0  0  0  0
 24 27  1  0  0  0  0
M  CHG  1  18  -1
M  END
$$$$

  -OEChem-03222214043D

 27 26  0     1  0  0  0  0  0999 V2000
   -3.1890   -3.6367    1.3139 H   0  0  0  0  0  0  0  0  0  0  0  0
   -3.1169   -2.7666    0.6567 C   0  0  0  0  0  0  0  0  0  0  0  0
   -3.9553   -2.0962    0.8597 H   0  0  0  0  0  0  0  0  0  0  0  0
   -3.1789   -3.1035   -0.3813 H   0  0  0  0  0  0  0  0  0  0  0  0
   -1.8045   -2.0379    0.8831 C   0  0  0  0  0  0  0  0  0  0  0  0
   -0.9879   -2.4837    1.6826 O   0  0  0  0  0  0  0  0  0  0  0  0
   -1.5715   -0.8401    0.2431 N   0  0  0  0  0  0  0  0  0  0  0  0
   -2.2407   -0.5835   -0.4915 H   0  0  0  0  0  0  0  0  0  0  0  0
   -0.2707   -0.1655    0.1592 C   0  0  1  0  0  0  0  0  0  0  0  0
    0.3277   -0.5632    0.9827 H   0  0  0  0  0  0  0  0  0  0  0  0
    0.5397   -0.5027   -1.1273 C   0  0  0  0  0  0  0  0  0  0  0  0
    0.7110    0.4390   -1.6601 H   0  0  0  0  0  0  0  0  0  0  0  0
    1.5217   -0.8809   -0.8272 H   0  0  0  0  0  0  0  0  0  0  0  0
   -0.0517   -1.4855   -2.1755 C   0  0  0  0  0  0  0  0  0  0  0  0
    0.5534   -1.4202   -3.0839 H   0  0  0  0  0  0  0  0  0  0  0  0
    0.0677   -2.4971   -1.7755 H   0  0  0  0  0  0  0  0  0  0  0  0
   -1.5198   -1.3189   -2.5801 C   0  0  0  0  0  0  0  0  0  0  0  0
   -1.9979   -0.1628   -2.6446 O   0  5  0  0  0  0  0  0  0  0  0  0
   -2.1870   -2.3695   -2.7438 O   0  0  0  0  0  0  0  0  0  0  0  0
   -0.3247    1.3539    0.4429 C   0  0  0  0  0  0  0  0  0  0  0  0
   -1.2590    2.0689    0.1056 O   0  0  0  0  0  0  0  0  0  0  0  0
    0.6364    1.9069    1.2738 N   0  0  0  0  0  0  0  0  0  0  0  0
    1.3464    1.2817    1.6385 H   0  0  0  0  0  0  0  0  0  0  0  0
    0.6034    3.2866    1.7382 C   0  0  0  0  0  0  0  0  0  0  0  0
   -0.2810    3.4590    2.3599 H   0  0  0  0  0  0  0  0  0  0  0  0
    1.4948    3.5039    2.3337 H   0  0  0  0  0  0  0  0  0  0  0  0
    0.5799    3.9769    0.8887 H   0  0  0  0  0  0  0  0  0  0  0  0
  1  2  1  0  0  0  0
  2  3  1  0  0  0  0
  2  4  1  0  0  0  0
  2  5  1  0  0  0  0
  5  6  2  0  0  0  0
  5  7  1  0  0  0  0
  7  8  1  0  0  0  0
  7  9  1  0  0  0  0
  9 10  1  0  0  0  0
  9 11  1  0  0  0  0
  9 20  1  0  0  0  0
 11 12  1  0  0  0  0
 11 13  1  0  0  0  0
 11 14  1  0  0  0  0
 14 15  1  0  0  0  0
 14 16  1  0  0  0  0
 14 17  1  0  0  0  0
 17 18  1  0  0  0  0
 17 19  2  0  0  0  0
 20 21  2  0  0  0  0
 20 22  1  0  0  0  0
 22 23  1  0  0  0  0
 22 24  1  0  0  0  0
 24 25  1  0  0  0  0
 24 26  1  0  0  0  0
 24 27  1  0  0  0  0
M  CHG  1  18  -1
M  END
$$$$

  -OEChem-03222214043D

 27 26  0     1  0  0  0  0  0999 V2000
   -3.2832   -3.5292    1.4515 H   0  0  0  0  0  0  0  0  0  0  0  0
   -3.1220   -2.7658    0.6863 C   0  0  0  0  0  0  0  0  0  0  0  0
   -3.9749   -2.0826    0.6801 H   0  0  0  0  0  0  0  0  0  0  0  0
   -3.0541   -3.2502   -0.2914 H   0  0  0  0  0  0  0  0  0  0  0  0
   -1.8440   -1.9950    0.9645 C   0  0  0  0  0  0  0  0  0  0  0  0
   -1.0769   -2.3872    1.8381 O   0  0  0  0  0  0  0  0  0  0  0  0
   -1.5784   -0.8375    0.2655 N   0  0  0  0  0  0  0  0  0  0  0  0
   -2.1816   -0.7048   -0.5573 H   0  0  0  0  0  0  0  0  0  0  0  0
   -0.2502   -0.2124    0.1964 C   0  0  1  0  0  0  0  0  0  0  0  0
    0.3373   -0.5957    1.0346 H   0  0  0  0  0  0  0  0  0  0  0  0
    0.5476   -0.5761   -1.0907 C   0  0  0  0  0  0  0  0  0  0  0  0
    0.7984    0.3510   -1.6182 H   0  0  0  0  0  0  0  0  0  0  0  0
    1.4938   -1.0289   -0.7796 H   0  0  0  0  0  0  0  0  0  0  0  0
   -0.0990   -1.5191   -2.1355 C   0  0  0  0  0  0  0  0  0  0  0  0
    0.6176   -1.6845   -2.9454 H   0  0  0  0  0  0  0  0  0  0  0  0
   -0.2807   -2.4911   -1.6675 H   0  0  0  0  0  0  0  0  0  0  0  0
   -1.4110   -1.0216   -2.7535 C   0  0  0  0  0  0  0  0  0  0  0  0
   -2.4957   -1.4391   -2.2699 O   0  5  0  0  0  0  0  0  0  0  0  0
   -1.3202   -0.2464   -3.7348 O   0  0  0  0  0  0  0  0  0  0  0  0
   -0.2932    1.3182    0.4081 C   0  0  0  0  0  0  0  0  0  0  0  0
   -1.1679    2.0304   -0.0666 O   0  0  0  0  0  0  0  0  0  0  0  0
    0.6378    1.9055    1.2487 N   0  0  0  0  0  0  0  0  0  0  0  0
    1.3073    1.2919    1.6994 H   0  0  0  0  0  0  0  0  0  0  0  0
    0.6309    3.3202    1.5928 C   0  0  0  0  0  0  0  0  0  0  0  0
   -0.2946    3.5817    2.1158 H   0  0  0  0  0  0  0  0  0  0  0  0
    1.4765    3.5522    2.2467 H   0  0  0  0  0  0  0  0  0  0  0  0
    0.7137    3.9339    0.6900 H   0  0  0  0  0  0  0  0  0  0  0  0
  1  2  1  0  0  0  0
  2  3  1  0  0  0  0
  2  4  1  0  0  0  0
  2  5  1  0  0  0  0
  5  6  2  0  0  0  0
  5  7  1  0  0  0  0
  7  8  1  0  0  0  0
  7  9  1  0  0  0  0
  9 10  1  0  0  0  0
  9 11  1  0  0  0  0
  9 20  1  0  0  0  0
 11 12  1  0  0  0  0
 11 13  1  0  0  0  0
 11 14  1  0  0  0  0
 14 15  1  0  0  0  0
 14 16  1  0  0  0  0
 14 17  1  0  0  0  0
 17 18  1  0  0  0  0
 17 19  2  0  0  0  0
 20 21  2  0  0  0  0
 20 22  1  0  0  0  0
 22 23  1  0  0  0  0
 22 24  1  0  0  0  0
 24 25  1  0  0  0  0
 24 26  1  0  0  0  0
 24 27  1  0  0  0  0
M  CHG  1  18  -1
M  END
$$$$

  -OEChem-03222214043D

 27 26  0     1  0  0  0  0  0999 V2000
   -3.1620   -3.6892    1.1824 H   0  0  0  0  0  0  0  0  0  0  0  0
   -3.1114   -2.7645    0.6018 C   0  0  0  0  0  0  0  0  0  0  0  0
   -3.9831   -2.1481    0.8344 H   0  0  0  0  0  0  0  0  0  0  0  0
   -3.1302   -3.0127   -0.4633 H   0  0  0  0  0  0  0  0  0  0  0  0
   -1.8398   -2.0021    0.9265 C   0  0  0  0  0  0  0  0  0  0  0  0
   -1.0846   -2.4123    1.8012 O   0  0  0  0  0  0  0  0  0  0  0  0
   -1.5566   -0.8448    0.2380 N   0  0  0  0  0  0  0  0  0  0  0  0
   -2.1518   -0.6820   -0.5872 H   0  0  0  0  0  0  0  0  0  0  0  0
   -0.2348   -0.2031    0.1896 C   0  0  1  0  0  0  0  0  0  0  0  0
    0.3425   -0.5837    1.0359 H   0  0  0  0  0  0  0  0  0  0  0  0
    0.5651   -0.5821   -1.0890 C   0  0  0  0  0  0  0  0  0  0  0  0
    0.8292    0.3280   -1.6394 H   0  0  0  0  0  0  0  0  0  0  0  0
    1.5034   -1.0454   -0.7697 H   0  0  0  0  0  0  0  0  0  0  0  0
   -0.1258   -1.5491   -2.0781 C   0  0  0  0  0  0  0  0  0  0  0  0
    0.6310   -1.9163   -2.7773 H   0  0  0  0  0  0  0  0  0  0  0  0
   -0.5133   -2.4271   -1.5543 H   0  0  0  0  0  0  0  0  0  0  0  0
   -1.2351   -0.8958   -2.9023 C   0  0  0  0  0  0  0  0  0  0  0  0
   -2.4078   -0.9930   -2.4529 O   0  5  0  0  0  0  0  0  0  0  0  0
   -0.9213   -0.3380   -3.9815 O   0  0  0  0  0  0  0  0  0  0  0  0
   -0.2822    1.3275    0.3959 C   0  0  0  0  0  0  0  0  0  0  0  0
   -1.1560    2.0358   -0.0854 O   0  0  0  0  0  0  0  0  0  0  0  0
    0.6358    1.9183    1.2484 N   0  0  0  0  0  0  0  0  0  0  0  0
    1.3172    1.3112    1.6901 H   0  0  0  0  0  0  0  0  0  0  0  0
    0.6262    3.3355    1.5833 C   0  0  0  0  0  0  0  0  0  0  0  0
   -0.3061    3.6016    2.0918 H   0  0  0  0  0  0  0  0  0  0  0  0
    1.4630    3.5711    2.2474 H   0  0  0  0  0  0  0  0  0  0  0  0
    0.7219    3.9432    0.6776 H   0  0  0  0  0  0  0  0  0  0  0  0
  1  2  1  0  0  0  0
  2  3  1  0  0  0  0
  2  4  1  0  0  0  0
  2  5  1  0  0  0  0
  5  6  2  0  0  0  0
  5  7  1  0  0  0  0
  7  8  1  0  0  0  0
  7  9  1  0  0  0  0
  9 10  1  0  0  0  0
  9 11  1  0  0  0  0
  9 20  1  0  0  0  0
 11 12  1  0  0  0  0
 11 13  1  0  0  0  0
 11 14  1  0  0  0  0
 14 15  1  0  0  0  0
 14 16  1  0  0  0  0
 14 17  1  0  0  0  0
 17 18  1  0  0  0  0
 17 19  2  0  0  0  0
 20 21  2  0  0  0  0
 20 22  1  0  0  0  0
 22 23  1  0  0  0  0
 22 24  1  0  0  0  0
 24 25  1  0  0  0  0
 24 26  1  0  0  0  0
 24 27  1  0  0  0  0
M  CHG  1  18  -1
M  END
$$$$

  -OEChem-03222214043D

 27 26  0     1  0  0  0  0  0999 V2000
   -3.0702   -3.7924    1.0597 H   0  0  0  0  0  0  0  0  0  0  0  0
   -3.0515   -2.8387    0.5257 C   0  0  0  0  0  0  0  0  0  0  0  0
   -3.9333   -2.2565    0.8038 H   0  0  0  0  0  0  0  0  0  0  0  0
   -3.0827   -3.0345   -0.5498 H   0  0  0  0  0  0  0  0  0  0  0  0
   -1.7921   -2.0638    0.8686 C   0  0  0  0  0  0  0  0  0  0  0  0
   -1.0270   -2.4838    1.7290 O   0  0  0  0  0  0  0  0  0  0  0  0
   -1.5315   -0.8841    0.2094 N   0  0  0  0  0  0  0  0  0  0  0  0
   -2.1350   -0.6867   -0.5984 H   0  0  0  0  0  0  0  0  0  0  0  0
   -0.2294   -0.2016    0.1831 C   0  0  1  0  0  0  0  0  0  0  0  0
    0.3542   -0.5835    1.0245 H   0  0  0  0  0  0  0  0  0  0  0  0
    0.5864   -0.5290   -1.0987 C   0  0  0  0  0  0  0  0  0  0  0  0
    0.8392    0.3969   -1.6281 H   0  0  0  0  0  0  0  0  0  0  0  0
    1.5318   -0.9789   -0.7808 H   0  0  0  0  0  0  0  0  0  0  0  0
   -0.0838   -1.5000   -2.0990 C   0  0  0  0  0  0  0  0  0  0  0  0
    0.7164   -1.9996   -2.6533 H   0  0  0  0  0  0  0  0  0  0  0  0
   -0.6426   -2.3002   -1.6097 H   0  0  0  0  0  0  0  0  0  0  0  0
   -0.9451   -0.7808   -3.1278 C   0  0  0  0  0  0  0  0  0  0  0  0
   -0.4130   -0.3519   -4.1810 O   0  5  0  0  0  0  0  0  0  0  0  0
   -2.1671   -0.6927   -2.8406 O   0  0  0  0  0  0  0  0  0  0  0  0
   -0.3261    1.3219    0.4222 C   0  0  0  0  0  0  0  0  0  0  0  0
   -1.2423    2.0034   -0.0175 O   0  0  0  0  0  0  0  0  0  0  0  0
    0.5685    1.9217    1.2929 N   0  0  0  0  0  0  0  0  0  0  0  0
    1.2895    1.3343    1.6969 H   0  0  0  0  0  0  0  0  0  0  0  0
    0.5078    3.3277    1.6670 C   0  0  0  0  0  0  0  0  0  0  0  0
   -0.4391    3.5484    2.1703 H   0  0  0  0  0  0  0  0  0  0  0  0
    1.3278    3.5711    2.3489 H   0  0  0  0  0  0  0  0  0  0  0  0
    0.5947    3.9640    0.7802 H   0  0  0  0  0  0  0  0  0  0  0  0
  1  2  1  0  0  0  0
  2  3  1  0  0  0  0
  2  4  1  0  0  0  0
  2  5  1  0  0  0  0
  5  6  2  0  0  0  0
  5  7  1  0  0  0  0
  7  8  1  0  0  0  0
  7  9  1  0  0  0  0
  9 10  1  0  0  0  0
  9 11  1  0  0  0  0
  9 20  1  0  0  0  0
 11 12  1  0  0  0  0
 11 13  1  0  0  0  0
 11 14  1  0  0  0  0
 14 15  1  0  0  0  0
 14 16  1  0  0  0  0
 14 17  1  0  0  0  0
 17 18  1  0  0  0  0
 17 19  2  0  0  0  0
 20 21  2  0  0  0  0
 20 22  1  0  0  0  0
 22 23  1  0  0  0  0
 22 24  1  0  0  0  0
 24 25  1  0  0  0  0
 24 26  1  0  0  0  0
 24 27  1  0  0  0  0
M  CHG  1  18  -1
M  END
$$$$

  -OEChem-03222214043D

 27 26  0     1  0  0  0  0  0999 V2000
   -3.1365   -3.7402    1.1856 H   0  0  0  0  0  0  0  0  0  0  0  0
   -3.0974   -2.8059    0.6192 C   0  0  0  0  0  0  0  0  0  0  0  0
   -3.9426   -2.1777    0.9110 H   0  0  0  0  0  0  0  0  0  0  0  0
   -3.1774   -3.0351   -0.4470 H   0  0  0  0  0  0  0  0  0  0  0  0
   -1.7937   -2.0774    0.8906 C   0  0  0  0  0  0  0  0  0  0  0  0
   -1.0006   -2.5248    1.7093 O   0  0  0  0  0  0  0  0  0  0  0  0
   -1.5291   -0.9027    0.2224 N   0  0  0  0  0  0  0  0  0  0  0  0
   -2.1847   -0.6409   -0.5159 H   0  0  0  0  0  0  0  0  0  0  0  0
   -0.2227   -0.2312    0.1769 C   0  0  1  0  0  0  0  0  0  0  0  0
    0.3671   -0.6058    1.0179 H   0  0  0  0  0  0  0  0  0  0  0  0
    0.5970   -0.5463   -1.1062 C   0  0  0  0  0  0  0  0  0  0  0  0
    0.8617    0.3900   -1.6111 H   0  0  0  0  0  0  0  0  0  0  0  0
    1.5401   -0.9985   -0.7830 H   0  0  0  0  0  0  0  0  0  0  0  0
   -0.0416   -1.5058   -2.1446 C   0  0  0  0  0  0  0  0  0  0  0  0
    0.7458   -2.1789   -2.4957 H   0  0  0  0  0  0  0  0  0  0  0  0
   -0.8131   -2.1532   -1.7265 H   0  0  0  0  0  0  0  0  0  0  0  0
   -0.5712   -0.7759   -3.3748 C   0  0  0  0  0  0  0  0  0  0  0  0
    0.2592   -0.3161   -4.1978 O   0  5  0  0  0  0  0  0  0  0  0  0
   -1.8202   -0.7076   -3.4937 O   0  0  0  0  0  0  0  0  0  0  0  0
   -0.3392    1.2910    0.4116 C   0  0  0  0  0  0  0  0  0  0  0  0
   -1.2937    1.9392    0.0010 O   0  0  0  0  0  0  0  0  0  0  0  0
    0.5507    1.9130    1.2705 N   0  0  0  0  0  0  0  0  0  0  0  0
    1.3175    1.3554    1.6306 H   0  0  0  0  0  0  0  0  0  0  0  0
    0.4689    3.3214    1.6306 C   0  0  0  0  0  0  0  0  0  0  0  0
   -0.4651    3.5256    2.1641 H   0  0  0  0  0  0  0  0  0  0  0  0
    1.3059    3.5925    2.2806 H   0  0  0  0  0  0  0  0  0  0  0  0
    0.5096    3.9487    0.7340 H   0  0  0  0  0  0  0  0  0  0  0  0
  1  2  1  0  0  0  0
  2  3  1  0  0  0  0
  2  4  1  0  0  0  0
  2  5  1  0  0  0  0
  5  6  2  0  0  0  0
  5  7  1  0  0  0  0
  7  8  1  0  0  0  0
  7  9  1  0  0  0  0
  9 10  1  0  0  0  0
  9 11  1  0  0  0  0
  9 20  1  0  0  0  0
 11 12  1  0  0  0  0
 11 13  1  0  0  0  0
 11 14  1  0  0  0  0
 14 15  1  0  0  0  0
 14 16  1  0  0  0  0
 14 17  1  0  0  0  0
 17 18  1  0  0  0  0
 17 19  2  0  0  0  0
 20 21  2  0  0  0  0
 20 22  1  0  0  0  0
 22 23  1  0  0  0  0
 22 24  1  0  0  0  0
 24 25  1  0  0  0  0
 24 26  1  0  0  0  0
 24 27  1  0  0  0  0
M  CHG  1  18  -1
M  END
$$$$

  -OEChem-03222214043D

 27 26  0     1  0  0  0  0  0999 V2000
   -3.1725   -3.7159    1.2704 H   0  0  0  0  0  0  0  0  0  0  0  0
   -3.1240   -2.7943    0.6843 C   0  0  0  0  0  0  0  0  0  0  0  0
   -3.9458   -2.1394    0.9845 H   0  0  0  0  0  0  0  0  0  0  0  0
   -3.2365   -3.0434   -0.3742 H   0  0  0  0  0  0  0  0  0  0  0  0
   -1.7958   -2.0944    0.9088 C   0  0  0  0  0  0  0  0  0  0  0  0
   -0.9856   -2.5594    1.6997 O   0  0  0  0  0  0  0  0  0  0  0  0
   -1.5310   -0.9223    0.2357 N   0  0  0  0  0  0  0  0  0  0  0  0
   -2.2193   -0.6177   -0.4517 H   0  0  0  0  0  0  0  0  0  0  0  0
   -0.2222   -0.2566    0.1756 C   0  0  1  0  0  0  0  0  0  0  0  0
    0.3743   -0.6286    1.0132 H   0  0  0  0  0  0  0  0  0  0  0  0
    0.5977   -0.5608   -1.1111 C   0  0  0  0  0  0  0  0  0  0  0  0
    0.8433    0.3898   -1.5988 H   0  0  0  0  0  0  0  0  0  0  0  0
    1.5523   -0.9970   -0.8009 H   0  0  0  0  0  0  0  0  0  0  0  0
   -0.0209   -1.5103   -2.1756 C   0  0  0  0  0  0  0  0  0  0  0  0
    0.6575   -2.3574   -2.3116 H   0  0  0  0  0  0  0  0  0  0  0  0
   -0.9785   -1.9337   -1.8726 H   0  0  0  0  0  0  0  0  0  0  0  0
   -0.1960   -0.8317   -3.5344 C   0  0  0  0  0  0  0  0  0  0  0  0
    0.8390   -0.4438   -4.1329 O   0  5  0  0  0  0  0  0  0  0  0  0
   -1.3645   -0.7366   -3.9851 O   0  0  0  0  0  0  0  0  0  0  0  0
   -0.3511    1.2647    0.4099 C   0  0  0  0  0  0  0  0  0  0  0  0
   -1.3215    1.8949    0.0062 O   0  0  0  0  0  0  0  0  0  0  0  0
    0.5369    1.9013    1.2598 N   0  0  0  0  0  0  0  0  0  0  0  0
    1.3350    1.3654    1.5833 H   0  0  0  0  0  0  0  0  0  0  0  0
    0.4568    3.3179    1.5875 C   0  0  0  0  0  0  0  0  0  0  0  0
   -0.4881    3.5407    2.0936 H   0  0  0  0  0  0  0  0  0  0  0  0
    1.2795    3.5971    2.2523 H   0  0  0  0  0  0  0  0  0  0  0  0
    0.5239    3.9250    0.6788 H   0  0  0  0  0  0  0  0  0  0  0  0
  1  2  1  0  0  0  0
  2  3  1  0  0  0  0
  2  4  1  0  0  0  0
  2  5  1  0  0  0  0
  5  6  2  0  0  0  0
  5  7  1  0  0  0  0
  7  8  1  0  0  0  0
  7  9  1  0  0  0  0
  9 10  1  0  0  0  0
  9 11  1  0  0  0  0
  9 20  1  0  0  0  0
 11 12  1  0  0  0  0
 11 13  1  0  0  0  0
 11 14  1  0  0  0  0
 14 15  1  0  0  0  0
 14 16  1  0  0  0  0
 14 17  1  0  0  0  0
 17 18  1  0  0  0  0
 17 19  2  0  0  0  0
 20 21  2  0  0  0  0
 20 22  1  0  0  0  0
 22 23  1  0  0  0  0
 22 24  1  0  0  0  0
 24 25  1  0  0  0  0
 24 26  1  0  0  0  0
 24 27  1  0  0  0  0
M  CHG  1  18  -1
M  END
$$$$

  -OEChem-03222214043D

 27 26  0     1  0  0  0  0  0999 V2000
   -3.1800   -3.7104    1.2944 H   0  0  0  0  0  0  0  0  0  0  0  0
   -3.1268   -2.7943    0.6998 C   0  0  0  0  0  0  0  0  0  0  0  0
   -3.9427   -2.1310    0.9973 H   0  0  0  0  0  0  0  0  0  0  0  0
   -3.2445   -3.0518   -0.3562 H   0  0  0  0  0  0  0  0  0  0  0  0
   -1.7928   -2.1023    0.9149 C   0  0  0  0  0  0  0  0  0  0  0  0
   -0.9826   -2.5693    1.7041 O   0  0  0  0  0  0  0  0  0  0  0  0
   -1.5257   -0.9322    0.2391 N   0  0  0  0  0  0  0  0  0  0  0  0
   -2.2212   -0.6152   -0.4339 H   0  0  0  0  0  0  0  0  0  0  0  0
   -0.2153   -0.2696    0.1780 C   0  0  1  0  0  0  0  0  0  0  0  0
    0.3840   -0.6419    1.0136 H   0  0  0  0  0  0  0  0  0  0  0  0
    0.5996   -0.5727   -1.1117 C   0  0  0  0  0  0  0  0  0  0  0  0
    0.8136    0.3851   -1.6002 H   0  0  0  0  0  0  0  0  0  0  0  0
    1.5689   -0.9914   -0.8237 H   0  0  0  0  0  0  0  0  0  0  0  0
   -0.0293   -1.5159   -2.1742 C   0  0  0  0  0  0  0  0  0  0  0  0
    0.4459   -2.4984   -2.1057 H   0  0  0  0  0  0  0  0  0  0  0  0
   -1.0980   -1.6631   -2.0141 H   0  0  0  0  0  0  0  0  0  0  0  0
    0.1340   -0.9748   -3.5969 C   0  0  0  0  0  0  0  0  0  0  0  0
    1.3003   -0.7209   -3.9915 O   0  5  0  0  0  0  0  0  0  0  0  0
   -0.9013   -0.8556   -4.2982 O   0  0  0  0  0  0  0  0  0  0  0  0
   -0.3497    1.2512    0.4095 C   0  0  0  0  0  0  0  0  0  0  0  0
   -1.3180    1.8757   -0.0093 O   0  0  0  0  0  0  0  0  0  0  0  0
    0.5330    1.8953    1.2587 N   0  0  0  0  0  0  0  0  0  0  0  0
    1.3398    1.3674    1.5744 H   0  0  0  0  0  0  0  0  0  0  0  0
    0.4607    3.3187    1.5566 C   0  0  0  0  0  0  0  0  0  0  0  0
   -0.4941    3.5620    2.0337 H   0  0  0  0  0  0  0  0  0  0  0  0
    1.2688    3.6017    2.2374 H   0  0  0  0  0  0  0  0  0  0  0  0
    0.5582    3.9065    0.6382 H   0  0  0  0  0  0  0  0  0  0  0  0
  1  2  1  0  0  0  0
  2  3  1  0  0  0  0
  2  4  1  0  0  0  0
  2  5  1  0  0  0  0
  5  6  2  0  0  0  0
  5  7  1  0  0  0  0
  7  8  1  0  0  0  0
  7  9  1  0  0  0  0
  9 10  1  0  0  0  0
  9 11  1  0  0  0  0
  9 20  1  0  0  0  0
 11 12  1  0  0  0  0
 11 13  1  0  0  0  0
 11 14  1  0  0  0  0
 14 15  1  0  0  0  0
 14 16  1  0  0  0  0
 14 17  1  0  0  0  0
 17 18  1  0  0  0  0
 17 19  2  0  0  0  0
 20 21  2  0  0  0  0
 20 22  1  0  0  0  0
 22 23  1  0  0  0  0
 22 24  1  0  0  0  0
 24 25  1  0  0  0  0
 24 26  1  0  0  0  0
 24 27  1  0  0  0  0
M  CHG  1  18  -1
M  END
$$$$

  -OEChem-03222214043D

 27 26  0     1  0  0  0  0  0999 V2000
   -3.1762   -3.7174    1.2754 H   0  0  0  0  0  0  0  0  0  0  0  0
   -3.1189   -2.8028    0.6789 C   0  0  0  0  0  0  0  0  0  0  0  0
   -3.9430   -2.1433    0.9617 H   0  0  0  0  0  0  0  0  0  0  0  0
   -3.2188   -3.0648   -0.3778 H   0  0  0  0  0  0  0  0  0  0  0  0
   -1.7918   -2.1032    0.9119 C   0  0  0  0  0  0  0  0  0  0  0  0
   -0.9922   -2.5626    1.7156 O   0  0  0  0  0  0  0  0  0  0  0  0
   -1.5195   -0.9348    0.2349 N   0  0  0  0  0  0  0  0  0  0  0  0
   -2.2087   -0.6211   -0.4451 H   0  0  0  0  0  0  0  0  0  0  0  0
   -0.2079   -0.2720    0.1848 C   0  0  1  0  0  0  0  0  0  0  0  0
    0.3900   -0.6457    1.0209 H   0  0  0  0  0  0  0  0  0  0  0  0
    0.6019   -0.5771   -1.1054 C   0  0  0  0  0  0  0  0  0  0  0  0
    0.8066    0.3772   -1.6047 H   0  0  0  0  0  0  0  0  0  0  0  0
    1.5736   -0.9985   -0.8289 H   0  0  0  0  0  0  0  0  0  0  0  0
   -0.0553   -1.5155   -2.1486 C   0  0  0  0  0  0  0  0  0  0  0  0
    0.1824   -2.5555   -1.9083 H   0  0  0  0  0  0  0  0  0  0  0  0
   -1.1423   -1.4073   -2.1391 H   0  0  0  0  0  0  0  0  0  0  0  0
    0.4005   -1.1934   -3.5750 C   0  0  0  0  0  0  0  0  0  0  0  0
    1.6341   -1.0579   -3.7774 O   0  5  0  0  0  0  0  0  0  0  0  0
   -0.4821   -1.1233   -4.4661 O   0  0  0  0  0  0  0  0  0  0  0  0
   -0.3407    1.2494    0.4103 C   0  0  0  0  0  0  0  0  0  0  0  0
   -1.2945    1.8771   -0.0371 O   0  0  0  0  0  0  0  0  0  0  0  0
    0.5346    1.8951    1.2655 N   0  0  0  0  0  0  0  0  0  0  0  0
    1.3325    1.3629    1.5970 H   0  0  0  0  0  0  0  0  0  0  0  0
    0.4814    3.3252    1.5339 C   0  0  0  0  0  0  0  0  0  0  0  0
   -0.4749    3.5930    1.9946 H   0  0  0  0  0  0  0  0  0  0  0  0
    1.2862    3.6091    2.2183 H   0  0  0  0  0  0  0  0  0  0  0  0
    0.5991    3.8931    0.6051 H   0  0  0  0  0  0  0  0  0  0  0  0
  1  2  1  0  0  0  0
  2  3  1  0  0  0  0
  2  4  1  0  0  0  0
  2  5  1  0  0  0  0
  5  6  2  0  0  0  0
  5  7  1  0  0  0  0
  7  8  1  0  0  0  0
  7  9  1  0  0  0  0
  9 10  1  0  0  0  0
  9 11  1  0  0  0  0
  9 20  1  0  0  0  0
 11 12  1  0  0  0  0
 11 13  1  0  0  0  0
 11 14  1  0  0  0  0
 14 15  1  0  0  0  0
 14 16  1  0  0  0  0
 14 17  1  0  0  0  0
 17 18  1  0  0  0  0
 17 19  2  0  0  0  0
 20 21  2  0  0  0  0
 20 22  1  0  0  0  0
 22 23  1  0  0  0  0
 22 24  1  0  0  0  0
 24 25  1  0  0  0  0
 24 26  1  0  0  0  0
 24 27  1  0  0  0  0
M  CHG  1  18  -1
M  END
$$$$

  -OEChem-03222214043D

 27 26  0     1  0  0  0  0  0999 V2000
   -3.1629   -3.7198    1.2471 H   0  0  0  0  0  0  0  0  0  0  0  0
   -3.0986   -2.8116    0.6416 C   0  0  0  0  0  0  0  0  0  0  0  0
   -3.9413   -2.1610    0.8881 H   0  0  0  0  0  0  0  0  0  0  0  0
   -3.1584   -3.0877   -0.4146 H   0  0  0  0  0  0  0  0  0  0  0  0
   -1.7900   -2.0903    0.9107 C   0  0  0  0  0  0  0  0  0  0  0  0
   -1.0142   -2.5263    1.7499 O   0  0  0  0  0  0  0  0  0  0  0  0
   -1.5094   -0.9265    0.2288 N   0  0  0  0  0  0  0  0  0  0  0  0
   -2.1752   -0.6372   -0.4842 H   0  0  0  0  0  0  0  0  0  0  0  0
   -0.1934   -0.2697    0.1937 C   0  0  1  0  0  0  0  0  0  0  0  0
    0.4011   -0.6459    1.0311 H   0  0  0  0  0  0  0  0  0  0  0  0
    0.6069   -0.5781   -1.0996 C   0  0  0  0  0  0  0  0  0  0  0  0
    0.8326    0.3663   -1.6078 H   0  0  0  0  0  0  0  0  0  0  0  0
    1.5667   -1.0271   -0.8232 H   0  0  0  0  0  0  0  0  0  0  0  0
   -0.0891   -1.5049   -2.1220 C   0  0  0  0  0  0  0  0  0  0  0  0
   -0.0901   -2.5322   -1.7469 H   0  0  0  0  0  0  0  0  0  0  0  0
   -1.1265   -1.1880   -2.2634 H   0  0  0  0  0  0  0  0  0  0  0  0
    0.5892   -1.4652   -3.4951 C   0  0  0  0  0  0  0  0  0  0  0  0
    1.8454   -1.4245   -3.5345 O   0  5  0  0  0  0  0  0  0  0  0  0
   -0.1553   -1.5167   -4.5052 O   0  0  0  0  0  0  0  0  0  0  0  0
   -0.3206    1.2532    0.4090 C   0  0  0  0  0  0  0  0  0  0  0  0
   -1.2517    1.8880   -0.0750 O   0  0  0  0  0  0  0  0  0  0  0  0
    0.5456    1.8991    1.2729 N   0  0  0  0  0  0  0  0  0  0  0  0
    1.3230    1.3587    1.6381 H   0  0  0  0  0  0  0  0  0  0  0  0
    0.4980    3.3309    1.5331 C   0  0  0  0  0  0  0  0  0  0  0  0
   -0.4620    3.6073    1.9809 H   0  0  0  0  0  0  0  0  0  0  0  0
    1.2966    3.6135    2.2255 H   0  0  0  0  0  0  0  0  0  0  0  0
    0.6303    3.8933    0.6031 H   0  0  0  0  0  0  0  0  0  0  0  0
  1  2  1  0  0  0  0
  2  3  1  0  0  0  0
  2  4  1  0  0  0  0
  2  5  1  0  0  0  0
  5  6  2  0  0  0  0
  5  7  1  0  0  0  0
  7  8  1  0  0  0  0
  7  9  1  0  0  0  0
  9 10  1  0  0  0  0
  9 11  1  0  0  0  0
  9 20  1  0  0  0  0
 11 12  1  0  0  0  0
 11 13  1  0  0  0  0
 11 14  1  0  0  0  0
 14 15  1  0  0  0  0
 14 16  1  0  0  0  0
 14 17  1  0  0  0  0
 17 18  1  0  0  0  0
 17 19  2  0  0  0  0
 20 21  2  0  0  0  0
 20 22  1  0  0  0  0
 22 23  1  0  0  0  0
 22 24  1  0  0  0  0
 24 25  1  0  0  0  0
 24 26  1  0  0  0  0
 24 27  1  0  0  0  0
M  CHG  1  18  -1
M  END
$$$$

  -OEChem-03222214043D

 27 26  0     1  0  0  0  0  0999 V2000
   -3.2027   -3.6930    1.2122 H   0  0  0  0  0  0  0  0  0  0  0  0
   -3.1235   -2.7759    0.6221 C   0  0  0  0  0  0  0  0  0  0  0  0
   -3.9514   -2.1128    0.8844 H   0  0  0  0  0  0  0  0  0  0  0  0
   -3.1946   -3.0328   -0.4382 H   0  0  0  0  0  0  0  0  0  0  0  0
   -1.7998   -2.0848    0.8958 C   0  0  0  0  0  0  0  0  0  0  0  0
   -1.0362   -2.5369    1.7377 O   0  0  0  0  0  0  0  0  0  0  0  0
   -1.4906   -0.9273    0.2164 N   0  0  0  0  0  0  0  0  0  0  0  0
   -2.1458   -0.6185   -0.4981 H   0  0  0  0  0  0  0  0  0  0  0  0
   -0.1653   -0.2898    0.2034 C   0  0  1  0  0  0  0  0  0  0  0  0
    0.4254   -0.6682    1.0426 H   0  0  0  0  0  0  0  0  0  0  0  0
    0.6278   -0.5855   -1.0941 C   0  0  0  0  0  0  0  0  0  0  0  0
    1.1339    0.3262   -1.4308 H   0  0  0  0  0  0  0  0  0  0  0  0
    1.4088   -1.3150   -0.8549 H   0  0  0  0  0  0  0  0  0  0  0  0
   -0.2052   -1.1570   -2.2635 C   0  0  0  0  0  0  0  0  0  0  0  0
   -0.6689   -2.0990   -1.9568 H   0  0  0  0  0  0  0  0  0  0  0  0
   -0.9969   -0.4466   -2.5188 H   0  0  0  0  0  0  0  0  0  0  0  0
    0.6207   -1.4340   -3.5261 C   0  0  0  0  0  0  0  0  0  0  0  0
    1.8155   -1.0439   -3.5781 O   0  5  0  0  0  0  0  0  0  0  0  0
    0.0341   -2.0537   -4.4476 O   0  0  0  0  0  0  0  0  0  0  0  0
   -0.2942    1.2337    0.4141 C   0  0  0  0  0  0  0  0  0  0  0  0
   -1.2190    1.8689   -0.0827 O   0  0  0  0  0  0  0  0  0  0  0  0
    0.5566    1.8787    1.2941 N   0  0  0  0  0  0  0  0  0  0  0  0
    1.3393    1.3431    1.6551 H   0  0  0  0  0  0  0  0  0  0  0  0
    0.5057    3.3112    1.5484 C   0  0  0  0  0  0  0  0  0  0  0  0
   -0.4762    3.5958    1.9399 H   0  0  0  0  0  0  0  0  0  0  0  0
    1.2648    3.5894    2.2852 H   0  0  0  0  0  0  0  0  0  0  0  0
    0.6952    3.8698    0.6261 H   0  0  0  0  0  0  0  0  0  0  0  0
  1  2  1  0  0  0  0
  2  3  1  0  0  0  0
  2  4  1  0  0  0  0
  2  5  1  0  0  0  0
  5  6  2  0  0  0  0
  5  7  1  0  0  0  0
  7  8  1  0  0  0  0
  7  9  1  0  0  0  0
  9 10  1  0  0  0  0
  9 11  1  0  0  0  0
  9 20  1  0  0  0  0
 11 12  1  0  0  0  0
 11 13  1  0  0  0  0
 11 14  1  0  0  0  0
 14 15  1  0  0  0  0
 14 16  1  0  0  0  0
 14 17  1  0  0  0  0
 17 18  1  0  0  0  0
 17 19  2  0  0  0  0
 20 21  2  0  0  0  0
 20 22  1  0  0  0  0
 22 23  1  0  0  0  0
 22 24  1  0  0  0  0
 24 25  1  0  0  0  0
 24 26  1  0  0  0  0
 24 27  1  0  0  0  0
M  CHG  1  18  -1
M  END
$$$$

  -OEChem-03222214043D

 27 26  0     1  0  0  0  0  0999 V2000
   -3.2369   -3.6718    1.2327 H   0  0  0  0  0  0  0  0  0  0  0  0
   -3.1422   -2.7760    0.6127 C   0  0  0  0  0  0  0  0  0  0  0  0
   -3.9847   -2.1117    0.8191 H   0  0  0  0  0  0  0  0  0  0  0  0
   -3.1705   -3.0723   -0.4392 H   0  0  0  0  0  0  0  0  0  0  0  0
   -1.8344   -2.0651    0.9115 C   0  0  0  0  0  0  0  0  0  0  0  0
   -1.0897   -2.4967    1.7808 O   0  0  0  0  0  0  0  0  0  0  0  0
   -1.5186   -0.9116    0.2271 N   0  0  0  0  0  0  0  0  0  0  0  0
   -2.1559   -0.6242   -0.5119 H   0  0  0  0  0  0  0  0  0  0  0  0
   -0.1837   -0.2954    0.2086 C   0  0  1  0  0  0  0  0  0  0  0  0
    0.4060   -0.6830    1.0445 H   0  0  0  0  0  0  0  0  0  0  0  0
    0.6031   -0.5917   -1.0944 C   0  0  0  0  0  0  0  0  0  0  0  0
    1.1432    0.3035   -1.4224 H   0  0  0  0  0  0  0  0  0  0  0  0
    1.3596   -1.3440   -0.8463 H   0  0  0  0  0  0  0  0  0  0  0  0
   -0.2174   -1.1436   -2.2834 C   0  0  0  0  0  0  0  0  0  0  0  0
   -0.8868   -1.9406   -1.9501 H   0  0  0  0  0  0  0  0  0  0  0  0
   -0.8256   -0.3412   -2.7101 H   0  0  0  0  0  0  0  0  0  0  0  0
    0.6823   -1.7375   -3.3721 C   0  0  0  0  0  0  0  0  0  0  0  0
    1.7456   -1.1320   -3.6616 O   0  5  0  0  0  0  0  0  0  0  0  0
    0.2896   -2.7945   -3.9256 O   0  0  0  0  0  0  0  0  0  0  0  0
   -0.2898    1.2301    0.4198 C   0  0  0  0  0  0  0  0  0  0  0  0
   -1.1975    1.8824   -0.0862 O   0  0  0  0  0  0  0  0  0  0  0  0
    0.5734    1.8630    1.2967 N   0  0  0  0  0  0  0  0  0  0  0  0
    1.3335    1.3093    1.6781 H   0  0  0  0  0  0  0  0  0  0  0  0
    0.5444    3.2952    1.5559 C   0  0  0  0  0  0  0  0  0  0  0  0
   -0.4209    3.5875    1.9815 H   0  0  0  0  0  0  0  0  0  0  0  0
    1.3312    3.5644    2.2666 H   0  0  0  0  0  0  0  0  0  0  0  0
    0.7081    3.8550    0.6294 H   0  0  0  0  0  0  0  0  0  0  0  0
  1  2  1  0  0  0  0
  2  3  1  0  0  0  0
  2  4  1  0  0  0  0
  2  5  1  0  0  0  0
  5  6  2  0  0  0  0
  5  7  1  0  0  0  0
  7  8  1  0  0  0  0
  7  9  1  0  0  0  0
  9 10  1  0  0  0  0
  9 11  1  0  0  0  0
  9 20  1  0  0  0  0
 11 12  1  0  0  0  0
 11 13  1  0  0  0  0
 11 14  1  0  0  0  0
 14 15  1  0  0  0  0
 14 16  1  0  0  0  0
 14 17  1  0  0  0  0
 17 18  1  0  0  0  0
 17 19  2  0  0  0  0
 20 21  2  0  0  0  0
 20 22  1  0  0  0  0
 22 23  1  0  0  0  0
 22 24  1  0  0  0  0
 24 25  1  0  0  0  0
 24 26  1  0  0  0  0
 24 27  1  0  0  0  0
M  CHG  1  18  -1
M  END
$$$$

  -OEChem-03222214043D

 27 26  0     1  0  0  0  0  0999 V2000
   -3.2409   -3.6753    1.2361 H   0  0  0  0  0  0  0  0  0  0  0  0
   -3.1495   -2.7785    0.6172 C   0  0  0  0  0  0  0  0  0  0  0  0
   -4.0008   -2.1225    0.8147 H   0  0  0  0  0  0  0  0  0  0  0  0
   -3.1638   -3.0753   -0.4350 H   0  0  0  0  0  0  0  0  0  0  0  0
   -1.8525   -2.0539    0.9288 C   0  0  0  0  0  0  0  0  0  0  0  0
   -1.1225   -2.4627    1.8213 O   0  0  0  0  0  0  0  0  0  0  0  0
   -1.5384   -0.9032    0.2388 N   0  0  0  0  0  0  0  0  0  0  0  0
   -2.1645   -0.6382   -0.5178 H   0  0  0  0  0  0  0  0  0  0  0  0
   -0.2003   -0.2956    0.2143 C   0  0  1  0  0  0  0  0  0  0  0  0
    0.3897   -0.6853    1.0489 H   0  0  0  0  0  0  0  0  0  0  0  0
    0.5878   -0.5903   -1.0905 C   0  0  0  0  0  0  0  0  0  0  0  0
    1.1470    0.2956   -1.4106 H   0  0  0  0  0  0  0  0  0  0  0  0
    1.3329   -1.3487   -0.8261 H   0  0  0  0  0  0  0  0  0  0  0  0
   -0.2075   -1.1376   -2.3036 C   0  0  0  0  0  0  0  0  0  0  0  0
   -1.0596   -1.7426   -1.9884 H   0  0  0  0  0  0  0  0  0  0  0  0
   -0.5935   -0.3008   -2.8921 H   0  0  0  0  0  0  0  0  0  0  0  0
    0.6636   -2.0342   -3.1884 C   0  0  0  0  0  0  0  0  0  0  0  0
    1.7800   -1.5880   -3.5557 O   0  5  0  0  0  0  0  0  0  0  0  0
    0.2030   -3.1588   -3.5071 O   0  0  0  0  0  0  0  0  0  0  0  0
   -0.2961    1.2307    0.4232 C   0  0  0  0  0  0  0  0  0  0  0  0
   -1.1855    1.8940   -0.1006 O   0  0  0  0  0  0  0  0  0  0  0  0
    0.5747    1.8579    1.2965 N   0  0  0  0  0  0  0  0  0  0  0  0
    1.3135    1.2917    1.7011 H   0  0  0  0  0  0  0  0  0  0  0  0
    0.5570    3.2896    1.5596 C   0  0  0  0  0  0  0  0  0  0  0  0
   -0.4114    3.5910    1.9718 H   0  0  0  0  0  0  0  0  0  0  0  0
    1.3359    3.5481    2.2829 H   0  0  0  0  0  0  0  0  0  0  0  0
    0.7403    3.8499    0.6371 H   0  0  0  0  0  0  0  0  0  0  0  0
  1  2  1  0  0  0  0
  2  3  1  0  0  0  0
  2  4  1  0  0  0  0
  2  5  1  0  0  0  0
  5  6  2  0  0  0  0
  5  7  1  0  0  0  0
  7  8  1  0  0  0  0
  7  9  1  0  0  0  0
  9 10  1  0  0  0  0
  9 11  1  0  0  0  0
  9 20  1  0  0  0  0
 11 12  1  0  0  0  0
 11 13  1  0  0  0  0
 11 14  1  0  0  0  0
 14 15  1  0  0  0  0
 14 16  1  0  0  0  0
 14 17  1  0  0  0  0
 17 18  1  0  0  0  0
 17 19  2  0  0  0  0
 20 21  2  0  0  0  0
 20 22  1  0  0  0  0
 22 23  1  0  0  0  0
 22 24  1  0  0  0  0
 24 25  1  0  0  0  0
 24 26  1  0  0  0  0
 24 27  1  0  0  0  0
M  CHG  1  18  -1
M  END
$$$$

  -OEChem-03222214043D

 27 26  0     1  0  0  0  0  0999 V2000
   -3.2162   -3.6853    1.2151 H   0  0  0  0  0  0  0  0  0  0  0  0
   -3.1118   -2.8089    0.5698 C   0  0  0  0  0  0  0  0  0  0  0  0
   -4.0010   -2.1826    0.6738 H   0  0  0  0  0  0  0  0  0  0  0  0
   -3.0308   -3.1456   -0.4676 H   0  0  0  0  0  0  0  0  0  0  0  0
   -1.8720   -2.0199    0.9495 C   0  0  0  0  0  0  0  0  0  0  0  0
   -1.1867   -2.3733    1.9000 O   0  0  0  0  0  0  0  0  0  0  0  0
   -1.5583   -0.8746    0.2497 N   0  0  0  0  0  0  0  0  0  0  0  0
   -2.1459   -0.6651   -0.5534 H   0  0  0  0  0  0  0  0  0  0  0  0
   -0.2139   -0.2821    0.2306 C   0  0  1  0  0  0  0  0  0  0  0  0
    0.3698   -0.6754    1.0681 H   0  0  0  0  0  0  0  0  0  0  0  0
    0.5740   -0.5927   -1.0727 C   0  0  0  0  0  0  0  0  0  0  0  0
    1.1438    0.2869   -1.3910 H   0  0  0  0  0  0  0  0  0  0  0  0
    1.3147   -1.3523   -0.7987 H   0  0  0  0  0  0  0  0  0  0  0  0
   -0.2136   -1.1353   -2.2975 C   0  0  0  0  0  0  0  0  0  0  0  0
   -1.2196   -1.4703   -2.0445 H   0  0  0  0  0  0  0  0  0  0  0  0
   -0.3254   -0.3297   -3.0284 H   0  0  0  0  0  0  0  0  0  0  0  0
    0.5074   -2.3117   -2.9579 C   0  0  0  0  0  0  0  0  0  0  0  0
    1.6525   -2.1052   -3.4323 O   0  5  0  0  0  0  0  0  0  0  0  0
   -0.0927   -3.4151   -2.9856 O   0  0  0  0  0  0  0  0  0  0  0  0
   -0.2925    1.2461    0.4311 C   0  0  0  0  0  0  0  0  0  0  0  0
   -1.1510    1.9236   -0.1251 O   0  0  0  0  0  0  0  0  0  0  0  0
    0.5801    1.8673    1.3068 N   0  0  0  0  0  0  0  0  0  0  0  0
    1.2792    1.2856    1.7572 H   0  0  0  0  0  0  0  0  0  0  0  0
    0.5732    3.2990    1.5699 C   0  0  0  0  0  0  0  0  0  0  0  0
   -0.3897    3.6057    1.9908 H   0  0  0  0  0  0  0  0  0  0  0  0
    1.3604    3.5533    2.2858 H   0  0  0  0  0  0  0  0  0  0  0  0
    0.7509    3.8586    0.6458 H   0  0  0  0  0  0  0  0  0  0  0  0
  1  2  1  0  0  0  0
  2  3  1  0  0  0  0
  2  4  1  0  0  0  0
  2  5  1  0  0  0  0
  5  6  2  0  0  0  0
  5  7  1  0  0  0  0
  7  8  1  0  0  0  0
  7  9  1  0  0  0  0
  9 10  1  0  0  0  0
  9 11  1  0  0  0  0
  9 20  1  0  0  0  0
 11 12  1  0  0  0  0
 11 13  1  0  0  0  0
 11 14  1  0  0  0  0
 14 15  1  0  0  0  0
 14 16  1  0  0  0  0
 14 17  1  0  0  0  0
 17 18  1  0  0  0  0
 17 19  2  0  0  0  0
 20 21  2  0  0  0  0
 20 22  1  0  0  0  0
 22 23  1  0  0  0  0
 22 24  1  0  0  0  0
 24 25  1  0  0  0  0
 24 26  1  0  0  0  0
 24 27  1  0  0  0  0
M  CHG  1  18  -1
M  END
$$$$

  -OEChem-03222214043D

 27 26  0     1  0  0  0  0  0999 V2000
   -3.1594   -3.7046    1.1779 H   0  0  0  0  0  0  0  0  0  0  0  0
   -3.0382   -2.8538    0.5020 C   0  0  0  0  0  0  0  0  0  0  0  0
   -3.9636   -2.2734    0.4902 H   0  0  0  0  0  0  0  0  0  0  0  0
   -2.8404   -3.2322   -0.5055 H   0  0  0  0  0  0  0  0  0  0  0  0
   -1.8802   -1.9829    0.9533 C   0  0  0  0  0  0  0  0  0  0  0  0
   -1.2573   -2.2631    1.9701 O   0  0  0  0  0  0  0  0  0  0  0  0
   -1.5725   -0.8418    0.2432 N   0  0  0  0  0  0  0  0  0  0  0  0
   -2.1082   -0.7058   -0.6101 H   0  0  0  0  0  0  0  0  0  0  0  0
   -0.2238   -0.2580    0.2426 C   0  0  1  0  0  0  0  0  0  0  0  0
    0.3487   -0.6538    1.0866 H   0  0  0  0  0  0  0  0  0  0  0  0
    0.5656   -0.5964   -1.0533 C   0  0  0  0  0  0  0  0  0  0  0  0
    1.1204    0.2881   -1.3844 H   0  0  0  0  0  0  0  0  0  0  0  0
    1.3206   -1.3424   -0.7812 H   0  0  0  0  0  0  0  0  0  0  0  0
   -0.2357   -1.1424   -2.2685 C   0  0  0  0  0  0  0  0  0  0  0  0
   -1.3151   -1.1587   -2.1168 H   0  0  0  0  0  0  0  0  0  0  0  0
   -0.0667   -0.4686   -3.1135 H   0  0  0  0  0  0  0  0  0  0  0  0
    0.2366   -2.5342   -2.6830 C   0  0  0  0  0  0  0  0  0  0  0  0
    1.3615   -2.6412   -3.2314 O   0  5  0  0  0  0  0  0  0  0  0  0
   -0.5345   -3.4929   -2.4273 O   0  0  0  0  0  0  0  0  0  0  0  0
   -0.2842    1.2725    0.4324 C   0  0  0  0  0  0  0  0  0  0  0  0
   -1.0949    1.9660   -0.1732 O   0  0  0  0  0  0  0  0  0  0  0  0
    0.5835    1.8858    1.3187 N   0  0  0  0  0  0  0  0  0  0  0  0
    1.2177    1.2865    1.8371 H   0  0  0  0  0  0  0  0  0  0  0  0
    0.5849    3.3173    1.5835 C   0  0  0  0  0  0  0  0  0  0  0  0
   -0.3802    3.6310    1.9939 H   0  0  0  0  0  0  0  0  0  0  0  0
    1.3665    3.5650    2.3077 H   0  0  0  0  0  0  0  0  0  0  0  0
    0.7774    3.8764    0.6622 H   0  0  0  0  0  0  0  0  0  0  0  0
  1  2  1  0  0  0  0
  2  3  1  0  0  0  0
  2  4  1  0  0  0  0
  2  5  1  0  0  0  0
  5  6  2  0  0  0  0
  5  7  1  0  0  0  0
  7  8  1  0  0  0  0
  7  9  1  0  0  0  0
  9 10  1  0  0  0  0
  9 11  1  0  0  0  0
  9 20  1  0  0  0  0
 11 12  1  0  0  0  0
 11 13  1  0  0  0  0
 11 14  1  0  0  0  0
 14 15  1  0  0  0  0
 14 16  1  0  0  0  0
 14 17  1  0  0  0  0
 17 18  1  0  0  0  0
 17 19  2  0  0  0  0
 20 21  2  0  0  0  0
 20 22  1  0  0  0  0
 22 23  1  0  0  0  0
 22 24  1  0  0  0  0
 24 25  1  0  0  0  0
 24 26  1  0  0  0  0
 24 27  1  0  0  0  0
M  CHG  1  18  -1
M  END
$$$$

  -OEChem-03222214043D

 27 26  0     1  0  0  0  0  0999 V2000
   -3.1223   -3.7402    1.1424 H   0  0  0  0  0  0  0  0  0  0  0  0
   -3.0835   -2.8200    0.5537 C   0  0  0  0  0  0  0  0  0  0  0  0
   -3.9885   -2.2374    0.7393 H   0  0  0  0  0  0  0  0  0  0  0  0
   -3.0427   -3.0865   -0.5057 H   0  0  0  0  0  0  0  0  0  0  0  0
   -1.8568   -2.0085    0.9295 C   0  0  0  0  0  0  0  0  0  0  0  0
   -1.2356   -2.2772    1.9516 O   0  0  0  0  0  0  0  0  0  0  0  0
   -1.5419   -0.8720    0.2130 N   0  0  0  0  0  0  0  0  0  0  0  0
   -2.0572   -0.7627   -0.6568 H   0  0  0  0  0  0  0  0  0  0  0  0
   -0.1974   -0.2745    0.2379 C   0  0  1  0  0  0  0  0  0  0  0  0
    0.3660   -0.6596    1.0924 H   0  0  0  0  0  0  0  0  0  0  0  0
    0.6145   -0.6022   -1.0461 C   0  0  0  0  0  0  0  0  0  0  0  0
    1.1455    0.2982   -1.3734 H   0  0  0  0  0  0  0  0  0  0  0  0
    1.3869   -1.3327   -0.7818 H   0  0  0  0  0  0  0  0  0  0  0  0
   -0.1853   -1.1474   -2.2567 C   0  0  0  0  0  0  0  0  0  0  0  0
   -1.2468   -0.8942   -2.2188 H   0  0  0  0  0  0  0  0  0  0  0  0
    0.2018   -0.6592   -3.1558 H   0  0  0  0  0  0  0  0  0  0  0  0
    0.0106   -2.6491   -2.4521 C   0  0  0  0  0  0  0  0  0  0  0  0
    1.1120   -3.0536   -2.9000 O   0  5  0  0  0  0  0  0  0  0  0  0
   -0.9544   -3.3894   -2.1365 O   0  0  0  0  0  0  0  0  0  0  0  0
   -0.2814    1.2574    0.4098 C   0  0  0  0  0  0  0  0  0  0  0  0
   -1.0743    1.9395   -0.2314 O   0  0  0  0  0  0  0  0  0  0  0  0
    0.5582    1.8882    1.3109 N   0  0  0  0  0  0  0  0  0  0  0  0
    1.1722    1.2980    1.8631 H   0  0  0  0  0  0  0  0  0  0  0  0
    0.5306    3.3205    1.5695 C   0  0  0  0  0  0  0  0  0  0  0  0
   -0.4543    3.6232    1.9392 H   0  0  0  0  0  0  0  0  0  0  0  0
    1.2788    3.5809    2.3239 H   0  0  0  0  0  0  0  0  0  0  0  0
    0.7531    3.8783    0.6542 H   0  0  0  0  0  0  0  0  0  0  0  0
  1  2  1  0  0  0  0
  2  3  1  0  0  0  0
  2  4  1  0  0  0  0
  2  5  1  0  0  0  0
  5  6  2  0  0  0  0
  5  7  1  0  0  0  0
  7  8  1  0  0  0  0
  7  9  1  0  0  0  0
  9 10  1  0  0  0  0
  9 11  1  0  0  0  0
  9 20  1  0  0  0  0
 11 12  1  0  0  0  0
 11 13  1  0  0  0  0
 11 14  1  0  0  0  0
 14 15  1  0  0  0  0
 14 16  1  0  0  0  0
 14 17  1  0  0  0  0
 17 18  1  0  0  0  0
 17 19  2  0  0  0  0
 20 21  2  0  0  0  0
 20 22  1  0  0  0  0
 22 23  1  0  0  0  0
 22 24  1  0  0  0  0
 24 25  1  0  0  0  0
 24 26  1  0  0  0  0
 24 27  1  0  0  0  0
M  CHG  1  18  -1
M  END
$$$$

  -OEChem-03222214043D

 27 26  0     1  0  0  0  0  0999 V2000
   -2.7952   -3.8071    0.2731 H   0  0  0  0  0  0  0  0  0  0  0  0
   -3.1102   -2.8041    0.5735 C   0  0  0  0  0  0  0  0  0  0  0  0
   -3.7874   -2.8787    1.4274 H   0  0  0  0  0  0  0  0  0  0  0  0
   -3.6429   -2.3442   -0.2627 H   0  0  0  0  0  0  0  0  0  0  0  0
   -1.8908   -1.9778    0.9416 C   0  0  0  0  0  0  0  0  0  0  0  0
   -1.3152   -2.1979    2.0020 O   0  0  0  0  0  0  0  0  0  0  0  0
   -1.5438   -0.8687    0.1947 N   0  0  0  0  0  0  0  0  0  0  0  0
   -1.9954   -0.8347   -0.7177 H   0  0  0  0  0  0  0  0  0  0  0  0
   -0.1931   -0.2835    0.2559 C   0  0  1  0  0  0  0  0  0  0  0  0
    0.3423   -0.6514    1.1357 H   0  0  0  0  0  0  0  0  0  0  0  0
    0.6554   -0.6282   -1.0006 C   0  0  0  0  0  0  0  0  0  0  0  0
    1.2040    0.2635   -1.3225 H   0  0  0  0  0  0  0  0  0  0  0  0
    1.4108   -1.3682   -0.7150 H   0  0  0  0  0  0  0  0  0  0  0  0
   -0.1261   -1.1715   -2.2186 C   0  0  0  0  0  0  0  0  0  0  0  0
   -1.1027   -0.6882   -2.3131 H   0  0  0  0  0  0  0  0  0  0  0  0
    0.4344   -0.9089   -3.1203 H   0  0  0  0  0  0  0  0  0  0  0  0
   -0.2641   -2.6922   -2.2132 C   0  0  0  0  0  0  0  0  0  0  0  0
    0.7693   -3.3881   -2.3685 O   0  5  0  0  0  0  0  0  0  0  0  0
   -1.4225   -3.1504   -2.0489 O   0  0  0  0  0  0  0  0  0  0  0  0
   -0.2733    1.2547    0.3732 C   0  0  0  0  0  0  0  0  0  0  0  0
   -1.0185    1.9260   -0.3333 O   0  0  0  0  0  0  0  0  0  0  0  0
    0.5338    1.9071    1.2888 N   0  0  0  0  0  0  0  0  0  0  0  0
    1.0900    1.3272    1.9086 H   0  0  0  0  0  0  0  0  0  0  0  0
    0.5066    3.3469    1.5025 C   0  0  0  0  0  0  0  0  0  0  0  0
   -0.4714    3.6575    1.8839 H   0  0  0  0  0  0  0  0  0  0  0  0
    1.2712    3.6332    2.2307 H   0  0  0  0  0  0  0  0  0  0  0  0
    0.7069    3.8775    0.5659 H   0  0  0  0  0  0  0  0  0  0  0  0
  1  2  1  0  0  0  0
  2  3  1  0  0  0  0
  2  4  1  0  0  0  0
  2  5  1  0  0  0  0
  5  6  2  0  0  0  0
  5  7  1  0  0  0  0
  7  8  1  0  0  0  0
  7  9  1  0  0  0  0
  9 10  1  0  0  0  0
  9 11  1  0  0  0  0
  9 20  1  0  0  0  0
 11 12  1  0  0  0  0
 11 13  1  0  0  0  0
 11 14  1  0  0  0  0
 14 15  1  0  0  0  0
 14 16  1  0  0  0  0
 14 17  1  0  0  0  0
 17 18  1  0  0  0  0
 17 19  2  0  0  0  0
 20 21  2  0  0  0  0
 20 22  1  0  0  0  0
 22 23  1  0  0  0  0
 22 24  1  0  0  0  0
 24 25  1  0  0  0  0
 24 26  1  0  0  0  0
 24 27  1  0  0  0  0
M  CHG  1  18  -1
M  END
$$$$

  -OEChem-03222214043D

 27 26  0     1  0  0  0  0  0999 V2000
   -3.1951   -3.6813    1.3451 H   0  0  0  0  0  0  0  0  0  0  0  0
   -3.1576   -2.7727    0.7387 C   0  0  0  0  0  0  0  0  0  0  0  0
   -3.9788   -2.1141    1.0300 H   0  0  0  0  0  0  0  0  0  0  0  0
   -3.2872   -3.0526   -0.3079 H   0  0  0  0  0  0  0  0  0  0  0  0
   -1.8297   -2.0617    0.9437 C   0  0  0  0  0  0  0  0  0  0  0  0
   -1.1666   -2.3306    1.9403 O   0  0  0  0  0  0  0  0  0  0  0  0
   -1.5176   -0.9341    0.2065 N   0  0  0  0  0  0  0  0  0  0  0  0
   -2.0190   -0.8689   -0.6799 H   0  0  0  0  0  0  0  0  0  0  0  0
   -0.1754   -0.3232    0.2407 C   0  0  1  0  0  0  0  0  0  0  0  0
    0.3906   -0.6915    1.1006 H   0  0  0  0  0  0  0  0  0  0  0  0
    0.6680   -0.5897   -1.0396 C   0  0  0  0  0  0  0  0  0  0  0  0
    1.1994    0.3235   -1.3280 H   0  0  0  0  0  0  0  0  0  0  0  0
    1.4367   -1.3281   -0.7884 H   0  0  0  0  0  0  0  0  0  0  0  0
   -0.0933   -1.1074   -2.2772 C   0  0  0  0  0  0  0  0  0  0  0  0
   -0.9723   -0.4799   -2.4552 H   0  0  0  0  0  0  0  0  0  0  0  0
    0.5585   -1.0011   -3.1490 H   0  0  0  0  0  0  0  0  0  0  0  0
   -0.5043   -2.5754   -2.1952 C   0  0  0  0  0  0  0  0  0  0  0  0
    0.3948   -3.4440   -2.0861 O   0  5  0  0  0  0  0  0  0  0  0  0
   -1.7354   -2.8187   -2.2481 O   0  0  0  0  0  0  0  0  0  0  0  0
   -0.2994    1.2101    0.3861 C   0  0  0  0  0  0  0  0  0  0  0  0
   -1.0784    1.8740   -0.2903 O   0  0  0  0  0  0  0  0  0  0  0  0
    0.5131    1.8690    1.2921 N   0  0  0  0  0  0  0  0  0  0  0  0
    1.1077    1.2951    1.8811 H   0  0  0  0  0  0  0  0  0  0  0  0
    0.4626    3.3055    1.5211 C   0  0  0  0  0  0  0  0  0  0  0  0
   -0.5350    3.6048    1.8586 H   0  0  0  0  0  0  0  0  0  0  0  0
    1.1880    3.5892    2.2892 H   0  0  0  0  0  0  0  0  0  0  0  0
    0.7033    3.8474    0.6008 H   0  0  0  0  0  0  0  0  0  0  0  0
  1  2  1  0  0  0  0
  2  3  1  0  0  0  0
  2  4  1  0  0  0  0
  2  5  1  0  0  0  0
  5  6  2  0  0  0  0
  5  7  1  0  0  0  0
  7  8  1  0  0  0  0
  7  9  1  0  0  0  0
  9 10  1  0  0  0  0
  9 11  1  0  0  0  0
  9 20  1  0  0  0  0
 11 12  1  0  0  0  0
 11 13  1  0  0  0  0
 11 14  1  0  0  0  0
 14 15  1  0  0  0  0
 14 16  1  0  0  0  0
 14 17  1  0  0  0  0
 17 18  1  0  0  0  0
 17 19  2  0  0  0  0
 20 21  2  0  0  0  0
 20 22  1  0  0  0  0
 22 23  1  0  0  0  0
 22 24  1  0  0  0  0
 24 25  1  0  0  0  0
 24 26  1  0  0  0  0
 24 27  1  0  0  0  0
M  CHG  1  18  -1
M  END
$$$$

  -OEChem-03222214043D

 27 26  0     1  0  0  0  0  0999 V2000
   -3.5045   -3.2434    1.6347 H   0  0  0  0  0  0  0  0  0  0  0  0
   -3.0510   -2.8737    0.7121 C   0  0  0  0  0  0  0  0  0  0  0  0
   -3.7967   -2.3010    0.1550 H   0  0  0  0  0  0  0  0  0  0  0  0
   -2.7360   -3.7245    0.1014 H   0  0  0  0  0  0  0  0  0  0  0  0
   -1.8478   -2.0027    1.0268 C   0  0  0  0  0  0  0  0  0  0  0  0
   -1.2204   -2.2058    2.0623 O   0  0  0  0  0  0  0  0  0  0  0  0
   -1.5631   -0.8820    0.2677 N   0  0  0  0  0  0  0  0  0  0  0  0
   -2.0530   -0.8793   -0.6320 H   0  0  0  0  0  0  0  0  0  0  0  0
   -0.2105   -0.2970    0.2624 C   0  0  1  0  0  0  0  0  0  0  0  0
    0.3720   -0.6725    1.1082 H   0  0  0  0  0  0  0  0  0  0  0  0
    0.6012   -0.5785   -1.0398 C   0  0  0  0  0  0  0  0  0  0  0  0
    1.1650    0.3155   -1.3265 H   0  0  0  0  0  0  0  0  0  0  0  0
    1.3418   -1.3459   -0.7910 H   0  0  0  0  0  0  0  0  0  0  0  0
   -0.1526   -1.0868   -2.2903 C   0  0  0  0  0  0  0  0  0  0  0  0
   -0.8653   -0.3164   -2.6009 H   0  0  0  0  0  0  0  0  0  0  0  0
    0.5693   -1.2056   -3.1029 H   0  0  0  0  0  0  0  0  0  0  0  0
   -0.8932   -2.4120   -2.1318 C   0  0  0  0  0  0  0  0  0  0  0  0
   -0.2254   -3.4450   -1.8872 O   0  5  0  0  0  0  0  0  0  0  0  0
   -2.1478   -2.3681   -2.2007 O   0  0  0  0  0  0  0  0  0  0  0  0
   -0.2980    1.2395    0.4065 C   0  0  0  0  0  0  0  0  0  0  0  0
   -1.0612    1.9255   -0.2653 O   0  0  0  0  0  0  0  0  0  0  0  0
    0.5553    1.8793    1.2890 N   0  0  0  0  0  0  0  0  0  0  0  0
    1.1169    1.2877    1.8926 H   0  0  0  0  0  0  0  0  0  0  0  0
    0.5263    3.3137    1.5359 C   0  0  0  0  0  0  0  0  0  0  0  0
   -0.4446    3.6113    1.9450 H   0  0  0  0  0  0  0  0  0  0  0  0
    1.3048    3.5872    2.2542 H   0  0  0  0  0  0  0  0  0  0  0  0
    0.7043    3.8657    0.6073 H   0  0  0  0  0  0  0  0  0  0  0  0
  1  2  1  0  0  0  0
  2  3  1  0  0  0  0
  2  4  1  0  0  0  0
  2  5  1  0  0  0  0
  5  6  2  0  0  0  0
  5  7  1  0  0  0  0
  7  8  1  0  0  0  0
  7  9  1  0  0  0  0
  9 10  1  0  0  0  0
  9 11  1  0  0  0  0
  9 20  1  0  0  0  0
 11 12  1  0  0  0  0
 11 13  1  0  0  0  0
 11 14  1  0  0  0  0
 14 15  1  0  0  0  0
 14 16  1  0  0  0  0
 14 17  1  0  0  0  0
 17 18  1  0  0  0  0
 17 19  2  0  0  0  0
 20 21  2  0  0  0  0
 20 22  1  0  0  0  0
 22 23  1  0  0  0  0
 22 24  1  0  0  0  0
 24 25  1  0  0  0  0
 24 26  1  0  0  0  0
 24 27  1  0  0  0  0
M  CHG  1  18  -1
M  END
$$$$

  -OEChem-03222214043D

 27 26  0     1  0  0  0  0  0999 V2000
   -3.4279   -3.3558    1.6707 H   0  0  0  0  0  0  0  0  0  0  0  0
   -3.0640   -2.8697    0.7624 C   0  0  0  0  0  0  0  0  0  0  0  0
   -3.8680   -2.2647    0.3359 H   0  0  0  0  0  0  0  0  0  0  0  0
   -2.7815   -3.6369    0.0361 H   0  0  0  0  0  0  0  0  0  0  0  0
   -1.8613   -1.9962    1.0738 C   0  0  0  0  0  0  0  0  0  0  0  0
   -1.2049   -2.2159    2.0881 O   0  0  0  0  0  0  0  0  0  0  0  0
   -1.5918   -0.8725    0.3152 N   0  0  0  0  0  0  0  0  0  0  0  0
   -2.1151   -0.8540   -0.5686 H   0  0  0  0  0  0  0  0  0  0  0  0
   -0.2453   -0.2808    0.2739 C   0  0  1  0  0  0  0  0  0  0  0  0
    0.3468   -0.6486    1.1161 H   0  0  0  0  0  0  0  0  0  0  0  0
    0.5681   -0.5685   -1.0293 C   0  0  0  0  0  0  0  0  0  0  0  0
    1.1410    0.3213   -1.3107 H   0  0  0  0  0  0  0  0  0  0  0  0
    1.3016   -1.3335   -0.7542 H   0  0  0  0  0  0  0  0  0  0  0  0
   -0.1238   -1.1076   -2.3091 C   0  0  0  0  0  0  0  0  0  0  0  0
   -0.6493   -0.2709   -2.7797 H   0  0  0  0  0  0  0  0  0  0  0  0
    0.6510   -1.4330   -3.0092 H   0  0  0  0  0  0  0  0  0  0  0  0
   -1.1228   -2.2506   -2.1452 C   0  0  0  0  0  0  0  0  0  0  0  0
   -0.6715   -3.3921   -1.8881 O   0  5  0  0  0  0  0  0  0  0  0  0
   -2.3461   -1.9616   -2.2007 O   0  0  0  0  0  0  0  0  0  0  0  0
   -0.3298    1.2552    0.4234 C   0  0  0  0  0  0  0  0  0  0  0  0
   -1.1042    1.9452   -0.2303 O   0  0  0  0  0  0  0  0  0  0  0  0
    0.5483    1.8927    1.2834 N   0  0  0  0  0  0  0  0  0  0  0  0
    1.1274    1.3004    1.8692 H   0  0  0  0  0  0  0  0  0  0  0  0
    0.5438    3.3296    1.5173 C   0  0  0  0  0  0  0  0  0  0  0  0
   -0.4127    3.6440    1.9472 H   0  0  0  0  0  0  0  0  0  0  0  0
    1.3434    3.5991    2.2135 H   0  0  0  0  0  0  0  0  0  0  0  0
    0.7060    3.8706    0.5794 H   0  0  0  0  0  0  0  0  0  0  0  0
  1  2  1  0  0  0  0
  2  3  1  0  0  0  0
  2  4  1  0  0  0  0
  2  5  1  0  0  0  0
  5  6  2  0  0  0  0
  5  7  1  0  0  0  0
  7  8  1  0  0  0  0
  7  9  1  0  0  0  0
  9 10  1  0  0  0  0
  9 11  1  0  0  0  0
  9 20  1  0  0  0  0
 11 12  1  0  0  0  0
 11 13  1  0  0  0  0
 11 14  1  0  0  0  0
 14 15  1  0  0  0  0
 14 16  1  0  0  0  0
 14 17  1  0  0  0  0
 17 18  1  0  0  0  0
 17 19  2  0  0  0  0
 20 21  2  0  0  0  0
 20 22  1  0  0  0  0
 22 23  1  0  0  0  0
 22 24  1  0  0  0  0
 24 25  1  0  0  0  0
 24 26  1  0  0  0  0
 24 27  1  0  0  0  0
M  CHG  1  18  -1
M  END
$$$$

  -OEChem-03222214043D

 27 26  0     1  0  0  0  0  0999 V2000
   -3.3022   -3.4812    1.6847 H   0  0  0  0  0  0  0  0  0  0  0  0
   -3.0941   -2.8261    0.8353 C   0  0  0  0  0  0  0  0  0  0  0  0
   -3.9444   -2.1570    0.6843 H   0  0  0  0  0  0  0  0  0  0  0  0
   -2.9675   -3.4387   -0.0612 H   0  0  0  0  0  0  0  0  0  0  0  0
   -1.8337   -2.0166    1.0860 C   0  0  0  0  0  0  0  0  0  0  0  0
   -1.1028   -2.3065    2.0290 O   0  0  0  0  0  0  0  0  0  0  0  0
   -1.5868   -0.8739    0.3519 N   0  0  0  0  0  0  0  0  0  0  0  0
   -2.1793   -0.7856   -0.4845 H   0  0  0  0  0  0  0  0  0  0  0  0
   -0.2540   -0.2650    0.2584 C   0  0  1  0  0  0  0  0  0  0  0  0
    0.3640   -0.6383    1.0793 H   0  0  0  0  0  0  0  0  0  0  0  0
    0.5295   -0.5488   -1.0649 C   0  0  0  0  0  0  0  0  0  0  0  0
    1.0915    0.3456   -1.3534 H   0  0  0  0  0  0  0  0  0  0  0  0
    1.2743   -1.3023   -0.7891 H   0  0  0  0  0  0  0  0  0  0  0  0
   -0.1409   -1.1141   -2.3518 C   0  0  0  0  0  0  0  0  0  0  0  0
   -0.4650   -0.2570   -2.9496 H   0  0  0  0  0  0  0  0  0  0  0  0
    0.6236   -1.6339   -2.9367 H   0  0  0  0  0  0  0  0  0  0  0  0
   -1.3518   -2.0376   -2.2209 C   0  0  0  0  0  0  0  0  0  0  0  0
   -1.1276   -3.2599   -2.0503 O   0  5  0  0  0  0  0  0  0  0  0  0
   -2.4975   -1.5178   -2.2170 O   0  0  0  0  0  0  0  0  0  0  0  0
   -0.3341    1.2671    0.4464 C   0  0  0  0  0  0  0  0  0  0  0  0
   -1.1511    1.9688   -0.1380 O   0  0  0  0  0  0  0  0  0  0  0  0
    0.5855    1.8877    1.2753 N   0  0  0  0  0  0  0  0  0  0  0  0
    1.1997    1.2844    1.8120 H   0  0  0  0  0  0  0  0  0  0  0  0
    0.5775    3.3165    1.5561 C   0  0  0  0  0  0  0  0  0  0  0  0
   -0.3568    3.6037    2.0491 H   0  0  0  0  0  0  0  0  0  0  0  0
    1.4118    3.5743    2.2150 H   0  0  0  0  0  0  0  0  0  0  0  0
    0.6805    3.8899    0.6292 H   0  0  0  0  0  0  0  0  0  0  0  0
  1  2  1  0  0  0  0
  2  3  1  0  0  0  0
  2  4  1  0  0  0  0
  2  5  1  0  0  0  0
  5  6  2  0  0  0  0
  5  7  1  0  0  0  0
  7  8  1  0  0  0  0
  7  9  1  0  0  0  0
  9 10  1  0  0  0  0
  9 11  1  0  0  0  0
  9 20  1  0  0  0  0
 11 12  1  0  0  0  0
 11 13  1  0  0  0  0
 11 14  1  0  0  0  0
 14 15  1  0  0  0  0
 14 16  1  0  0  0  0
 14 17  1  0  0  0  0
 17 18  1  0  0  0  0
 17 19  2  0  0  0  0
 20 21  2  0  0  0  0
 20 22  1  0  0  0  0
 22 23  1  0  0  0  0
 22 24  1  0  0  0  0
 24 25  1  0  0  0  0
 24 26  1  0  0  0  0
 24 27  1  0  0  0  0
M  CHG  1  18  -1
M  END
$$$$

  -OEChem-03222214043D

 27 26  0     1  0  0  0  0  0999 V2000
   -3.1485   -3.4138    1.9877 H   0  0  0  0  0  0  0  0  0  0  0  0
   -3.1211   -2.6139    1.2439 C   0  0  0  0  0  0  0  0  0  0  0  0
   -3.9061   -1.8886    1.4694 H   0  0  0  0  0  0  0  0  0  0  0  0
   -3.3132   -3.0443    0.2577 H   0  0  0  0  0  0  0  0  0  0  0  0
   -1.7661   -1.9283    1.2537 C   0  0  0  0  0  0  0  0  0  0  0  0
   -0.9056   -2.2888    2.0517 O   0  0  0  0  0  0  0  0  0  0  0  0
   -1.5556   -0.8125    0.4711 N   0  0  0  0  0  0  0  0  0  0  0  0
   -2.2737   -0.6520   -0.2491 H   0  0  0  0  0  0  0  0  0  0  0  0
   -0.2288   -0.2603    0.1801 C   0  0  1  0  0  0  0  0  0  0  0  0
    0.4683   -0.6372    0.9329 H   0  0  0  0  0  0  0  0  0  0  0  0
    0.3746   -0.6411   -1.2110 C   0  0  0  0  0  0  0  0  0  0  0  0
    0.9171    0.2224   -1.6102 H   0  0  0  0  0  0  0  0  0  0  0  0
    1.1338   -1.3965   -0.9845 H   0  0  0  0  0  0  0  0  0  0  0  0
   -0.4492   -1.2517   -2.3886 C   0  0  0  0  0  0  0  0  0  0  0  0
   -0.5843   -0.4578   -3.1290 H   0  0  0  0  0  0  0  0  0  0  0  0
    0.1644   -2.0207   -2.8678 H   0  0  0  0  0  0  0  0  0  0  0  0
   -1.8405   -1.8396   -2.1439 C   0  0  0  0  0  0  0  0  0  0  0  0
   -1.9187   -3.0854   -2.0153 O   0  5  0  0  0  0  0  0  0  0  0  0
   -2.8119   -1.0526   -2.0111 O   0  0  0  0  0  0  0  0  0  0  0  0
   -0.2075    1.2774    0.3367 C   0  0  0  0  0  0  0  0  0  0  0  0
   -1.0781    2.0089   -0.1180 O   0  0  0  0  0  0  0  0  0  0  0  0
    0.8489    1.8658    1.0122 N   0  0  0  0  0  0  0  0  0  0  0  0
    1.5119    1.2423    1.4601 H   0  0  0  0  0  0  0  0  0  0  0  0
    0.9312    3.2943    1.2812 C   0  0  0  0  0  0  0  0  0  0  0  0
    0.0977    3.6112    1.9162 H   0  0  0  0  0  0  0  0  0  0  0  0
    1.8683    3.5270    1.7951 H   0  0  0  0  0  0  0  0  0  0  0  0
    0.9002    3.8628    0.3460 H   0  0  0  0  0  0  0  0  0  0  0  0
  1  2  1  0  0  0  0
  2  3  1  0  0  0  0
  2  4  1  0  0  0  0
  2  5  1  0  0  0  0
  5  6  2  0  0  0  0
  5  7  1  0  0  0  0
  7  8  1  0  0  0  0
  7  9  1  0  0  0  0
  9 10  1  0  0  0  0
  9 11  1  0  0  0  0
  9 20  1  0  0  0  0
 11 12  1  0  0  0  0
 11 13  1  0  0  0  0
 11 14  1  0  0  0  0
 14 15  1  0  0  0  0
 14 16  1  0  0  0  0
 14 17  1  0  0  0  0
 17 18  1  0  0  0  0
 17 19  2  0  0  0  0
 20 21  2  0  0  0  0
 20 22  1  0  0  0  0
 22 23  1  0  0  0  0
 22 24  1  0  0  0  0
 24 25  1  0  0  0  0
 24 26  1  0  0  0  0
 24 27  1  0  0  0  0
M  CHG  1  18  -1
M  END
$$$$

  -OEChem-03222214043D

 27 26  0     1  0  0  0  0  0999 V2000
   -2.7857   -3.7110    1.8819 H   0  0  0  0  0  0  0  0  0  0  0  0
   -2.8480   -2.8896    1.1639 C   0  0  0  0  0  0  0  0  0  0  0  0
   -3.6794   -2.2367    1.4400 H   0  0  0  0  0  0  0  0  0  0  0  0
   -3.0418   -3.3031    0.1708 H   0  0  0  0  0  0  0  0  0  0  0  0
   -1.5515   -2.0994    1.1487 C   0  0  0  0  0  0  0  0  0  0  0  0
   -0.5959   -2.4787    1.8191 O   0  0  0  0  0  0  0  0  0  0  0  0
   -1.4882   -0.9024    0.4687 N   0  0  0  0  0  0  0  0  0  0  0  0
   -2.2819   -0.7081   -0.1581 H   0  0  0  0  0  0  0  0  0  0  0  0
   -0.2472   -0.1929    0.1469 C   0  0  1  0  0  0  0  0  0  0  0  0
    0.5212   -0.5606    0.8318 H   0  0  0  0  0  0  0  0  0  0  0  0
    0.3110   -0.4407   -1.2913 C   0  0  0  0  0  0  0  0  0  0  0  0
    0.6952    0.5114   -1.6719 H   0  0  0  0  0  0  0  0  0  0  0  0
    1.1845   -1.0872   -1.1604 H   0  0  0  0  0  0  0  0  0  0  0  0
   -0.5126   -1.0849   -2.4536 C   0  0  0  0  0  0  0  0  0  0  0  0
   -0.5270   -0.3698   -3.2813 H   0  0  0  0  0  0  0  0  0  0  0  0
    0.0494   -1.9541   -2.8091 H   0  0  0  0  0  0  0  0  0  0  0  0
   -1.9639   -1.5297   -2.2454 C   0  0  0  0  0  0  0  0  0  0  0  0
   -2.1900   -2.7639   -2.2805 O   0  5  0  0  0  0  0  0  0  0  0  0
   -2.8308   -0.6629   -1.9740 O   0  0  0  0  0  0  0  0  0  0  0  0
   -0.3318    1.3235    0.4398 C   0  0  0  0  0  0  0  0  0  0  0  0
   -1.3002    2.0137    0.1505 O   0  0  0  0  0  0  0  0  0  0  0  0
    0.7269    1.9363    1.0903 N   0  0  0  0  0  0  0  0  0  0  0  0
    1.4922    1.3415    1.3884 H   0  0  0  0  0  0  0  0  0  0  0  0
    0.7374    3.3438    1.4638 C   0  0  0  0  0  0  0  0  0  0  0  0
   -0.0943    3.5671    2.1400 H   0  0  0  0  0  0  0  0  0  0  0  0
    1.6738    3.5900    1.9730 H   0  0  0  0  0  0  0  0  0  0  0  0
    0.6504    3.9765    0.5745 H   0  0  0  0  0  0  0  0  0  0  0  0
  1  2  1  0  0  0  0
  2  3  1  0  0  0  0
  2  4  1  0  0  0  0
  2  5  1  0  0  0  0
  5  6  2  0  0  0  0
  5  7  1  0  0  0  0
  7  8  1  0  0  0  0
  7  9  1  0  0  0  0
  9 10  1  0  0  0  0
  9 11  1  0  0  0  0
  9 20  1  0  0  0  0
 11 12  1  0  0  0  0
 11 13  1  0  0  0  0
 11 14  1  0  0  0  0
 14 15  1  0  0  0  0
 14 16  1  0  0  0  0
 14 17  1  0  0  0  0
 17 18  1  0  0  0  0
 17 19  2  0  0  0  0
 20 21  2  0  0  0  0
 20 22  1  0  0  0  0
 22 23  1  0  0  0  0
 22 24  1  0  0  0  0
 24 25  1  0  0  0  0
 24 26  1  0  0  0  0
 24 27  1  0  0  0  0
M  CHG  1  18  -1
M  END
$$$$

  -OEChem-03222214043D

 27 26  0     1  0  0  0  0  0999 V2000
   -3.1668   -3.6530    1.3780 H   0  0  0  0  0  0  0  0  0  0  0  0
   -3.0771   -2.8190    0.6776 C   0  0  0  0  0  0  0  0  0  0  0  0
   -3.9249   -2.1442    0.8175 H   0  0  0  0  0  0  0  0  0  0  0  0
   -3.1030   -3.2090   -0.3434 H   0  0  0  0  0  0  0  0  0  0  0  0
   -1.7762   -2.0713    0.9067 C   0  0  0  0  0  0  0  0  0  0  0  0
   -0.9366   -2.5235    1.6787 O   0  0  0  0  0  0  0  0  0  0  0  0
   -1.5731   -0.8553    0.2930 N   0  0  0  0  0  0  0  0  0  0  0  0
   -2.2666   -0.5853   -0.4179 H   0  0  0  0  0  0  0  0  0  0  0  0
   -0.2850   -0.1650    0.1924 C   0  0  1  0  0  0  0  0  0  0  0  0
    0.3425   -0.5690    0.9907 H   0  0  0  0  0  0  0  0  0  0  0  0
    0.5014   -0.4462   -1.1255 C   0  0  0  0  0  0  0  0  0  0  0  0
    0.9151    0.5102   -1.4618 H   0  0  0  0  0  0  0  0  0  0  0  0
    1.3583   -1.0732   -0.8601 H   0  0  0  0  0  0  0  0  0  0  0  0
   -0.1533   -1.0991   -2.3844 C   0  0  0  0  0  0  0  0  0  0  0  0
    0.2219   -0.5810   -3.2712 H   0  0  0  0  0  0  0  0  0  0  0  0
    0.2290   -2.1233   -2.4379 H   0  0  0  0  0  0  0  0  0  0  0  0
   -1.6775   -1.1914   -2.5228 C   0  0  0  0  0  0  0  0  0  0  0  0
   -2.1608   -2.3314   -2.7302 O   0  5  0  0  0  0  0  0  0  0  0  0
   -2.3664   -0.1611   -2.3341 O   0  0  0  0  0  0  0  0  0  0  0  0
   -0.3592    1.3457    0.5193 C   0  0  0  0  0  0  0  0  0  0  0  0
   -1.2915    2.0662    0.1897 O   0  0  0  0  0  0  0  0  0  0  0  0
    0.6127    1.8934    1.3415 N   0  0  0  0  0  0  0  0  0  0  0  0
    1.3221    1.2636    1.6996 H   0  0  0  0  0  0  0  0  0  0  0  0
    0.5748    3.2653    1.8284 C   0  0  0  0  0  0  0  0  0  0  0  0
   -0.2915    3.4149    2.4810 H   0  0  0  0  0  0  0  0  0  0  0  0
    1.4823    3.4872    2.3974 H   0  0  0  0  0  0  0  0  0  0  0  0
    0.5128    3.9676    0.9907 H   0  0  0  0  0  0  0  0  0  0  0  0
  1  2  1  0  0  0  0
  2  3  1  0  0  0  0
  2  4  1  0  0  0  0
  2  5  1  0  0  0  0
  5  6  2  0  0  0  0
  5  7  1  0  0  0  0
  7  8  1  0  0  0  0
  7  9  1  0  0  0  0
  9 10  1  0  0  0  0
  9 11  1  0  0  0  0
  9 20  1  0  0  0  0
 11 12  1  0  0  0  0
 11 13  1  0  0  0  0
 11 14  1  0  0  0  0
 14 15  1  0  0  0  0
 14 16  1  0  0  0  0
 14 17  1  0  0  0  0
 17 18  1  0  0  0  0
 17 19  2  0  0  0  0
 20 21  2  0  0  0  0
 20 22  1  0  0  0  0
 22 23  1  0  0  0  0
 22 24  1  0  0  0  0
 24 25  1  0  0  0  0
 24 26  1  0  0  0  0
 24 27  1  0  0  0  0
M  CHG  1  18  -1
M  END
$$$$

  -OEChem-03222214043D

 27 26  0     1  0  0  0  0  0999 V2000
   -3.2426   -3.5618    1.4932 H   0  0  0  0  0  0  0  0  0  0  0  0
   -3.0811   -2.8318    0.6962 C   0  0  0  0  0  0  0  0  0  0  0  0
   -3.9230   -2.1351    0.6764 H   0  0  0  0  0  0  0  0  0  0  0  0
   -3.0366   -3.3543   -0.2629 H   0  0  0  0  0  0  0  0  0  0  0  0
   -1.7865   -2.0724    0.9254 C   0  0  0  0  0  0  0  0  0  0  0  0
   -0.9628   -2.5109    1.7226 O   0  0  0  0  0  0  0  0  0  0  0  0
   -1.5748   -0.8663    0.2920 N   0  0  0  0  0  0  0  0  0  0  0  0
   -2.2259   -0.6882   -0.4821 H   0  0  0  0  0  0  0  0  0  0  0  0
   -0.2603   -0.2175    0.2032 C   0  0  1  0  0  0  0  0  0  0  0  0
    0.3699   -0.6340    0.9930 H   0  0  0  0  0  0  0  0  0  0  0  0
    0.5044   -0.4730   -1.1317 C   0  0  0  0  0  0  0  0  0  0  0  0
    0.9531    0.4789   -1.4349 H   0  0  0  0  0  0  0  0  0  0  0  0
    1.3365   -1.1468   -0.9046 H   0  0  0  0  0  0  0  0  0  0  0  0
   -0.1910   -1.0415   -2.4025 C   0  0  0  0  0  0  0  0  0  0  0  0
    0.3798   -0.7192   -3.2784 H   0  0  0  0  0  0  0  0  0  0  0  0
   -0.1060   -2.1313   -2.3570 H   0  0  0  0  0  0  0  0  0  0  0  0
   -1.6711   -0.7319   -2.6515 C   0  0  0  0  0  0  0  0  0  0  0  0
   -1.9314    0.2868   -3.3321 O   0  5  0  0  0  0  0  0  0  0  0  0
   -2.5370   -1.5287   -2.2062 O   0  0  0  0  0  0  0  0  0  0  0  0
   -0.3302    1.2946    0.5212 C   0  0  0  0  0  0  0  0  0  0  0  0
   -1.2507    2.0119    0.1541 O   0  0  0  0  0  0  0  0  0  0  0  0
    0.6258    1.8463    1.3582 N   0  0  0  0  0  0  0  0  0  0  0  0
    1.3365    1.2232    1.7247 H   0  0  0  0  0  0  0  0  0  0  0  0
    0.6014    3.2328    1.8026 C   0  0  0  0  0  0  0  0  0  0  0  0
   -0.3006    3.4297    2.3910 H   0  0  0  0  0  0  0  0  0  0  0  0
    1.4754    3.4430    2.4257 H   0  0  0  0  0  0  0  0  0  0  0  0
    0.6190    3.9106    0.9429 H   0  0  0  0  0  0  0  0  0  0  0  0
  1  2  1  0  0  0  0
  2  3  1  0  0  0  0
  2  4  1  0  0  0  0
  2  5  1  0  0  0  0
  5  6  2  0  0  0  0
  5  7  1  0  0  0  0
  7  8  1  0  0  0  0
  7  9  1  0  0  0  0
  9 10  1  0  0  0  0
  9 11  1  0  0  0  0
  9 20  1  0  0  0  0
 11 12  1  0  0  0  0
 11 13  1  0  0  0  0
 11 14  1  0  0  0  0
 14 15  1  0  0  0  0
 14 16  1  0  0  0  0
 14 17  1  0  0  0  0
 17 18  1  0  0  0  0
 17 19  2  0  0  0  0
 20 21  2  0  0  0  0
 20 22  1  0  0  0  0
 22 23  1  0  0  0  0
 22 24  1  0  0  0  0
 24 25  1  0  0  0  0
 24 26  1  0  0  0  0
 24 27  1  0  0  0  0
M  CHG  1  18  -1
M  END
$$$$

  -OEChem-03222214043D

 27 26  0     1  0  0  0  0  0999 V2000
   -3.1980   -3.6024    1.3720 H   0  0  0  0  0  0  0  0  0  0  0  0
   -3.1233   -2.7293    0.7190 C   0  0  0  0  0  0  0  0  0  0  0  0
   -3.9649   -2.0615    0.9181 H   0  0  0  0  0  0  0  0  0  0  0  0
   -3.1751   -3.0586   -0.3224 H   0  0  0  0  0  0  0  0  0  0  0  0
   -1.8164   -1.9957    0.9590 C   0  0  0  0  0  0  0  0  0  0  0  0
   -1.0125   -2.4312    1.7771 O   0  0  0  0  0  0  0  0  0  0  0  0
   -1.5611   -0.8285    0.2762 N   0  0  0  0  0  0  0  0  0  0  0  0
   -2.2079   -0.6425   -0.5023 H   0  0  0  0  0  0  0  0  0  0  0  0
   -0.2414   -0.1922    0.1870 C   0  0  1  0  0  0  0  0  0  0  0  0
    0.3613   -0.5715    1.0160 H   0  0  0  0  0  0  0  0  0  0  0  0
    0.5367   -0.5632   -1.1081 C   0  0  0  0  0  0  0  0  0  0  0  0
    1.0044    0.3499   -1.4919 H   0  0  0  0  0  0  0  0  0  0  0  0
    1.3494   -1.2393   -0.8251 H   0  0  0  0  0  0  0  0  0  0  0  0
   -0.2041   -1.2207   -2.3023 C   0  0  0  0  0  0  0  0  0  0  0  0
    0.4614   -1.2138   -3.1704 H   0  0  0  0  0  0  0  0  0  0  0  0
   -0.3827   -2.2699   -2.0484 H   0  0  0  0  0  0  0  0  0  0  0  0
   -1.5497   -0.6158   -2.7189 C   0  0  0  0  0  0  0  0  0  0  0  0
   -2.6036   -1.1275   -2.2561 O   0  5  0  0  0  0  0  0  0  0  0  0
   -1.5184    0.3187   -3.5538 O   0  0  0  0  0  0  0  0  0  0  0  0
   -0.2909    1.3355    0.4203 C   0  0  0  0  0  0  0  0  0  0  0  0
   -1.2100    2.0387    0.0241 O   0  0  0  0  0  0  0  0  0  0  0  0
    0.6556    1.9169    1.2483 N   0  0  0  0  0  0  0  0  0  0  0  0
    1.3613    1.3074    1.6459 H   0  0  0  0  0  0  0  0  0  0  0  0
    0.6229    3.3173    1.6465 C   0  0  0  0  0  0  0  0  0  0  0  0
   -0.2763    3.5257    2.2352 H   0  0  0  0  0  0  0  0  0  0  0  0
    1.4998    3.5561    2.2551 H   0  0  0  0  0  0  0  0  0  0  0  0
    0.6277    3.9663    0.7648 H   0  0  0  0  0  0  0  0  0  0  0  0
  1  2  1  0  0  0  0
  2  3  1  0  0  0  0
  2  4  1  0  0  0  0
  2  5  1  0  0  0  0
  5  6  2  0  0  0  0
  5  7  1  0  0  0  0
  7  8  1  0  0  0  0
  7  9  1  0  0  0  0
  9 10  1  0  0  0  0
  9 11  1  0  0  0  0
  9 20  1  0  0  0  0
 11 12  1  0  0  0  0
 11 13  1  0  0  0  0
 11 14  1  0  0  0  0
 14 15  1  0  0  0  0
 14 16  1  0  0  0  0
 14 17  1  0  0  0  0
 17 18  1  0  0  0  0
 17 19  2  0  0  0  0
 20 21  2  0  0  0  0
 20 22  1  0  0  0  0
 22 23  1  0  0  0  0
 22 24  1  0  0  0  0
 24 25  1  0  0  0  0
 24 26  1  0  0  0  0
 24 27  1  0  0  0  0
M  CHG  1  18  -1
M  END
$$$$

  -OEChem-03222214043D

 27 26  0     1  0  0  0  0  0999 V2000
   -3.0826   -3.7729    1.0449 H   0  0  0  0  0  0  0  0  0  0  0  0
   -3.0709   -2.8030    0.5414 C   0  0  0  0  0  0  0  0  0  0  0  0
   -3.9286   -2.2153    0.8775 H   0  0  0  0  0  0  0  0  0  0  0  0
   -3.1546   -2.9619   -0.5375 H   0  0  0  0  0  0  0  0  0  0  0  0
   -1.7842   -2.0595    0.8500 C   0  0  0  0  0  0  0  0  0  0  0  0
   -0.9856   -2.5212    1.6579 O   0  0  0  0  0  0  0  0  0  0  0  0
   -1.5332   -0.8658    0.2156 N   0  0  0  0  0  0  0  0  0  0  0  0
   -2.1759   -0.6343   -0.5560 H   0  0  0  0  0  0  0  0  0  0  0  0
   -0.2348   -0.1813    0.1813 C   0  0  1  0  0  0  0  0  0  0  0  0
    0.3547   -0.5684    1.0164 H   0  0  0  0  0  0  0  0  0  0  0  0
    0.5752   -0.5132   -1.1014 C   0  0  0  0  0  0  0  0  0  0  0  0
    1.0349    0.4061   -1.4800 H   0  0  0  0  0  0  0  0  0  0  0  0
    1.3902   -1.1869   -0.8196 H   0  0  0  0  0  0  0  0  0  0  0  0
   -0.1887   -1.1782   -2.2703 C   0  0  0  0  0  0  0  0  0  0  0  0
    0.5204   -1.3623   -3.0827 H   0  0  0  0  0  0  0  0  0  0  0  0
   -0.5610   -2.1559   -1.9500 H   0  0  0  0  0  0  0  0  0  0  0  0
   -1.3539   -0.3637   -2.8344 C   0  0  0  0  0  0  0  0  0  0  0  0
   -1.1004    0.4749   -3.7323 O   0  5  0  0  0  0  0  0  0  0  0  0
   -2.5066   -0.6393   -2.4062 O   0  0  0  0  0  0  0  0  0  0  0  0
   -0.3229    1.3376    0.4550 C   0  0  0  0  0  0  0  0  0  0  0  0
   -1.2535    2.0302    0.0681 O   0  0  0  0  0  0  0  0  0  0  0  0
    0.5915    1.9134    1.3220 N   0  0  0  0  0  0  0  0  0  0  0  0
    1.3246    1.3167    1.6880 H   0  0  0  0  0  0  0  0  0  0  0  0
    0.5438    3.3099    1.7319 C   0  0  0  0  0  0  0  0  0  0  0  0
   -0.3859    3.5185    2.2710 H   0  0  0  0  0  0  0  0  0  0  0  0
    1.3860    3.5368    2.3923 H   0  0  0  0  0  0  0  0  0  0  0  0
    0.6021    3.9671    0.8582 H   0  0  0  0  0  0  0  0  0  0  0  0
  1  2  1  0  0  0  0
  2  3  1  0  0  0  0
  2  4  1  0  0  0  0
  2  5  1  0  0  0  0
  5  6  2  0  0  0  0
  5  7  1  0  0  0  0
  7  8  1  0  0  0  0
  7  9  1  0  0  0  0
  9 10  1  0  0  0  0
  9 11  1  0  0  0  0
  9 20  1  0  0  0  0
 11 12  1  0  0  0  0
 11 13  1  0  0  0  0
 11 14  1  0  0  0  0
 14 15  1  0  0  0  0
 14 16  1  0  0  0  0
 14 17  1  0  0  0  0
 17 18  1  0  0  0  0
 17 19  2  0  0  0  0
 20 21  2  0  0  0  0
 20 22  1  0  0  0  0
 22 23  1  0  0  0  0
 22 24  1  0  0  0  0
 24 25  1  0  0  0  0
 24 26  1  0  0  0  0
 24 27  1  0  0  0  0
M  CHG  1  18  -1
M  END
$$$$

  -OEChem-03222214043D

 27 26  0     1  0  0  0  0  0999 V2000
   -3.1048   -3.7536    1.0400 H   0  0  0  0  0  0  0  0  0  0  0  0
   -3.0790   -2.7926    0.5198 C   0  0  0  0  0  0  0  0  0  0  0  0
   -3.9331   -2.1908    0.8399 H   0  0  0  0  0  0  0  0  0  0  0  0
   -3.1553   -2.9698   -0.5565 H   0  0  0  0  0  0  0  0  0  0  0  0
   -1.7870   -2.0581    0.8276 C   0  0  0  0  0  0  0  0  0  0  0  0
   -0.9964   -2.5212    1.6414 O   0  0  0  0  0  0  0  0  0  0  0  0
   -1.5226   -0.8705    0.1867 N   0  0  0  0  0  0  0  0  0  0  0  0
   -2.1585   -0.6160   -0.5811 H   0  0  0  0  0  0  0  0  0  0  0  0
   -0.2256   -0.1816    0.1669 C   0  0  1  0  0  0  0  0  0  0  0  0
    0.3508   -0.5576    1.0163 H   0  0  0  0  0  0  0  0  0  0  0  0
    0.6061   -0.5257   -1.0978 C   0  0  0  0  0  0  0  0  0  0  0  0
    1.0855    0.3795   -1.4868 H   0  0  0  0  0  0  0  0  0  0  0  0
    1.4061   -1.2078   -0.7938 H   0  0  0  0  0  0  0  0  0  0  0  0
   -0.1717   -1.2095   -2.2433 C   0  0  0  0  0  0  0  0  0  0  0  0
    0.5597   -1.6028   -2.9554 H   0  0  0  0  0  0  0  0  0  0  0  0
   -0.7381   -2.0730   -1.8844 H   0  0  0  0  0  0  0  0  0  0  0  0
   -1.0801   -0.2570   -3.0093 C   0  0  0  0  0  0  0  0  0  0  0  0
   -0.5905    0.4383   -3.9329 O   0  5  0  0  0  0  0  0  0  0  0  0
   -2.2935   -0.2762   -2.6748 O   0  0  0  0  0  0  0  0  0  0  0  0
   -0.3244    1.3399    0.4230 C   0  0  0  0  0  0  0  0  0  0  0  0
   -1.2749    2.0141    0.0518 O   0  0  0  0  0  0  0  0  0  0  0  0
    0.5741    1.9268    1.2991 N   0  0  0  0  0  0  0  0  0  0  0  0
    1.3265    1.3462    1.6514 H   0  0  0  0  0  0  0  0  0  0  0  0
    0.4996    3.3203    1.7151 C   0  0  0  0  0  0  0  0  0  0  0  0
   -0.4386    3.5112    2.2462 H   0  0  0  0  0  0  0  0  0  0  0  0
    1.3312    3.5578    2.3850 H   0  0  0  0  0  0  0  0  0  0  0  0
    0.5552    3.9825    0.8450 H   0  0  0  0  0  0  0  0  0  0  0  0
  1  2  1  0  0  0  0
  2  3  1  0  0  0  0
  2  4  1  0  0  0  0
  2  5  1  0  0  0  0
  5  6  2  0  0  0  0
  5  7  1  0  0  0  0
  7  8  1  0  0  0  0
  7  9  1  0  0  0  0
  9 10  1  0  0  0  0
  9 11  1  0  0  0  0
  9 20  1  0  0  0  0
 11 12  1  0  0  0  0
 11 13  1  0  0  0  0
 11 14  1  0  0  0  0
 14 15  1  0  0  0  0
 14 16  1  0  0  0  0
 14 17  1  0  0  0  0
 17 18  1  0  0  0  0
 17 19  2  0  0  0  0
 20 21  2  0  0  0  0
 20 22  1  0  0  0  0
 22 23  1  0  0  0  0
 22 24  1  0  0  0  0
 24 25  1  0  0  0  0
 24 26  1  0  0  0  0
 24 27  1  0  0  0  0
M  CHG  1  18  -1
M  END
$$$$

  -OEChem-03222214043D

 27 26  0     1  0  0  0  0  0999 V2000
   -3.1525   -3.7175    1.1536 H   0  0  0  0  0  0  0  0  0  0  0  0
   -3.1094   -2.7747    0.6019 C   0  0  0  0  0  0  0  0  0  0  0  0
   -3.9318   -2.1335    0.9287 H   0  0  0  0  0  0  0  0  0  0  0  0
   -3.2255   -2.9835   -0.4651 H   0  0  0  0  0  0  0  0  0  0  0  0
   -1.7830   -2.0788    0.8476 C   0  0  0  0  0  0  0  0  0  0  0  0
   -0.9713   -2.5638    1.6258 O   0  0  0  0  0  0  0  0  0  0  0  0
   -1.5134   -0.8969    0.1966 N   0  0  0  0  0  0  0  0  0  0  0  0
   -2.1912   -0.5859   -0.5029 H   0  0  0  0  0  0  0  0  0  0  0  0
   -0.2113   -0.2186    0.1647 C   0  0  1  0  0  0  0  0  0  0  0  0
    0.3734   -0.5878    1.0116 H   0  0  0  0  0  0  0  0  0  0  0  0
    0.6179   -0.5390   -1.1072 C   0  0  0  0  0  0  0  0  0  0  0  0
    1.1267    0.3637   -1.4629 H   0  0  0  0  0  0  0  0  0  0  0  0
    1.4008   -1.2416   -0.8057 H   0  0  0  0  0  0  0  0  0  0  0  0
   -0.1404   -1.1985   -2.2834 C   0  0  0  0  0  0  0  0  0  0  0  0
    0.5864   -1.7807   -2.8574 H   0  0  0  0  0  0  0  0  0  0  0  0
   -0.8972   -1.9120   -1.9508 H   0  0  0  0  0  0  0  0  0  0  0  0
   -0.7418   -0.1828   -3.2488 C   0  0  0  0  0  0  0  0  0  0  0  0
    0.0400    0.5071   -3.9499 O   0  5  0  0  0  0  0  0  0  0  0  0
   -1.9962   -0.1396   -3.3076 O   0  0  0  0  0  0  0  0  0  0  0  0
   -0.3376    1.3012    0.4145 C   0  0  0  0  0  0  0  0  0  0  0  0
   -1.3277    1.9339    0.0709 O   0  0  0  0  0  0  0  0  0  0  0  0
    0.5480    1.9147    1.2848 N   0  0  0  0  0  0  0  0  0  0  0  0
    1.3549    1.3769    1.5808 H   0  0  0  0  0  0  0  0  0  0  0  0
    0.4518    3.3155    1.6708 C   0  0  0  0  0  0  0  0  0  0  0  0
   -0.4947    3.5058    2.1871 H   0  0  0  0  0  0  0  0  0  0  0  0
    1.2721    3.5769    2.3455 H   0  0  0  0  0  0  0  0  0  0  0  0
    0.5097    3.9598    0.7875 H   0  0  0  0  0  0  0  0  0  0  0  0
  1  2  1  0  0  0  0
  2  3  1  0  0  0  0
  2  4  1  0  0  0  0
  2  5  1  0  0  0  0
  5  6  2  0  0  0  0
  5  7  1  0  0  0  0
  7  8  1  0  0  0  0
  7  9  1  0  0  0  0
  9 10  1  0  0  0  0
  9 11  1  0  0  0  0
  9 20  1  0  0  0  0
 11 12  1  0  0  0  0
 11 13  1  0  0  0  0
 11 14  1  0  0  0  0
 14 15  1  0  0  0  0
 14 16  1  0  0  0  0
 14 17  1  0  0  0  0
 17 18  1  0  0  0  0
 17 19  2  0  0  0  0
 20 21  2  0  0  0  0
 20 22  1  0  0  0  0
 22 23  1  0  0  0  0
 22 24  1  0  0  0  0
 24 25  1  0  0  0  0
 24 26  1  0  0  0  0
 24 27  1  0  0  0  0
M  CHG  1  18  -1
M  END
$$$$

  -OEChem-03222214043D

 27 26  0     1  0  0  0  0  0999 V2000
   -3.1839   -3.6947    1.2521 H   0  0  0  0  0  0  0  0  0  0  0  0
   -3.1327   -2.7656    0.6779 C   0  0  0  0  0  0  0  0  0  0  0  0
   -3.9272   -2.0955    1.0160 H   0  0  0  0  0  0  0  0  0  0  0  0
   -3.2872   -2.9950   -0.3798 H   0  0  0  0  0  0  0  0  0  0  0  0
   -1.7811   -2.1012    0.8681 C   0  0  0  0  0  0  0  0  0  0  0  0
   -0.9540   -2.6023    1.6186 O   0  0  0  0  0  0  0  0  0  0  0  0
   -1.5112   -0.9229    0.2094 N   0  0  0  0  0  0  0  0  0  0  0  0
   -2.2190   -0.5714   -0.4356 H   0  0  0  0  0  0  0  0  0  0  0  0
   -0.2061   -0.2508    0.1655 C   0  0  1  0  0  0  0  0  0  0  0  0
    0.3883   -0.6178    1.0068 H   0  0  0  0  0  0  0  0  0  0  0  0
    0.6183   -0.5457   -1.1164 C   0  0  0  0  0  0  0  0  0  0  0  0
    1.1380    0.3635   -1.4380 H   0  0  0  0  0  0  0  0  0  0  0  0
    1.3987   -1.2555   -0.8252 H   0  0  0  0  0  0  0  0  0  0  0  0
   -0.1187   -1.1822   -2.3251 C   0  0  0  0  0  0  0  0  0  0  0  0
    0.5337   -1.9558   -2.7402 H   0  0  0  0  0  0  0  0  0  0  0  0
   -1.0445   -1.6867   -2.0442 H   0  0  0  0  0  0  0  0  0  0  0  0
   -0.3908   -0.1889   -3.4549 C   0  0  0  0  0  0  0  0  0  0  0  0
    0.5935    0.3943   -3.9761 O   0  5  0  0  0  0  0  0  0  0  0  0
   -1.5814   -0.0691   -3.8368 O   0  0  0  0  0  0  0  0  0  0  0  0
   -0.3510    1.2674    0.4120 C   0  0  0  0  0  0  0  0  0  0  0  0
   -1.3542    1.8788    0.0640 O   0  0  0  0  0  0  0  0  0  0  0  0
    0.5274    1.8992    1.2758 N   0  0  0  0  0  0  0  0  0  0  0  0
    1.3594    1.3854    1.5443 H   0  0  0  0  0  0  0  0  0  0  0  0
    0.4270    3.3090    1.6264 C   0  0  0  0  0  0  0  0  0  0  0  0
   -0.5254    3.5124    2.1267 H   0  0  0  0  0  0  0  0  0  0  0  0
    1.2393    3.5862    2.3046 H   0  0  0  0  0  0  0  0  0  0  0  0
    0.4961    3.9317    0.7284 H   0  0  0  0  0  0  0  0  0  0  0  0
  1  2  1  0  0  0  0
  2  3  1  0  0  0  0
  2  4  1  0  0  0  0
  2  5  1  0  0  0  0
  5  6  2  0  0  0  0
  5  7  1  0  0  0  0
  7  8  1  0  0  0  0
  7  9  1  0  0  0  0
  9 10  1  0  0  0  0
  9 11  1  0  0  0  0
  9 20  1  0  0  0  0
 11 12  1  0  0  0  0
 11 13  1  0  0  0  0
 11 14  1  0  0  0  0
 14 15  1  0  0  0  0
 14 16  1  0  0  0  0
 14 17  1  0  0  0  0
 17 18  1  0  0  0  0
 17 19  2  0  0  0  0
 20 21  2  0  0  0  0
 20 22  1  0  0  0  0
 22 23  1  0  0  0  0
 22 24  1  0  0  0  0
 24 25  1  0  0  0  0
 24 26  1  0  0  0  0
 24 27  1  0  0  0  0
M  CHG  1  18  -1
M  END
$$$$

  -OEChem-03222214043D

 27 26  0     1  0  0  0  0  0999 V2000
   -3.1980   -3.6839    1.3022 H   0  0  0  0  0  0  0  0  0  0  0  0
   -3.1401   -2.7632    0.7154 C   0  0  0  0  0  0  0  0  0  0  0  0
   -3.9209   -2.0775    1.0539 H   0  0  0  0  0  0  0  0  0  0  0  0
   -3.3103   -3.0042   -0.3373 H   0  0  0  0  0  0  0  0  0  0  0  0
   -1.7769   -2.1162    0.8816 C   0  0  0  0  0  0  0  0  0  0  0  0
   -0.9456   -2.6239    1.6223 O   0  0  0  0  0  0  0  0  0  0  0  0
   -1.5032   -0.9423    0.2167 N   0  0  0  0  0  0  0  0  0  0  0  0
   -2.2233   -0.5700   -0.4009 H   0  0  0  0  0  0  0  0  0  0  0  0
   -0.1959   -0.2746    0.1670 C   0  0  1  0  0  0  0  0  0  0  0  0
    0.4051   -0.6400    1.0047 H   0  0  0  0  0  0  0  0  0  0  0  0
    0.6210   -0.5588   -1.1226 C   0  0  0  0  0  0  0  0  0  0  0  0
    1.1209    0.3655   -1.4328 H   0  0  0  0  0  0  0  0  0  0  0  0
    1.4190   -1.2574   -0.8521 H   0  0  0  0  0  0  0  0  0  0  0  0
   -0.1180   -1.1809   -2.3408 C   0  0  0  0  0  0  0  0  0  0  0  0
    0.3585   -2.1347   -2.5843 H   0  0  0  0  0  0  0  0  0  0  0  0
   -1.1655   -1.3988   -2.1290 H   0  0  0  0  0  0  0  0  0  0  0  0
   -0.0595   -0.2939   -3.5876 C   0  0  0  0  0  0  0  0  0  0  0  0
    1.0730    0.0744   -3.9916 O   0  5  0  0  0  0  0  0  0  0  0  0
   -1.1434   -0.0423   -4.1699 O   0  0  0  0  0  0  0  0  0  0  0  0
   -0.3530    1.2430    0.4075 C   0  0  0  0  0  0  0  0  0  0  0  0
   -1.3562    1.8438    0.0396 O   0  0  0  0  0  0  0  0  0  0  0  0
    0.5171    1.8904    1.2675 N   0  0  0  0  0  0  0  0  0  0  0  0
    1.3575    1.3891    1.5348 H   0  0  0  0  0  0  0  0  0  0  0  0
    0.4137    3.3079    1.5855 C   0  0  0  0  0  0  0  0  0  0  0  0
   -0.5458    3.5235    2.0666 H   0  0  0  0  0  0  0  0  0  0  0  0
    1.2159    3.5994    2.2698 H   0  0  0  0  0  0  0  0  0  0  0  0
    0.4972    3.9104    0.6750 H   0  0  0  0  0  0  0  0  0  0  0  0
  1  2  1  0  0  0  0
  2  3  1  0  0  0  0
  2  4  1  0  0  0  0
  2  5  1  0  0  0  0
  5  6  2  0  0  0  0
  5  7  1  0  0  0  0
  7  8  1  0  0  0  0
  7  9  1  0  0  0  0
  9 10  1  0  0  0  0
  9 11  1  0  0  0  0
  9 20  1  0  0  0  0
 11 12  1  0  0  0  0
 11 13  1  0  0  0  0
 11 14  1  0  0  0  0
 14 15  1  0  0  0  0
 14 16  1  0  0  0  0
 14 17  1  0  0  0  0
 17 18  1  0  0  0  0
 17 19  2  0  0  0  0
 20 21  2  0  0  0  0
 20 22  1  0  0  0  0
 22 23  1  0  0  0  0
 22 24  1  0  0  0  0
 24 25  1  0  0  0  0
 24 26  1  0  0  0  0
 24 27  1  0  0  0  0
M  CHG  1  18  -1
M  END
$$$$

  -OEChem-03222214043D

 27 26  0     1  0  0  0  0  0999 V2000
   -3.1922   -3.6904    1.2999 H   0  0  0  0  0  0  0  0  0  0  0  0
   -3.1323   -2.7735    0.7070 C   0  0  0  0  0  0  0  0  0  0  0  0
   -3.9219   -2.0905    1.0301 H   0  0  0  0  0  0  0  0  0  0  0  0
   -3.2868   -3.0238   -0.3460 H   0  0  0  0  0  0  0  0  0  0  0  0
   -1.7751   -2.1172    0.8868 C   0  0  0  0  0  0  0  0  0  0  0  0
   -0.9527   -2.6135    1.6445 O   0  0  0  0  0  0  0  0  0  0  0  0
   -1.4985   -0.9463    0.2172 N   0  0  0  0  0  0  0  0  0  0  0  0
   -2.2119   -0.5833   -0.4125 H   0  0  0  0  0  0  0  0  0  0  0  0
   -0.1889   -0.2804    0.1727 C   0  0  1  0  0  0  0  0  0  0  0  0
    0.4131   -0.6464    1.0093 H   0  0  0  0  0  0  0  0  0  0  0  0
    0.6201   -0.5688   -1.1202 C   0  0  0  0  0  0  0  0  0  0  0  0
    1.0930    0.3668   -1.4396 H   0  0  0  0  0  0  0  0  0  0  0  0
    1.4359   -1.2539   -0.8695 H   0  0  0  0  0  0  0  0  0  0  0  0
   -0.1426   -1.1844   -2.3241 C   0  0  0  0  0  0  0  0  0  0  0  0
    0.0877   -2.2511   -2.3909 H   0  0  0  0  0  0  0  0  0  0  0  0
   -1.2230   -1.0873   -2.2003 H   0  0  0  0  0  0  0  0  0  0  0  0
    0.2086   -0.5053   -3.6521 C   0  0  0  0  0  0  0  0  0  0  0  0
    1.4261   -0.3370   -3.9187 O   0  5  0  0  0  0  0  0  0  0  0  0
   -0.7381   -0.2137   -4.4241 O   0  0  0  0  0  0  0  0  0  0  0  0
   -0.3447    1.2385    0.4054 C   0  0  0  0  0  0  0  0  0  0  0  0
   -1.3327    1.8437    0.0038 O   0  0  0  0  0  0  0  0  0  0  0  0
    0.5199    1.8898    1.2676 N   0  0  0  0  0  0  0  0  0  0  0  0
    1.3519    1.3841    1.5528 H   0  0  0  0  0  0  0  0  0  0  0  0
    0.4300    3.3135    1.5598 C   0  0  0  0  0  0  0  0  0  0  0  0
   -0.5344    3.5503    2.0207 H   0  0  0  0  0  0  0  0  0  0  0  0
    1.2243    3.6058    2.2528 H   0  0  0  0  0  0  0  0  0  0  0  0
    0.5371    3.8995    0.6411 H   0  0  0  0  0  0  0  0  0  0  0  0
  1  2  1  0  0  0  0
  2  3  1  0  0  0  0
  2  4  1  0  0  0  0
  2  5  1  0  0  0  0
  5  6  2  0  0  0  0
  5  7  1  0  0  0  0
  7  8  1  0  0  0  0
  7  9  1  0  0  0  0
  9 10  1  0  0  0  0
  9 11  1  0  0  0  0
  9 20  1  0  0  0  0
 11 12  1  0  0  0  0
 11 13  1  0  0  0  0
 11 14  1  0  0  0  0
 14 15  1  0  0  0  0
 14 16  1  0  0  0  0
 14 17  1  0  0  0  0
 17 18  1  0  0  0  0
 17 19  2  0  0  0  0
 20 21  2  0  0  0  0
 20 22  1  0  0  0  0
 22 23  1  0  0  0  0
 22 24  1  0  0  0  0
 24 25  1  0  0  0  0
 24 26  1  0  0  0  0
 24 27  1  0  0  0  0
M  CHG  1  18  -1
M  END
$$$$

  -OEChem-03222214043D

 27 26  0     1  0  0  0  0  0999 V2000
   -3.1781   -3.6961    1.2644 H   0  0  0  0  0  0  0  0  0  0  0  0
   -3.1125   -2.7817    0.6682 C   0  0  0  0  0  0  0  0  0  0  0  0
   -3.9234   -2.1097    0.9595 H   0  0  0  0  0  0  0  0  0  0  0  0
   -3.2260   -3.0400   -0.3880 H   0  0  0  0  0  0  0  0  0  0  0  0
   -1.7728   -2.1028    0.8898 C   0  0  0  0  0  0  0  0  0  0  0  0
   -0.9720   -2.5759    1.6843 O   0  0  0  0  0  0  0  0  0  0  0  0
   -1.4879   -0.9376    0.2139 N   0  0  0  0  0  0  0  0  0  0  0  0
   -2.1791   -0.6015   -0.4536 H   0  0  0  0  0  0  0  0  0  0  0  0
   -0.1745   -0.2775    0.1812 C   0  0  1  0  0  0  0  0  0  0  0  0
    0.4249   -0.6450    1.0189 H   0  0  0  0  0  0  0  0  0  0  0  0
    0.6230   -0.5780   -1.1140 C   0  0  0  0  0  0  0  0  0  0  0  0
    1.0902    0.3538   -1.4528 H   0  0  0  0  0  0  0  0  0  0  0  0
    1.4384   -1.2688   -0.8767 H   0  0  0  0  0  0  0  0  0  0  0  0
   -0.1806   -1.1852   -2.2896 C   0  0  0  0  0  0  0  0  0  0  0  0
   -0.2055   -2.2744   -2.1947 H   0  0  0  0  0  0  0  0  0  0  0  0
   -1.2098   -0.8169   -2.2691 H   0  0  0  0  0  0  0  0  0  0  0  0
    0.3945   -0.7970   -3.6559 C   0  0  0  0  0  0  0  0  0  0  0  0
    1.6453   -0.7832   -3.7868 O   0  5  0  0  0  0  0  0  0  0  0  0
   -0.4222   -0.5700   -4.5826 O   0  0  0  0  0  0  0  0  0  0  0  0
   -0.3234    1.2434    0.4013 C   0  0  0  0  0  0  0  0  0  0  0  0
   -1.2882    1.8578   -0.0410 O   0  0  0  0  0  0  0  0  0  0  0  0
    0.5339    1.8962    1.2695 N   0  0  0  0  0  0  0  0  0  0  0  0
    1.3435    1.3780    1.5942 H   0  0  0  0  0  0  0  0  0  0  0  0
    0.4503    3.3219    1.5527 C   0  0  0  0  0  0  0  0  0  0  0  0
   -0.5205    3.5682    1.9950 H   0  0  0  0  0  0  0  0  0  0  0  0
    1.2343    3.6117    2.2584 H   0  0  0  0  0  0  0  0  0  0  0  0
    0.5788    3.9024    0.6334 H   0  0  0  0  0  0  0  0  0  0  0  0
  1  2  1  0  0  0  0
  2  3  1  0  0  0  0
  2  4  1  0  0  0  0
  2  5  1  0  0  0  0
  5  6  2  0  0  0  0
  5  7  1  0  0  0  0
  7  8  1  0  0  0  0
  7  9  1  0  0  0  0
  9 10  1  0  0  0  0
  9 11  1  0  0  0  0
  9 20  1  0  0  0  0
 11 12  1  0  0  0  0
 11 13  1  0  0  0  0
 11 14  1  0  0  0  0
 14 15  1  0  0  0  0
 14 16  1  0  0  0  0
 14 17  1  0  0  0  0
 17 18  1  0  0  0  0
 17 19  2  0  0  0  0
 20 21  2  0  0  0  0
 20 22  1  0  0  0  0
 22 23  1  0  0  0  0
 22 24  1  0  0  0  0
 24 25  1  0  0  0  0
 24 26  1  0  0  0  0
 24 27  1  0  0  0  0
M  CHG  1  18  -1
M  END
$$$$

  -OEChem-03222214043D

 27 26  0     1  0  0  0  0  0999 V2000
   -3.1691   -3.6985    1.2403 H   0  0  0  0  0  0  0  0  0  0  0  0
   -3.0943   -2.7935    0.6313 C   0  0  0  0  0  0  0  0  0  0  0  0
   -3.9281   -2.1313    0.8768 H   0  0  0  0  0  0  0  0  0  0  0  0
   -3.1596   -3.0726   -0.4236 H   0  0  0  0  0  0  0  0  0  0  0  0
   -1.7765   -2.0882    0.8958 C   0  0  0  0  0  0  0  0  0  0  0  0
   -1.0002   -2.5363    1.7282 O   0  0  0  0  0  0  0  0  0  0  0  0
   -1.4841   -0.9281    0.2139 N   0  0  0  0  0  0  0  0  0  0  0  0
   -2.1517   -0.6203   -0.4898 H   0  0  0  0  0  0  0  0  0  0  0  0
   -0.1667   -0.2745    0.1914 C   0  0  1  0  0  0  0  0  0  0  0  0
    0.4306   -0.6435    1.0301 H   0  0  0  0  0  0  0  0  0  0  0  0
    0.6230   -0.5801   -1.1059 C   0  0  0  0  0  0  0  0  0  0  0  0
    1.1047    0.3392   -1.4581 H   0  0  0  0  0  0  0  0  0  0  0  0
    1.4239   -1.2884   -0.8691 H   0  0  0  0  0  0  0  0  0  0  0  0
   -0.2097   -1.1762   -2.2627 C   0  0  0  0  0  0  0  0  0  0  0  0
   -0.4618   -2.2164   -2.0376 H   0  0  0  0  0  0  0  0  0  0  0  0
   -1.1400   -0.6096   -2.3681 H   0  0  0  0  0  0  0  0  0  0  0  0
    0.5233   -1.1178   -3.6073 C   0  0  0  0  0  0  0  0  0  0  0  0
    1.7762   -1.2284   -3.6100 O   0  5  0  0  0  0  0  0  0  0  0  0
   -0.1851   -1.0100   -4.6387 O   0  0  0  0  0  0  0  0  0  0  0  0
   -0.3065    1.2482    0.4006 C   0  0  0  0  0  0  0  0  0  0  0  0
   -1.2461    1.8736   -0.0794 O   0  0  0  0  0  0  0  0  0  0  0  0
    0.5461    1.8999    1.2739 N   0  0  0  0  0  0  0  0  0  0  0  0
    1.3298    1.3685    1.6386 H   0  0  0  0  0  0  0  0  0  0  0  0
    0.4731    3.3275    1.5486 C   0  0  0  0  0  0  0  0  0  0  0  0
   -0.4932    3.5822    1.9956 H   0  0  0  0  0  0  0  0  0  0  0  0
    1.2640    3.6164    2.2469 H   0  0  0  0  0  0  0  0  0  0  0  0
    0.5994    3.9015    0.6248 H   0  0  0  0  0  0  0  0  0  0  0  0
  1  2  1  0  0  0  0
  2  3  1  0  0  0  0
  2  4  1  0  0  0  0
  2  5  1  0  0  0  0
  5  6  2  0  0  0  0
  5  7  1  0  0  0  0
  7  8  1  0  0  0  0
  7  9  1  0  0  0  0
  9 10  1  0  0  0  0
  9 11  1  0  0  0  0
  9 20  1  0  0  0  0
 11 12  1  0  0  0  0
 11 13  1  0  0  0  0
 11 14  1  0  0  0  0
 14 15  1  0  0  0  0
 14 16  1  0  0  0  0
 14 17  1  0  0  0  0
 17 18  1  0  0  0  0
 17 19  2  0  0  0  0
 20 21  2  0  0  0  0
 20 22  1  0  0  0  0
 22 23  1  0  0  0  0
 22 24  1  0  0  0  0
 24 25  1  0  0  0  0
 24 26  1  0  0  0  0
 24 27  1  0  0  0  0
M  CHG  1  18  -1
M  END
$$$$

  -OEChem-03222214043D

 27 26  0     1  0  0  0  0  0999 V2000
   -3.2474   -3.6447    1.2243 H   0  0  0  0  0  0  0  0  0  0  0  0
   -3.1400   -2.7517    0.6025 C   0  0  0  0  0  0  0  0  0  0  0  0
   -3.9562   -2.0618    0.8299 H   0  0  0  0  0  0  0  0  0  0  0  0
   -3.2035   -3.0449   -0.4488 H   0  0  0  0  0  0  0  0  0  0  0  0
   -1.8047   -2.0806    0.8690 C   0  0  0  0  0  0  0  0  0  0  0  0
   -1.0375   -2.5525    1.6967 O   0  0  0  0  0  0  0  0  0  0  0  0
   -1.4853   -0.9223    0.1963 N   0  0  0  0  0  0  0  0  0  0  0  0
   -2.1447   -0.5912   -0.5046 H   0  0  0  0  0  0  0  0  0  0  0  0
   -0.1572   -0.2926    0.1907 C   0  0  1  0  0  0  0  0  0  0  0  0
    0.4331   -0.6770    1.0275 H   0  0  0  0  0  0  0  0  0  0  0  0
    0.6233   -0.5923   -1.1086 C   0  0  0  0  0  0  0  0  0  0  0  0
    1.3447    0.2117   -1.2918 H   0  0  0  0  0  0  0  0  0  0  0  0
    1.1979   -1.5115   -0.9550 H   0  0  0  0  0  0  0  0  0  0  0  0
   -0.2532   -0.7978   -2.3627 C   0  0  0  0  0  0  0  0  0  0  0  0
   -0.9412   -1.6339   -2.2080 H   0  0  0  0  0  0  0  0  0  0  0  0
   -0.8453    0.1040   -2.5428 H   0  0  0  0  0  0  0  0  0  0  0  0
    0.5871   -1.0904   -3.6100 C   0  0  0  0  0  0  0  0  0  0  0  0
    1.6162   -0.3975   -3.8138 O   0  5  0  0  0  0  0  0  0  0  0  0
    0.1864   -2.0112   -4.3647 O   0  0  0  0  0  0  0  0  0  0  0  0
   -0.2779    1.2314    0.4072 C   0  0  0  0  0  0  0  0  0  0  0  0
   -1.2182    1.8680   -0.0581 O   0  0  0  0  0  0  0  0  0  0  0  0
    0.5751    1.8658    1.2931 N   0  0  0  0  0  0  0  0  0  0  0  0
    1.3701    1.3321    1.6288 H   0  0  0  0  0  0  0  0  0  0  0  0
    0.5154    3.2924    1.5769 C   0  0  0  0  0  0  0  0  0  0  0  0
   -0.4559    3.5565    2.0074 H   0  0  0  0  0  0  0  0  0  0  0  0
    1.2962    3.5660    2.2925 H   0  0  0  0  0  0  0  0  0  0  0  0
    0.6658    3.8713    0.6599 H   0  0  0  0  0  0  0  0  0  0  0  0
  1  2  1  0  0  0  0
  2  3  1  0  0  0  0
  2  4  1  0  0  0  0
  2  5  1  0  0  0  0
  5  6  2  0  0  0  0
  5  7  1  0  0  0  0
  7  8  1  0  0  0  0
  7  9  1  0  0  0  0
  9 10  1  0  0  0  0
  9 11  1  0  0  0  0
  9 20  1  0  0  0  0
 11 12  1  0  0  0  0
 11 13  1  0  0  0  0
 11 14  1  0  0  0  0
 14 15  1  0  0  0  0
 14 16  1  0  0  0  0
 14 17  1  0  0  0  0
 17 18  1  0  0  0  0
 17 19  2  0  0  0  0
 20 21  2  0  0  0  0
 20 22  1  0  0  0  0
 22 23  1  0  0  0  0
 22 24  1  0  0  0  0
 24 25  1  0  0  0  0
 24 26  1  0  0  0  0
 24 27  1  0  0  0  0
M  CHG  1  18  -1
M  END
$$$$

  -OEChem-03222214043D

 27 26  0     1  0  0  0  0  0999 V2000
   -3.2354   -3.6710    1.2088 H   0  0  0  0  0  0  0  0  0  0  0  0
   -3.1437   -2.7637    0.6052 C   0  0  0  0  0  0  0  0  0  0  0  0
   -3.9731   -2.0934    0.8437 H   0  0  0  0  0  0  0  0  0  0  0  0
   -3.1991   -3.0375   -0.4519 H   0  0  0  0  0  0  0  0  0  0  0  0
   -1.8216   -2.0736    0.8892 C   0  0  0  0  0  0  0  0  0  0  0  0
   -1.0660   -2.5251    1.7388 O   0  0  0  0  0  0  0  0  0  0  0  0
   -1.5044   -0.9169    0.2120 N   0  0  0  0  0  0  0  0  0  0  0  0
   -2.1512   -0.6103   -0.5112 H   0  0  0  0  0  0  0  0  0  0  0  0
   -0.1735   -0.2941    0.1996 C   0  0  1  0  0  0  0  0  0  0  0  0
    0.4203   -0.6814    1.0324 H   0  0  0  0  0  0  0  0  0  0  0  0
    0.6044   -0.5867   -1.1048 C   0  0  0  0  0  0  0  0  0  0  0  0
    1.3445    0.2004   -1.2866 H   0  0  0  0  0  0  0  0  0  0  0  0
    1.1608   -1.5160   -0.9423 H   0  0  0  0  0  0  0  0  0  0  0  0
   -0.2523   -0.7855   -2.3762 C   0  0  0  0  0  0  0  0  0  0  0  0
   -1.1013   -1.4438   -2.1768 H   0  0  0  0  0  0  0  0  0  0  0  0
   -0.6439    0.1806   -2.7065 H   0  0  0  0  0  0  0  0  0  0  0  0
    0.5629   -1.4198   -3.5067 C   0  0  0  0  0  0  0  0  0  0  0  0
    1.6914   -0.9308   -3.7668 O   0  5  0  0  0  0  0  0  0  0  0  0
    0.0483   -2.3918   -4.1138 O   0  0  0  0  0  0  0  0  0  0  0  0
   -0.2859    1.2301    0.4154 C   0  0  0  0  0  0  0  0  0  0  0  0
   -1.2051    1.8786   -0.0748 O   0  0  0  0  0  0  0  0  0  0  0  0
    0.5733    1.8619    1.2970 N   0  0  0  0  0  0  0  0  0  0  0  0
    1.3435    1.3132    1.6652 H   0  0  0  0  0  0  0  0  0  0  0  0
    0.5340    3.2919    1.5667 C   0  0  0  0  0  0  0  0  0  0  0  0
   -0.4361    3.5753    1.9874 H   0  0  0  0  0  0  0  0  0  0  0  0
    1.3138    3.5604    2.2853 H   0  0  0  0  0  0  0  0  0  0  0  0
    0.7007    3.8592    0.6452 H   0  0  0  0  0  0  0  0  0  0  0  0
  1  2  1  0  0  0  0
  2  3  1  0  0  0  0
  2  4  1  0  0  0  0
  2  5  1  0  0  0  0
  5  6  2  0  0  0  0
  5  7  1  0  0  0  0
  7  8  1  0  0  0  0
  7  9  1  0  0  0  0
  9 10  1  0  0  0  0
  9 11  1  0  0  0  0
  9 20  1  0  0  0  0
 11 12  1  0  0  0  0
 11 13  1  0  0  0  0
 11 14  1  0  0  0  0
 14 15  1  0  0  0  0
 14 16  1  0  0  0  0
 14 17  1  0  0  0  0
 17 18  1  0  0  0  0
 17 19  2  0  0  0  0
 20 21  2  0  0  0  0
 20 22  1  0  0  0  0
 22 23  1  0  0  0  0
 22 24  1  0  0  0  0
 24 25  1  0  0  0  0
 24 26  1  0  0  0  0
 24 27  1  0  0  0  0
M  CHG  1  18  -1
M  END
$$$$

  -OEChem-03222214043D

 27 26  0     1  0  0  0  0  0999 V2000
   -3.2256   -3.6788    1.1999 H   0  0  0  0  0  0  0  0  0  0  0  0
   -3.1356   -2.7765    0.5889 C   0  0  0  0  0  0  0  0  0  0  0  0
   -3.9885   -2.1239    0.7908 H   0  0  0  0  0  0  0  0  0  0  0  0
   -3.1481   -3.0640   -0.4659 H   0  0  0  0  0  0  0  0  0  0  0  0
   -1.8403   -2.0518    0.9072 C   0  0  0  0  0  0  0  0  0  0  0  0
   -1.1069   -2.4691    1.7934 O   0  0  0  0  0  0  0  0  0  0  0  0
   -1.5248   -0.8989    0.2221 N   0  0  0  0  0  0  0  0  0  0  0  0
   -2.1505   -0.6291   -0.5335 H   0  0  0  0  0  0  0  0  0  0  0  0
   -0.1892   -0.2863    0.2067 C   0  0  1  0  0  0  0  0  0  0  0  0
    0.4032   -0.6770    1.0390 H   0  0  0  0  0  0  0  0  0  0  0  0
    0.5873   -0.5846   -1.0991 C   0  0  0  0  0  0  0  0  0  0  0  0
    1.3451    0.1854   -1.2787 H   0  0  0  0  0  0  0  0  0  0  0  0
    1.1281   -1.5208   -0.9211 H   0  0  0  0  0  0  0  0  0  0  0  0
   -0.2506   -0.7815   -2.3869 C   0  0  0  0  0  0  0  0  0  0  0  0
   -1.2357   -1.2003   -2.1747 H   0  0  0  0  0  0  0  0  0  0  0  0
   -0.4053    0.1879   -2.8688 H   0  0  0  0  0  0  0  0  0  0  0  0
    0.4464   -1.7353   -3.3595 C   0  0  0  0  0  0  0  0  0  0  0  0
    1.6028   -1.4323   -3.7471 O   0  5  0  0  0  0  0  0  0  0  0  0
   -0.1785   -2.7681   -3.7082 O   0  0  0  0  0  0  0  0  0  0  0  0
   -0.2859    1.2395    0.4171 C   0  0  0  0  0  0  0  0  0  0  0  0
   -1.1818    1.9023   -0.0961 O   0  0  0  0  0  0  0  0  0  0  0  0
    0.5806    1.8649    1.2960 N   0  0  0  0  0  0  0  0  0  0  0  0
    1.3170    1.2983    1.7040 H   0  0  0  0  0  0  0  0  0  0  0  0
    0.5500    3.2932    1.5757 C   0  0  0  0  0  0  0  0  0  0  0  0
   -0.4200    3.5809    1.9940 H   0  0  0  0  0  0  0  0  0  0  0  0
    1.3282    3.5507    2.3001 H   0  0  0  0  0  0  0  0  0  0  0  0
    0.7255    3.8661    0.6593 H   0  0  0  0  0  0  0  0  0  0  0  0
  1  2  1  0  0  0  0
  2  3  1  0  0  0  0
  2  4  1  0  0  0  0
  2  5  1  0  0  0  0
  5  6  2  0  0  0  0
  5  7  1  0  0  0  0
  7  8  1  0  0  0  0
  7  9  1  0  0  0  0
  9 10  1  0  0  0  0
  9 11  1  0  0  0  0
  9 20  1  0  0  0  0
 11 12  1  0  0  0  0
 11 13  1  0  0  0  0
 11 14  1  0  0  0  0
 14 15  1  0  0  0  0
 14 16  1  0  0  0  0
 14 17  1  0  0  0  0
 17 18  1  0  0  0  0
 17 19  2  0  0  0  0
 20 21  2  0  0  0  0
 20 22  1  0  0  0  0
 22 23  1  0  0  0  0
 22 24  1  0  0  0  0
 24 25  1  0  0  0  0
 24 26  1  0  0  0  0
 24 27  1  0  0  0  0
M  CHG  1  18  -1
M  END
$$$$

  -OEChem-03222214043D

 27 26  0     1  0  0  0  0  0999 V2000
   -3.1816   -3.7014    1.1507 H   0  0  0  0  0  0  0  0  0  0  0  0
   -3.0942   -2.8052    0.5304 C   0  0  0  0  0  0  0  0  0  0  0  0
   -3.9883   -2.1916    0.6638 H   0  0  0  0  0  0  0  0  0  0  0  0
   -3.0224   -3.1096   -0.5179 H   0  0  0  0  0  0  0  0  0  0  0  0
   -1.8582   -2.0146    0.9185 C   0  0  0  0  0  0  0  0  0  0  0  0
   -1.1724   -2.3731    1.8673 O   0  0  0  0  0  0  0  0  0  0  0  0
   -1.5433   -0.8673    0.2234 N   0  0  0  0  0  0  0  0  0  0  0  0
   -2.1217   -0.6653   -0.5887 H   0  0  0  0  0  0  0  0  0  0  0  0
   -0.2028   -0.2654    0.2210 C   0  0  1  0  0  0  0  0  0  0  0  0
    0.3800   -0.6576    1.0594 H   0  0  0  0  0  0  0  0  0  0  0  0
    0.5737   -0.5895   -1.0794 C   0  0  0  0  0  0  0  0  0  0  0  0
    1.3373    0.1734   -1.2642 H   0  0  0  0  0  0  0  0  0  0  0  0
    1.1108   -1.5247   -0.8850 H   0  0  0  0  0  0  0  0  0  0  0  0
   -0.2594   -0.7904   -2.3736 C   0  0  0  0  0  0  0  0  0  0  0  0
   -1.3272   -0.9021   -2.1827 H   0  0  0  0  0  0  0  0  0  0  0  0
   -0.1499    0.0976   -3.0027 H   0  0  0  0  0  0  0  0  0  0  0  0
    0.2126   -2.0154   -3.1559 C   0  0  0  0  0  0  0  0  0  0  0  0
    1.3359   -1.9590   -3.7154 O   0  5  0  0  0  0  0  0  0  0  0  0
   -0.5476   -3.0160   -3.1687 O   0  0  0  0  0  0  0  0  0  0  0  0
   -0.2792    1.2631    0.4196 C   0  0  0  0  0  0  0  0  0  0  0  0
   -1.1345    1.9442   -0.1364 O   0  0  0  0  0  0  0  0  0  0  0  0
    0.5867    1.8797    1.3055 N   0  0  0  0  0  0  0  0  0  0  0  0
    1.2705    1.2926    1.7718 H   0  0  0  0  0  0  0  0  0  0  0  0
    0.5682    3.3076    1.5887 C   0  0  0  0  0  0  0  0  0  0  0  0
   -0.4004    3.6025    2.0051 H   0  0  0  0  0  0  0  0  0  0  0  0
    1.3474    3.5565    2.3151 H   0  0  0  0  0  0  0  0  0  0  0  0
    0.7514    3.8814    0.6744 H   0  0  0  0  0  0  0  0  0  0  0  0
  1  2  1  0  0  0  0
  2  3  1  0  0  0  0
  2  4  1  0  0  0  0
  2  5  1  0  0  0  0
  5  6  2  0  0  0  0
  5  7  1  0  0  0  0
  7  8  1  0  0  0  0
  7  9  1  0  0  0  0
  9 10  1  0  0  0  0
  9 11  1  0  0  0  0
  9 20  1  0  0  0  0
 11 12  1  0  0  0  0
 11 13  1  0  0  0  0
 11 14  1  0  0  0  0
 14 15  1  0  0  0  0
 14 16  1  0  0  0  0
 14 17  1  0  0  0  0
 17 18  1  0  0  0  0
 17 19  2  0  0  0  0
 20 21  2  0  0  0  0
 20 22  1  0  0  0  0
 22 23  1  0  0  0  0
 22 24  1  0  0  0  0
 24 25  1  0  0  0  0
 24 26  1  0  0  0  0
 24 27  1  0  0  0  0
M  CHG  1  18  -1
M  END
$$$$

  -OEChem-03222214043D

 27 26  0     1  0  0  0  0  0999 V2000
   -3.1438   -3.7125    1.1223 H   0  0  0  0  0  0  0  0  0  0  0  0
   -3.0449   -2.8358    0.4768 C   0  0  0  0  0  0  0  0  0  0  0  0
   -3.9669   -2.2519    0.5247 H   0  0  0  0  0  0  0  0  0  0  0  0
   -2.8902   -3.1743   -0.5520 H   0  0  0  0  0  0  0  0  0  0  0  0
   -1.8669   -1.9862    0.9172 C   0  0  0  0  0  0  0  0  0  0  0  0
   -1.2424   -2.2776    1.9306 O   0  0  0  0  0  0  0  0  0  0  0  0
   -1.5473   -0.8478    0.2088 N   0  0  0  0  0  0  0  0  0  0  0  0
   -2.0598   -0.7314   -0.6624 H   0  0  0  0  0  0  0  0  0  0  0  0
   -0.2022   -0.2534    0.2367 C   0  0  1  0  0  0  0  0  0  0  0  0
    0.3653   -0.6444    1.0859 H   0  0  0  0  0  0  0  0  0  0  0  0
    0.5795   -0.6029   -1.0537 C   0  0  0  0  0  0  0  0  0  0  0  0
    1.3347    0.1670   -1.2435 H   0  0  0  0  0  0  0  0  0  0  0  0
    1.1278   -1.5315   -0.8596 H   0  0  0  0  0  0  0  0  0  0  0  0
   -0.2672   -0.7989   -2.3392 C   0  0  0  0  0  0  0  0  0  0  0  0
   -1.3266   -0.5763   -2.2018 H   0  0  0  0  0  0  0  0  0  0  0  0
    0.0881   -0.0861   -3.0893 H   0  0  0  0  0  0  0  0  0  0  0  0
   -0.1016   -2.2025   -2.9150 C   0  0  0  0  0  0  0  0  0  0  0  0
    0.9233   -2.4539   -3.5954 O   0  5  0  0  0  0  0  0  0  0  0  0
   -1.0005   -3.0339   -2.6302 O   0  0  0  0  0  0  0  0  0  0  0  0
   -0.2666    1.2786    0.4149 C   0  0  0  0  0  0  0  0  0  0  0  0
   -1.0701    1.9705   -0.2013 O   0  0  0  0  0  0  0  0  0  0  0  0
    0.5818    1.8959    1.3175 N   0  0  0  0  0  0  0  0  0  0  0  0
    1.2003    1.2986    1.8566 H   0  0  0  0  0  0  0  0  0  0  0  0
    0.5690    3.3270    1.5846 C   0  0  0  0  0  0  0  0  0  0  0  0
   -0.4034    3.6327    1.9842 H   0  0  0  0  0  0  0  0  0  0  0  0
    1.3405    3.5789    2.3181 H   0  0  0  0  0  0  0  0  0  0  0  0
    0.7680    3.8897    0.6666 H   0  0  0  0  0  0  0  0  0  0  0  0
  1  2  1  0  0  0  0
  2  3  1  0  0  0  0
  2  4  1  0  0  0  0
  2  5  1  0  0  0  0
  5  6  2  0  0  0  0
  5  7  1  0  0  0  0
  7  8  1  0  0  0  0
  7  9  1  0  0  0  0
  9 10  1  0  0  0  0
  9 11  1  0  0  0  0
  9 20  1  0  0  0  0
 11 12  1  0  0  0  0
 11 13  1  0  0  0  0
 11 14  1  0  0  0  0
 14 15  1  0  0  0  0
 14 16  1  0  0  0  0
 14 17  1  0  0  0  0
 17 18  1  0  0  0  0
 17 19  2  0  0  0  0
 20 21  2  0  0  0  0
 20 22  1  0  0  0  0
 22 23  1  0  0  0  0
 22 24  1  0  0  0  0
 24 25  1  0  0  0  0
 24 26  1  0  0  0  0
 24 27  1  0  0  0  0
M  CHG  1  18  -1
M  END
$$$$

  -OEChem-03222214043D

 27 26  0     1  0  0  0  0  0999 V2000
   -3.4764   -3.3181    1.4041 H   0  0  0  0  0  0  0  0  0  0  0  0
   -3.0351   -2.8542    0.5185 C   0  0  0  0  0  0  0  0  0  0  0  0
   -3.7918   -2.2372    0.0279 H   0  0  0  0  0  0  0  0  0  0  0  0
   -2.7193   -3.6384   -0.1746 H   0  0  0  0  0  0  0  0  0  0  0  0
   -1.8383   -2.0057    0.9094 C   0  0  0  0  0  0  0  0  0  0  0  0
   -1.2190   -2.2693    1.9347 O   0  0  0  0  0  0  0  0  0  0  0  0
   -1.5264   -0.8699    0.1903 N   0  0  0  0  0  0  0  0  0  0  0  0
   -1.9976   -0.8202   -0.7126 H   0  0  0  0  0  0  0  0  0  0  0  0
   -0.1828   -0.2675    0.2336 C   0  0  1  0  0  0  0  0  0  0  0  0
    0.3857   -0.6558    1.0832 H   0  0  0  0  0  0  0  0  0  0  0  0
    0.6023   -0.5955   -1.0607 C   0  0  0  0  0  0  0  0  0  0  0  0
    1.3378    0.1946   -1.2448 H   0  0  0  0  0  0  0  0  0  0  0  0
    1.1704   -1.5177   -0.8955 H   0  0  0  0  0  0  0  0  0  0  0  0
   -0.2657   -0.7697   -2.3302 C   0  0  0  0  0  0  0  0  0  0  0  0
   -1.2425   -0.2877   -2.2364 H   0  0  0  0  0  0  0  0  0  0  0  0
    0.2408   -0.2615   -3.1560 H   0  0  0  0  0  0  0  0  0  0  0  0
   -0.4150   -2.2342   -2.7290 C   0  0  0  0  0  0  0  0  0  0  0  0
    0.5359   -2.7976   -3.3242 O   0  5  0  0  0  0  0  0  0  0  0  0
   -1.4893   -2.7936   -2.3932 O   0  0  0  0  0  0  0  0  0  0  0  0
   -0.2578    1.2660    0.4004 C   0  0  0  0  0  0  0  0  0  0  0  0
   -1.0386    1.9589   -0.2433 O   0  0  0  0  0  0  0  0  0  0  0  0
    0.5765    1.8881    1.3127 N   0  0  0  0  0  0  0  0  0  0  0  0
    1.1632    1.2896    1.8848 H   0  0  0  0  0  0  0  0  0  0  0  0
    0.5396    3.3167    1.5903 C   0  0  0  0  0  0  0  0  0  0  0  0
   -0.4379    3.6022    1.9923 H   0  0  0  0  0  0  0  0  0  0  0  0
    1.3069    3.5766    2.3254 H   0  0  0  0  0  0  0  0  0  0  0  0
    0.7283    3.8897    0.6767 H   0  0  0  0  0  0  0  0  0  0  0  0
  1  2  1  0  0  0  0
  2  3  1  0  0  0  0
  2  4  1  0  0  0  0
  2  5  1  0  0  0  0
  5  6  2  0  0  0  0
  5  7  1  0  0  0  0
  7  8  1  0  0  0  0
  7  9  1  0  0  0  0
  9 10  1  0  0  0  0
  9 11  1  0  0  0  0
  9 20  1  0  0  0  0
 11 12  1  0  0  0  0
 11 13  1  0  0  0  0
 11 14  1  0  0  0  0
 14 15  1  0  0  0  0
 14 16  1  0  0  0  0
 14 17  1  0  0  0  0
 17 18  1  0  0  0  0
 17 19  2  0  0  0  0
 20 21  2  0  0  0  0
 20 22  1  0  0  0  0
 22 23  1  0  0  0  0
 22 24  1  0  0  0  0
 24 25  1  0  0  0  0
 24 26  1  0  0  0  0
 24 27  1  0  0  0  0
M  CHG  1  18  -1
M  END
$$$$

  -OEChem-03222214043D

 27 26  0     1  0  0  0  0  0999 V2000
   -3.5277   -3.2237    1.4715 H   0  0  0  0  0  0  0  0  0  0  0  0
   -3.0359   -2.8626    0.5652 C   0  0  0  0  0  0  0  0  0  0  0  0
   -3.7506   -2.2728   -0.0145 H   0  0  0  0  0  0  0  0  0  0  0  0
   -2.7207   -3.7184   -0.0378 H   0  0  0  0  0  0  0  0  0  0  0  0
   -1.8261   -2.0172    0.9214 C   0  0  0  0  0  0  0  0  0  0  0  0
   -1.1904   -2.2779    1.9380 O   0  0  0  0  0  0  0  0  0  0  0  0
   -1.5248   -0.8826    0.1944 N   0  0  0  0  0  0  0  0  0  0  0  0
   -1.9941   -0.8596   -0.7146 H   0  0  0  0  0  0  0  0  0  0  0  0
   -0.1828   -0.2741    0.2318 C   0  0  1  0  0  0  0  0  0  0  0  0
    0.3906   -0.6571    1.0803 H   0  0  0  0  0  0  0  0  0  0  0  0
    0.6094   -0.5873   -1.0637 C   0  0  0  0  0  0  0  0  0  0  0  0
    1.3351    0.2127   -1.2425 H   0  0  0  0  0  0  0  0  0  0  0  0
    1.1865   -1.5052   -0.9078 H   0  0  0  0  0  0  0  0  0  0  0  0
   -0.2550   -0.7612   -2.3325 C   0  0  0  0  0  0  0  0  0  0  0  0
   -1.1166   -0.0868   -2.3106 H   0  0  0  0  0  0  0  0  0  0  0  0
    0.3475   -0.4729   -3.1986 H   0  0  0  0  0  0  0  0  0  0  0  0
   -0.7058   -2.2024   -2.5566 C   0  0  0  0  0  0  0  0  0  0  0  0
    0.1458   -3.0514   -2.9161 O   0  5  0  0  0  0  0  0  0  0  0  0
   -1.9168   -2.4499   -2.3270 O   0  0  0  0  0  0  0  0  0  0  0  0
   -0.2654    1.2606    0.3935 C   0  0  0  0  0  0  0  0  0  0  0  0
   -1.0418    1.9536   -0.2552 O   0  0  0  0  0  0  0  0  0  0  0  0
    0.5700    1.8866    1.3027 N   0  0  0  0  0  0  0  0  0  0  0  0
    1.1480    1.2888    1.8841 H   0  0  0  0  0  0  0  0  0  0  0  0
    0.5302    3.3155    1.5786 C   0  0  0  0  0  0  0  0  0  0  0  0
   -0.4513    3.6019    1.9698 H   0  0  0  0  0  0  0  0  0  0  0  0
    1.2896    3.5759    2.3217 H   0  0  0  0  0  0  0  0  0  0  0  0
    0.7291    3.8877    0.6665 H   0  0  0  0  0  0  0  0  0  0  0  0
  1  2  1  0  0  0  0
  2  3  1  0  0  0  0
  2  4  1  0  0  0  0
  2  5  1  0  0  0  0
  5  6  2  0  0  0  0
  5  7  1  0  0  0  0
  7  8  1  0  0  0  0
  7  9  1  0  0  0  0
  9 10  1  0  0  0  0
  9 11  1  0  0  0  0
  9 20  1  0  0  0  0
 11 12  1  0  0  0  0
 11 13  1  0  0  0  0
 11 14  1  0  0  0  0
 14 15  1  0  0  0  0
 14 16  1  0  0  0  0
 14 17  1  0  0  0  0
 17 18  1  0  0  0  0
 17 19  2  0  0  0  0
 20 21  2  0  0  0  0
 20 22  1  0  0  0  0
 22 23  1  0  0  0  0
 22 24  1  0  0  0  0
 24 25  1  0  0  0  0
 24 26  1  0  0  0  0
 24 27  1  0  0  0  0
M  CHG  1  18  -1
M  END
$$$$

  -OEChem-03222214043D

 27 26  0     1  0  0  0  0  0999 V2000
   -3.4267   -3.3682    1.5016 H   0  0  0  0  0  0  0  0  0  0  0  0
   -3.0376   -2.8732    0.6087 C   0  0  0  0  0  0  0  0  0  0  0  0
   -3.8285   -2.2595    0.1703 H   0  0  0  0  0  0  0  0  0  0  0  0
   -2.7397   -3.6319   -0.1202 H   0  0  0  0  0  0  0  0  0  0  0  0
   -1.8405   -2.0085    0.9612 C   0  0  0  0  0  0  0  0  0  0  0  0
   -1.1938   -2.2625    1.9730 O   0  0  0  0  0  0  0  0  0  0  0  0
   -1.5496   -0.8766    0.2251 N   0  0  0  0  0  0  0  0  0  0  0  0
   -2.0425   -0.8506   -0.6749 H   0  0  0  0  0  0  0  0  0  0  0  0
   -0.2062   -0.2725    0.2394 C   0  0  1  0  0  0  0  0  0  0  0  0
    0.3713   -0.6502    1.0873 H   0  0  0  0  0  0  0  0  0  0  0  0
    0.5955   -0.5830   -1.0543 C   0  0  0  0  0  0  0  0  0  0  0  0
    1.3283    0.2127   -1.2228 H   0  0  0  0  0  0  0  0  0  0  0  0
    1.1635   -1.5046   -0.8876 H   0  0  0  0  0  0  0  0  0  0  0  0
   -0.2293   -0.7710   -2.3475 C   0  0  0  0  0  0  0  0  0  0  0  0
   -0.9403    0.0546   -2.4512 H   0  0  0  0  0  0  0  0  0  0  0  0
    0.4527   -0.7178   -3.2007 H   0  0  0  0  0  0  0  0  0  0  0  0
   -0.9690   -2.1049   -2.4348 C   0  0  0  0  0  0  0  0  0  0  0  0
   -0.2952   -3.1550   -2.5657 O   0  5  0  0  0  0  0  0  0  0  0  0
   -2.2200   -2.0657   -2.3119 O   0  0  0  0  0  0  0  0  0  0  0  0
   -0.2860    1.2629    0.3978 C   0  0  0  0  0  0  0  0  0  0  0  0
   -1.0586    1.9582   -0.2523 O   0  0  0  0  0  0  0  0  0  0  0  0
    0.5637    1.8905    1.2927 N   0  0  0  0  0  0  0  0  0  0  0  0
    1.1359    1.2928    1.8797 H   0  0  0  0  0  0  0  0  0  0  0  0
    0.5415    3.3230    1.5527 C   0  0  0  0  0  0  0  0  0  0  0  0
   -0.4302    3.6230    1.9581 H   0  0  0  0  0  0  0  0  0  0  0  0
    1.3168    3.5851    2.2786 H   0  0  0  0  0  0  0  0  0  0  0  0
    0.7290    3.8829    0.6306 H   0  0  0  0  0  0  0  0  0  0  0  0
  1  2  1  0  0  0  0
  2  3  1  0  0  0  0
  2  4  1  0  0  0  0
  2  5  1  0  0  0  0
  5  6  2  0  0  0  0
  5  7  1  0  0  0  0
  7  8  1  0  0  0  0
  7  9  1  0  0  0  0
  9 10  1  0  0  0  0
  9 11  1  0  0  0  0
  9 20  1  0  0  0  0
 11 12  1  0  0  0  0
 11 13  1  0  0  0  0
 11 14  1  0  0  0  0
 14 15  1  0  0  0  0
 14 16  1  0  0  0  0
 14 17  1  0  0  0  0
 17 18  1  0  0  0  0
 17 19  2  0  0  0  0
 20 21  2  0  0  0  0
 20 22  1  0  0  0  0
 22 23  1  0  0  0  0
 22 24  1  0  0  0  0
 24 25  1  0  0  0  0
 24 26  1  0  0  0  0
 24 27  1  0  0  0  0
M  CHG  1  18  -1
M  END
$$$$

  -OEChem-03222214043D

 27 26  0     1  0  0  0  0  0999 V2000
   -3.3348   -3.4879    1.5018 H   0  0  0  0  0  0  0  0  0  0  0  0
   -3.0403   -2.8734    0.6478 C   0  0  0  0  0  0  0  0  0  0  0  0
   -3.8865   -2.2499    0.3490 H   0  0  0  0  0  0  0  0  0  0  0  0
   -2.7758   -3.5273   -0.1881 H   0  0  0  0  0  0  0  0  0  0  0  0
   -1.8510   -2.0005    1.0059 C   0  0  0  0  0  0  0  0  0  0  0  0
   -1.1804   -2.2656    1.9994 O   0  0  0  0  0  0  0  0  0  0  0  0
   -1.5756   -0.8648    0.2716 N   0  0  0  0  0  0  0  0  0  0  0  0
   -2.1136   -0.8050   -0.6025 H   0  0  0  0  0  0  0  0  0  0  0  0
   -0.2375   -0.2561    0.2471 C   0  0  1  0  0  0  0  0  0  0  0  0
    0.3501   -0.6282    1.0903 H   0  0  0  0  0  0  0  0  0  0  0  0
    0.5656   -0.5722   -1.0482 C   0  0  0  0  0  0  0  0  0  0  0  0
    1.3051    0.2179   -1.2144 H   0  0  0  0  0  0  0  0  0  0  0  0
    1.1256   -1.4936   -0.8569 H   0  0  0  0  0  0  0  0  0  0  0  0
   -0.2078   -0.7996   -2.3712 C   0  0  0  0  0  0  0  0  0  0  0  0
   -0.7431    0.1209   -2.6233 H   0  0  0  0  0  0  0  0  0  0  0  0
    0.5178   -0.9805   -3.1694 H   0  0  0  0  0  0  0  0  0  0  0  0
   -1.2019   -1.9617   -2.3700 C   0  0  0  0  0  0  0  0  0  0  0  0
   -0.7403   -3.1278   -2.3504 O   0  5  0  0  0  0  0  0  0  0  0  0
   -2.4256   -1.6777   -2.3026 O   0  0  0  0  0  0  0  0  0  0  0  0
   -0.3130    1.2783    0.4137 C   0  0  0  0  0  0  0  0  0  0  0  0
   -1.0971    1.9780   -0.2167 O   0  0  0  0  0  0  0  0  0  0  0  0
    0.5643    1.9029    1.2844 N   0  0  0  0  0  0  0  0  0  0  0  0
    1.1515    1.3035    1.8545 H   0  0  0  0  0  0  0  0  0  0  0  0
    0.5593    3.3363    1.5396 C   0  0  0  0  0  0  0  0  0  0  0  0
   -0.3973    3.6440    1.9739 H   0  0  0  0  0  0  0  0  0  0  0  0
    1.3585    3.5958    2.2400 H   0  0  0  0  0  0  0  0  0  0  0  0
    0.7217    3.8914    0.6100 H   0  0  0  0  0  0  0  0  0  0  0  0
  1  2  1  0  0  0  0
  2  3  1  0  0  0  0
  2  4  1  0  0  0  0
  2  5  1  0  0  0  0
  5  6  2  0  0  0  0
  5  7  1  0  0  0  0
  7  8  1  0  0  0  0
  7  9  1  0  0  0  0
  9 10  1  0  0  0  0
  9 11  1  0  0  0  0
  9 20  1  0  0  0  0
 11 12  1  0  0  0  0
 11 13  1  0  0  0  0
 11 14  1  0  0  0  0
 14 15  1  0  0  0  0
 14 16  1  0  0  0  0
 14 17  1  0  0  0  0
 17 18  1  0  0  0  0
 17 19  2  0  0  0  0
 20 21  2  0  0  0  0
 20 22  1  0  0  0  0
 22 23  1  0  0  0  0
 22 24  1  0  0  0  0
 24 25  1  0  0  0  0
 24 26  1  0  0  0  0
 24 27  1  0  0  0  0
M  CHG  1  18  -1
M  END
$$$$

  -OEChem-03222214043D

 27 26  0     1  0  0  0  0  0999 V2000
   -3.2405   -3.5866    1.5052 H   0  0  0  0  0  0  0  0  0  0  0  0
   -3.0783   -2.8343    0.7295 C   0  0  0  0  0  0  0  0  0  0  0  0
   -3.9509   -2.1787    0.6795 H   0  0  0  0  0  0  0  0  0  0  0  0
   -2.9627   -3.3378   -0.2346 H   0  0  0  0  0  0  0  0  0  0  0  0
   -1.8337   -2.0192    1.0316 C   0  0  0  0  0  0  0  0  0  0  0  0
   -1.1066   -2.3345    1.9690 O   0  0  0  0  0  0  0  0  0  0  0  0
   -1.5745   -0.8732    0.3110 N   0  0  0  0  0  0  0  0  0  0  0  0
   -2.1732   -0.7517   -0.5173 H   0  0  0  0  0  0  0  0  0  0  0  0
   -0.2495   -0.2464    0.2439 C   0  0  1  0  0  0  0  0  0  0  0  0
    0.3558   -0.6147    1.0763 H   0  0  0  0  0  0  0  0  0  0  0  0
    0.5464   -0.5547   -1.0598 C   0  0  0  0  0  0  0  0  0  0  0  0
    1.2841    0.2372   -1.2253 H   0  0  0  0  0  0  0  0  0  0  0  0
    1.1094   -1.4701   -0.8514 H   0  0  0  0  0  0  0  0  0  0  0  0
   -0.1843   -0.8211   -2.4052 C   0  0  0  0  0  0  0  0  0  0  0  0
   -0.5286    0.1423   -2.7930 H   0  0  0  0  0  0  0  0  0  0  0  0
    0.5427   -1.2127   -3.1226 H   0  0  0  0  0  0  0  0  0  0  0  0
   -1.3894   -1.7642   -2.3819 C   0  0  0  0  0  0  0  0  0  0  0  0
   -1.1522   -2.9961   -2.3639 O   0  5  0  0  0  0  0  0  0  0  0  0
   -2.5393   -1.2620   -2.2937 O   0  0  0  0  0  0  0  0  0  0  0  0
   -0.3325    1.2851    0.4305 C   0  0  0  0  0  0  0  0  0  0  0  0
   -1.1474    1.9852   -0.1579 O   0  0  0  0  0  0  0  0  0  0  0  0
    0.5718    1.9080    1.2745 N   0  0  0  0  0  0  0  0  0  0  0  0
    1.1881    1.3081    1.8123 H   0  0  0  0  0  0  0  0  0  0  0  0
    0.5636    3.3386    1.5459 C   0  0  0  0  0  0  0  0  0  0  0  0
   -0.3733    3.6304    2.0312 H   0  0  0  0  0  0  0  0  0  0  0  0
    1.3944    3.6004    2.2077 H   0  0  0  0  0  0  0  0  0  0  0  0
    0.6721    3.9057    0.6155 H   0  0  0  0  0  0  0  0  0  0  0  0
  1  2  1  0  0  0  0
  2  3  1  0  0  0  0
  2  4  1  0  0  0  0
  2  5  1  0  0  0  0
  5  6  2  0  0  0  0
  5  7  1  0  0  0  0
  7  8  1  0  0  0  0
  7  9  1  0  0  0  0
  9 10  1  0  0  0  0
  9 11  1  0  0  0  0
  9 20  1  0  0  0  0
 11 12  1  0  0  0  0
 11 13  1  0  0  0  0
 11 14  1  0  0  0  0
 14 15  1  0  0  0  0
 14 16  1  0  0  0  0
 14 17  1  0  0  0  0
 17 18  1  0  0  0  0
 17 19  2  0  0  0  0
 20 21  2  0  0  0  0
 20 22  1  0  0  0  0
 22 23  1  0  0  0  0
 22 24  1  0  0  0  0
 24 25  1  0  0  0  0
 24 26  1  0  0  0  0
 24 27  1  0  0  0  0
M  CHG  1  18  -1
M  END
$$$$

  -OEChem-03222214043D

 27 26  0     1  0  0  0  0  0999 V2000
   -3.1307   -3.6385    1.5515 H   0  0  0  0  0  0  0  0  0  0  0  0
   -3.1081   -2.7508    0.9147 C   0  0  0  0  0  0  0  0  0  0  0  0
   -3.9430   -2.0983    1.1800 H   0  0  0  0  0  0  0  0  0  0  0  0
   -3.2224   -3.0623   -0.1274 H   0  0  0  0  0  0  0  0  0  0  0  0
   -1.7959   -2.0072    1.0872 C   0  0  0  0  0  0  0  0  0  0  0  0
   -0.9808   -2.3861    1.9230 O   0  0  0  0  0  0  0  0  0  0  0  0
   -1.5667   -0.8536    0.3701 N   0  0  0  0  0  0  0  0  0  0  0  0
   -2.2497   -0.6597   -0.3757 H   0  0  0  0  0  0  0  0  0  0  0  0
   -0.2493   -0.2323    0.2062 C   0  0  1  0  0  0  0  0  0  0  0  0
    0.4012   -0.6090    0.9997 H   0  0  0  0  0  0  0  0  0  0  0  0
    0.4694   -0.5622   -1.1369 C   0  0  0  0  0  0  0  0  0  0  0  0
    1.2064    0.2193   -1.3485 H   0  0  0  0  0  0  0  0  0  0  0  0
    1.0356   -1.4770   -0.9341 H   0  0  0  0  0  0  0  0  0  0  0  0
   -0.3047   -0.8600   -2.4559 C   0  0  0  0  0  0  0  0  0  0  0  0
   -0.4429    0.0944   -2.9726 H   0  0  0  0  0  0  0  0  0  0  0  0
    0.3314   -1.4766   -3.0978 H   0  0  0  0  0  0  0  0  0  0  0  0
   -1.6871   -1.5131   -2.3744 C   0  0  0  0  0  0  0  0  0  0  0  0
   -1.7208   -2.7674   -2.3932 O   0  5  0  0  0  0  0  0  0  0  0  0
   -2.6948   -0.7827   -2.2002 O   0  0  0  0  0  0  0  0  0  0  0  0
   -0.2896    1.2981    0.4164 C   0  0  0  0  0  0  0  0  0  0  0  0
   -1.1519    2.0200   -0.0670 O   0  0  0  0  0  0  0  0  0  0  0  0
    0.6933    1.8915    1.1914 N   0  0  0  0  0  0  0  0  0  0  0  0
    1.3552    1.2740    1.6486 H   0  0  0  0  0  0  0  0  0  0  0  0
    0.7261    3.3149    1.4965 C   0  0  0  0  0  0  0  0  0  0  0  0
   -0.1842    3.6134    2.0263 H   0  0  0  0  0  0  0  0  0  0  0  0
    1.5875    3.5438    2.1307 H   0  0  0  0  0  0  0  0  0  0  0  0
    0.8091    3.9014    0.5757 H   0  0  0  0  0  0  0  0  0  0  0  0
  1  2  1  0  0  0  0
  2  3  1  0  0  0  0
  2  4  1  0  0  0  0
  2  5  1  0  0  0  0
  5  6  2  0  0  0  0
  5  7  1  0  0  0  0
  7  8  1  0  0  0  0
  7  9  1  0  0  0  0
  9 10  1  0  0  0  0
  9 11  1  0  0  0  0
  9 20  1  0  0  0  0
 11 12  1  0  0  0  0
 11 13  1  0  0  0  0
 11 14  1  0  0  0  0
 14 15  1  0  0  0  0
 14 16  1  0  0  0  0
 14 17  1  0  0  0  0
 17 18  1  0  0  0  0
 17 19  2  0  0  0  0
 20 21  2  0  0  0  0
 20 22  1  0  0  0  0
 22 23  1  0  0  0  0
 22 24  1  0  0  0  0
 24 25  1  0  0  0  0
 24 26  1  0  0  0  0
 24 27  1  0  0  0  0
M  CHG  1  18  -1
M  END
$$$$

  -OEChem-03222214043D

 27 26  0     1  0  0  0  0  0999 V2000
   -2.8528   -3.7453    1.6809 H   0  0  0  0  0  0  0  0  0  0  0  0
   -2.9082   -2.8659    1.0345 C   0  0  0  0  0  0  0  0  0  0  0  0
   -3.7373   -2.2337    1.3609 H   0  0  0  0  0  0  0  0  0  0  0  0
   -3.0981   -3.1931    0.0085 H   0  0  0  0  0  0  0  0  0  0  0  0
   -1.6082   -2.0842    1.0900 C   0  0  0  0  0  0  0  0  0  0  0  0
   -0.6774   -2.4882    1.7803 O   0  0  0  0  0  0  0  0  0  0  0  0
   -1.5050   -0.8867    0.4180 N   0  0  0  0  0  0  0  0  0  0  0  0
   -2.2859   -0.6561   -0.2126 H   0  0  0  0  0  0  0  0  0  0  0  0
   -0.2499   -0.1801    0.1505 C   0  0  1  0  0  0  0  0  0  0  0  0
    0.4847   -0.5492    0.8705 H   0  0  0  0  0  0  0  0  0  0  0  0
    0.3652   -0.4561   -1.2538 C   0  0  0  0  0  0  0  0  0  0  0  0
    1.0270    0.3753   -1.5172 H   0  0  0  0  0  0  0  0  0  0  0  0
    1.0098   -1.3293   -1.1095 H   0  0  0  0  0  0  0  0  0  0  0  0
   -0.4923   -0.7987   -2.5120 C   0  0  0  0  0  0  0  0  0  0  0  0
   -0.5056    0.0928   -3.1456 H   0  0  0  0  0  0  0  0  0  0  0  0
    0.0301   -1.5751   -3.0791 H   0  0  0  0  0  0  0  0  0  0  0  0
   -1.9554   -1.2227   -2.3499 C   0  0  0  0  0  0  0  0  0  0  0  0
   -2.1974   -2.4509   -2.4434 O   0  5  0  0  0  0  0  0  0  0  0  0
   -2.8108   -0.3605   -2.0345 O   0  0  0  0  0  0  0  0  0  0  0  0
   -0.3227    1.3379    0.4365 C   0  0  0  0  0  0  0  0  0  0  0  0
   -1.2779    2.0400    0.1348 O   0  0  0  0  0  0  0  0  0  0  0  0
    0.7200    1.9338    1.1278 N   0  0  0  0  0  0  0  0  0  0  0  0
    1.4685    1.3286    1.4465 H   0  0  0  0  0  0  0  0  0  0  0  0
    0.7337    3.3383    1.5122 C   0  0  0  0  0  0  0  0  0  0  0  0
   -0.1016    3.5591    2.1844 H   0  0  0  0  0  0  0  0  0  0  0  0
    1.6678    3.5772    2.0291 H   0  0  0  0  0  0  0  0  0  0  0  0
    0.6552    3.9779    0.6271 H   0  0  0  0  0  0  0  0  0  0  0  0
  1  2  1  0  0  0  0
  2  3  1  0  0  0  0
  2  4  1  0  0  0  0
  2  5  1  0  0  0  0
  5  6  2  0  0  0  0
  5  7  1  0  0  0  0
  7  8  1  0  0  0  0
  7  9  1  0  0  0  0
  9 10  1  0  0  0  0
  9 11  1  0  0  0  0
  9 20  1  0  0  0  0
 11 12  1  0  0  0  0
 11 13  1  0  0  0  0
 11 14  1  0  0  0  0
 14 15  1  0  0  0  0
 14 16  1  0  0  0  0
 14 17  1  0  0  0  0
 17 18  1  0  0  0  0
 17 19  2  0  0  0  0
 20 21  2  0  0  0  0
 20 22  1  0  0  0  0
 22 23  1  0  0  0  0
 22 24  1  0  0  0  0
 24 25  1  0  0  0  0
 24 26  1  0  0  0  0
 24 27  1  0  0  0  0
M  CHG  1  18  -1
M  END
$$$$

  -OEChem-03222214043D

 27 26  0     1  0  0  0  0  0999 V2000
   -3.1548   -3.7099    1.2728 H   0  0  0  0  0  0  0  0  0  0  0  0
   -3.0778   -2.8360    0.6210 C   0  0  0  0  0  0  0  0  0  0  0  0
   -3.9289   -2.1766    0.8079 H   0  0  0  0  0  0  0  0  0  0  0  0
   -3.1110   -3.1652   -0.4211 H   0  0  0  0  0  0  0  0  0  0  0  0
   -1.7808   -2.0905    0.8810 C   0  0  0  0  0  0  0  0  0  0  0  0
   -0.9508   -2.5644    1.6508 O   0  0  0  0  0  0  0  0  0  0  0  0
   -1.5654   -0.8689    0.2832 N   0  0  0  0  0  0  0  0  0  0  0  0
   -2.2262   -0.6536   -0.4745 H   0  0  0  0  0  0  0  0  0  0  0  0
   -0.2555   -0.2128    0.2102 C   0  0  1  0  0  0  0  0  0  0  0  0
    0.3791   -0.6466    0.9872 H   0  0  0  0  0  0  0  0  0  0  0  0
    0.4922   -0.4481   -1.1332 C   0  0  0  0  0  0  0  0  0  0  0  0
    1.1738    0.3967   -1.2770 H   0  0  0  0  0  0  0  0  0  0  0  0
    1.1235   -1.3301   -0.9871 H   0  0  0  0  0  0  0  0  0  0  0  0
   -0.2426   -0.6666   -2.4912 C   0  0  0  0  0  0  0  0  0  0  0  0
    0.3110   -0.1205   -3.2611 H   0  0  0  0  0  0  0  0  0  0  0  0
   -0.1510   -1.7277   -2.7409 H   0  0  0  0  0  0  0  0  0  0  0  0
   -1.7291   -0.3212   -2.6460 C   0  0  0  0  0  0  0  0  0  0  0  0
   -2.0096    0.7355   -3.2580 O   0  5  0  0  0  0  0  0  0  0  0  0
   -2.5814   -1.1525   -2.2360 O   0  0  0  0  0  0  0  0  0  0  0  0
   -0.3193    1.2907    0.5660 C   0  0  0  0  0  0  0  0  0  0  0  0
   -1.2470    2.0154    0.2359 O   0  0  0  0  0  0  0  0  0  0  0  0
    0.6410    1.8185    1.4139 N   0  0  0  0  0  0  0  0  0  0  0  0
    1.3554    1.1864    1.7571 H   0  0  0  0  0  0  0  0  0  0  0  0
    0.6207    3.1929    1.8948 C   0  0  0  0  0  0  0  0  0  0  0  0
   -0.2802    3.3770    2.4889 H   0  0  0  0  0  0  0  0  0  0  0  0
    1.4959    3.3845    2.5225 H   0  0  0  0  0  0  0  0  0  0  0  0
    0.6392    3.8929    1.0530 H   0  0  0  0  0  0  0  0  0  0  0  0
  1  2  1  0  0  0  0
  2  3  1  0  0  0  0
  2  4  1  0  0  0  0
  2  5  1  0  0  0  0
  5  6  2  0  0  0  0
  5  7  1  0  0  0  0
  7  8  1  0  0  0  0
  7  9  1  0  0  0  0
  9 10  1  0  0  0  0
  9 11  1  0  0  0  0
  9 20  1  0  0  0  0
 11 12  1  0  0  0  0
 11 13  1  0  0  0  0
 11 14  1  0  0  0  0
 14 15  1  0  0  0  0
 14 16  1  0  0  0  0
 14 17  1  0  0  0  0
 17 18  1  0  0  0  0
 17 19  2  0  0  0  0
 20 21  2  0  0  0  0
 20 22  1  0  0  0  0
 22 23  1  0  0  0  0
 22 24  1  0  0  0  0
 24 25  1  0  0  0  0
 24 26  1  0  0  0  0
 24 27  1  0  0  0  0
M  CHG  1  18  -1
M  END
$$$$

  -OEChem-03222214043D

 27 26  0     1  0  0  0  0  0999 V2000
   -3.1025   -3.6915    1.2763 H   0  0  0  0  0  0  0  0  0  0  0  0
   -3.0860   -2.7508    0.7201 C   0  0  0  0  0  0  0  0  0  0  0  0
   -3.9253   -2.1302    1.0432 H   0  0  0  0  0  0  0  0  0  0  0  0
   -3.1984   -2.9663   -0.3463 H   0  0  0  0  0  0  0  0  0  0  0  0
   -1.7801   -2.0147    0.9571 C   0  0  0  0  0  0  0  0  0  0  0  0
   -0.9504   -2.4719    1.7362 O   0  0  0  0  0  0  0  0  0  0  0  0
   -1.5465   -0.8324    0.2950 N   0  0  0  0  0  0  0  0  0  0  0  0
   -2.2232   -0.6120   -0.4490 H   0  0  0  0  0  0  0  0  0  0  0  0
   -0.2424   -0.1694    0.1962 C   0  0  1  0  0  0  0  0  0  0  0  0
    0.3773   -0.5475    1.0133 H   0  0  0  0  0  0  0  0  0  0  0  0
    0.5155   -0.5312   -1.1088 C   0  0  0  0  0  0  0  0  0  0  0  0
    1.1799    0.3067   -1.3432 H   0  0  0  0  0  0  0  0  0  0  0  0
    1.1586   -1.3890   -0.8886 H   0  0  0  0  0  0  0  0  0  0  0  0
   -0.2565   -0.8767   -2.4122 C   0  0  0  0  0  0  0  0  0  0  0  0
    0.3929   -0.6569   -3.2648 H   0  0  0  0  0  0  0  0  0  0  0  0
   -0.4201   -1.9586   -2.4141 H   0  0  0  0  0  0  0  0  0  0  0  0
   -1.6240   -0.2301   -2.6634 C   0  0  0  0  0  0  0  0  0  0  0  0
   -2.6479   -0.8173   -2.2213 O   0  5  0  0  0  0  0  0  0  0  0  0
   -1.6458    0.7906   -3.3909 O   0  0  0  0  0  0  0  0  0  0  0  0
   -0.3036    1.3540    0.4547 C   0  0  0  0  0  0  0  0  0  0  0  0
   -1.2545    2.0470    0.1230 O   0  0  0  0  0  0  0  0  0  0  0  0
    0.6532    1.9294    1.2753 N   0  0  0  0  0  0  0  0  0  0  0  0
    1.4006    1.3313    1.6082 H   0  0  0  0  0  0  0  0  0  0  0  0
    0.6296    3.3279    1.6805 C   0  0  0  0  0  0  0  0  0  0  0  0
   -0.2800    3.5462    2.2494 H   0  0  0  0  0  0  0  0  0  0  0  0
    1.4948    3.5514    2.3114 H   0  0  0  0  0  0  0  0  0  0  0  0
    0.6639    3.9805    0.8020 H   0  0  0  0  0  0  0  0  0  0  0  0
  1  2  1  0  0  0  0
  2  3  1  0  0  0  0
  2  4  1  0  0  0  0
  2  5  1  0  0  0  0
  5  6  2  0  0  0  0
  5  7  1  0  0  0  0
  7  8  1  0  0  0  0
  7  9  1  0  0  0  0
  9 10  1  0  0  0  0
  9 11  1  0  0  0  0
  9 20  1  0  0  0  0
 11 12  1  0  0  0  0
 11 13  1  0  0  0  0
 11 14  1  0  0  0  0
 14 15  1  0  0  0  0
 14 16  1  0  0  0  0
 14 17  1  0  0  0  0
 17 18  1  0  0  0  0
 17 19  2  0  0  0  0
 20 21  2  0  0  0  0
 20 22  1  0  0  0  0
 22 23  1  0  0  0  0
 22 24  1  0  0  0  0
 24 25  1  0  0  0  0
 24 26  1  0  0  0  0
 24 27  1  0  0  0  0
M  CHG  1  18  -1
M  END
$$$$

  -OEChem-03222214043D

 27 26  0     1  0  0  0  0  0999 V2000
   -3.1147   -3.6842    1.1794 H   0  0  0  0  0  0  0  0  0  0  0  0
   -3.0947   -2.7270    0.6522 C   0  0  0  0  0  0  0  0  0  0  0  0
   -3.9203   -2.1060    1.0081 H   0  0  0  0  0  0  0  0  0  0  0  0
   -3.2265   -2.9075   -0.4183 H   0  0  0  0  0  0  0  0  0  0  0  0
   -1.7756   -2.0157    0.8924 C   0  0  0  0  0  0  0  0  0  0  0  0
   -0.9470   -2.4984    1.6564 O   0  0  0  0  0  0  0  0  0  0  0  0
   -1.5261   -0.8310    0.2420 N   0  0  0  0  0  0  0  0  0  0  0  0
   -2.2064   -0.5634   -0.4846 H   0  0  0  0  0  0  0  0  0  0  0  0
   -0.2274   -0.1530    0.1687 C   0  0  1  0  0  0  0  0  0  0  0  0
    0.3733   -0.5257    1.0025 H   0  0  0  0  0  0  0  0  0  0  0  0
    0.5510   -0.5446   -1.1123 C   0  0  0  0  0  0  0  0  0  0  0  0
    1.2142    0.2857   -1.3768 H   0  0  0  0  0  0  0  0  0  0  0  0
    1.1885   -1.4013   -0.8730 H   0  0  0  0  0  0  0  0  0  0  0  0
   -0.2645   -0.9194   -2.3732 C   0  0  0  0  0  0  0  0  0  0  0  0
    0.4162   -0.9590   -3.2285 H   0  0  0  0  0  0  0  0  0  0  0  0
   -0.6575   -1.9314   -2.2359 H   0  0  0  0  0  0  0  0  0  0  0  0
   -1.4408   -0.0090   -2.7308 C   0  0  0  0  0  0  0  0  0  0  0  0
   -2.5789   -0.3456   -2.3062 O   0  5  0  0  0  0  0  0  0  0  0  0
   -1.2144    0.9557   -3.5000 O   0  0  0  0  0  0  0  0  0  0  0  0
   -0.2895    1.3711    0.4256 C   0  0  0  0  0  0  0  0  0  0  0  0
   -1.2549    2.0565    0.1219 O   0  0  0  0  0  0  0  0  0  0  0  0
    0.6571    1.9417    1.2619 N   0  0  0  0  0  0  0  0  0  0  0  0
    1.4170    1.3496    1.5765 H   0  0  0  0  0  0  0  0  0  0  0  0
    0.6194    3.3332    1.6903 C   0  0  0  0  0  0  0  0  0  0  0  0
   -0.2938    3.5334    2.2602 H   0  0  0  0  0  0  0  0  0  0  0  0
    1.4808    3.5539    2.3275 H   0  0  0  0  0  0  0  0  0  0  0  0
    0.6497    4.0010    0.8233 H   0  0  0  0  0  0  0  0  0  0  0  0
  1  2  1  0  0  0  0
  2  3  1  0  0  0  0
  2  4  1  0  0  0  0
  2  5  1  0  0  0  0
  5  6  2  0  0  0  0
  5  7  1  0  0  0  0
  7  8  1  0  0  0  0
  7  9  1  0  0  0  0
  9 10  1  0  0  0  0
  9 11  1  0  0  0  0
  9 20  1  0  0  0  0
 11 12  1  0  0  0  0
 11 13  1  0  0  0  0
 11 14  1  0  0  0  0
 14 15  1  0  0  0  0
 14 16  1  0  0  0  0
 14 17  1  0  0  0  0
 17 18  1  0  0  0  0
 17 19  2  0  0  0  0
 20 21  2  0  0  0  0
 20 22  1  0  0  0  0
 22 23  1  0  0  0  0
 22 24  1  0  0  0  0
 24 25  1  0  0  0  0
 24 26  1  0  0  0  0
 24 27  1  0  0  0  0
M  CHG  1  18  -1
M  END
$$$$

  -OEChem-03222214043D

 27 26  0     1  0  0  0  0  0999 V2000
   -3.1286   -3.7194    1.0312 H   0  0  0  0  0  0  0  0  0  0  0  0
   -3.0919   -2.7582    0.5117 C   0  0  0  0  0  0  0  0  0  0  0  0
   -3.9226   -2.1360    0.8539 H   0  0  0  0  0  0  0  0  0  0  0  0
   -3.1994   -2.9310   -0.5625 H   0  0  0  0  0  0  0  0  0  0  0  0
   -1.7753   -2.0557    0.7882 C   0  0  0  0  0  0  0  0  0  0  0  0
   -0.9587   -2.5593    1.5507 O   0  0  0  0  0  0  0  0  0  0  0  0
   -1.5146   -0.8558    0.1705 N   0  0  0  0  0  0  0  0  0  0  0  0
   -2.1840   -0.5464   -0.5472 H   0  0  0  0  0  0  0  0  0  0  0  0
   -0.2264   -0.1535    0.1576 C   0  0  1  0  0  0  0  0  0  0  0  0
    0.3437   -0.5282    1.0118 H   0  0  0  0  0  0  0  0  0  0  0  0
    0.6138   -0.5208   -1.0892 C   0  0  0  0  0  0  0  0  0  0  0  0
    1.2817    0.3121   -1.3333 H   0  0  0  0  0  0  0  0  0  0  0  0
    1.2426   -1.3797   -0.8353 H   0  0  0  0  0  0  0  0  0  0  0  0
   -0.1934   -0.8957   -2.3484 C   0  0  0  0  0  0  0  0  0  0  0  0
    0.5113   -1.1365   -3.1494 H   0  0  0  0  0  0  0  0  0  0  0  0
   -0.7750   -1.8029   -2.1600 H   0  0  0  0  0  0  0  0  0  0  0  0
   -1.1211    0.2026   -2.8527 C   0  0  0  0  0  0  0  0  0  0  0  0
   -0.6383    1.1096   -3.5740 O   0  5  0  0  0  0  0  0  0  0  0  0
   -2.3371    0.0777   -2.5504 O   0  0  0  0  0  0  0  0  0  0  0  0
   -0.3233    1.3651    0.4373 C   0  0  0  0  0  0  0  0  0  0  0  0
   -1.3164    2.0237    0.1636 O   0  0  0  0  0  0  0  0  0  0  0  0
    0.5839    1.9338    1.3173 N   0  0  0  0  0  0  0  0  0  0  0  0
    1.3839    1.3719    1.5845 H   0  0  0  0  0  0  0  0  0  0  0  0
    0.5108    3.3180    1.7649 C   0  0  0  0  0  0  0  0  0  0  0  0
   -0.4262    3.4979    2.3021 H   0  0  0  0  0  0  0  0  0  0  0  0
    1.3435    3.5396    2.4389 H   0  0  0  0  0  0  0  0  0  0  0  0
    0.5654    3.9994    0.9096 H   0  0  0  0  0  0  0  0  0  0  0  0
  1  2  1  0  0  0  0
  2  3  1  0  0  0  0
  2  4  1  0  0  0  0
  2  5  1  0  0  0  0
  5  6  2  0  0  0  0
  5  7  1  0  0  0  0
  7  8  1  0  0  0  0
  7  9  1  0  0  0  0
  9 10  1  0  0  0  0
  9 11  1  0  0  0  0
  9 20  1  0  0  0  0
 11 12  1  0  0  0  0
 11 13  1  0  0  0  0
 11 14  1  0  0  0  0
 14 15  1  0  0  0  0
 14 16  1  0  0  0  0
 14 17  1  0  0  0  0
 17 18  1  0  0  0  0
 17 19  2  0  0  0  0
 20 21  2  0  0  0  0
 20 22  1  0  0  0  0
 22 23  1  0  0  0  0
 22 24  1  0  0  0  0
 24 25  1  0  0  0  0
 24 26  1  0  0  0  0
 24 27  1  0  0  0  0
M  CHG  1  18  -1
M  END
$$$$

  -OEChem-03222214043D

 27 26  0     1  0  0  0  0  0999 V2000
   -3.1803   -3.6826    1.1360 H   0  0  0  0  0  0  0  0  0  0  0  0
   -3.1253   -2.7376    0.5891 C   0  0  0  0  0  0  0  0  0  0  0  0
   -3.9169   -2.0742    0.9462 H   0  0  0  0  0  0  0  0  0  0  0  0
   -3.2809   -2.9349   -0.4749 H   0  0  0  0  0  0  0  0  0  0  0  0
   -1.7713   -2.0840    0.7969 C   0  0  0  0  0  0  0  0  0  0  0  0
   -0.9400   -2.6149    1.5225 O   0  0  0  0  0  0  0  0  0  0  0  0
   -1.4964   -0.8929    0.1663 N   0  0  0  0  0  0  0  0  0  0  0  0
   -2.2052   -0.5175   -0.4679 H   0  0  0  0  0  0  0  0  0  0  0  0
   -0.1997   -0.2050    0.1533 C   0  0  1  0  0  0  0  0  0  0  0  0
    0.3751   -0.5744    1.0070 H   0  0  0  0  0  0  0  0  0  0  0  0
    0.6414   -0.5393   -1.1013 C   0  0  0  0  0  0  0  0  0  0  0  0
    1.3403    0.2784   -1.3084 H   0  0  0  0  0  0  0  0  0  0  0  0
    1.2431   -1.4221   -0.8635 H   0  0  0  0  0  0  0  0  0  0  0  0
   -0.1545   -0.8719   -2.3807 C   0  0  0  0  0  0  0  0  0  0  0  0
    0.5371   -1.3147   -3.1030 H   0  0  0  0  0  0  0  0  0  0  0  0
   -0.9221   -1.6251   -2.1837 H   0  0  0  0  0  0  0  0  0  0  0  0
   -0.7741    0.3540   -3.0436 C   0  0  0  0  0  0  0  0  0  0  0  0
    0.0013    1.2432   -3.4765 O   0  5  0  0  0  0  0  0  0  0  0  0
   -2.0244    0.3591   -3.1681 O   0  0  0  0  0  0  0  0  0  0  0  0
   -0.3345    1.3122    0.4204 C   0  0  0  0  0  0  0  0  0  0  0  0
   -1.3692    1.9158    0.1674 O   0  0  0  0  0  0  0  0  0  0  0  0
    0.5464    1.9134    1.3046 N   0  0  0  0  0  0  0  0  0  0  0  0
    1.4038    1.4120    1.5067 H   0  0  0  0  0  0  0  0  0  0  0  0
    0.4387    3.3081    1.7103 C   0  0  0  0  0  0  0  0  0  0  0  0
   -0.5094    3.4847    2.2286 H   0  0  0  0  0  0  0  0  0  0  0  0
    1.2561    3.5658    2.3900 H   0  0  0  0  0  0  0  0  0  0  0  0
    0.4929    3.9654    0.8363 H   0  0  0  0  0  0  0  0  0  0  0  0
  1  2  1  0  0  0  0
  2  3  1  0  0  0  0
  2  4  1  0  0  0  0
  2  5  1  0  0  0  0
  5  6  2  0  0  0  0
  5  7  1  0  0  0  0
  7  8  1  0  0  0  0
  7  9  1  0  0  0  0
  9 10  1  0  0  0  0
  9 11  1  0  0  0  0
  9 20  1  0  0  0  0
 11 12  1  0  0  0  0
 11 13  1  0  0  0  0
 11 14  1  0  0  0  0
 14 15  1  0  0  0  0
 14 16  1  0  0  0  0
 14 17  1  0  0  0  0
 17 18  1  0  0  0  0
 17 19  2  0  0  0  0
 20 21  2  0  0  0  0
 20 22  1  0  0  0  0
 22 23  1  0  0  0  0
 22 24  1  0  0  0  0
 24 25  1  0  0  0  0
 24 26  1  0  0  0  0
 24 27  1  0  0  0  0
M  CHG  1  18  -1
M  END
$$$$

  -OEChem-03222214043D

 27 26  0     1  0  0  0  0  0999 V2000
   -3.2121   -3.6567    1.2367 H   0  0  0  0  0  0  0  0  0  0  0  0
   -3.1459   -2.7256    0.6672 C   0  0  0  0  0  0  0  0  0  0  0  0
   -3.9042   -2.0301    1.0353 H   0  0  0  0  0  0  0  0  0  0  0  0
   -3.3427   -2.9407   -0.3864 H   0  0  0  0  0  0  0  0  0  0  0  0
   -1.7661   -2.1111    0.8182 C   0  0  0  0  0  0  0  0  0  0  0  0
   -0.9250   -2.6596    1.5181 O   0  0  0  0  0  0  0  0  0  0  0  0
   -1.4825   -0.9285    0.1748 N   0  0  0  0  0  0  0  0  0  0  0  0
   -2.2152   -0.5081   -0.3972 H   0  0  0  0  0  0  0  0  0  0  0  0
   -0.1795   -0.2523    0.1566 C   0  0  1  0  0  0  0  0  0  0  0  0
    0.4061   -0.6198    1.0042 H   0  0  0  0  0  0  0  0  0  0  0  0
    0.6513   -0.5473   -1.1141 C   0  0  0  0  0  0  0  0  0  0  0  0
    1.3805    0.2531   -1.2786 H   0  0  0  0  0  0  0  0  0  0  0  0
    1.2279   -1.4528   -0.9012 H   0  0  0  0  0  0  0  0  0  0  0  0
   -0.1355   -0.8347   -2.4158 C   0  0  0  0  0  0  0  0  0  0  0  0
    0.4877   -1.4768   -3.0446 H   0  0  0  0  0  0  0  0  0  0  0  0
   -1.0562   -1.3899   -2.2223 H   0  0  0  0  0  0  0  0  0  0  0  0
   -0.4376    0.4195   -3.2381 C   0  0  0  0  0  0  0  0  0  0  0  0
    0.5091    1.2131   -3.4742 O   0  5  0  0  0  0  0  0  0  0  0  0
   -1.5991    0.5291   -3.7031 O   0  0  0  0  0  0  0  0  0  0  0  0
   -0.3409    1.2633    0.4113 C   0  0  0  0  0  0  0  0  0  0  0  0
   -1.3848    1.8413    0.1305 O   0  0  0  0  0  0  0  0  0  0  0  0
    0.5209    1.8919    1.2942 N   0  0  0  0  0  0  0  0  0  0  0  0
    1.3972    1.4190    1.4848 H   0  0  0  0  0  0  0  0  0  0  0  0
    0.3966    3.2981    1.6521 C   0  0  0  0  0  0  0  0  0  0  0  0
   -0.5664    3.4866    2.1380 H   0  0  0  0  0  0  0  0  0  0  0  0
    1.1935    3.5813    2.3458 H   0  0  0  0  0  0  0  0  0  0  0  0
    0.4725    3.9272    0.7591 H   0  0  0  0  0  0  0  0  0  0  0  0
  1  2  1  0  0  0  0
  2  3  1  0  0  0  0
  2  4  1  0  0  0  0
  2  5  1  0  0  0  0
  5  6  2  0  0  0  0
  5  7  1  0  0  0  0
  7  8  1  0  0  0  0
  7  9  1  0  0  0  0
  9 10  1  0  0  0  0
  9 11  1  0  0  0  0
  9 20  1  0  0  0  0
 11 12  1  0  0  0  0
 11 13  1  0  0  0  0
 11 14  1  0  0  0  0
 14 15  1  0  0  0  0
 14 16  1  0  0  0  0
 14 17  1  0  0  0  0
 17 18  1  0  0  0  0
 17 19  2  0  0  0  0
 20 21  2  0  0  0  0
 20 22  1  0  0  0  0
 22 23  1  0  0  0  0
 22 24  1  0  0  0  0
 24 25  1  0  0  0  0
 24 26  1  0  0  0  0
 24 27  1  0  0  0  0
M  CHG  1  18  -1
M  END
$$$$

  -OEChem-03222214043D

 27 26  0     1  0  0  0  0  0999 V2000
   -3.2158   -3.6533    1.2762 H   0  0  0  0  0  0  0  0  0  0  0  0
   -3.1501   -2.7251    0.7021 C   0  0  0  0  0  0  0  0  0  0  0  0
   -3.8997   -2.0235    1.0764 H   0  0  0  0  0  0  0  0  0  0  0  0
   -3.3604   -2.9435   -0.3481 H   0  0  0  0  0  0  0  0  0  0  0  0
   -1.7643   -2.1196    0.8343 C   0  0  0  0  0  0  0  0  0  0  0  0
   -0.9220   -2.6672    1.5329 O   0  0  0  0  0  0  0  0  0  0  0  0
   -1.4782   -0.9429    0.1809 N   0  0  0  0  0  0  0  0  0  0  0  0
   -2.2169   -0.5131   -0.3748 H   0  0  0  0  0  0  0  0  0  0  0  0
   -0.1725   -0.2710    0.1558 C   0  0  1  0  0  0  0  0  0  0  0  0
    0.4195   -0.6360    0.9999 H   0  0  0  0  0  0  0  0  0  0  0  0
    0.6517   -0.5527   -1.1228 C   0  0  0  0  0  0  0  0  0  0  0  0
    1.3853    0.2469   -1.2691 H   0  0  0  0  0  0  0  0  0  0  0  0
    1.2279   -1.4610   -0.9201 H   0  0  0  0  0  0  0  0  0  0  0  0
   -0.1314   -0.8256   -2.4349 C   0  0  0  0  0  0  0  0  0  0  0  0
    0.3485   -1.6668   -2.9430 H   0  0  0  0  0  0  0  0  0  0  0  0
   -1.1641   -1.1232   -2.2445 H   0  0  0  0  0  0  0  0  0  0  0  0
   -0.1162    0.3515   -3.4157 C   0  0  0  0  0  0  0  0  0  0  0  0
    0.9837    0.9161   -3.6475 O   0  5  0  0  0  0  0  0  0  0  0  0
   -1.1946    0.6219   -3.9994 O   0  0  0  0  0  0  0  0  0  0  0  0
   -0.3420    1.2451    0.3999 C   0  0  0  0  0  0  0  0  0  0  0  0
   -1.3792    1.8195    0.0870 O   0  0  0  0  0  0  0  0  0  0  0  0
    0.5131    1.8896    1.2774 N   0  0  0  0  0  0  0  0  0  0  0  0
    1.3856    1.4187    1.4906 H   0  0  0  0  0  0  0  0  0  0  0  0
    0.3782    3.2980    1.6226 C   0  0  0  0  0  0  0  0  0  0  0  0
   -0.5817    3.4811    2.1163 H   0  0  0  0  0  0  0  0  0  0  0  0
    1.1794    3.5963    2.3051 H   0  0  0  0  0  0  0  0  0  0  0  0
    0.4381    3.9196    0.7232 H   0  0  0  0  0  0  0  0  0  0  0  0
  1  2  1  0  0  0  0
  2  3  1  0  0  0  0
  2  4  1  0  0  0  0
  2  5  1  0  0  0  0
  5  6  2  0  0  0  0
  5  7  1  0  0  0  0
  7  8  1  0  0  0  0
  7  9  1  0  0  0  0
  9 10  1  0  0  0  0
  9 11  1  0  0  0  0
  9 20  1  0  0  0  0
 11 12  1  0  0  0  0
 11 13  1  0  0  0  0
 11 14  1  0  0  0  0
 14 15  1  0  0  0  0
 14 16  1  0  0  0  0
 14 17  1  0  0  0  0
 17 18  1  0  0  0  0
 17 19  2  0  0  0  0
 20 21  2  0  0  0  0
 20 22  1  0  0  0  0
 22 23  1  0  0  0  0
 22 24  1  0  0  0  0
 24 25  1  0  0  0  0
 24 26  1  0  0  0  0
 24 27  1  0  0  0  0
M  CHG  1  18  -1
M  END
$$$$

  -OEChem-03222214043D

 27 26  0     1  0  0  0  0  0999 V2000
   -3.2031   -3.6644    1.2750 H   0  0  0  0  0  0  0  0  0  0  0  0
   -3.1396   -2.7364    0.7002 C   0  0  0  0  0  0  0  0  0  0  0  0
   -3.8980   -2.0399    1.0665 H   0  0  0  0  0  0  0  0  0  0  0  0
   -3.3384   -2.9583   -0.3516 H   0  0  0  0  0  0  0  0  0  0  0  0
   -1.7593   -2.1210    0.8442 C   0  0  0  0  0  0  0  0  0  0  0  0
   -0.9222   -2.6573    1.5573 O   0  0  0  0  0  0  0  0  0  0  0  0
   -1.4738   -0.9470    0.1853 N   0  0  0  0  0  0  0  0  0  0  0  0
   -2.2089   -0.5272   -0.3818 H   0  0  0  0  0  0  0  0  0  0  0  0
   -0.1679   -0.2750    0.1603 C   0  0  1  0  0  0  0  0  0  0  0  0
    0.4280   -0.6383    1.0025 H   0  0  0  0  0  0  0  0  0  0  0  0
    0.6467   -0.5611   -1.1237 C   0  0  0  0  0  0  0  0  0  0  0  0
    1.3582    0.2577   -1.2751 H   0  0  0  0  0  0  0  0  0  0  0  0
    1.2465   -1.4564   -0.9328 H   0  0  0  0  0  0  0  0  0  0  0  0
   -0.1498   -0.8320   -2.4300 C   0  0  0  0  0  0  0  0  0  0  0  0
    0.1014   -1.8329   -2.7920 H   0  0  0  0  0  0  0  0  0  0  0  0
   -1.2271   -0.8142   -2.2542 H   0  0  0  0  0  0  0  0  0  0  0  0
    0.1590    0.1689   -3.5496 C   0  0  0  0  0  0  0  0  0  0  0  0
    1.3652    0.4429   -3.7798 O   0  5  0  0  0  0  0  0  0  0  0  0
   -0.8096    0.5916   -4.2279 O   0  0  0  0  0  0  0  0  0  0  0  0
   -0.3389    1.2418    0.3970 C   0  0  0  0  0  0  0  0  0  0  0  0
   -1.3607    1.8219    0.0457 O   0  0  0  0  0  0  0  0  0  0  0  0
    0.5110    1.8941    1.2734 N   0  0  0  0  0  0  0  0  0  0  0  0
    1.3718    1.4154    1.5161 H   0  0  0  0  0  0  0  0  0  0  0  0
    0.3826    3.3081    1.5981 C   0  0  0  0  0  0  0  0  0  0  0  0
   -0.5778    3.5039    2.0862 H   0  0  0  0  0  0  0  0  0  0  0  0
    1.1832    3.6113    2.2791 H   0  0  0  0  0  0  0  0  0  0  0  0
    0.4495    3.9165    0.6901 H   0  0  0  0  0  0  0  0  0  0  0  0
  1  2  1  0  0  0  0
  2  3  1  0  0  0  0
  2  4  1  0  0  0  0
  2  5  1  0  0  0  0
  5  6  2  0  0  0  0
  5  7  1  0  0  0  0
  7  8  1  0  0  0  0
  7  9  1  0  0  0  0
  9 10  1  0  0  0  0
  9 11  1  0  0  0  0
  9 20  1  0  0  0  0
 11 12  1  0  0  0  0
 11 13  1  0  0  0  0
 11 14  1  0  0  0  0
 14 15  1  0  0  0  0
 14 16  1  0  0  0  0
 14 17  1  0  0  0  0
 17 18  1  0  0  0  0
 17 19  2  0  0  0  0
 20 21  2  0  0  0  0
 20 22  1  0  0  0  0
 22 23  1  0  0  0  0
 22 24  1  0  0  0  0
 24 25  1  0  0  0  0
 24 26  1  0  0  0  0
 24 27  1  0  0  0  0
M  CHG  1  18  -1
M  END
$$$$

  -OEChem-03222214043D

 27 26  0     1  0  0  0  0  0999 V2000
   -3.1985   -3.6640    1.2734 H   0  0  0  0  0  0  0  0  0  0  0  0
   -3.1272   -2.7471    0.6821 C   0  0  0  0  0  0  0  0  0  0  0  0
   -3.9004   -2.0502    1.0151 H   0  0  0  0  0  0  0  0  0  0  0  0
   -3.2968   -2.9916   -0.3696 H   0  0  0  0  0  0  0  0  0  0  0  0
   -1.7560   -2.1173    0.8491 C   0  0  0  0  0  0  0  0  0  0  0  0
   -0.9321   -2.6349    1.5905 O   0  0  0  0  0  0  0  0  0  0  0  0
   -1.4658   -0.9481    0.1833 N   0  0  0  0  0  0  0  0  0  0  0  0
   -2.1874   -0.5484   -0.4139 H   0  0  0  0  0  0  0  0  0  0  0  0
   -0.1577   -0.2785    0.1647 C   0  0  1  0  0  0  0  0  0  0  0  0
    0.4389   -0.6412    1.0065 H   0  0  0  0  0  0  0  0  0  0  0  0
    0.6459   -0.5729   -1.1224 C   0  0  0  0  0  0  0  0  0  0  0  0
    1.3338    0.2632   -1.2900 H   0  0  0  0  0  0  0  0  0  0  0  0
    1.2663   -1.4575   -0.9476 H   0  0  0  0  0  0  0  0  0  0  0  0
   -0.1812   -0.8361   -2.4069 C   0  0  0  0  0  0  0  0  0  0  0  0
   -0.2003   -1.9099   -2.6131 H   0  0  0  0  0  0  0  0  0  0  0  0
   -1.2135   -0.5032   -2.2703 H   0  0  0  0  0  0  0  0  0  0  0  0
    0.3683   -0.0937   -3.6310 C   0  0  0  0  0  0  0  0  0  0  0  0
    1.6132   -0.1012   -3.8124 O   0  5  0  0  0  0  0  0  0  0  0  0
   -0.4630    0.4202   -4.4193 O   0  0  0  0  0  0  0  0  0  0  0  0
   -0.3247    1.2401    0.3895 C   0  0  0  0  0  0  0  0  0  0  0  0
   -1.3276    1.8287   -0.0004 O   0  0  0  0  0  0  0  0  0  0  0  0
    0.5194    1.8968    1.2681 N   0  0  0  0  0  0  0  0  0  0  0  0
    1.3624    1.4065    1.5480 H   0  0  0  0  0  0  0  0  0  0  0  0
    0.3968    3.3142    1.5785 C   0  0  0  0  0  0  0  0  0  0  0  0
   -0.5605    3.5169    2.0693 H   0  0  0  0  0  0  0  0  0  0  0  0
    1.2021    3.6229    2.2515 H   0  0  0  0  0  0  0  0  0  0  0  0
    0.4603    3.9129    0.6639 H   0  0  0  0  0  0  0  0  0  0  0  0
  1  2  1  0  0  0  0
  2  3  1  0  0  0  0
  2  4  1  0  0  0  0
  2  5  1  0  0  0  0
  5  6  2  0  0  0  0
  5  7  1  0  0  0  0
  7  8  1  0  0  0  0
  7  9  1  0  0  0  0
  9 10  1  0  0  0  0
  9 11  1  0  0  0  0
  9 20  1  0  0  0  0
 11 12  1  0  0  0  0
 11 13  1  0  0  0  0
 11 14  1  0  0  0  0
 14 15  1  0  0  0  0
 14 16  1  0  0  0  0
 14 17  1  0  0  0  0
 17 18  1  0  0  0  0
 17 19  2  0  0  0  0
 20 21  2  0  0  0  0
 20 22  1  0  0  0  0
 22 23  1  0  0  0  0
 22 24  1  0  0  0  0
 24 25  1  0  0  0  0
 24 26  1  0  0  0  0
 24 27  1  0  0  0  0
M  CHG  1  18  -1
M  END
$$$$

  -OEChem-03222214043D

 27 26  0     1  0  0  0  0  0999 V2000
   -3.1821   -3.6771    1.2397 H   0  0  0  0  0  0  0  0  0  0  0  0
   -3.1050   -2.7670    0.6386 C   0  0  0  0  0  0  0  0  0  0  0  0
   -3.9084   -2.0841    0.9257 H   0  0  0  0  0  0  0  0  0  0  0  0
   -3.2214   -3.0302   -0.4160 H   0  0  0  0  0  0  0  0  0  0  0  0
   -1.7571   -2.1035    0.8576 C   0  0  0  0  0  0  0  0  0  0  0  0
   -0.9562   -2.5924    1.6423 O   0  0  0  0  0  0  0  0  0  0  0  0
   -1.4616   -0.9382    0.1867 N   0  0  0  0  0  0  0  0  0  0  0  0
   -2.1554   -0.5793   -0.4662 H   0  0  0  0  0  0  0  0  0  0  0  0
   -0.1508   -0.2729    0.1774 C   0  0  1  0  0  0  0  0  0  0  0  0
    0.4445   -0.6378    1.0192 H   0  0  0  0  0  0  0  0  0  0  0  0
    0.6413   -0.5787   -1.1131 C   0  0  0  0  0  0  0  0  0  0  0  0
    1.3245    0.2567   -1.3026 H   0  0  0  0  0  0  0  0  0  0  0  0
    1.2617   -1.4657   -0.9490 H   0  0  0  0  0  0  0  0  0  0  0  0
   -0.2214   -0.8332   -2.3713 C   0  0  0  0  0  0  0  0  0  0  0  0
   -0.4929   -1.8911   -2.4239 H   0  0  0  0  0  0  0  0  0  0  0  0
   -1.1435   -0.2476   -2.3060 H   0  0  0  0  0  0  0  0  0  0  0  0
    0.4848   -0.4192   -3.6675 C   0  0  0  0  0  0  0  0  0  0  0  0
    1.7248   -0.6132   -3.7537 O   0  5  0  0  0  0  0  0  0  0  0  0
   -0.2311    0.0355   -4.5937 O   0  0  0  0  0  0  0  0  0  0  0  0
   -0.3074    1.2480    0.3924 C   0  0  0  0  0  0  0  0  0  0  0  0
   -1.2831    1.8520   -0.0404 O   0  0  0  0  0  0  0  0  0  0  0  0
    0.5332    1.9032    1.2750 N   0  0  0  0  0  0  0  0  0  0  0  0
    1.3504    1.3949    1.5960 H   0  0  0  0  0  0  0  0  0  0  0  0
    0.4298    3.3256    1.5689 C   0  0  0  0  0  0  0  0  0  0  0  0
   -0.5318    3.5496    2.0416 H   0  0  0  0  0  0  0  0  0  0  0  0
    1.2292    3.6275    2.2517 H   0  0  0  0  0  0  0  0  0  0  0  0
    0.5184    3.9139    0.6499 H   0  0  0  0  0  0  0  0  0  0  0  0
  1  2  1  0  0  0  0
  2  3  1  0  0  0  0
  2  4  1  0  0  0  0
  2  5  1  0  0  0  0
  5  6  2  0  0  0  0
  5  7  1  0  0  0  0
  7  8  1  0  0  0  0
  7  9  1  0  0  0  0
  9 10  1  0  0  0  0
  9 11  1  0  0  0  0
  9 20  1  0  0  0  0
 11 12  1  0  0  0  0
 11 13  1  0  0  0  0
 11 14  1  0  0  0  0
 14 15  1  0  0  0  0
 14 16  1  0  0  0  0
 14 17  1  0  0  0  0
 17 18  1  0  0  0  0
 17 19  2  0  0  0  0
 20 21  2  0  0  0  0
 20 22  1  0  0  0  0
 22 23  1  0  0  0  0
 22 24  1  0  0  0  0
 24 25  1  0  0  0  0
 24 26  1  0  0  0  0
 24 27  1  0  0  0  0
M  CHG  1  18  -1
M  END
$$$$

  -OEChem-03222214043D

 27 26  0     1  0  0  0  0  0999 V2000
   -3.1851   -3.6722    1.2320 H   0  0  0  0  0  0  0  0  0  0  0  0
   -3.0944   -2.7765    0.6115 C   0  0  0  0  0  0  0  0  0  0  0  0
   -3.9172   -2.0973    0.8482 H   0  0  0  0  0  0  0  0  0  0  0  0
   -3.1636   -3.0678   -0.4399 H   0  0  0  0  0  0  0  0  0  0  0  0
   -1.7651   -2.0897    0.8677 C   0  0  0  0  0  0  0  0  0  0  0  0
   -0.9849   -2.5545    1.6871 O   0  0  0  0  0  0  0  0  0  0  0  0
   -1.4656   -0.9283    0.1917 N   0  0  0  0  0  0  0  0  0  0  0  0
   -2.1384   -0.5995   -0.4977 H   0  0  0  0  0  0  0  0  0  0  0  0
   -0.1512   -0.2701    0.1853 C   0  0  1  0  0  0  0  0  0  0  0  0
    0.4431   -0.6382    1.0265 H   0  0  0  0  0  0  0  0  0  0  0  0
    0.6350   -0.5794   -1.1071 C   0  0  0  0  0  0  0  0  0  0  0  0
    1.3273    0.2460   -1.3075 H   0  0  0  0  0  0  0  0  0  0  0  0
    1.2419   -1.4759   -0.9432 H   0  0  0  0  0  0  0  0  0  0  0  0
   -0.2437   -0.8243   -2.3536 C   0  0  0  0  0  0  0  0  0  0  0  0
   -0.7267   -1.8023   -2.2763 H   0  0  0  0  0  0  0  0  0  0  0  0
   -1.0234   -0.0577   -2.3978 H   0  0  0  0  0  0  0  0  0  0  0  0
    0.5467   -0.7673   -3.6664 C   0  0  0  0  0  0  0  0  0  0  0  0
    1.7881   -0.9695   -3.6339 O   0  5  0  0  0  0  0  0  0  0  0  0
   -0.1141   -0.5667   -4.7151 O   0  0  0  0  0  0  0  0  0  0  0  0
   -0.2945    1.2526    0.3936 C   0  0  0  0  0  0  0  0  0  0  0  0
   -1.2460    1.8725   -0.0698 O   0  0  0  0  0  0  0  0  0  0  0  0
    0.5495    1.9016    1.2773 N   0  0  0  0  0  0  0  0  0  0  0  0
    1.3445    1.3763    1.6260 H   0  0  0  0  0  0  0  0  0  0  0  0
    0.4621    3.3248    1.5708 C   0  0  0  0  0  0  0  0  0  0  0  0
   -0.5019    3.5617    2.0325 H   0  0  0  0  0  0  0  0  0  0  0  0
    1.2580    3.6141    2.2632 H   0  0  0  0  0  0  0  0  0  0  0  0
    0.5700    3.9123    0.6533 H   0  0  0  0  0  0  0  0  0  0  0  0
  1  2  1  0  0  0  0
  2  3  1  0  0  0  0
  2  4  1  0  0  0  0
  2  5  1  0  0  0  0
  5  6  2  0  0  0  0
  5  7  1  0  0  0  0
  7  8  1  0  0  0  0
  7  9  1  0  0  0  0
  9 10  1  0  0  0  0
  9 11  1  0  0  0  0
  9 20  1  0  0  0  0
 11 12  1  0  0  0  0
 11 13  1  0  0  0  0
 11 14  1  0  0  0  0
 14 15  1  0  0  0  0
 14 16  1  0  0  0  0
 14 17  1  0  0  0  0
 17 18  1  0  0  0  0
 17 19  2  0  0  0  0
 20 21  2  0  0  0  0
 20 22  1  0  0  0  0
 22 23  1  0  0  0  0
 22 24  1  0  0  0  0
 24 25  1  0  0  0  0
 24 26  1  0  0  0  0
 24 27  1  0  0  0  0
M  CHG  1  18  -1
M  END
$$$$

  -OEChem-03222214043D

 27 26  0     1  0  0  0  0  0999 V2000
   -3.2369   -3.6499    1.1806 H   0  0  0  0  0  0  0  0  0  0  0  0
   -3.1392   -2.7435    0.5769 C   0  0  0  0  0  0  0  0  0  0  0  0
   -3.9473   -2.0556    0.8376 H   0  0  0  0  0  0  0  0  0  0  0  0
   -3.2266   -3.0122   -0.4791 H   0  0  0  0  0  0  0  0  0  0  0  0
   -1.7952   -2.0845    0.8303 C   0  0  0  0  0  0  0  0  0  0  0  0
   -1.0160   -2.5768    1.6346 O   0  0  0  0  0  0  0  0  0  0  0  0
   -1.4812   -0.9160    0.1725 N   0  0  0  0  0  0  0  0  0  0  0  0
   -2.1548   -0.5604   -0.5025 H   0  0  0  0  0  0  0  0  0  0  0  0
   -0.1597   -0.2739    0.1767 C   0  0  1  0  0  0  0  0  0  0  0  0
    0.4295   -0.6659    1.0107 H   0  0  0  0  0  0  0  0  0  0  0  0
    0.6151   -0.5832   -1.1189 C   0  0  0  0  0  0  0  0  0  0  0  0
    1.4919    0.0707   -1.1770 H   0  0  0  0  0  0  0  0  0  0  0  0
    0.9811   -1.6137   -1.0633 H   0  0  0  0  0  0  0  0  0  0  0  0
   -0.2152   -0.4451   -2.4108 C   0  0  0  0  0  0  0  0  0  0  0  0
   -1.0756   -1.1198   -2.3840 H   0  0  0  0  0  0  0  0  0  0  0  0
   -0.5910    0.5779   -2.5009 H   0  0  0  0  0  0  0  0  0  0  0  0
    0.6292   -0.7697   -3.6455 C   0  0  0  0  0  0  0  0  0  0  0  0
    1.6883   -0.1162   -3.8229 O   0  5  0  0  0  0  0  0  0  0  0  0
    0.2153   -1.6801   -4.4059 O   0  0  0  0  0  0  0  0  0  0  0  0
   -0.2756    1.2484    0.4085 C   0  0  0  0  0  0  0  0  0  0  0  0
   -1.2303    1.8866   -0.0243 O   0  0  0  0  0  0  0  0  0  0  0  0
    0.5801    1.8696    1.3011 N   0  0  0  0  0  0  0  0  0  0  0  0
    1.3825    1.3344    1.6162 H   0  0  0  0  0  0  0  0  0  0  0  0
    0.5239    3.2931    1.6025 C   0  0  0  0  0  0  0  0  0  0  0  0
   -0.4387    3.5514    2.0553 H   0  0  0  0  0  0  0  0  0  0  0  0
    1.3186    3.5593    2.3055 H   0  0  0  0  0  0  0  0  0  0  0  0
    0.6564    3.8830    0.6896 H   0  0  0  0  0  0  0  0  0  0  0  0
  1  2  1  0  0  0  0
  2  3  1  0  0  0  0
  2  4  1  0  0  0  0
  2  5  1  0  0  0  0
  5  6  2  0  0  0  0
  5  7  1  0  0  0  0
  7  8  1  0  0  0  0
  7  9  1  0  0  0  0
  9 10  1  0  0  0  0
  9 11  1  0  0  0  0
  9 20  1  0  0  0  0
 11 12  1  0  0  0  0
 11 13  1  0  0  0  0
 11 14  1  0  0  0  0
 14 15  1  0  0  0  0
 14 16  1  0  0  0  0
 14 17  1  0  0  0  0
 17 18  1  0  0  0  0
 17 19  2  0  0  0  0
 20 21  2  0  0  0  0
 20 22  1  0  0  0  0
 22 23  1  0  0  0  0
 22 24  1  0  0  0  0
 24 25  1  0  0  0  0
 24 26  1  0  0  0  0
 24 27  1  0  0  0  0
M  CHG  1  18  -1
M  END
$$$$

  -OEChem-03222214043D

 27 26  0     1  0  0  0  0  0999 V2000
   -3.2266   -3.6721    1.1530 H   0  0  0  0  0  0  0  0  0  0  0  0
   -3.1359   -2.7548    0.5647 C   0  0  0  0  0  0  0  0  0  0  0  0
   -3.9613   -2.0862    0.8211 H   0  0  0  0  0  0  0  0  0  0  0  0
   -3.2001   -3.0093   -0.4966 H   0  0  0  0  0  0  0  0  0  0  0  0
   -1.8095   -2.0741    0.8503 C   0  0  0  0  0  0  0  0  0  0  0  0
   -1.0501   -2.5406    1.6884 O   0  0  0  0  0  0  0  0  0  0  0  0
   -1.4918   -0.9103    0.1862 N   0  0  0  0  0  0  0  0  0  0  0  0
   -2.1431   -0.5887   -0.5265 H   0  0  0  0  0  0  0  0  0  0  0  0
   -0.1667   -0.2760    0.1896 C   0  0  1  0  0  0  0  0  0  0  0  0
    0.4226   -0.6702    1.0224 H   0  0  0  0  0  0  0  0  0  0  0  0
    0.6058   -0.5811   -1.1098 C   0  0  0  0  0  0  0  0  0  0  0  0
    1.4968    0.0529   -1.1710 H   0  0  0  0  0  0  0  0  0  0  0  0
    0.9515   -1.6186   -1.0487 H   0  0  0  0  0  0  0  0  0  0  0  0
   -0.2130   -0.4346   -2.4102 C   0  0  0  0  0  0  0  0  0  0  0  0
   -1.1969   -0.8991   -2.3097 H   0  0  0  0  0  0  0  0  0  0  0  0
   -0.3658    0.6258   -2.6299 H   0  0  0  0  0  0  0  0  0  0  0  0
    0.5058   -1.0993   -3.5857 C   0  0  0  0  0  0  0  0  0  0  0  0
    1.6671   -0.7042   -3.8602 O   0  5  0  0  0  0  0  0  0  0  0  0
   -0.1048   -2.0095   -4.2000 O   0  0  0  0  0  0  0  0  0  0  0  0
   -0.2753    1.2473    0.4142 C   0  0  0  0  0  0  0  0  0  0  0  0
   -1.2038    1.8973   -0.0555 O   0  0  0  0  0  0  0  0  0  0  0  0
    0.5803    1.8709    1.3053 N   0  0  0  0  0  0  0  0  0  0  0  0
    1.3565    1.3228    1.6611 H   0  0  0  0  0  0  0  0  0  0  0  0
    0.5342    3.2976    1.5926 C   0  0  0  0  0  0  0  0  0  0  0  0
   -0.4331    3.5697    2.0273 H   0  0  0  0  0  0  0  0  0  0  0  0
    1.3204    3.5631    2.3053 H   0  0  0  0  0  0  0  0  0  0  0  0
    0.6867    3.8767    0.6760 H   0  0  0  0  0  0  0  0  0  0  0  0
  1  2  1  0  0  0  0
  2  3  1  0  0  0  0
  2  4  1  0  0  0  0
  2  5  1  0  0  0  0
  5  6  2  0  0  0  0
  5  7  1  0  0  0  0
  7  8  1  0  0  0  0
  7  9  1  0  0  0  0
  9 10  1  0  0  0  0
  9 11  1  0  0  0  0
  9 20  1  0  0  0  0
 11 12  1  0  0  0  0
 11 13  1  0  0  0  0
 11 14  1  0  0  0  0
 14 15  1  0  0  0  0
 14 16  1  0  0  0  0
 14 17  1  0  0  0  0
 17 18  1  0  0  0  0
 17 19  2  0  0  0  0
 20 21  2  0  0  0  0
 20 22  1  0  0  0  0
 22 23  1  0  0  0  0
 22 24  1  0  0  0  0
 24 25  1  0  0  0  0
 24 26  1  0  0  0  0
 24 27  1  0  0  0  0
M  CHG  1  18  -1
M  END
$$$$

  -OEChem-03222214043D

 27 26  0     1  0  0  0  0  0999 V2000
   -3.2054   -3.6849    1.1230 H   0  0  0  0  0  0  0  0  0  0  0  0
   -3.1191   -2.7682    0.5332 C   0  0  0  0  0  0  0  0  0  0  0  0
   -3.9732   -2.1230    0.7527 H   0  0  0  0  0  0  0  0  0  0  0  0
   -3.1338   -3.0309   -0.5283 H   0  0  0  0  0  0  0  0  0  0  0  0
   -1.8253   -2.0470    0.8655 C   0  0  0  0  0  0  0  0  0  0  0  0
   -1.0954   -2.4740    1.7501 O   0  0  0  0  0  0  0  0  0  0  0  0
   -1.5059   -0.8890    0.1915 N   0  0  0  0  0  0  0  0  0  0  0  0
   -2.1242   -0.6176   -0.5698 H   0  0  0  0  0  0  0  0  0  0  0  0
   -0.1762   -0.2638    0.1993 C   0  0  1  0  0  0  0  0  0  0  0  0
    0.4086   -0.6588    1.0348 H   0  0  0  0  0  0  0  0  0  0  0  0
    0.5938   -0.5827   -1.0989 C   0  0  0  0  0  0  0  0  0  0  0  0
    1.4987    0.0304   -1.1644 H   0  0  0  0  0  0  0  0  0  0  0  0
    0.9202   -1.6259   -1.0211 H   0  0  0  0  0  0  0  0  0  0  0  0
   -0.2145   -0.4373   -2.4091 C   0  0  0  0  0  0  0  0  0  0  0  0
   -1.2770   -0.6374   -2.2567 H   0  0  0  0  0  0  0  0  0  0  0  0
   -0.1295    0.5899   -2.7751 H   0  0  0  0  0  0  0  0  0  0  0  0
    0.2958   -1.4072   -3.4747 C   0  0  0  0  0  0  0  0  0  0  0  0
    1.4593   -1.2307   -3.9152 O   0  5  0  0  0  0  0  0  0  0  0  0
   -0.4709   -2.3389   -3.8258 O   0  0  0  0  0  0  0  0  0  0  0  0
   -0.2687    1.2620    0.4125 C   0  0  0  0  0  0  0  0  0  0  0  0
   -1.1676    1.9274   -0.0915 O   0  0  0  0  0  0  0  0  0  0  0  0
    0.5889    1.8810    1.3049 N   0  0  0  0  0  0  0  0  0  0  0  0
    1.3290    1.3151    1.7066 H   0  0  0  0  0  0  0  0  0  0  0  0
    0.5471    3.3056    1.6021 C   0  0  0  0  0  0  0  0  0  0  0  0
   -0.4260    3.5812    2.0215 H   0  0  0  0  0  0  0  0  0  0  0  0
    1.3219    3.5600    2.3312 H   0  0  0  0  0  0  0  0  0  0  0  0
    0.7203    3.8904    0.6928 H   0  0  0  0  0  0  0  0  0  0  0  0
  1  2  1  0  0  0  0
  2  3  1  0  0  0  0
  2  4  1  0  0  0  0
  2  5  1  0  0  0  0
  5  6  2  0  0  0  0
  5  7  1  0  0  0  0
  7  8  1  0  0  0  0
  7  9  1  0  0  0  0
  9 10  1  0  0  0  0
  9 11  1  0  0  0  0
  9 20  1  0  0  0  0
 11 12  1  0  0  0  0
 11 13  1  0  0  0  0
 11 14  1  0  0  0  0
 14 15  1  0  0  0  0
 14 16  1  0  0  0  0
 14 17  1  0  0  0  0
 17 18  1  0  0  0  0
 17 19  2  0  0  0  0
 20 21  2  0  0  0  0
 20 22  1  0  0  0  0
 22 23  1  0  0  0  0
 22 24  1  0  0  0  0
 24 25  1  0  0  0  0
 24 26  1  0  0  0  0
 24 27  1  0  0  0  0
M  CHG  1  18  -1
M  END
$$$$

  -OEChem-03222214043D

 27 26  0     1  0  0  0  0  0999 V2000
   -3.1556   -3.7046    1.0556 H   0  0  0  0  0  0  0  0  0  0  0  0
   -3.0635   -2.8017    0.4461 C   0  0  0  0  0  0  0  0  0  0  0  0
   -3.9708   -2.2033    0.5568 H   0  0  0  0  0  0  0  0  0  0  0  0
   -2.9557   -3.0950   -0.6025 H   0  0  0  0  0  0  0  0  0  0  0  0
   -1.8526   -1.9948    0.8773 C   0  0  0  0  0  0  0  0  0  0  0  0
   -1.1894   -2.3485    1.8443 O   0  0  0  0  0  0  0  0  0  0  0  0
   -1.5275   -0.8473    0.1884 N   0  0  0  0  0  0  0  0  0  0  0  0
   -2.0716   -0.6742   -0.6543 H   0  0  0  0  0  0  0  0  0  0  0  0
   -0.1906   -0.2365    0.2193 C   0  0  1  0  0  0  0  0  0  0  0  0
    0.3784   -0.6328    1.0650 H   0  0  0  0  0  0  0  0  0  0  0  0
    0.5758   -0.5962   -1.0703 C   0  0  0  0  0  0  0  0  0  0  0  0
    1.4889    0.0032   -1.1436 H   0  0  0  0  0  0  0  0  0  0  0  0
    0.8911   -1.6410   -0.9707 H   0  0  0  0  0  0  0  0  0  0  0  0
   -0.2319   -0.4544   -2.3844 C   0  0  0  0  0  0  0  0  0  0  0  0
   -1.3027   -0.3323   -2.2106 H   0  0  0  0  0  0  0  0  0  0  0  0
    0.0993    0.4479   -2.9070 H   0  0  0  0  0  0  0  0  0  0  0  0
   -0.0228   -1.6645   -3.2909 C   0  0  0  0  0  0  0  0  0  0  0  0
    1.0082   -1.6997   -4.0067 O   0  5  0  0  0  0  0  0  0  0  0  0
   -0.8838   -2.5780   -3.2217 O   0  0  0  0  0  0  0  0  0  0  0  0
   -0.2533    1.2937    0.4118 C   0  0  0  0  0  0  0  0  0  0  0  0
   -1.0977    1.9836   -0.1493 O   0  0  0  0  0  0  0  0  0  0  0  0
    0.5996    1.9018    1.3162 N   0  0  0  0  0  0  0  0  0  0  0  0
    1.2674    1.3086    1.7974 H   0  0  0  0  0  0  0  0  0  0  0  0
    0.5757    3.3271    1.6120 C   0  0  0  0  0  0  0  0  0  0  0  0
   -0.3950    3.6152    2.0283 H   0  0  0  0  0  0  0  0  0  0  0  0
    1.3523    3.5724    2.3423 H   0  0  0  0  0  0  0  0  0  0  0  0
    0.7587    3.9098    0.7033 H   0  0  0  0  0  0  0  0  0  0  0  0
  1  2  1  0  0  0  0
  2  3  1  0  0  0  0
  2  4  1  0  0  0  0
  2  5  1  0  0  0  0
  5  6  2  0  0  0  0
  5  7  1  0  0  0  0
  7  8  1  0  0  0  0
  7  9  1  0  0  0  0
  9 10  1  0  0  0  0
  9 11  1  0  0  0  0
  9 20  1  0  0  0  0
 11 12  1  0  0  0  0
 11 13  1  0  0  0  0
 11 14  1  0  0  0  0
 14 15  1  0  0  0  0
 14 16  1  0  0  0  0
 14 17  1  0  0  0  0
 17 18  1  0  0  0  0
 17 19  2  0  0  0  0
 20 21  2  0  0  0  0
 20 22  1  0  0  0  0
 22 23  1  0  0  0  0
 22 24  1  0  0  0  0
 24 25  1  0  0  0  0
 24 26  1  0  0  0  0
 24 27  1  0  0  0  0
M  CHG  1  18  -1
M  END
$$$$

  -OEChem-03222214043D

 27 26  0     1  0  0  0  0  0999 V2000
   -3.1901   -3.6619    1.1103 H   0  0  0  0  0  0  0  0  0  0  0  0
   -3.0350   -2.8283    0.4203 C   0  0  0  0  0  0  0  0  0  0  0  0
   -3.9416   -2.2197    0.3879 H   0  0  0  0  0  0  0  0  0  0  0  0
   -2.8417   -3.2297   -0.5786 H   0  0  0  0  0  0  0  0  0  0  0  0
   -1.8566   -1.9826    0.8682 C   0  0  0  0  0  0  0  0  0  0  0  0
   -1.2388   -2.2806    1.8844 O   0  0  0  0  0  0  0  0  0  0  0  0
   -1.5317   -0.8417    0.1666 N   0  0  0  0  0  0  0  0  0  0  0  0
   -2.0017   -0.7635   -0.7351 H   0  0  0  0  0  0  0  0  0  0  0  0
   -0.1955   -0.2277    0.2305 C   0  0  1  0  0  0  0  0  0  0  0  0
    0.3588   -0.6199    1.0874 H   0  0  0  0  0  0  0  0  0  0  0  0
    0.5799   -0.6055   -1.0480 C   0  0  0  0  0  0  0  0  0  0  0  0
    1.4827    0.0096   -1.1212 H   0  0  0  0  0  0  0  0  0  0  0  0
    0.9132   -1.6445   -0.9465 H   0  0  0  0  0  0  0  0  0  0  0  0
   -0.2351   -0.4618   -2.3569 C   0  0  0  0  0  0  0  0  0  0  0  0
   -1.2301   -0.0420   -2.1902 H   0  0  0  0  0  0  0  0  0  0  0  0
    0.2848    0.2425   -3.0131 H   0  0  0  0  0  0  0  0  0  0  0  0
   -0.3544   -1.7967   -3.0845 C   0  0  0  0  0  0  0  0  0  0  0  0
    0.5195   -2.1058   -3.9309 O   0  5  0  0  0  0  0  0  0  0  0  0
   -1.3161   -2.5297   -2.7382 O   0  0  0  0  0  0  0  0  0  0  0  0
   -0.2495    1.3060    0.4032 C   0  0  0  0  0  0  0  0  0  0  0  0
   -1.0448    2.0086   -0.2109 O   0  0  0  0  0  0  0  0  0  0  0  0
    0.5847    1.9125    1.3264 N   0  0  0  0  0  0  0  0  0  0  0  0
    1.1953    1.3092    1.8671 H   0  0  0  0  0  0  0  0  0  0  0  0
    0.5801    3.3430    1.5974 C   0  0  0  0  0  0  0  0  0  0  0  0
   -0.3957    3.6565    1.9822 H   0  0  0  0  0  0  0  0  0  0  0  0
    1.3418    3.5870    2.3438 H   0  0  0  0  0  0  0  0  0  0  0  0
    0.7985    3.9058    0.6840 H   0  0  0  0  0  0  0  0  0  0  0  0
  1  2  1  0  0  0  0
  2  3  1  0  0  0  0
  2  4  1  0  0  0  0
  2  5  1  0  0  0  0
  5  6  2  0  0  0  0
  5  7  1  0  0  0  0
  7  8  1  0  0  0  0
  7  9  1  0  0  0  0
  9 10  1  0  0  0  0
  9 11  1  0  0  0  0
  9 20  1  0  0  0  0
 11 12  1  0  0  0  0
 11 13  1  0  0  0  0
 11 14  1  0  0  0  0
 14 15  1  0  0  0  0
 14 16  1  0  0  0  0
 14 17  1  0  0  0  0
 17 18  1  0  0  0  0
 17 19  2  0  0  0  0
 20 21  2  0  0  0  0
 20 22  1  0  0  0  0
 22 23  1  0  0  0  0
 22 24  1  0  0  0  0
 24 25  1  0  0  0  0
 24 26  1  0  0  0  0
 24 27  1  0  0  0  0
M  CHG  1  18  -1
M  END
$$$$

  -OEChem-03222214043D

 27 26  0     1  0  0  0  0  0999 V2000
   -3.3945   -3.4207    1.3004 H   0  0  0  0  0  0  0  0  0  0  0  0
   -3.0193   -2.8481    0.4487 C   0  0  0  0  0  0  0  0  0  0  0  0
   -3.8253   -2.2202    0.0609 H   0  0  0  0  0  0  0  0  0  0  0  0
   -2.7067   -3.5412   -0.3368 H   0  0  0  0  0  0  0  0  0  0  0  0
   -1.8420   -1.9858    0.8677 C   0  0  0  0  0  0  0  0  0  0  0  0
   -1.2232   -2.2621    1.8904 O   0  0  0  0  0  0  0  0  0  0  0  0
   -1.5295   -0.8466    0.1554 N   0  0  0  0  0  0  0  0  0  0  0  0
   -1.9714   -0.8272   -0.7684 H   0  0  0  0  0  0  0  0  0  0  0  0
   -0.1941   -0.2271    0.2215 C   0  0  1  0  0  0  0  0  0  0  0  0
    0.3614   -0.6150    1.0793 H   0  0  0  0  0  0  0  0  0  0  0  0
    0.5865   -0.6015   -1.0567 C   0  0  0  0  0  0  0  0  0  0  0  0
    1.4744    0.0348   -1.1279 H   0  0  0  0  0  0  0  0  0  0  0  0
    0.9418   -1.6341   -0.9670 H   0  0  0  0  0  0  0  0  0  0  0  0
   -0.2367   -0.4566   -2.3576 C   0  0  0  0  0  0  0  0  0  0  0  0
   -1.1043    0.1949   -2.2210 H   0  0  0  0  0  0  0  0  0  0  0  0
    0.3931    0.0188   -3.1152 H   0  0  0  0  0  0  0  0  0  0  0  0
   -0.6760   -1.8119   -2.9010 C   0  0  0  0  0  0  0  0  0  0  0  0
    0.1077   -2.4513   -3.6439 O   0  5  0  0  0  0  0  0  0  0  0  0
   -1.7969   -2.2256   -2.5072 O   0  0  0  0  0  0  0  0  0  0  0  0
   -0.2470    1.3092    0.3872 C   0  0  0  0  0  0  0  0  0  0  0  0
   -1.0311    2.0191   -0.2326 O   0  0  0  0  0  0  0  0  0  0  0  0
    0.5873    1.9135    1.3123 N   0  0  0  0  0  0  0  0  0  0  0  0
    1.1699    1.3041    1.8764 H   0  0  0  0  0  0  0  0  0  0  0  0
    0.5658    3.3400    1.6036 C   0  0  0  0  0  0  0  0  0  0  0  0
   -0.4120    3.6347    1.9981 H   0  0  0  0  0  0  0  0  0  0  0  0
    1.3288    3.5831    2.3489 H   0  0  0  0  0  0  0  0  0  0  0  0
    0.7715    3.9189    0.6974 H   0  0  0  0  0  0  0  0  0  0  0  0
  1  2  1  0  0  0  0
  2  3  1  0  0  0  0
  2  4  1  0  0  0  0
  2  5  1  0  0  0  0
  5  6  2  0  0  0  0
  5  7  1  0  0  0  0
  7  8  1  0  0  0  0
  7  9  1  0  0  0  0
  9 10  1  0  0  0  0
  9 11  1  0  0  0  0
  9 20  1  0  0  0  0
 11 12  1  0  0  0  0
 11 13  1  0  0  0  0
 11 14  1  0  0  0  0
 14 15  1  0  0  0  0
 14 16  1  0  0  0  0
 14 17  1  0  0  0  0
 17 18  1  0  0  0  0
 17 19  2  0  0  0  0
 20 21  2  0  0  0  0
 20 22  1  0  0  0  0
 22 23  1  0  0  0  0
 22 24  1  0  0  0  0
 24 25  1  0  0  0  0
 24 26  1  0  0  0  0
 24 27  1  0  0  0  0
M  CHG  1  18  -1
M  END
$$$$

  -OEChem-03222214043D

 27 26  0     1  0  0  0  0  0999 V2000
   -3.3273   -3.4905    1.3281 H   0  0  0  0  0  0  0  0  0  0  0  0
   -3.0321   -2.8448    0.4974 C   0  0  0  0  0  0  0  0  0  0  0  0
   -3.8781   -2.2099    0.2229 H   0  0  0  0  0  0  0  0  0  0  0  0
   -2.7692   -3.4684   -0.3614 H   0  0  0  0  0  0  0  0  0  0  0  0
   -1.8429   -1.9860    0.8889 C   0  0  0  0  0  0  0  0  0  0  0  0
   -1.1928   -2.2740    1.8890 O   0  0  0  0  0  0  0  0  0  0  0  0
   -1.5442   -0.8454    0.1729 N   0  0  0  0  0  0  0  0  0  0  0  0
   -2.0232   -0.8097   -0.7355 H   0  0  0  0  0  0  0  0  0  0  0  0
   -0.2113   -0.2210    0.2136 C   0  0  1  0  0  0  0  0  0  0  0  0
    0.3495   -0.6003    1.0716 H   0  0  0  0  0  0  0  0  0  0  0  0
    0.5844   -0.5937   -1.0587 C   0  0  0  0  0  0  0  0  0  0  0  0
    1.4618    0.0577   -1.1232 H   0  0  0  0  0  0  0  0  0  0  0  0
    0.9552   -1.6198   -0.9596 H   0  0  0  0  0  0  0  0  0  0  0  0
   -0.2133   -0.4780   -2.3770 C   0  0  0  0  0  0  0  0  0  0  0  0
   -0.9273    0.3492   -2.3292 H   0  0  0  0  0  0  0  0  0  0  0  0
    0.4860   -0.2492   -3.1863 H   0  0  0  0  0  0  0  0  0  0  0  0
   -0.9348   -1.7740   -2.7430 C   0  0  0  0  0  0  0  0  0  0  0  0
   -0.2687   -2.7012   -3.2636 O   0  5  0  0  0  0  0  0  0  0  0  0
   -2.1530   -1.8482   -2.4374 O   0  0  0  0  0  0  0  0  0  0  0  0
   -0.2658    1.3152    0.3808 C   0  0  0  0  0  0  0  0  0  0  0  0
   -1.0586    2.0272   -0.2248 O   0  0  0  0  0  0  0  0  0  0  0  0
    0.5861    1.9179    1.2912 N   0  0  0  0  0  0  0  0  0  0  0  0
    1.1749    1.3061    1.8462 H   0  0  0  0  0  0  0  0  0  0  0  0
    0.5603    3.3415    1.5965 C   0  0  0  0  0  0  0  0  0  0  0  0
   -0.4132    3.6263    2.0086 H   0  0  0  0  0  0  0  0  0  0  0  0
    1.3328    3.5816    2.3330 H   0  0  0  0  0  0  0  0  0  0  0  0
    0.7491    3.9304    0.6931 H   0  0  0  0  0  0  0  0  0  0  0  0
  1  2  1  0  0  0  0
  2  3  1  0  0  0  0
  2  4  1  0  0  0  0
  2  5  1  0  0  0  0
  5  6  2  0  0  0  0
  5  7  1  0  0  0  0
  7  8  1  0  0  0  0
  7  9  1  0  0  0  0
  9 10  1  0  0  0  0
  9 11  1  0  0  0  0
  9 20  1  0  0  0  0
 11 12  1  0  0  0  0
 11 13  1  0  0  0  0
 11 14  1  0  0  0  0
 14 15  1  0  0  0  0
 14 16  1  0  0  0  0
 14 17  1  0  0  0  0
 17 18  1  0  0  0  0
 17 19  2  0  0  0  0
 20 21  2  0  0  0  0
 20 22  1  0  0  0  0
 22 23  1  0  0  0  0
 22 24  1  0  0  0  0
 24 25  1  0  0  0  0
 24 26  1  0  0  0  0
 24 27  1  0  0  0  0
M  CHG  1  18  -1
M  END
$$$$

  -OEChem-03222214043D

 27 26  0     1  0  0  0  0  0999 V2000
   -3.2493   -3.5900    1.3021 H   0  0  0  0  0  0  0  0  0  0  0  0
   -3.0432   -2.8402    0.5342 C   0  0  0  0  0  0  0  0  0  0  0  0
   -3.9240   -2.2057    0.4094 H   0  0  0  0  0  0  0  0  0  0  0  0
   -2.8398   -3.3477   -0.4132 H   0  0  0  0  0  0  0  0  0  0  0  0
   -1.8457   -1.9933    0.9250 C   0  0  0  0  0  0  0  0  0  0  0  0
   -1.1670   -2.3053    1.8985 O   0  0  0  0  0  0  0  0  0  0  0  0
   -1.5566   -0.8479    0.2154 N   0  0  0  0  0  0  0  0  0  0  0  0
   -2.0944   -0.7569   -0.6572 H   0  0  0  0  0  0  0  0  0  0  0  0
   -0.2296   -0.2172    0.2197 C   0  0  1  0  0  0  0  0  0  0  0  0
    0.3416   -0.5921    1.0728 H   0  0  0  0  0  0  0  0  0  0  0  0
    0.5722   -0.5819   -1.0549 C   0  0  0  0  0  0  0  0  0  0  0  0
    1.4450    0.0755   -1.1166 H   0  0  0  0  0  0  0  0  0  0  0  0
    0.9483   -1.6047   -0.9442 H   0  0  0  0  0  0  0  0  0  0  0  0
   -0.1947   -0.4999   -2.3956 C   0  0  0  0  0  0  0  0  0  0  0  0
   -0.7323    0.4507   -2.4576 H   0  0  0  0  0  0  0  0  0  0  0  0
    0.5314   -0.5139   -3.2135 H   0  0  0  0  0  0  0  0  0  0  0  0
   -1.1715   -1.6573   -2.6176 C   0  0  0  0  0  0  0  0  0  0  0  0
   -0.6921   -2.7763   -2.9216 O   0  5  0  0  0  0  0  0  0  0  0  0
   -2.3921   -1.4383   -2.4047 O   0  0  0  0  0  0  0  0  0  0  0  0
   -0.2917    1.3168    0.3971 C   0  0  0  0  0  0  0  0  0  0  0  0
   -1.0928    2.0269   -0.1988 O   0  0  0  0  0  0  0  0  0  0  0  0
    0.5807    1.9237    1.2849 N   0  0  0  0  0  0  0  0  0  0  0  0
    1.1820    1.3150    1.8296 H   0  0  0  0  0  0  0  0  0  0  0  0
    0.5692    3.3504    1.5751 C   0  0  0  0  0  0  0  0  0  0  0  0
   -0.3909    3.6438    2.0115 H   0  0  0  0  0  0  0  0  0  0  0  0
    1.3635    3.5959    2.2860 H   0  0  0  0  0  0  0  0  0  0  0  0
    0.7341    3.9284    0.6600 H   0  0  0  0  0  0  0  0  0  0  0  0
  1  2  1  0  0  0  0
  2  3  1  0  0  0  0
  2  4  1  0  0  0  0
  2  5  1  0  0  0  0
  5  6  2  0  0  0  0
  5  7  1  0  0  0  0
  7  8  1  0  0  0  0
  7  9  1  0  0  0  0
  9 10  1  0  0  0  0
  9 11  1  0  0  0  0
  9 20  1  0  0  0  0
 11 12  1  0  0  0  0
 11 13  1  0  0  0  0
 11 14  1  0  0  0  0
 14 15  1  0  0  0  0
 14 16  1  0  0  0  0
 14 17  1  0  0  0  0
 17 18  1  0  0  0  0
 17 19  2  0  0  0  0
 20 21  2  0  0  0  0
 20 22  1  0  0  0  0
 22 23  1  0  0  0  0
 22 24  1  0  0  0  0
 24 25  1  0  0  0  0
 24 26  1  0  0  0  0
 24 27  1  0  0  0  0
M  CHG  1  18  -1
M  END
$$$$

  -OEChem-03222214043D

 27 26  0     1  0  0  0  0  0999 V2000
   -3.1665   -3.6807    1.2669 H   0  0  0  0  0  0  0  0  0  0  0  0
   -3.0719   -2.8193    0.6011 C   0  0  0  0  0  0  0  0  0  0  0  0
   -3.9658   -2.1977    0.6911 H   0  0  0  0  0  0  0  0  0  0  0  0
   -2.9939   -3.1755   -0.4305 H   0  0  0  0  0  0  0  0  0  0  0  0
   -1.8391   -2.0070    0.9533 C   0  0  0  0  0  0  0  0  0  0  0  0
   -1.1176   -2.3536    1.8834 O   0  0  0  0  0  0  0  0  0  0  0  0
   -1.5646   -0.8542    0.2523 N   0  0  0  0  0  0  0  0  0  0  0  0
   -2.1600   -0.7042   -0.5743 H   0  0  0  0  0  0  0  0  0  0  0  0
   -0.2475   -0.2091    0.2195 C   0  0  1  0  0  0  0  0  0  0  0  0
    0.3362   -0.5780    1.0668 H   0  0  0  0  0  0  0  0  0  0  0  0
    0.5619   -0.5633   -1.0564 C   0  0  0  0  0  0  0  0  0  0  0  0
    1.4327    0.0972   -1.1128 H   0  0  0  0  0  0  0  0  0  0  0  0
    0.9408   -1.5826   -0.9267 H   0  0  0  0  0  0  0  0  0  0  0  0
   -0.1638   -0.5245   -2.4255 C   0  0  0  0  0  0  0  0  0  0  0  0
   -0.5120    0.4960   -2.6108 H   0  0  0  0  0  0  0  0  0  0  0  0
    0.5578   -0.7683   -3.2104 H   0  0  0  0  0  0  0  0  0  0  0  0
   -1.3548   -1.4790   -2.5578 C   0  0  0  0  0  0  0  0  0  0  0  0
   -1.0958   -2.6934   -2.7387 O   0  5  0  0  0  0  0  0  0  0  0  0
   -2.5126   -1.0199   -2.3832 O   0  0  0  0  0  0  0  0  0  0  0  0
   -0.3174    1.3223    0.4101 C   0  0  0  0  0  0  0  0  0  0  0  0
   -1.1402    2.0306   -0.1565 O   0  0  0  0  0  0  0  0  0  0  0  0
    0.5782    1.9298    1.2747 N   0  0  0  0  0  0  0  0  0  0  0  0
    1.2049    1.3228    1.7921 H   0  0  0  0  0  0  0  0  0  0  0  0
    0.5682    3.3553    1.5710 C   0  0  0  0  0  0  0  0  0  0  0  0
   -0.3836    3.6438    2.0287 H   0  0  0  0  0  0  0  0  0  0  0  0
    1.3763    3.6010    2.2661 H   0  0  0  0  0  0  0  0  0  0  0  0
    0.7121    3.9371    0.6548 H   0  0  0  0  0  0  0  0  0  0  0  0
  1  2  1  0  0  0  0
  2  3  1  0  0  0  0
  2  4  1  0  0  0  0
  2  5  1  0  0  0  0
  5  6  2  0  0  0  0
  5  7  1  0  0  0  0
  7  8  1  0  0  0  0
  7  9  1  0  0  0  0
  9 10  1  0  0  0  0
  9 11  1  0  0  0  0
  9 20  1  0  0  0  0
 11 12  1  0  0  0  0
 11 13  1  0  0  0  0
 11 14  1  0  0  0  0
 14 15  1  0  0  0  0
 14 16  1  0  0  0  0
 14 17  1  0  0  0  0
 17 18  1  0  0  0  0
 17 19  2  0  0  0  0
 20 21  2  0  0  0  0
 20 22  1  0  0  0  0
 22 23  1  0  0  0  0
 22 24  1  0  0  0  0
 24 25  1  0  0  0  0
 24 26  1  0  0  0  0
 24 27  1  0  0  0  0
M  CHG  1  18  -1
M  END
$$$$

  -OEChem-03222214043D

 27 26  0     1  0  0  0  0  0999 V2000
   -3.1139   -3.7232    1.2522 H   0  0  0  0  0  0  0  0  0  0  0  0
   -3.0897   -2.7993    0.6690 C   0  0  0  0  0  0  0  0  0  0  0  0
   -3.9686   -2.1979    0.9125 H   0  0  0  0  0  0  0  0  0  0  0  0
   -3.1195   -3.0524   -0.3951 H   0  0  0  0  0  0  0  0  0  0  0  0
   -1.8260   -2.0150    0.9708 C   0  0  0  0  0  0  0  0  0  0  0  0
   -1.0597   -2.3954    1.8505 O   0  0  0  0  0  0  0  0  0  0  0  0
   -1.5708   -0.8518    0.2809 N   0  0  0  0  0  0  0  0  0  0  0  0
   -2.2154   -0.6482   -0.4963 H   0  0  0  0  0  0  0  0  0  0  0  0
   -0.2637   -0.1917    0.2135 C   0  0  1  0  0  0  0  0  0  0  0  0
    0.3327   -0.5586    1.0526 H   0  0  0  0  0  0  0  0  0  0  0  0
    0.5424   -0.5447   -1.0665 C   0  0  0  0  0  0  0  0  0  0  0  0
    1.4158    0.1121   -1.1254 H   0  0  0  0  0  0  0  0  0  0  0  0
    0.9182   -1.5622   -0.9173 H   0  0  0  0  0  0  0  0  0  0  0  0
   -0.1544   -0.5488   -2.4550 C   0  0  0  0  0  0  0  0  0  0  0  0
   -0.2933    0.4906   -2.7666 H   0  0  0  0  0  0  0  0  0  0  0  0
    0.5171   -1.0151   -3.1818 H   0  0  0  0  0  0  0  0  0  0  0  0
   -1.5192   -1.2412   -2.5388 C   0  0  0  0  0  0  0  0  0  0  0  0
   -1.5076   -2.4870   -2.6916 O   0  5  0  0  0  0  0  0  0  0  0  0
   -2.5603   -0.5656   -2.3435 O   0  0  0  0  0  0  0  0  0  0  0  0
   -0.3296    1.3379    0.4227 C   0  0  0  0  0  0  0  0  0  0  0  0
   -1.1784    2.0520   -0.0939 O   0  0  0  0  0  0  0  0  0  0  0  0
    0.5943    1.9367    1.2636 N   0  0  0  0  0  0  0  0  0  0  0  0
    1.2441    1.3257    1.7462 H   0  0  0  0  0  0  0  0  0  0  0  0
    0.5857    3.3566    1.5862 C   0  0  0  0  0  0  0  0  0  0  0  0
   -0.3602    3.6349    2.0622 H   0  0  0  0  0  0  0  0  0  0  0  0
    1.4026    3.5908    2.2750 H   0  0  0  0  0  0  0  0  0  0  0  0
    0.7155    3.9558    0.6791 H   0  0  0  0  0  0  0  0  0  0  0  0
  1  2  1  0  0  0  0
  2  3  1  0  0  0  0
  2  4  1  0  0  0  0
  2  5  1  0  0  0  0
  5  6  2  0  0  0  0
  5  7  1  0  0  0  0
  7  8  1  0  0  0  0
  7  9  1  0  0  0  0
  9 10  1  0  0  0  0
  9 11  1  0  0  0  0
  9 20  1  0  0  0  0
 11 12  1  0  0  0  0
 11 13  1  0  0  0  0
 11 14  1  0  0  0  0
 14 15  1  0  0  0  0
 14 16  1  0  0  0  0
 14 17  1  0  0  0  0
 17 18  1  0  0  0  0
 17 19  2  0  0  0  0
 20 21  2  0  0  0  0
 20 22  1  0  0  0  0
 22 23  1  0  0  0  0
 22 24  1  0  0  0  0
 24 25  1  0  0  0  0
 24 26  1  0  0  0  0
 24 27  1  0  0  0  0
M  CHG  1  18  -1
M  END
$$$$

  -OEChem-03222214043D

 27 26  0     1  0  0  0  0  0999 V2000
   -3.1184   -3.6908    1.3334 H   0  0  0  0  0  0  0  0  0  0  0  0
   -3.0870   -2.7828    0.7263 C   0  0  0  0  0  0  0  0  0  0  0  0
   -3.9378   -2.1488    0.9867 H   0  0  0  0  0  0  0  0  0  0  0  0
   -3.1643   -3.0595   -0.3292 H   0  0  0  0  0  0  0  0  0  0  0  0
   -1.7898   -2.0307    0.9613 C   0  0  0  0  0  0  0  0  0  0  0  0
   -0.9636   -2.4606    1.7601 O   0  0  0  0  0  0  0  0  0  0  0  0
   -1.5679   -0.8449    0.2996 N   0  0  0  0  0  0  0  0  0  0  0  0
   -2.2648   -0.5869   -0.4131 H   0  0  0  0  0  0  0  0  0  0  0  0
   -0.2751   -0.1641    0.1892 C   0  0  1  0  0  0  0  0  0  0  0  0
    0.3455   -0.5404    1.0062 H   0  0  0  0  0  0  0  0  0  0  0  0
    0.5043   -0.5123   -1.1083 C   0  0  0  0  0  0  0  0  0  0  0  0
    1.3726    0.1493   -1.1876 H   0  0  0  0  0  0  0  0  0  0  0  0
    0.8913   -1.5246   -0.9519 H   0  0  0  0  0  0  0  0  0  0  0  0
   -0.2034   -0.5503   -2.4938 C   0  0  0  0  0  0  0  0  0  0  0  0
   -0.1360    0.4521   -2.9268 H   0  0  0  0  0  0  0  0  0  0  0  0
    0.3563   -1.2195   -3.1539 H   0  0  0  0  0  0  0  0  0  0  0  0
   -1.6836   -0.9452   -2.5314 C   0  0  0  0  0  0  0  0  0  0  0  0
   -1.9274   -2.1652   -2.7005 O   0  5  0  0  0  0  0  0  0  0  0  0
   -2.5593   -0.0852   -2.2744 O   0  0  0  0  0  0  0  0  0  0  0  0
   -0.3254    1.3606    0.4428 C   0  0  0  0  0  0  0  0  0  0  0  0
   -1.2241    2.0869    0.0429 O   0  0  0  0  0  0  0  0  0  0  0  0
    0.6449    1.9302    1.2519 N   0  0  0  0  0  0  0  0  0  0  0  0
    1.3383    1.3073    1.6509 H   0  0  0  0  0  0  0  0  0  0  0  0
    0.6470    3.3337    1.6402 C   0  0  0  0  0  0  0  0  0  0  0  0
   -0.2673    3.5806    2.1896 H   0  0  0  0  0  0  0  0  0  0  0  0
    1.5056    3.5447    2.2843 H   0  0  0  0  0  0  0  0  0  0  0  0
    0.7126    3.9743    0.7548 H   0  0  0  0  0  0  0  0  0  0  0  0
  1  2  1  0  0  0  0
  2  3  1  0  0  0  0
  2  4  1  0  0  0  0
  2  5  1  0  0  0  0
  5  6  2  0  0  0  0
  5  7  1  0  0  0  0
  7  8  1  0  0  0  0
  7  9  1  0  0  0  0
  9 10  1  0  0  0  0
  9 11  1  0  0  0  0
  9 20  1  0  0  0  0
 11 12  1  0  0  0  0
 11 13  1  0  0  0  0
 11 14  1  0  0  0  0
 14 15  1  0  0  0  0
 14 16  1  0  0  0  0
 14 17  1  0  0  0  0
 17 18  1  0  0  0  0
 17 19  2  0  0  0  0
 20 21  2  0  0  0  0
 20 22  1  0  0  0  0
 22 23  1  0  0  0  0
 22 24  1  0  0  0  0
 24 25  1  0  0  0  0
 24 26  1  0  0  0  0
 24 27  1  0  0  0  0
M  CHG  1  18  -1
M  END
$$$$

  -OEChem-03222214043D

 27 26  0     1  0  0  0  0  0999 V2000
   -3.1659   -3.6245    1.4909 H   0  0  0  0  0  0  0  0  0  0  0  0
   -3.0642   -2.8173    0.7614 C   0  0  0  0  0  0  0  0  0  0  0  0
   -3.9377   -2.1642    0.8288 H   0  0  0  0  0  0  0  0  0  0  0  0
   -3.0251   -3.2484   -0.2425 H   0  0  0  0  0  0  0  0  0  0  0  0
   -1.8002   -2.0184    1.0240 C   0  0  0  0  0  0  0  0  0  0  0  0
   -1.0052   -2.4009    1.8771 O   0  0  0  0  0  0  0  0  0  0  0  0
   -1.5784   -0.8486    0.3318 N   0  0  0  0  0  0  0  0  0  0  0  0
   -2.1944   -0.7355   -0.4824 H   0  0  0  0  0  0  0  0  0  0  0  0
   -0.2666   -0.1975    0.2397 C   0  0  1  0  0  0  0  0  0  0  0  0
    0.3552   -0.5743    1.0557 H   0  0  0  0  0  0  0  0  0  0  0  0
    0.5017   -0.5207   -1.0703 C   0  0  0  0  0  0  0  0  0  0  0  0
    1.3909    0.1162   -1.1133 H   0  0  0  0  0  0  0  0  0  0  0  0
    0.8606   -1.5469   -0.9412 H   0  0  0  0  0  0  0  0  0  0  0  0
   -0.1675   -0.4957   -2.4793 C   0  0  0  0  0  0  0  0  0  0  0  0
    0.2040    0.4010   -2.9853 H   0  0  0  0  0  0  0  0  0  0  0  0
    0.2100   -1.3527   -3.0442 H   0  0  0  0  0  0  0  0  0  0  0  0
   -1.6934   -0.4858   -2.6361 C   0  0  0  0  0  0  0  0  0  0  0  0
   -2.3329   -1.4846   -2.2154 O   0  5  0  0  0  0  0  0  0  0  0  0
   -2.2095    0.4629   -3.2712 O   0  0  0  0  0  0  0  0  0  0  0  0
   -0.3320    1.3291    0.4692 C   0  0  0  0  0  0  0  0  0  0  0  0
   -1.2381    2.0296    0.0410 O   0  0  0  0  0  0  0  0  0  0  0  0
    0.6090    1.9226    1.2950 N   0  0  0  0  0  0  0  0  0  0  0  0
    1.3022    1.3164    1.7190 H   0  0  0  0  0  0  0  0  0  0  0  0
    0.5823    3.3323    1.6596 C   0  0  0  0  0  0  0  0  0  0  0  0
   -0.3327    3.5666    2.2132 H   0  0  0  0  0  0  0  0  0  0  0  0
    1.4421    3.5735    2.2912 H   0  0  0  0  0  0  0  0  0  0  0  0
    0.6248    3.9603    0.7636 H   0  0  0  0  0  0  0  0  0  0  0  0
  1  2  1  0  0  0  0
  2  3  1  0  0  0  0
  2  4  1  0  0  0  0
  2  5  1  0  0  0  0
  5  6  2  0  0  0  0
  5  7  1  0  0  0  0
  7  8  1  0  0  0  0
  7  9  1  0  0  0  0
  9 10  1  0  0  0  0
  9 11  1  0  0  0  0
  9 20  1  0  0  0  0
 11 12  1  0  0  0  0
 11 13  1  0  0  0  0
 11 14  1  0  0  0  0
 14 15  1  0  0  0  0
 14 16  1  0  0  0  0
 14 17  1  0  0  0  0
 17 18  1  0  0  0  0
 17 19  2  0  0  0  0
 20 21  2  0  0  0  0
 20 22  1  0  0  0  0
 22 23  1  0  0  0  0
 22 24  1  0  0  0  0
 24 25  1  0  0  0  0
 24 26  1  0  0  0  0
 24 27  1  0  0  0  0
M  CHG  1  18  -1
M  END
$$$$

  -OEChem-03222214043D

 27 26  0     1  0  0  0  0  0999 V2000
   -3.0653   -3.8185    1.0498 H   0  0  0  0  0  0  0  0  0  0  0  0
   -3.0502   -2.8556    0.5330 C   0  0  0  0  0  0  0  0  0  0  0  0
   -3.9065   -2.2610    0.8603 H   0  0  0  0  0  0  0  0  0  0  0  0
   -3.1333   -3.0286   -0.5436 H   0  0  0  0  0  0  0  0  0  0  0  0
   -1.7616   -2.1110    0.8320 C   0  0  0  0  0  0  0  0  0  0  0  0
   -0.9250   -2.6102    1.5777 O   0  0  0  0  0  0  0  0  0  0  0  0
   -1.5526   -0.8738    0.2681 N   0  0  0  0  0  0  0  0  0  0  0  0
   -2.2208   -0.6306   -0.4753 H   0  0  0  0  0  0  0  0  0  0  0  0
   -0.2538   -0.1976    0.2085 C   0  0  1  0  0  0  0  0  0  0  0  0
    0.3844   -0.6454    0.9744 H   0  0  0  0  0  0  0  0  0  0  0  0
    0.4815   -0.4231   -1.1374 C   0  0  0  0  0  0  0  0  0  0  0  0
    1.3450    0.2495   -1.1594 H   0  0  0  0  0  0  0  0  0  0  0  0
    0.8829   -1.4406   -1.0917 H   0  0  0  0  0  0  0  0  0  0  0  0
   -0.2325   -0.3091   -2.5194 C   0  0  0  0  0  0  0  0  0  0  0  0
    0.3136    0.4403   -3.1007 H   0  0  0  0  0  0  0  0  0  0  0  0
   -0.0973   -1.2605   -3.0421 H   0  0  0  0  0  0  0  0  0  0  0  0
   -1.7244    0.0383   -2.6219 C   0  0  0  0  0  0  0  0  0  0  0  0
   -2.0262    1.1173   -3.1843 O   0  5  0  0  0  0  0  0  0  0  0  0
   -2.5603   -0.8313   -2.2584 O   0  0  0  0  0  0  0  0  0  0  0  0
   -0.3140    1.2970    0.5969 C   0  0  0  0  0  0  0  0  0  0  0  0
   -1.2595    2.0192    0.3174 O   0  0  0  0  0  0  0  0  0  0  0  0
    0.6524    1.8055    1.4498 N   0  0  0  0  0  0  0  0  0  0  0  0
    1.3869    1.1745    1.7497 H   0  0  0  0  0  0  0  0  0  0  0  0
    0.6336    3.1676    1.9648 C   0  0  0  0  0  0  0  0  0  0  0  0
   -0.2615    3.3345    2.5726 H   0  0  0  0  0  0  0  0  0  0  0  0
    1.5146    3.3464    2.5879 H   0  0  0  0  0  0  0  0  0  0  0  0
    0.6414    3.8880    1.1402 H   0  0  0  0  0  0  0  0  0  0  0  0
  1  2  1  0  0  0  0
  2  3  1  0  0  0  0
  2  4  1  0  0  0  0
  2  5  1  0  0  0  0
  5  6  2  0  0  0  0
  5  7  1  0  0  0  0
  7  8  1  0  0  0  0
  7  9  1  0  0  0  0
  9 10  1  0  0  0  0
  9 11  1  0  0  0  0
  9 20  1  0  0  0  0
 11 12  1  0  0  0  0
 11 13  1  0  0  0  0
 11 14  1  0  0  0  0
 14 15  1  0  0  0  0
 14 16  1  0  0  0  0
 14 17  1  0  0  0  0
 17 18  1  0  0  0  0
 17 19  2  0  0  0  0
 20 21  2  0  0  0  0
 20 22  1  0  0  0  0
 22 23  1  0  0  0  0
 22 24  1  0  0  0  0
 24 25  1  0  0  0  0
 24 26  1  0  0  0  0
 24 27  1  0  0  0  0
M  CHG  1  18  -1
M  END
$$$$

  -OEChem-03222214043D

 27 26  0     1  0  0  0  0  0999 V2000
   -3.0500   -3.7259    1.2173 H   0  0  0  0  0  0  0  0  0  0  0  0
   -3.0586   -2.7591    0.7075 C   0  0  0  0  0  0  0  0  0  0  0  0
   -3.8918   -2.1623    1.0865 H   0  0  0  0  0  0  0  0  0  0  0  0
   -3.2029   -2.9238   -0.3641 H   0  0  0  0  0  0  0  0  0  0  0  0
   -1.7514   -2.0236    0.9391 C   0  0  0  0  0  0  0  0  0  0  0  0
   -0.9057   -2.4941    1.6925 O   0  0  0  0  0  0  0  0  0  0  0  0
   -1.5330   -0.8299    0.2937 N   0  0  0  0  0  0  0  0  0  0  0  0
   -2.2222   -0.5900   -0.4332 H   0  0  0  0  0  0  0  0  0  0  0  0
   -0.2430   -0.1419    0.1968 C   0  0  1  0  0  0  0  0  0  0  0  0
    0.3805   -0.5196    1.0112 H   0  0  0  0  0  0  0  0  0  0  0  0
    0.5110   -0.5107   -1.1034 C   0  0  0  0  0  0  0  0  0  0  0  0
    1.3442    0.1923   -1.2028 H   0  0  0  0  0  0  0  0  0  0  0  0
    0.9522   -1.5009   -0.9518 H   0  0  0  0  0  0  0  0  0  0  0  0
   -0.2204   -0.5517   -2.4753 C   0  0  0  0  0  0  0  0  0  0  0  0
    0.4473   -0.1194   -3.2268 H   0  0  0  0  0  0  0  0  0  0  0  0
   -0.3479   -1.6050   -2.7422 H   0  0  0  0  0  0  0  0  0  0  0  0
   -1.6004    0.0992   -2.6292 C   0  0  0  0  0  0  0  0  0  0  0  0
   -2.6027   -0.5453   -2.2173 O   0  5  0  0  0  0  0  0  0  0  0  0
   -1.6591    1.1628   -3.2910 O   0  0  0  0  0  0  0  0  0  0  0  0
   -0.3085    1.3783    0.4708 C   0  0  0  0  0  0  0  0  0  0  0  0
   -1.2859    2.0598    0.1991 O   0  0  0  0  0  0  0  0  0  0  0  0
    0.6546    1.9457    1.2900 N   0  0  0  0  0  0  0  0  0  0  0  0
    1.4191    1.3517    1.5896 H   0  0  0  0  0  0  0  0  0  0  0  0
    0.6165    3.3309    1.7371 C   0  0  0  0  0  0  0  0  0  0  0  0
   -0.2756    3.5119    2.3454 H   0  0  0  0  0  0  0  0  0  0  0  0
    1.5000    3.5552    2.3417 H   0  0  0  0  0  0  0  0  0  0  0  0
    0.6037    4.0092    0.8776 H   0  0  0  0  0  0  0  0  0  0  0  0
  1  2  1  0  0  0  0
  2  3  1  0  0  0  0
  2  4  1  0  0  0  0
  2  5  1  0  0  0  0
  5  6  2  0  0  0  0
  5  7  1  0  0  0  0
  7  8  1  0  0  0  0
  7  9  1  0  0  0  0
  9 10  1  0  0  0  0
  9 11  1  0  0  0  0
  9 20  1  0  0  0  0
 11 12  1  0  0  0  0
 11 13  1  0  0  0  0
 11 14  1  0  0  0  0
 14 15  1  0  0  0  0
 14 16  1  0  0  0  0
 14 17  1  0  0  0  0
 17 18  1  0  0  0  0
 17 19  2  0  0  0  0
 20 21  2  0  0  0  0
 20 22  1  0  0  0  0
 22 23  1  0  0  0  0
 22 24  1  0  0  0  0
 24 25  1  0  0  0  0
 24 26  1  0  0  0  0
 24 27  1  0  0  0  0
M  CHG  1  18  -1
M  END
$$$$

  -OEChem-03222214043D

 27 26  0     1  0  0  0  0  0999 V2000
   -3.0774   -3.7021    1.1605 H   0  0  0  0  0  0  0  0  0  0  0  0
   -3.0699   -2.7364    0.6484 C   0  0  0  0  0  0  0  0  0  0  0  0
   -3.8888   -2.1227    1.0320 H   0  0  0  0  0  0  0  0  0  0  0  0
   -3.2235   -2.8999   -0.4219 H   0  0  0  0  0  0  0  0  0  0  0  0
   -1.7472   -2.0268    0.8726 C   0  0  0  0  0  0  0  0  0  0  0  0
   -0.8960   -2.5288    1.5980 O   0  0  0  0  0  0  0  0  0  0  0  0
   -1.5182   -0.8259    0.2455 N   0  0  0  0  0  0  0  0  0  0  0  0
   -2.2195   -0.5302   -0.4497 H   0  0  0  0  0  0  0  0  0  0  0  0
   -0.2347   -0.1222    0.1710 C   0  0  1  0  0  0  0  0  0  0  0  0
    0.3694   -0.4961    1.0017 H   0  0  0  0  0  0  0  0  0  0  0  0
    0.5447   -0.5203   -1.1025 C   0  0  0  0  0  0  0  0  0  0  0  0
    1.3640    0.1954   -1.2232 H   0  0  0  0  0  0  0  0  0  0  0  0
    0.9992   -1.5015   -0.9328 H   0  0  0  0  0  0  0  0  0  0  0  0
   -0.2184   -0.5898   -2.4481 C   0  0  0  0  0  0  0  0  0  0  0  0
    0.4943   -0.4219   -3.2609 H   0  0  0  0  0  0  0  0  0  0  0  0
   -0.5920   -1.6118   -2.5632 H   0  0  0  0  0  0  0  0  0  0  0  0
   -1.4140    0.3443   -2.6433 C   0  0  0  0  0  0  0  0  0  0  0  0
   -2.5387   -0.0741   -2.2557 O   0  5  0  0  0  0  0  0  0  0  0  0
   -1.2191    1.4076   -3.2802 O   0  0  0  0  0  0  0  0  0  0  0  0
   -0.3022    1.3976    0.4550 C   0  0  0  0  0  0  0  0  0  0  0  0
   -1.3071    2.0623    0.2502 O   0  0  0  0  0  0  0  0  0  0  0  0
    0.6554    1.9557    1.2877 N   0  0  0  0  0  0  0  0  0  0  0  0
    1.4627    1.3862    1.5129 H   0  0  0  0  0  0  0  0  0  0  0  0
    0.6129    3.3361    1.7503 C   0  0  0  0  0  0  0  0  0  0  0  0
   -0.2742    3.5049    2.3693 H   0  0  0  0  0  0  0  0  0  0  0  0
    1.5005    3.5597    2.3492 H   0  0  0  0  0  0  0  0  0  0  0  0
    0.5869    4.0239    0.8986 H   0  0  0  0  0  0  0  0  0  0  0  0
  1  2  1  0  0  0  0
  2  3  1  0  0  0  0
  2  4  1  0  0  0  0
  2  5  1  0  0  0  0
  5  6  2  0  0  0  0
  5  7  1  0  0  0  0
  7  8  1  0  0  0  0
  7  9  1  0  0  0  0
  9 10  1  0  0  0  0
  9 11  1  0  0  0  0
  9 20  1  0  0  0  0
 11 12  1  0  0  0  0
 11 13  1  0  0  0  0
 11 14  1  0  0  0  0
 14 15  1  0  0  0  0
 14 16  1  0  0  0  0
 14 17  1  0  0  0  0
 17 18  1  0  0  0  0
 17 19  2  0  0  0  0
 20 21  2  0  0  0  0
 20 22  1  0  0  0  0
 22 23  1  0  0  0  0
 22 24  1  0  0  0  0
 24 25  1  0  0  0  0
 24 26  1  0  0  0  0
 24 27  1  0  0  0  0
M  CHG  1  18  -1
M  END
$$$$

  -OEChem-03222214043D

 27 26  0     1  0  0  0  0  0999 V2000
   -3.1312   -3.6565    1.1565 H   0  0  0  0  0  0  0  0  0  0  0  0
   -3.1011   -2.7043    0.6203 C   0  0  0  0  0  0  0  0  0  0  0  0
   -3.9097   -2.0655    0.9843 H   0  0  0  0  0  0  0  0  0  0  0  0
   -3.2517   -2.8925   -0.4461 H   0  0  0  0  0  0  0  0  0  0  0  0
   -1.7653   -2.0163    0.8356 C   0  0  0  0  0  0  0  0  0  0  0  0
   -0.9229   -2.5281    1.5634 O   0  0  0  0  0  0  0  0  0  0  0  0
   -1.5155   -0.8239    0.1989 N   0  0  0  0  0  0  0  0  0  0  0  0
   -2.2155   -0.4938   -0.4778 H   0  0  0  0  0  0  0  0  0  0  0  0
   -0.2347   -0.1114    0.1577 C   0  0  1  0  0  0  0  0  0  0  0  0
    0.3321   -0.4602    1.0250 H   0  0  0  0  0  0  0  0  0  0  0  0
    0.6062   -0.5507   -1.0604 C   0  0  0  0  0  0  0  0  0  0  0  0
    1.4275    0.1623   -1.1857 H   0  0  0  0  0  0  0  0  0  0  0  0
    1.0514   -1.5267   -0.8433 H   0  0  0  0  0  0  0  0  0  0  0  0
   -0.1468   -0.6635   -2.4009 C   0  0  0  0  0  0  0  0  0  0  0  0
    0.5858   -0.7555   -3.2080 H   0  0  0  0  0  0  0  0  0  0  0  0
   -0.7310   -1.5890   -2.3947 H   0  0  0  0  0  0  0  0  0  0  0  0
   -1.0871    0.4905   -2.7271 C   0  0  0  0  0  0  0  0  0  0  0  0
   -0.5998    1.5143   -3.2660 O   0  5  0  0  0  0  0  0  0  0  0  0
   -2.3082    0.3014   -2.4840 O   0  0  0  0  0  0  0  0  0  0  0  0
   -0.3223    1.4134    0.4139 C   0  0  0  0  0  0  0  0  0  0  0  0
   -1.3565    2.0423    0.2390 O   0  0  0  0  0  0  0  0  0  0  0  0
    0.6054    1.9872    1.2697 N   0  0  0  0  0  0  0  0  0  0  0  0
    1.4537    1.4611    1.4432 H   0  0  0  0  0  0  0  0  0  0  0  0
    0.5420    3.3771    1.7010 C   0  0  0  0  0  0  0  0  0  0  0  0
   -0.3748    3.5603    2.2707 H   0  0  0  0  0  0  0  0  0  0  0  0
    1.3982    3.6117    2.3401 H   0  0  0  0  0  0  0  0  0  0  0  0
    0.5607    4.0468    0.8349 H   0  0  0  0  0  0  0  0  0  0  0  0
  1  2  1  0  0  0  0
  2  3  1  0  0  0  0
  2  4  1  0  0  0  0
  2  5  1  0  0  0  0
  5  6  2  0  0  0  0
  5  7  1  0  0  0  0
  7  8  1  0  0  0  0
  7  9  1  0  0  0  0
  9 10  1  0  0  0  0
  9 11  1  0  0  0  0
  9 20  1  0  0  0  0
 11 12  1  0  0  0  0
 11 13  1  0  0  0  0
 11 14  1  0  0  0  0
 14 15  1  0  0  0  0
 14 16  1  0  0  0  0
 14 17  1  0  0  0  0
 17 18  1  0  0  0  0
 17 19  2  0  0  0  0
 20 21  2  0  0  0  0
 20 22  1  0  0  0  0
 22 23  1  0  0  0  0
 22 24  1  0  0  0  0
 24 25  1  0  0  0  0
 24 26  1  0  0  0  0
 24 27  1  0  0  0  0
M  CHG  1  18  -1
M  END
$$$$

  -OEChem-03222214043D

 27 26  0     1  0  0  0  0  0999 V2000
   -3.2001   -3.6299    1.1552 H   0  0  0  0  0  0  0  0  0  0  0  0
   -3.1411   -2.6848    0.6088 C   0  0  0  0  0  0  0  0  0  0  0  0
   -3.8933   -1.9985    1.0058 H   0  0  0  0  0  0  0  0  0  0  0  0
   -3.3535   -2.8720   -0.4470 H   0  0  0  0  0  0  0  0  0  0  0  0
   -1.7582   -2.0760    0.7544 C   0  0  0  0  0  0  0  0  0  0  0  0
   -0.9025   -2.6539    1.4124 O   0  0  0  0  0  0  0  0  0  0  0  0
   -1.4839   -0.8752    0.1424 N   0  0  0  0  0  0  0  0  0  0  0  0
   -2.2292   -0.4313   -0.3975 H   0  0  0  0  0  0  0  0  0  0  0  0
   -0.1899   -0.1825    0.1369 C   0  0  1  0  0  0  0  0  0  0  0  0
    0.3767   -0.5544    0.9950 H   0  0  0  0  0  0  0  0  0  0  0  0
    0.6546   -0.5517   -1.1009 C   0  0  0  0  0  0  0  0  0  0  0  0
    1.5016    0.1388   -1.1698 H   0  0  0  0  0  0  0  0  0  0  0  0
    1.0643   -1.5541   -0.9426 H   0  0  0  0  0  0  0  0  0  0  0  0
   -0.0877   -0.5640   -2.4505 C   0  0  0  0  0  0  0  0  0  0  0  0
    0.6207   -0.8471   -3.2338 H   0  0  0  0  0  0  0  0  0  0  0  0
   -0.8704   -1.3281   -2.4299 H   0  0  0  0  0  0  0  0  0  0  0  0
   -0.7022    0.7786   -2.8341 C   0  0  0  0  0  0  0  0  0  0  0  0
    0.0726    1.7659   -2.9060 O   0  5  0  0  0  0  0  0  0  0  0  0
   -1.9242    0.7923   -3.1251 O   0  0  0  0  0  0  0  0  0  0  0  0
   -0.3299    1.3317    0.4265 C   0  0  0  0  0  0  0  0  0  0  0  0
   -1.4132    1.8898    0.2935 O   0  0  0  0  0  0  0  0  0  0  0  0
    0.5563    1.9161    1.3173 N   0  0  0  0  0  0  0  0  0  0  0  0
    1.4628    1.4706    1.3978 H   0  0  0  0  0  0  0  0  0  0  0  0
    0.4259    3.2973    1.7612 C   0  0  0  0  0  0  0  0  0  0  0  0
   -0.5043    3.4336    2.3222 H   0  0  0  0  0  0  0  0  0  0  0  0
    1.2632    3.5630    2.4130 H   0  0  0  0  0  0  0  0  0  0  0  0
    0.4242    3.9757    0.9017 H   0  0  0  0  0  0  0  0  0  0  0  0
  1  2  1  0  0  0  0
  2  3  1  0  0  0  0
  2  4  1  0  0  0  0
  2  5  1  0  0  0  0
  5  6  2  0  0  0  0
  5  7  1  0  0  0  0
  7  8  1  0  0  0  0
  7  9  1  0  0  0  0
  9 10  1  0  0  0  0
  9 11  1  0  0  0  0
  9 20  1  0  0  0  0
 11 12  1  0  0  0  0
 11 13  1  0  0  0  0
 11 14  1  0  0  0  0
 14 15  1  0  0  0  0
 14 16  1  0  0  0  0
 14 17  1  0  0  0  0
 17 18  1  0  0  0  0
 17 19  2  0  0  0  0
 20 21  2  0  0  0  0
 20 22  1  0  0  0  0
 22 23  1  0  0  0  0
 22 24  1  0  0  0  0
 24 25  1  0  0  0  0
 24 26  1  0  0  0  0
 24 27  1  0  0  0  0
M  CHG  1  18  -1
M  END
$$$$

  -OEChem-03222214043D

 27 26  0     1  0  0  0  0  0999 V2000
   -3.2339   -3.6080    1.2331 H   0  0  0  0  0  0  0  0  0  0  0  0
   -3.1573   -2.6772    0.6645 C   0  0  0  0  0  0  0  0  0  0  0  0
   -3.8735   -1.9567    1.0674 H   0  0  0  0  0  0  0  0  0  0  0  0
   -3.4068   -2.8792   -0.3804 H   0  0  0  0  0  0  0  0  0  0  0  0
   -1.7502   -2.1144    0.7577 C   0  0  0  0  0  0  0  0  0  0  0  0
   -0.8924   -2.7163    1.3900 O   0  0  0  0  0  0  0  0  0  0  0  0
   -1.4595   -0.9230    0.1342 N   0  0  0  0  0  0  0  0  0  0  0  0
   -2.2200   -0.4278   -0.3318 H   0  0  0  0  0  0  0  0  0  0  0  0
   -0.1579   -0.2429    0.1385 C   0  0  1  0  0  0  0  0  0  0  0  0
    0.4152   -0.6166    0.9918 H   0  0  0  0  0  0  0  0  0  0  0  0
    0.6800   -0.5601   -1.1167 C   0  0  0  0  0  0  0  0  0  0  0  0
    1.5561    0.0960   -1.1479 H   0  0  0  0  0  0  0  0  0  0  0  0
    1.0542   -1.5822   -1.0023 H   0  0  0  0  0  0  0  0  0  0  0  0
   -0.0667   -0.5050   -2.4667 C   0  0  0  0  0  0  0  0  0  0  0  0
    0.5610   -0.9869   -3.2213 H   0  0  0  0  0  0  0  0  0  0  0  0
   -0.9994   -1.0728   -2.4110 H   0  0  0  0  0  0  0  0  0  0  0  0
   -0.3564    0.9161   -2.9562 C   0  0  0  0  0  0  0  0  0  0  0  0
    0.5266    1.7930   -2.7692 O   0  5  0  0  0  0  0  0  0  0  0  0
   -1.4162    1.0912   -3.6066 O   0  0  0  0  0  0  0  0  0  0  0  0
   -0.3318    1.2704    0.4119 C   0  0  0  0  0  0  0  0  0  0  0  0
   -1.4250    1.7994    0.2318 O   0  0  0  0  0  0  0  0  0  0  0  0
    0.5211    1.8876    1.3122 N   0  0  0  0  0  0  0  0  0  0  0  0
    1.4469    1.4808    1.3831 H   0  0  0  0  0  0  0  0  0  0  0  0
    0.3614    3.2836    1.6965 C   0  0  0  0  0  0  0  0  0  0  0  0
   -0.5941    3.4341    2.2092 H   0  0  0  0  0  0  0  0  0  0  0  0
    1.1661    3.5809    2.3749 H   0  0  0  0  0  0  0  0  0  0  0  0
    0.3947    3.9293    0.8127 H   0  0  0  0  0  0  0  0  0  0  0  0
  1  2  1  0  0  0  0
  2  3  1  0  0  0  0
  2  4  1  0  0  0  0
  2  5  1  0  0  0  0
  5  6  2  0  0  0  0
  5  7  1  0  0  0  0
  7  8  1  0  0  0  0
  7  9  1  0  0  0  0
  9 10  1  0  0  0  0
  9 11  1  0  0  0  0
  9 20  1  0  0  0  0
 11 12  1  0  0  0  0
 11 13  1  0  0  0  0
 11 14  1  0  0  0  0
 14 15  1  0  0  0  0
 14 16  1  0  0  0  0
 14 17  1  0  0  0  0
 17 18  1  0  0  0  0
 17 19  2  0  0  0  0
 20 21  2  0  0  0  0
 20 22  1  0  0  0  0
 22 23  1  0  0  0  0
 22 24  1  0  0  0  0
 24 25  1  0  0  0  0
 24 26  1  0  0  0  0
 24 27  1  0  0  0  0
M  CHG  1  18  -1
M  END
$$$$

  -OEChem-03222214043D

 27 26  0     1  0  0  0  0  0999 V2000
   -3.2453   -3.6037    1.2791 H   0  0  0  0  0  0  0  0  0  0  0  0
   -3.1657   -2.6772    0.7040 C   0  0  0  0  0  0  0  0  0  0  0  0
   -3.8665   -1.9453    1.1133 H   0  0  0  0  0  0  0  0  0  0  0  0
   -3.4323   -2.8823   -0.3360 H   0  0  0  0  0  0  0  0  0  0  0  0
   -1.7503   -2.1330    0.7752 C   0  0  0  0  0  0  0  0  0  0  0  0
   -0.8958   -2.7369    1.4093 O   0  0  0  0  0  0  0  0  0  0  0  0
   -1.4503   -0.9514    0.1374 N   0  0  0  0  0  0  0  0  0  0  0  0
   -2.2107   -0.4447   -0.3149 H   0  0  0  0  0  0  0  0  0  0  0  0
   -0.1433   -0.2805    0.1426 C   0  0  1  0  0  0  0  0  0  0  0  0
    0.4350   -0.6531    0.9928 H   0  0  0  0  0  0  0  0  0  0  0  0
    0.6884   -0.5639   -1.1235 C   0  0  0  0  0  0  0  0  0  0  0  0
    1.5864    0.0619   -1.1294 H   0  0  0  0  0  0  0  0  0  0  0  0
    1.0368   -1.5979   -1.0379 H   0  0  0  0  0  0  0  0  0  0  0  0
   -0.0677   -0.4655   -2.4705 C   0  0  0  0  0  0  0  0  0  0  0  0
    0.4222   -1.1407   -3.1775 H   0  0  0  0  0  0  0  0  0  0  0  0
   -1.1015   -0.8030   -2.3671 H   0  0  0  0  0  0  0  0  0  0  0  0
   -0.0476    0.9316   -3.1061 C   0  0  0  0  0  0  0  0  0  0  0  0
    0.8663    1.7342   -2.7814 O   0  5  0  0  0  0  0  0  0  0  0  0
   -0.9092    1.1534   -3.9924 O   0  0  0  0  0  0  0  0  0  0  0  0
   -0.3282    1.2339    0.3968 C   0  0  0  0  0  0  0  0  0  0  0  0
   -1.4114    1.7632    0.1610 O   0  0  0  0  0  0  0  0  0  0  0  0
    0.5090    1.8708    1.2969 N   0  0  0  0  0  0  0  0  0  0  0  0
    1.4330    1.4642    1.3914 H   0  0  0  0  0  0  0  0  0  0  0  0
    0.3502    3.2784    1.6358 C   0  0  0  0  0  0  0  0  0  0  0  0
   -0.6125    3.4488    2.1284 H   0  0  0  0  0  0  0  0  0  0  0  0
    1.1462    3.5923    2.3174 H   0  0  0  0  0  0  0  0  0  0  0  0
    0.4007    3.8965    0.7332 H   0  0  0  0  0  0  0  0  0  0  0  0
  1  2  1  0  0  0  0
  2  3  1  0  0  0  0
  2  4  1  0  0  0  0
  2  5  1  0  0  0  0
  5  6  2  0  0  0  0
  5  7  1  0  0  0  0
  7  8  1  0  0  0  0
  7  9  1  0  0  0  0
  9 10  1  0  0  0  0
  9 11  1  0  0  0  0
  9 20  1  0  0  0  0
 11 12  1  0  0  0  0
 11 13  1  0  0  0  0
 11 14  1  0  0  0  0
 14 15  1  0  0  0  0
 14 16  1  0  0  0  0
 14 17  1  0  0  0  0
 17 18  1  0  0  0  0
 17 19  2  0  0  0  0
 20 21  2  0  0  0  0
 20 22  1  0  0  0  0
 22 23  1  0  0  0  0
 22 24  1  0  0  0  0
 24 25  1  0  0  0  0
 24 26  1  0  0  0  0
 24 27  1  0  0  0  0
M  CHG  1  18  -1
M  END
$$$$

  -OEChem-03222214043D

 27 26  0     1  0  0  0  0  0999 V2000
   -3.2573   -3.5875    1.3160 H   0  0  0  0  0  0  0  0  0  0  0  0
   -3.1725   -2.6631    0.7381 C   0  0  0  0  0  0  0  0  0  0  0  0
   -3.8573   -1.9207    1.1559 H   0  0  0  0  0  0  0  0  0  0  0  0
   -3.4567   -2.8665   -0.2975 H   0  0  0  0  0  0  0  0  0  0  0  0
   -1.7482   -2.1394    0.7874 C   0  0  0  0  0  0  0  0  0  0  0  0
   -0.8944   -2.7519    1.4139 O   0  0  0  0  0  0  0  0  0  0  0  0
   -1.4401   -0.9653    0.1394 N   0  0  0  0  0  0  0  0  0  0  0  0
   -2.2026   -0.4399   -0.2862 H   0  0  0  0  0  0  0  0  0  0  0  0
   -0.1260   -0.3071    0.1363 C   0  0  1  0  0  0  0  0  0  0  0  0
    0.4608   -0.6816    0.9799 H   0  0  0  0  0  0  0  0  0  0  0  0
    0.6881   -0.5772   -1.1438 C   0  0  0  0  0  0  0  0  0  0  0  0
    1.5974    0.0319   -1.1443 H   0  0  0  0  0  0  0  0  0  0  0  0
    1.0238   -1.6170   -1.0797 H   0  0  0  0  0  0  0  0  0  0  0  0
   -0.0861   -0.4473   -2.4806 C   0  0  0  0  0  0  0  0  0  0  0  0
    0.1833   -1.2992   -3.1117 H   0  0  0  0  0  0  0  0  0  0  0  0
   -1.1652   -0.4913   -2.3194 H   0  0  0  0  0  0  0  0  0  0  0  0
    0.2323    0.8312   -3.2718 C   0  0  0  0  0  0  0  0  0  0  0  0
    0.9110    1.7428   -2.7304 O   0  5  0  0  0  0  0  0  0  0  0  0
   -0.1875    0.8662   -4.4551 O   0  0  0  0  0  0  0  0  0  0  0  0
   -0.3146    1.2088    0.3812 C   0  0  0  0  0  0  0  0  0  0  0  0
   -1.4004    1.7335    0.1393 O   0  0  0  0  0  0  0  0  0  0  0  0
    0.5207    1.8547    1.2764 N   0  0  0  0  0  0  0  0  0  0  0  0
    1.4489    1.4563    1.3644 H   0  0  0  0  0  0  0  0  0  0  0  0
    0.3559    3.2642    1.6040 C   0  0  0  0  0  0  0  0  0  0  0  0
   -0.6066    3.4336    2.0975 H   0  0  0  0  0  0  0  0  0  0  0  0
    1.1516    3.5878    2.2810 H   0  0  0  0  0  0  0  0  0  0  0  0
    0.4015    3.8749    0.6962 H   0  0  0  0  0  0  0  0  0  0  0  0
  1  2  1  0  0  0  0
  2  3  1  0  0  0  0
  2  4  1  0  0  0  0
  2  5  1  0  0  0  0
  5  6  2  0  0  0  0
  5  7  1  0  0  0  0
  7  8  1  0  0  0  0
  7  9  1  0  0  0  0
  9 10  1  0  0  0  0
  9 11  1  0  0  0  0
  9 20  1  0  0  0  0
 11 12  1  0  0  0  0
 11 13  1  0  0  0  0
 11 14  1  0  0  0  0
 14 15  1  0  0  0  0
 14 16  1  0  0  0  0
 14 17  1  0  0  0  0
 17 18  1  0  0  0  0
 17 19  2  0  0  0  0
 20 21  2  0  0  0  0
 20 22  1  0  0  0  0
 22 23  1  0  0  0  0
 22 24  1  0  0  0  0
 24 25  1  0  0  0  0
 24 26  1  0  0  0  0
 24 27  1  0  0  0  0
M  CHG  1  18  -1
M  END
$$$$

  -OEChem-03222214043D

 27 26  0     1  0  0  0  0  0999 V2000
   -3.2613   -3.5826    1.3233 H   0  0  0  0  0  0  0  0  0  0  0  0
   -3.1734   -2.6661    0.7333 C   0  0  0  0  0  0  0  0  0  0  0  0
   -3.8633   -1.9197    1.1351 H   0  0  0  0  0  0  0  0  0  0  0  0
   -3.4483   -2.8847   -0.3017 H   0  0  0  0  0  0  0  0  0  0  0  0
   -1.7508   -2.1384    0.7873 C   0  0  0  0  0  0  0  0  0  0  0  0
   -0.8989   -2.7458    1.4210 O   0  0  0  0  0  0  0  0  0  0  0  0
   -1.4425   -0.9648    0.1381 N   0  0  0  0  0  0  0  0  0  0  0  0
   -2.2019   -0.4462   -0.3004 H   0  0  0  0  0  0  0  0  0  0  0  0
   -0.1257   -0.3116    0.1309 C   0  0  1  0  0  0  0  0  0  0  0  0
    0.4659   -0.6910    0.9688 H   0  0  0  0  0  0  0  0  0  0  0  0
    0.6710   -0.5877   -1.1581 C   0  0  0  0  0  0  0  0  0  0  0  0
    1.5634    0.0463   -1.1706 H   0  0  0  0  0  0  0  0  0  0  0  0
    1.0309   -1.6200   -1.1061 H   0  0  0  0  0  0  0  0  0  0  0  0
   -0.1282   -0.4493   -2.4773 C   0  0  0  0  0  0  0  0  0  0  0  0
   -0.1380   -1.4156   -2.9909 H   0  0  0  0  0  0  0  0  0  0  0  0
   -1.1657   -0.1716   -2.2773 H   0  0  0  0  0  0  0  0  0  0  0  0
    0.4571    0.6162   -3.4139 C   0  0  0  0  0  0  0  0  0  0  0  0
    0.8955    1.6838   -2.9135 O   0  5  0  0  0  0  0  0  0  0  0  0
    0.4770    0.3442   -4.6402 O   0  0  0  0  0  0  0  0  0  0  0  0
   -0.3018    1.2055    0.3769 C   0  0  0  0  0  0  0  0  0  0  0  0
   -1.3764    1.7459    0.1214 O   0  0  0  0  0  0  0  0  0  0  0  0
    0.5409    1.8466    1.2688 N   0  0  0  0  0  0  0  0  0  0  0  0
    1.4565    1.4262    1.3838 H   0  0  0  0  0  0  0  0  0  0  0  0
    0.3955    3.2593    1.5917 C   0  0  0  0  0  0  0  0  0  0  0  0
   -0.5588    3.4414    2.0964 H   0  0  0  0  0  0  0  0  0  0  0  0
    1.2032    3.5778    2.2570 H   0  0  0  0  0  0  0  0  0  0  0  0
    0.4361    3.8654    0.6804 H   0  0  0  0  0  0  0  0  0  0  0  0
  1  2  1  0  0  0  0
  2  3  1  0  0  0  0
  2  4  1  0  0  0  0
  2  5  1  0  0  0  0
  5  6  2  0  0  0  0
  5  7  1  0  0  0  0
  7  8  1  0  0  0  0
  7  9  1  0  0  0  0
  9 10  1  0  0  0  0
  9 11  1  0  0  0  0
  9 20  1  0  0  0  0
 11 12  1  0  0  0  0
 11 13  1  0  0  0  0
 11 14  1  0  0  0  0
 14 15  1  0  0  0  0
 14 16  1  0  0  0  0
 14 17  1  0  0  0  0
 17 18  1  0  0  0  0
 17 19  2  0  0  0  0
 20 21  2  0  0  0  0
 20 22  1  0  0  0  0
 22 23  1  0  0  0  0
 22 24  1  0  0  0  0
 24 25  1  0  0  0  0
 24 26  1  0  0  0  0
 24 27  1  0  0  0  0
M  CHG  1  18  -1
M  END
$$$$

  -OEChem-03222214043D

 27 26  0     1  0  0  0  0  0999 V2000
   -3.2548   -3.6039    1.2619 H   0  0  0  0  0  0  0  0  0  0  0  0
   -3.1649   -2.6816    0.6813 C   0  0  0  0  0  0  0  0  0  0  0  0
   -3.8859   -1.9530    1.0603 H   0  0  0  0  0  0  0  0  0  0  0  0
   -3.3951   -2.8991   -0.3649 H   0  0  0  0  0  0  0  0  0  0  0  0
   -1.7575   -2.1233    0.7932 C   0  0  0  0  0  0  0  0  0  0  0  0
   -0.9230   -2.7034    1.4738 O   0  0  0  0  0  0  0  0  0  0  0  0
   -1.4449   -0.9504    0.1447 N   0  0  0  0  0  0  0  0  0  0  0  0
   -2.1866   -0.4718   -0.3631 H   0  0  0  0  0  0  0  0  0  0  0  0
   -0.1279   -0.2985    0.1409 C   0  0  1  0  0  0  0  0  0  0  0  0
    0.4643   -0.6827    0.9763 H   0  0  0  0  0  0  0  0  0  0  0  0
    0.6550   -0.5931   -1.1511 C   0  0  0  0  0  0  0  0  0  0  0  0
    1.5282    0.0672   -1.1790 H   0  0  0  0  0  0  0  0  0  0  0  0
    1.0381   -1.6173   -1.1032 H   0  0  0  0  0  0  0  0  0  0  0  0
   -0.1693   -0.4585   -2.4522 C   0  0  0  0  0  0  0  0  0  0  0  0
   -0.4511   -1.4528   -2.8115 H   0  0  0  0  0  0  0  0  0  0  0  0
   -1.0910    0.0979   -2.2612 H   0  0  0  0  0  0  0  0  0  0  0  0
    0.5918    0.3034   -3.5425 C   0  0  0  0  0  0  0  0  0  0  0  0
    1.0783    1.4267   -3.2557 O   0  5  0  0  0  0  0  0  0  0  0  0
    0.6989   -0.2549   -4.6626 O   0  0  0  0  0  0  0  0  0  0  0  0
   -0.2842    1.2202    0.3845 C   0  0  0  0  0  0  0  0  0  0  0  0
   -1.3302    1.7904    0.0840 O   0  0  0  0  0  0  0  0  0  0  0  0
    0.5636    1.8541    1.2763 N   0  0  0  0  0  0  0  0  0  0  0  0
    1.4561    1.4009    1.4396 H   0  0  0  0  0  0  0  0  0  0  0  0
    0.4406    3.2678    1.6034 C   0  0  0  0  0  0  0  0  0  0  0  0
   -0.5241    3.4687    2.0806 H   0  0  0  0  0  0  0  0  0  0  0  0
    1.2350    3.5628    2.2951 H   0  0  0  0  0  0  0  0  0  0  0  0
    0.5226    3.8783    0.6980 H   0  0  0  0  0  0  0  0  0  0  0  0
  1  2  1  0  0  0  0
  2  3  1  0  0  0  0
  2  4  1  0  0  0  0
  2  5  1  0  0  0  0
  5  6  2  0  0  0  0
  5  7  1  0  0  0  0
  7  8  1  0  0  0  0
  7  9  1  0  0  0  0
  9 10  1  0  0  0  0
  9 11  1  0  0  0  0
  9 20  1  0  0  0  0
 11 12  1  0  0  0  0
 11 13  1  0  0  0  0
 11 14  1  0  0  0  0
 14 15  1  0  0  0  0
 14 16  1  0  0  0  0
 14 17  1  0  0  0  0
 17 18  1  0  0  0  0
 17 19  2  0  0  0  0
 20 21  2  0  0  0  0
 20 22  1  0  0  0  0
 22 23  1  0  0  0  0
 22 24  1  0  0  0  0
 24 25  1  0  0  0  0
 24 26  1  0  0  0  0
 24 27  1  0  0  0  0
M  CHG  1  18  -1
M  END
$$$$

  -OEChem-03222214043D

 27 26  0     1  0  0  0  0  0999 V2000
   -3.2595   -3.6091    1.2352 H   0  0  0  0  0  0  0  0  0  0  0  0
   -3.1589   -2.7013    0.6341 C   0  0  0  0  0  0  0  0  0  0  0  0
   -3.9112   -1.9779    0.9582 H   0  0  0  0  0  0  0  0  0  0  0  0
   -3.3340   -2.9513   -0.4154 H   0  0  0  0  0  0  0  0  0  0  0  0
   -1.7692   -2.1120    0.7970 C   0  0  0  0  0  0  0  0  0  0  0  0
   -0.9524   -2.6648    1.5205 O   0  0  0  0  0  0  0  0  0  0  0  0
   -1.4545   -0.9385    0.1496 N   0  0  0  0  0  0  0  0  0  0  0  0
   -2.1752   -0.4993   -0.4197 H   0  0  0  0  0  0  0  0  0  0  0  0
   -0.1372   -0.2873    0.1529 C   0  0  1  0  0  0  0  0  0  0  0  0
    0.4519   -0.6749    0.9891 H   0  0  0  0  0  0  0  0  0  0  0  0
    0.6429   -0.5921   -1.1387 C   0  0  0  0  0  0  0  0  0  0  0  0
    1.5064    0.0806   -1.1793 H   0  0  0  0  0  0  0  0  0  0  0  0
    1.0342   -1.6131   -1.0909 H   0  0  0  0  0  0  0  0  0  0  0  0
   -0.1932   -0.4590   -2.4289 C   0  0  0  0  0  0  0  0  0  0  0  0
   -0.7049   -1.4036   -2.6366 H   0  0  0  0  0  0  0  0  0  0  0  0
   -0.9575    0.3123   -2.2994 H   0  0  0  0  0  0  0  0  0  0  0  0
    0.6684   -0.0452   -3.6253 C   0  0  0  0  0  0  0  0  0  0  0  0
    1.3124    1.0318   -3.5480 O   0  5  0  0  0  0  0  0  0  0  0  0
    0.6914   -0.8214   -4.6127 O   0  0  0  0  0  0  0  0  0  0  0  0
   -0.2774    1.2324    0.3953 C   0  0  0  0  0  0  0  0  0  0  0  0
   -1.2916    1.8311    0.0475 O   0  0  0  0  0  0  0  0  0  0  0  0
    0.5733    1.8580    1.2899 N   0  0  0  0  0  0  0  0  0  0  0  0
    1.4364    1.3708    1.5062 H   0  0  0  0  0  0  0  0  0  0  0  0
    0.4803    3.2762    1.6068 C   0  0  0  0  0  0  0  0  0  0  0  0
   -0.4909    3.5059    2.0568 H   0  0  0  0  0  0  0  0  0  0  0  0
    1.2637    3.5542    2.3179 H   0  0  0  0  0  0  0  0  0  0  0  0
    0.6031    3.8789    0.7009 H   0  0  0  0  0  0  0  0  0  0  0  0
  1  2  1  0  0  0  0
  2  3  1  0  0  0  0
  2  4  1  0  0  0  0
  2  5  1  0  0  0  0
  5  6  2  0  0  0  0
  5  7  1  0  0  0  0
  7  8  1  0  0  0  0
  7  9  1  0  0  0  0
  9 10  1  0  0  0  0
  9 11  1  0  0  0  0
  9 20  1  0  0  0  0
 11 12  1  0  0  0  0
 11 13  1  0  0  0  0
 11 14  1  0  0  0  0
 14 15  1  0  0  0  0
 14 16  1  0  0  0  0
 14 17  1  0  0  0  0
 17 18  1  0  0  0  0
 17 19  2  0  0  0  0
 20 21  2  0  0  0  0
 20 22  1  0  0  0  0
 22 23  1  0  0  0  0
 22 24  1  0  0  0  0
 24 25  1  0  0  0  0
 24 26  1  0  0  0  0
 24 27  1  0  0  0  0
M  CHG  1  18  -1
M  END
$$$$

  -OEChem-03222214043D

 27 26  0     1  0  0  0  0  0999 V2000
   -3.2528   -3.6210    1.2050 H   0  0  0  0  0  0  0  0  0  0  0  0
   -3.1474   -2.7189    0.5961 C   0  0  0  0  0  0  0  0  0  0  0  0
   -3.9297   -2.0094    0.8768 H   0  0  0  0  0  0  0  0  0  0  0  0
   -3.2703   -2.9868   -0.4565 H   0  0  0  0  0  0  0  0  0  0  0  0
   -1.7803   -2.0947    0.8107 C   0  0  0  0  0  0  0  0  0  0  0  0
   -0.9838   -2.6172    1.5780 O   0  0  0  0  0  0  0  0  0  0  0  0
   -1.4643   -0.9238    0.1591 N   0  0  0  0  0  0  0  0  0  0  0  0
   -2.1612   -0.5269   -0.4675 H   0  0  0  0  0  0  0  0  0  0  0  0
   -0.1447   -0.2777    0.1633 C   0  0  1  0  0  0  0  0  0  0  0  0
    0.4442   -0.6679    0.9981 H   0  0  0  0  0  0  0  0  0  0  0  0
    0.6295   -0.5902   -1.1302 C   0  0  0  0  0  0  0  0  0  0  0  0
    1.4961    0.0774   -1.1846 H   0  0  0  0  0  0  0  0  0  0  0  0
    1.0117   -1.6147   -1.0794 H   0  0  0  0  0  0  0  0  0  0  0  0
   -0.2109   -0.4557   -2.4153 C   0  0  0  0  0  0  0  0  0  0  0  0
   -0.9162   -1.2888   -2.4902 H   0  0  0  0  0  0  0  0  0  0  0  0
   -0.7886    0.4723   -2.3851 H   0  0  0  0  0  0  0  0  0  0  0  0
    0.6786   -0.4158   -3.6602 C   0  0  0  0  0  0  0  0  0  0  0  0
    1.5193    0.5139   -3.7559 O   0  5  0  0  0  0  0  0  0  0  0  0
    0.5235   -1.3289   -4.5087 O   0  0  0  0  0  0  0  0  0  0  0  0
   -0.2708    1.2432    0.4009 C   0  0  0  0  0  0  0  0  0  0  0  0
   -1.2549    1.8641    0.0098 O   0  0  0  0  0  0  0  0  0  0  0  0
    0.5830    1.8653    1.2947 N   0  0  0  0  0  0  0  0  0  0  0  0
    1.4157    1.3517    1.5637 H   0  0  0  0  0  0  0  0  0  0  0  0
    0.5029    3.2837    1.6133 C   0  0  0  0  0  0  0  0  0  0  0  0
   -0.4661    3.5205    2.0647 H   0  0  0  0  0  0  0  0  0  0  0  0
    1.2896    3.5544    2.3237 H   0  0  0  0  0  0  0  0  0  0  0  0
    0.6291    3.8863    0.7079 H   0  0  0  0  0  0  0  0  0  0  0  0
  1  2  1  0  0  0  0
  2  3  1  0  0  0  0
  2  4  1  0  0  0  0
  2  5  1  0  0  0  0
  5  6  2  0  0  0  0
  5  7  1  0  0  0  0
  7  8  1  0  0  0  0
  7  9  1  0  0  0  0
  9 10  1  0  0  0  0
  9 11  1  0  0  0  0
  9 20  1  0  0  0  0
 11 12  1  0  0  0  0
 11 13  1  0  0  0  0
 11 14  1  0  0  0  0
 14 15  1  0  0  0  0
 14 16  1  0  0  0  0
 14 17  1  0  0  0  0
 17 18  1  0  0  0  0
 17 19  2  0  0  0  0
 20 21  2  0  0  0  0
 20 22  1  0  0  0  0
 22 23  1  0  0  0  0
 22 24  1  0  0  0  0
 24 25  1  0  0  0  0
 24 26  1  0  0  0  0
 24 27  1  0  0  0  0
M  CHG  1  18  -1
M  END
$$$$

  -OEChem-03222214043D

 27 26  0     1  0  0  0  0  0999 V2000
   -3.2249   -3.6429    1.1296 H   0  0  0  0  0  0  0  0  0  0  0  0
   -3.1315   -2.7228    0.5460 C   0  0  0  0  0  0  0  0  0  0  0  0
   -3.9301   -2.0361    0.8373 H   0  0  0  0  0  0  0  0  0  0  0  0
   -3.2400   -2.9652   -0.5145 H   0  0  0  0  0  0  0  0  0  0  0  0
   -1.7789   -2.0782    0.7903 C   0  0  0  0  0  0  0  0  0  0  0  0
   -0.9893   -2.5914    1.5709 O   0  0  0  0  0  0  0  0  0  0  0  0
   -1.4693   -0.8995    0.1493 N   0  0  0  0  0  0  0  0  0  0  0  0
   -2.1588   -0.5189   -0.4953 H   0  0  0  0  0  0  0  0  0  0  0  0
   -0.1545   -0.2448    0.1601 C   0  0  1  0  0  0  0  0  0  0  0  0
    0.4302   -0.6435    0.9941 H   0  0  0  0  0  0  0  0  0  0  0  0
    0.6157   -0.5776   -1.1292 C   0  0  0  0  0  0  0  0  0  0  0  0
    1.6039   -0.1072   -1.0828 H   0  0  0  0  0  0  0  0  0  0  0  0
    0.7711   -1.6606   -1.1776 H   0  0  0  0  0  0  0  0  0  0  0  0
   -0.0933   -0.1249   -2.4186 C   0  0  0  0  0  0  0  0  0  0  0  0
   -1.0788   -0.5936   -2.4927 H   0  0  0  0  0  0  0  0  0  0  0  0
   -0.2371    0.9589   -2.4085 H   0  0  0  0  0  0  0  0  0  0  0  0
    0.7372   -0.4941   -3.6483 C   0  0  0  0  0  0  0  0  0  0  0  0
    1.8577    0.0594   -3.7830 O   0  5  0  0  0  0  0  0  0  0  0  0
    0.2588   -1.3442   -4.4398 O   0  0  0  0  0  0  0  0  0  0  0  0
   -0.2672    1.2749    0.4093 C   0  0  0  0  0  0  0  0  0  0  0  0
   -1.2419    1.9100    0.0176 O   0  0  0  0  0  0  0  0  0  0  0  0
    0.5928    1.8835    1.3065 N   0  0  0  0  0  0  0  0  0  0  0  0
    1.4106    1.3538    1.5898 H   0  0  0  0  0  0  0  0  0  0  0  0
    0.5163    3.2957    1.6529 C   0  0  0  0  0  0  0  0  0  0  0  0
   -0.4512    3.5255    2.1107 H   0  0  0  0  0  0  0  0  0  0  0  0
    1.3047    3.5506    2.3671 H   0  0  0  0  0  0  0  0  0  0  0  0
    0.6423    3.9160    0.7595 H   0  0  0  0  0  0  0  0  0  0  0  0
  1  2  1  0  0  0  0
  2  3  1  0  0  0  0
  2  4  1  0  0  0  0
  2  5  1  0  0  0  0
  5  6  2  0  0  0  0
  5  7  1  0  0  0  0
  7  8  1  0  0  0  0
  7  9  1  0  0  0  0
  9 10  1  0  0  0  0
  9 11  1  0  0  0  0
  9 20  1  0  0  0  0
 11 12  1  0  0  0  0
 11 13  1  0  0  0  0
 11 14  1  0  0  0  0
 14 15  1  0  0  0  0
 14 16  1  0  0  0  0
 14 17  1  0  0  0  0
 17 18  1  0  0  0  0
 17 19  2  0  0  0  0
 20 21  2  0  0  0  0
 20 22  1  0  0  0  0
 22 23  1  0  0  0  0
 22 24  1  0  0  0  0
 24 25  1  0  0  0  0
 24 26  1  0  0  0  0
 24 27  1  0  0  0  0
M  CHG  1  18  -1
M  END
$$$$

  -OEChem-03222214043D

 27 26  0     1  0  0  0  0  0999 V2000
   -3.2110   -3.6729    1.0863 H   0  0  0  0  0  0  0  0  0  0  0  0
   -3.1263   -2.7441    0.5156 C   0  0  0  0  0  0  0  0  0  0  0  0
   -3.9517   -2.0827    0.7899 H   0  0  0  0  0  0  0  0  0  0  0  0
   -3.1963   -2.9782   -0.5501 H   0  0  0  0  0  0  0  0  0  0  0  0
   -1.7997   -2.0658    0.8068 C   0  0  0  0  0  0  0  0  0  0  0  0
   -1.0364   -2.5453    1.6339 O   0  0  0  0  0  0  0  0  0  0  0  0
   -1.4849   -0.8923    0.1580 N   0  0  0  0  0  0  0  0  0  0  0  0
   -2.1425   -0.5564   -0.5424 H   0  0  0  0  0  0  0  0  0  0  0  0
   -0.1668   -0.2436    0.1779 C   0  0  1  0  0  0  0  0  0  0  0  0
    0.4117   -0.6440    1.0151 H   0  0  0  0  0  0  0  0  0  0  0  0
    0.6076   -0.5760   -1.1095 C   0  0  0  0  0  0  0  0  0  0  0  0
    1.6055   -0.1272   -1.0662 H   0  0  0  0  0  0  0  0  0  0  0  0
    0.7414   -1.6626   -1.1536 H   0  0  0  0  0  0  0  0  0  0  0  0
   -0.0928   -0.1153   -2.4018 C   0  0  0  0  0  0  0  0  0  0  0  0
   -1.1571   -0.3644   -2.3734 H   0  0  0  0  0  0  0  0  0  0  0  0
   -0.0085    0.9703   -2.5049 H   0  0  0  0  0  0  0  0  0  0  0  0
    0.5328   -0.7912   -3.6216 C   0  0  0  0  0  0  0  0  0  0  0  0
    1.7169   -0.4856   -3.9114 O   0  5  0  0  0  0  0  0  0  0  0  0
   -0.1638   -1.6316   -4.2439 O   0  0  0  0  0  0  0  0  0  0  0  0
   -0.2677    1.2785    0.4150 C   0  0  0  0  0  0  0  0  0  0  0  0
   -1.2086    1.9319   -0.0249 O   0  0  0  0  0  0  0  0  0  0  0  0
    0.5885    1.8863    1.3161 N   0  0  0  0  0  0  0  0  0  0  0  0
    1.3696    1.3344    1.6549 H   0  0  0  0  0  0  0  0  0  0  0  0
    0.5413    3.3072    1.6299 C   0  0  0  0  0  0  0  0  0  0  0  0
   -0.4145    3.5638    2.0980 H   0  0  0  0  0  0  0  0  0  0  0  0
    1.3468    3.5658    2.3234 H   0  0  0  0  0  0  0  0  0  0  0  0
    0.6627    3.9043    0.7201 H   0  0  0  0  0  0  0  0  0  0  0  0
  1  2  1  0  0  0  0
  2  3  1  0  0  0  0
  2  4  1  0  0  0  0
  2  5  1  0  0  0  0
  5  6  2  0  0  0  0
  5  7  1  0  0  0  0
  7  8  1  0  0  0  0
  7  9  1  0  0  0  0
  9 10  1  0  0  0  0
  9 11  1  0  0  0  0
  9 20  1  0  0  0  0
 11 12  1  0  0  0  0
 11 13  1  0  0  0  0
 11 14  1  0  0  0  0
 14 15  1  0  0  0  0
 14 16  1  0  0  0  0
 14 17  1  0  0  0  0
 17 18  1  0  0  0  0
 17 19  2  0  0  0  0
 20 21  2  0  0  0  0
 20 22  1  0  0  0  0
 22 23  1  0  0  0  0
 22 24  1  0  0  0  0
 24 25  1  0  0  0  0
 24 26  1  0  0  0  0
 24 27  1  0  0  0  0
M  CHG  1  18  -1
M  END
$$$$

  -OEChem-03222214043D

 27 26  0     1  0  0  0  0  0999 V2000
   -3.1863   -3.6803    1.0425 H   0  0  0  0  0  0  0  0  0  0  0  0
   -3.1002   -2.7577    0.4621 C   0  0  0  0  0  0  0  0  0  0  0  0
   -3.9640   -2.1228    0.6737 H   0  0  0  0  0  0  0  0  0  0  0  0
   -3.0958   -3.0102   -0.6019 H   0  0  0  0  0  0  0  0  0  0  0  0
   -1.8193   -2.0264    0.8208 C   0  0  0  0  0  0  0  0  0  0  0  0
   -1.0983   -2.4551    1.7121 O   0  0  0  0  0  0  0  0  0  0  0  0
   -1.4996   -0.8615    0.1590 N   0  0  0  0  0  0  0  0  0  0  0  0
   -2.1019   -0.6010   -0.6195 H   0  0  0  0  0  0  0  0  0  0  0  0
   -0.1761   -0.2234    0.1905 C   0  0  1  0  0  0  0  0  0  0  0  0
    0.3938   -0.6238    1.0337 H   0  0  0  0  0  0  0  0  0  0  0  0
    0.5928   -0.5834   -1.0928 C   0  0  0  0  0  0  0  0  0  0  0  0
    1.6005   -0.1572   -1.0591 H   0  0  0  0  0  0  0  0  0  0  0  0
    0.7042   -1.6734   -1.1148 H   0  0  0  0  0  0  0  0  0  0  0  0
   -0.1010   -0.1276   -2.3931 C   0  0  0  0  0  0  0  0  0  0  0  0
   -1.1876   -0.1098   -2.2764 H   0  0  0  0  0  0  0  0  0  0  0  0
    0.2138    0.8898   -2.6431 H   0  0  0  0  0  0  0  0  0  0  0  0
    0.2384   -1.0727   -3.5435 C   0  0  0  0  0  0  0  0  0  0  0  0
    1.3568   -0.9393   -4.0996 O   0  5  0  0  0  0  0  0  0  0  0  0
   -0.6055   -1.9590   -3.8299 O   0  0  0  0  0  0  0  0  0  0  0  0
   -0.2532    1.3029    0.4102 C   0  0  0  0  0  0  0  0  0  0  0  0
   -1.1566    1.9786   -0.0712 O   0  0  0  0  0  0  0  0  0  0  0  0
    0.6034    1.9028    1.3166 N   0  0  0  0  0  0  0  0  0  0  0  0
    1.3368    1.3258    1.7145 H   0  0  0  0  0  0  0  0  0  0  0  0
    0.5629    3.3209    1.6440 C   0  0  0  0  0  0  0  0  0  0  0  0
   -0.4039    3.5841    2.0851 H   0  0  0  0  0  0  0  0  0  0  0  0
    1.3494    3.5622    2.3651 H   0  0  0  0  0  0  0  0  0  0  0  0
    0.7194    3.9258    0.7449 H   0  0  0  0  0  0  0  0  0  0  0  0
  1  2  1  0  0  0  0
  2  3  1  0  0  0  0
  2  4  1  0  0  0  0
  2  5  1  0  0  0  0
  5  6  2  0  0  0  0
  5  7  1  0  0  0  0
  7  8  1  0  0  0  0
  7  9  1  0  0  0  0
  9 10  1  0  0  0  0
  9 11  1  0  0  0  0
  9 20  1  0  0  0  0
 11 12  1  0  0  0  0
 11 13  1  0  0  0  0
 11 14  1  0  0  0  0
 14 15  1  0  0  0  0
 14 16  1  0  0  0  0
 14 17  1  0  0  0  0
 17 18  1  0  0  0  0
 17 19  2  0  0  0  0
 20 21  2  0  0  0  0
 20 22  1  0  0  0  0
 22 23  1  0  0  0  0
 22 24  1  0  0  0  0
 24 25  1  0  0  0  0
 24 26  1  0  0  0  0
 24 27  1  0  0  0  0
M  CHG  1  18  -1
M  END
$$$$

  -OEChem-03222214043D

 27 26  0     1  0  0  0  0  0999 V2000
   -3.1241   -3.7006    0.9553 H   0  0  0  0  0  0  0  0  0  0  0  0
   -3.0393   -2.7843    0.3653 C   0  0  0  0  0  0  0  0  0  0  0  0
   -3.9573   -2.2025    0.4768 H   0  0  0  0  0  0  0  0  0  0  0  0
   -2.9147   -3.0539   -0.6879 H   0  0  0  0  0  0  0  0  0  0  0  0
   -1.8473   -1.9664    0.8275 C   0  0  0  0  0  0  0  0  0  0  0  0
   -1.1972   -2.3227    1.8026 O   0  0  0  0  0  0  0  0  0  0  0  0
   -1.5201   -0.8125    0.1504 N   0  0  0  0  0  0  0  0  0  0  0  0
   -2.0340   -0.6611   -0.7168 H   0  0  0  0  0  0  0  0  0  0  0  0
   -0.1915   -0.1858    0.2093 C   0  0  1  0  0  0  0  0  0  0  0  0
    0.3597   -0.5852    1.0649 H   0  0  0  0  0  0  0  0  0  0  0  0
    0.5677   -0.6026   -1.0613 C   0  0  0  0  0  0  0  0  0  0  0  0
    1.5813   -0.1900   -1.0394 H   0  0  0  0  0  0  0  0  0  0  0  0
    0.6674   -1.6941   -1.0496 H   0  0  0  0  0  0  0  0  0  0  0  0
   -0.1243   -0.1619   -2.3707 C   0  0  0  0  0  0  0  0  0  0  0  0
   -1.1553    0.1578   -2.1989 H   0  0  0  0  0  0  0  0  0  0  0  0
    0.4072    0.6969   -2.7911 H   0  0  0  0  0  0  0  0  0  0  0  0
   -0.1383   -1.3034   -3.3834 C   0  0  0  0  0  0  0  0  0  0  0  0
    0.7871   -1.3660   -4.2295 O   0  5  0  0  0  0  0  0  0  0  0  0
   -1.0615   -2.1489   -3.2601 O   0  0  0  0  0  0  0  0  0  0  0  0
   -0.2320    1.3457    0.4059 C   0  0  0  0  0  0  0  0  0  0  0  0
   -1.0789    2.0515   -0.1306 O   0  0  0  0  0  0  0  0  0  0  0  0
    0.6197    1.9312    1.3268 N   0  0  0  0  0  0  0  0  0  0  0  0
    1.2767    1.3233    1.8043 H   0  0  0  0  0  0  0  0  0  0  0  0
    0.5968    3.3489    1.6578 C   0  0  0  0  0  0  0  0  0  0  0  0
   -0.3708    3.6251    2.0890 H   0  0  0  0  0  0  0  0  0  0  0  0
    1.3794    3.5772    2.3873 H   0  0  0  0  0  0  0  0  0  0  0  0
    0.7713    3.9538    0.7621 H   0  0  0  0  0  0  0  0  0  0  0  0
  1  2  1  0  0  0  0
  2  3  1  0  0  0  0
  2  4  1  0  0  0  0
  2  5  1  0  0  0  0
  5  6  2  0  0  0  0
  5  7  1  0  0  0  0
  7  8  1  0  0  0  0
  7  9  1  0  0  0  0
  9 10  1  0  0  0  0
  9 11  1  0  0  0  0
  9 20  1  0  0  0  0
 11 12  1  0  0  0  0
 11 13  1  0  0  0  0
 11 14  1  0  0  0  0
 14 15  1  0  0  0  0
 14 16  1  0  0  0  0
 14 17  1  0  0  0  0
 17 18  1  0  0  0  0
 17 19  2  0  0  0  0
 20 21  2  0  0  0  0
 20 22  1  0  0  0  0
 22 23  1  0  0  0  0
 22 24  1  0  0  0  0
 24 25  1  0  0  0  0
 24 26  1  0  0  0  0
 24 27  1  0  0  0  0
M  CHG  1  18  -1
M  END
$$$$

  -OEChem-03222214043D

 27 26  0     1  0  0  0  0  0999 V2000
   -3.1501   -3.6597    0.9991 H   0  0  0  0  0  0  0  0  0  0  0  0
   -3.0199   -2.7928    0.3462 C   0  0  0  0  0  0  0  0  0  0  0  0
   -3.9364   -2.1984    0.3556 H   0  0  0  0  0  0  0  0  0  0  0  0
   -2.8365   -3.1436   -0.6734 H   0  0  0  0  0  0  0  0  0  0  0  0
   -1.8495   -1.9479    0.8151 C   0  0  0  0  0  0  0  0  0  0  0  0
   -1.2303   -2.2647    1.8248 O   0  0  0  0  0  0  0  0  0  0  0  0
   -1.5247   -0.7992    0.1275 N   0  0  0  0  0  0  0  0  0  0  0  0
   -1.9743   -0.7327   -0.7885 H   0  0  0  0  0  0  0  0  0  0  0  0
   -0.1977   -0.1690    0.2096 C   0  0  1  0  0  0  0  0  0  0  0  0
    0.3412   -0.5641    1.0749 H   0  0  0  0  0  0  0  0  0  0  0  0
    0.5655   -0.6145   -1.0488 C   0  0  0  0  0  0  0  0  0  0  0  0
    1.5721   -0.1858   -1.0255 H   0  0  0  0  0  0  0  0  0  0  0  0
    0.6839   -1.7041   -1.0243 H   0  0  0  0  0  0  0  0  0  0  0  0
   -0.1256   -0.1862   -2.3637 C   0  0  0  0  0  0  0  0  0  0  0  0
   -1.0323    0.3970   -2.1833 H   0  0  0  0  0  0  0  0  0  0  0  0
    0.5546    0.4524   -2.9350 H   0  0  0  0  0  0  0  0  0  0  0  0
   -0.4852   -1.4085   -3.2017 C   0  0  0  0  0  0  0  0  0  0  0  0
    0.2657   -1.7392   -4.1516 O   0  5  0  0  0  0  0  0  0  0  0  0
   -1.5047   -2.0467   -2.8292 O   0  0  0  0  0  0  0  0  0  0  0  0
   -0.2244    1.3663    0.3921 C   0  0  0  0  0  0  0  0  0  0  0  0
   -1.0395    2.0881   -0.1711 O   0  0  0  0  0  0  0  0  0  0  0  0
    0.6172    1.9459    1.3264 N   0  0  0  0  0  0  0  0  0  0  0  0
    1.2258    1.3260    1.8501 H   0  0  0  0  0  0  0  0  0  0  0  0
    0.5963    3.3637    1.6581 C   0  0  0  0  0  0  0  0  0  0  0  0
   -0.3798    3.6472    2.0650 H   0  0  0  0  0  0  0  0  0  0  0  0
    1.3622    3.5858    2.4070 H   0  0  0  0  0  0  0  0  0  0  0  0
    0.7977    3.9677    0.7674 H   0  0  0  0  0  0  0  0  0  0  0  0
  1  2  1  0  0  0  0
  2  3  1  0  0  0  0
  2  4  1  0  0  0  0
  2  5  1  0  0  0  0
  5  6  2  0  0  0  0
  5  7  1  0  0  0  0
  7  8  1  0  0  0  0
  7  9  1  0  0  0  0
  9 10  1  0  0  0  0
  9 11  1  0  0  0  0
  9 20  1  0  0  0  0
 11 12  1  0  0  0  0
 11 13  1  0  0  0  0
 11 14  1  0  0  0  0
 14 15  1  0  0  0  0
 14 16  1  0  0  0  0
 14 17  1  0  0  0  0
 17 18  1  0  0  0  0
 17 19  2  0  0  0  0
 20 21  2  0  0  0  0
 20 22  1  0  0  0  0
 22 23  1  0  0  0  0
 22 24  1  0  0  0  0
 24 25  1  0  0  0  0
 24 26  1  0  0  0  0
 24 27  1  0  0  0  0
M  CHG  1  18  -1
M  END
$$$$

  -OEChem-03222214043D

 27 26  0     1  0  0  0  0  0999 V2000
   -3.0593   -3.6761    1.1868 H   0  0  0  0  0  0  0  0  0  0  0  0
   -2.8891   -2.9013    0.4351 C   0  0  0  0  0  0  0  0  0  0  0  0
   -3.7958   -2.3003    0.3319 H   0  0  0  0  0  0  0  0  0  0  0  0
   -2.6731   -3.3782   -0.5250 H   0  0  0  0  0  0  0  0  0  0  0  0
   -1.7238   -2.0164    0.8390 C   0  0  0  0  0  0  0  0  0  0  0  0
   -1.0197   -2.3343    1.7920 O   0  0  0  0  0  0  0  0  0  0  0  0
   -1.4960   -0.8357    0.1659 N   0  0  0  0  0  0  0  0  0  0  0  0
   -2.0034   -0.7853   -0.7262 H   0  0  0  0  0  0  0  0  0  0  0  0
   -0.1891   -0.1598    0.1718 C   0  0  1  0  0  0  0  0  0  0  0  0
    0.4179   -0.5577    0.9891 H   0  0  0  0  0  0  0  0  0  0  0  0
    0.5197   -0.5384   -1.1427 C   0  0  0  0  0  0  0  0  0  0  0  0
    1.4995   -0.0510   -1.1561 H   0  0  0  0  0  0  0  0  0  0  0  0
    0.7009   -1.6190   -1.1634 H   0  0  0  0  0  0  0  0  0  0  0  0
   -0.2545   -0.1109   -2.4095 C   0  0  0  0  0  0  0  0  0  0  0  0
   -1.0074    0.6499   -2.1918 H   0  0  0  0  0  0  0  0  0  0  0  0
    0.4473    0.3291   -3.1241 H   0  0  0  0  0  0  0  0  0  0  0  0
   -0.9238   -1.3147   -3.0679 C   0  0  0  0  0  0  0  0  0  0  0  0
   -2.0179   -1.6852   -2.5666 O   0  5  0  0  0  0  0  0  0  0  0  0
   -0.3299   -1.8973   -4.0074 O   0  0  0  0  0  0  0  0  0  0  0  0
   -0.2493    1.3682    0.4072 C   0  0  0  0  0  0  0  0  0  0  0  0
   -1.1245    2.0866   -0.0619 O   0  0  0  0  0  0  0  0  0  0  0  0
    0.6448    1.9394    1.2972 N   0  0  0  0  0  0  0  0  0  0  0  0
    1.2966    1.3157    1.7607 H   0  0  0  0  0  0  0  0  0  0  0  0
    0.5949    3.3370    1.7031 C   0  0  0  0  0  0  0  0  0  0  0  0
   -0.3544    3.5564    2.2023 H   0  0  0  0  0  0  0  0  0  0  0  0
    1.4111    3.5559    2.3977 H   0  0  0  0  0  0  0  0  0  0  0  0
    0.6973    3.9921    0.8319 H   0  0  0  0  0  0  0  0  0  0  0  0
  1  2  1  0  0  0  0
  2  3  1  0  0  0  0
  2  4  1  0  0  0  0
  2  5  1  0  0  0  0
  5  6  2  0  0  0  0
  5  7  1  0  0  0  0
  7  8  1  0  0  0  0
  7  9  1  0  0  0  0
  9 10  1  0  0  0  0
  9 11  1  0  0  0  0
  9 20  1  0  0  0  0
 11 12  1  0  0  0  0
 11 13  1  0  0  0  0
 11 14  1  0  0  0  0
 14 15  1  0  0  0  0
 14 16  1  0  0  0  0
 14 17  1  0  0  0  0
 17 18  1  0  0  0  0
 17 19  2  0  0  0  0
 20 21  2  0  0  0  0
 20 22  1  0  0  0  0
 22 23  1  0  0  0  0
 22 24  1  0  0  0  0
 24 25  1  0  0  0  0
 24 26  1  0  0  0  0
 24 27  1  0  0  0  0
M  CHG  1  18  -1
M  END
$$$$

  -OEChem-03222214043D

 27 26  0     1  0  0  0  0  0999 V2000
   -3.0016   -3.7586    1.1225 H   0  0  0  0  0  0  0  0  0  0  0  0
   -2.9272   -2.8873    0.4671 C   0  0  0  0  0  0  0  0  0  0  0  0
   -3.8434   -2.2978    0.5511 H   0  0  0  0  0  0  0  0  0  0  0  0
   -2.8225   -3.2287   -0.5668 H   0  0  0  0  0  0  0  0  0  0  0  0
   -1.7291   -2.0367    0.8468 C   0  0  0  0  0  0  0  0  0  0  0  0
   -0.9847   -2.3969    1.7529 O   0  0  0  0  0  0  0  0  0  0  0  0
   -1.5066   -0.8472    0.1898 N   0  0  0  0  0  0  0  0  0  0  0  0
   -2.0752   -0.7356   -0.6614 H   0  0  0  0  0  0  0  0  0  0  0  0
   -0.2066   -0.1644    0.1697 C   0  0  1  0  0  0  0  0  0  0  0  0
    0.4061   -0.5618    0.9830 H   0  0  0  0  0  0  0  0  0  0  0  0
    0.5221   -0.5215   -1.1437 C   0  0  0  0  0  0  0  0  0  0  0  0
    1.4910   -0.0130   -1.1398 H   0  0  0  0  0  0  0  0  0  0  0  0
    0.7253   -1.5979   -1.1677 H   0  0  0  0  0  0  0  0  0  0  0  0
   -0.2280   -0.1151   -2.4316 C   0  0  0  0  0  0  0  0  0  0  0  0
   -0.7983    0.8055   -2.2856 H   0  0  0  0  0  0  0  0  0  0  0  0
    0.5054    0.0841   -3.2186 H   0  0  0  0  0  0  0  0  0  0  0  0
   -1.1568   -1.2296   -2.9199 C   0  0  0  0  0  0  0  0  0  0  0  0
   -2.3314   -1.2472   -2.4673 O   0  5  0  0  0  0  0  0  0  0  0  0
   -0.6709   -2.1060   -3.6754 O   0  0  0  0  0  0  0  0  0  0  0  0
   -0.2761    1.3592    0.4255 C   0  0  0  0  0  0  0  0  0  0  0  0
   -1.1583    2.0779   -0.0289 O   0  0  0  0  0  0  0  0  0  0  0  0
    0.6344    1.9294    1.2994 N   0  0  0  0  0  0  0  0  0  0  0  0
    1.3000    1.3065    1.7440 H   0  0  0  0  0  0  0  0  0  0  0  0
    0.5974    3.3287    1.7009 C   0  0  0  0  0  0  0  0  0  0  0  0
   -0.3401    3.5523    2.2202 H   0  0  0  0  0  0  0  0  0  0  0  0
    1.4297    3.5490    2.3760 H   0  0  0  0  0  0  0  0  0  0  0  0
    0.6813    3.9804    0.8252 H   0  0  0  0  0  0  0  0  0  0  0  0
  1  2  1  0  0  0  0
  2  3  1  0  0  0  0
  2  4  1  0  0  0  0
  2  5  1  0  0  0  0
  5  6  2  0  0  0  0
  5  7  1  0  0  0  0
  7  8  1  0  0  0  0
  7  9  1  0  0  0  0
  9 10  1  0  0  0  0
  9 11  1  0  0  0  0
  9 20  1  0  0  0  0
 11 12  1  0  0  0  0
 11 13  1  0  0  0  0
 11 14  1  0  0  0  0
 14 15  1  0  0  0  0
 14 16  1  0  0  0  0
 14 17  1  0  0  0  0
 17 18  1  0  0  0  0
 17 19  2  0  0  0  0
 20 21  2  0  0  0  0
 20 22  1  0  0  0  0
 22 23  1  0  0  0  0
 22 24  1  0  0  0  0
 24 25  1  0  0  0  0
 24 26  1  0  0  0  0
 24 27  1  0  0  0  0
M  CHG  1  18  -1
M  END
$$$$

  -OEChem-03222214043D

 27 26  0     1  0  0  0  0  0999 V2000
   -3.1491   -3.6803    1.1073 H   0  0  0  0  0  0  0  0  0  0  0  0
   -3.0635   -2.7859    0.4851 C   0  0  0  0  0  0  0  0  0  0  0  0
   -3.9641   -2.1789    0.6049 H   0  0  0  0  0  0  0  0  0  0  0  0
   -2.9806   -3.0890   -0.5630 H   0  0  0  0  0  0  0  0  0  0  0  0
   -1.8399   -1.9795    0.8789 C   0  0  0  0  0  0  0  0  0  0  0  0
   -1.1263   -2.3531    1.8040 O   0  0  0  0  0  0  0  0  0  0  0  0
   -1.5513   -0.8191    0.1985 N   0  0  0  0  0  0  0  0  0  0  0  0
   -2.1291   -0.6558   -0.6388 H   0  0  0  0  0  0  0  0  0  0  0  0
   -0.2407   -0.1620    0.1979 C   0  0  1  0  0  0  0  0  0  0  0  0
    0.3208   -0.5370    1.0571 H   0  0  0  0  0  0  0  0  0  0  0  0
    0.5650   -0.5769   -1.0548 C   0  0  0  0  0  0  0  0  0  0  0  0
    1.5417   -0.0858   -1.0075 H   0  0  0  0  0  0  0  0  0  0  0  0
    0.7449   -1.6567   -1.0167 H   0  0  0  0  0  0  0  0  0  0  0  0
   -0.0754   -0.2361   -2.4201 C   0  0  0  0  0  0  0  0  0  0  0  0
   -0.4223    0.8009   -2.4288 H   0  0  0  0  0  0  0  0  0  0  0  0
    0.6878   -0.3277   -3.1986 H   0  0  0  0  0  0  0  0  0  0  0  0
   -1.2379   -1.1696   -2.7791 C   0  0  0  0  0  0  0  0  0  0  0  0
   -0.9414   -2.2734   -3.2976 O   0  5  0  0  0  0  0  0  0  0  0  0
   -2.4053   -0.8287   -2.4564 O   0  0  0  0  0  0  0  0  0  0  0  0
   -0.2895    1.3700    0.3981 C   0  0  0  0  0  0  0  0  0  0  0  0
   -1.1296    2.0905   -0.1257 O   0  0  0  0  0  0  0  0  0  0  0  0
    0.6024    1.9548    1.2818 N   0  0  0  0  0  0  0  0  0  0  0  0
    1.2339    1.3357    1.7782 H   0  0  0  0  0  0  0  0  0  0  0  0
    0.5844    3.3698    1.6247 C   0  0  0  0  0  0  0  0  0  0  0  0
   -0.3733    3.6407    2.0809 H   0  0  0  0  0  0  0  0  0  0  0  0
    1.3838    3.5938    2.3370 H   0  0  0  0  0  0  0  0  0  0  0  0
    0.7366    3.9821    0.7300 H   0  0  0  0  0  0  0  0  0  0  0  0
  1  2  1  0  0  0  0
  2  3  1  0  0  0  0
  2  4  1  0  0  0  0
  2  5  1  0  0  0  0
  5  6  2  0  0  0  0
  5  7  1  0  0  0  0
  7  8  1  0  0  0  0
  7  9  1  0  0  0  0
  9 10  1  0  0  0  0
  9 11  1  0  0  0  0
  9 20  1  0  0  0  0
 11 12  1  0  0  0  0
 11 13  1  0  0  0  0
 11 14  1  0  0  0  0
 14 15  1  0  0  0  0
 14 16  1  0  0  0  0
 14 17  1  0  0  0  0
 17 18  1  0  0  0  0
 17 19  2  0  0  0  0
 20 21  2  0  0  0  0
 20 22  1  0  0  0  0
 22 23  1  0  0  0  0
 22 24  1  0  0  0  0
 24 25  1  0  0  0  0
 24 26  1  0  0  0  0
 24 27  1  0  0  0  0
M  CHG  1  18  -1
M  END
$$$$

  -OEChem-03222214043D

 27 26  0     1  0  0  0  0  0999 V2000
   -3.2004   -3.5885    1.4107 H   0  0  0  0  0  0  0  0  0  0  0  0
   -3.0231   -2.8443    0.6305 C   0  0  0  0  0  0  0  0  0  0  0  0
   -3.8999   -2.1970    0.5513 H   0  0  0  0  0  0  0  0  0  0  0  0
   -2.8780   -3.3571   -0.3242 H   0  0  0  0  0  0  0  0  0  0  0  0
   -1.7950   -2.0136    0.9581 C   0  0  0  0  0  0  0  0  0  0  0  0
   -1.0663   -2.3463    1.8879 O   0  0  0  0  0  0  0  0  0  0  0  0
   -1.5517   -0.8530    0.2562 N   0  0  0  0  0  0  0  0  0  0  0  0
   -2.0872   -0.8032   -0.6158 H   0  0  0  0  0  0  0  0  0  0  0  0
   -0.2325   -0.2093    0.2151 C   0  0  1  0  0  0  0  0  0  0  0  0
    0.3679   -0.5934    1.0434 H   0  0  0  0  0  0  0  0  0  0  0  0
    0.5353   -0.5580   -1.0850 C   0  0  0  0  0  0  0  0  0  0  0  0
    1.5238   -0.0917   -1.0312 H   0  0  0  0  0  0  0  0  0  0  0  0
    0.6920   -1.6417   -1.0957 H   0  0  0  0  0  0  0  0  0  0  0  0
   -0.0996   -0.1632   -2.4460 C   0  0  0  0  0  0  0  0  0  0  0  0
   -0.1820    0.9272   -2.4815 H   0  0  0  0  0  0  0  0  0  0  0  0
    0.5935   -0.4639   -3.2363 H   0  0  0  0  0  0  0  0  0  0  0  0
   -1.4714   -0.7532   -2.7992 C   0  0  0  0  0  0  0  0  0  0  0  0
   -1.7861   -1.8729   -2.3212 O   0  5  0  0  0  0  0  0  0  0  0  0
   -2.1937   -0.0982   -3.5864 O   0  0  0  0  0  0  0  0  0  0  0  0
   -0.2951    1.3205    0.4224 C   0  0  0  0  0  0  0  0  0  0  0  0
   -1.1702    2.0228   -0.0670 O   0  0  0  0  0  0  0  0  0  0  0  0
    0.6120    1.9189    1.2813 N   0  0  0  0  0  0  0  0  0  0  0  0
    1.2657    1.3097    1.7607 H   0  0  0  0  0  0  0  0  0  0  0  0
    0.5691    3.3305    1.6367 C   0  0  0  0  0  0  0  0  0  0  0  0
   -0.3579    3.5609    2.1715 H   0  0  0  0  0  0  0  0  0  0  0  0
    1.4156    3.5816    2.2824 H   0  0  0  0  0  0  0  0  0  0  0  0
    0.6241    3.9541    0.7385 H   0  0  0  0  0  0  0  0  0  0  0  0
  1  2  1  0  0  0  0
  2  3  1  0  0  0  0
  2  4  1  0  0  0  0
  2  5  1  0  0  0  0
  5  6  2  0  0  0  0
  5  7  1  0  0  0  0
  7  8  1  0  0  0  0
  7  9  1  0  0  0  0
  9 10  1  0  0  0  0
  9 11  1  0  0  0  0
  9 20  1  0  0  0  0
 11 12  1  0  0  0  0
 11 13  1  0  0  0  0
 11 14  1  0  0  0  0
 14 15  1  0  0  0  0
 14 16  1  0  0  0  0
 14 17  1  0  0  0  0
 17 18  1  0  0  0  0
 17 19  2  0  0  0  0
 20 21  2  0  0  0  0
 20 22  1  0  0  0  0
 22 23  1  0  0  0  0
 22 24  1  0  0  0  0
 24 25  1  0  0  0  0
 24 26  1  0  0  0  0
 24 27  1  0  0  0  0
M  CHG  1  18  -1
M  END
$$$$

  -OEChem-03222214043D

 27 26  0     1  0  0  0  0  0999 V2000
   -3.1113   -3.6896    1.3702 H   0  0  0  0  0  0  0  0  0  0  0  0
   -3.0291   -2.8493    0.6764 C   0  0  0  0  0  0  0  0  0  0  0  0
   -3.9225   -2.2264    0.7635 H   0  0  0  0  0  0  0  0  0  0  0  0
   -2.9687   -3.2366   -0.3444 H   0  0  0  0  0  0  0  0  0  0  0  0
   -1.7928   -2.0238    0.9851 C   0  0  0  0  0  0  0  0  0  0  0  0
   -1.0318   -2.3790    1.8799 O   0  0  0  0  0  0  0  0  0  0  0  0
   -1.5651   -0.8561    0.2909 N   0  0  0  0  0  0  0  0  0  0  0  0
   -2.1326   -0.7832   -0.5617 H   0  0  0  0  0  0  0  0  0  0  0  0
   -0.2532   -0.2008    0.2277 C   0  0  1  0  0  0  0  0  0  0  0  0
    0.3580   -0.5840    1.0484 H   0  0  0  0  0  0  0  0  0  0  0  0
    0.5141   -0.5345   -1.0765 C   0  0  0  0  0  0  0  0  0  0  0  0
    1.5066   -0.0772   -1.0176 H   0  0  0  0  0  0  0  0  0  0  0  0
    0.6613   -1.6195   -1.0811 H   0  0  0  0  0  0  0  0  0  0  0  0
   -0.0967   -0.1634   -2.4571 C   0  0  0  0  0  0  0  0  0  0  0  0
    0.0427    0.9137   -2.5917 H   0  0  0  0  0  0  0  0  0  0  0  0
    0.4904   -0.6660   -3.2306 H   0  0  0  0  0  0  0  0  0  0  0  0
   -1.5763   -0.4647   -2.7323 C   0  0  0  0  0  0  0  0  0  0  0  0
   -2.0496   -1.5521   -2.3112 O   0  5  0  0  0  0  0  0  0  0  0  0
   -2.2084    0.3443   -3.4509 O   0  0  0  0  0  0  0  0  0  0  0  0
   -0.3165    1.3266    0.4474 C   0  0  0  0  0  0  0  0  0  0  0  0
   -1.2027    2.0303   -0.0173 O   0  0  0  0  0  0  0  0  0  0  0  0
    0.6077    1.9198    1.2912 N   0  0  0  0  0  0  0  0  0  0  0  0
    1.2849    1.3117    1.7378 H   0  0  0  0  0  0  0  0  0  0  0  0
    0.5885    3.3341    1.6366 C   0  0  0  0  0  0  0  0  0  0  0  0
   -0.3359    3.5850    2.1669 H   0  0  0  0  0  0  0  0  0  0  0  0
    1.4370    3.5746    2.2839 H   0  0  0  0  0  0  0  0  0  0  0  0
    0.6576    3.9493    0.7334 H   0  0  0  0  0  0  0  0  0  0  0  0
  1  2  1  0  0  0  0
  2  3  1  0  0  0  0
  2  4  1  0  0  0  0
  2  5  1  0  0  0  0
  5  6  2  0  0  0  0
  5  7  1  0  0  0  0
  7  8  1  0  0  0  0
  7  9  1  0  0  0  0
  9 10  1  0  0  0  0
  9 11  1  0  0  0  0
  9 20  1  0  0  0  0
 11 12  1  0  0  0  0
 11 13  1  0  0  0  0
 11 14  1  0  0  0  0
 14 15  1  0  0  0  0
 14 16  1  0  0  0  0
 14 17  1  0  0  0  0
 17 18  1  0  0  0  0
 17 19  2  0  0  0  0
 20 21  2  0  0  0  0
 20 22  1  0  0  0  0
 22 23  1  0  0  0  0
 22 24  1  0  0  0  0
 24 25  1  0  0  0  0
 24 26  1  0  0  0  0
 24 27  1  0  0  0  0
M  CHG  1  18  -1
M  END
$$$$

  -OEChem-03222214043D

 27 26  0     1  0  0  0  0  0999 V2000
   -3.0255   -3.7588    1.2686 H   0  0  0  0  0  0  0  0  0  0  0  0
   -3.0243   -2.8305    0.6920 C   0  0  0  0  0  0  0  0  0  0  0  0
   -3.9054   -2.2424    0.9599 H   0  0  0  0  0  0  0  0  0  0  0  0
   -3.0745   -3.0746   -0.3729 H   0  0  0  0  0  0  0  0  0  0  0  0
   -1.7653   -2.0309    0.9746 C   0  0  0  0  0  0  0  0  0  0  0  0
   -0.9627   -2.4318    1.8117 O   0  0  0  0  0  0  0  0  0  0  0  0
   -1.5525   -0.8482    0.3036 N   0  0  0  0  0  0  0  0  0  0  0  0
   -2.1700   -0.7191   -0.5083 H   0  0  0  0  0  0  0  0  0  0  0  0
   -0.2515   -0.1766    0.2167 C   0  0  1  0  0  0  0  0  0  0  0  0
    0.3724   -0.5634    1.0259 H   0  0  0  0  0  0  0  0  0  0  0  0
    0.5009   -0.5125   -1.0948 C   0  0  0  0  0  0  0  0  0  0  0  0
    1.4942   -0.0558   -1.0483 H   0  0  0  0  0  0  0  0  0  0  0  0
    0.6507   -1.5971   -1.0834 H   0  0  0  0  0  0  0  0  0  0  0  0
   -0.1096   -0.1755   -2.4860 C   0  0  0  0  0  0  0  0  0  0  0  0
    0.2466    0.8252   -2.7497 H   0  0  0  0  0  0  0  0  0  0  0  0
    0.3138   -0.8694   -3.2175 H   0  0  0  0  0  0  0  0  0  0  0  0
   -1.6322   -0.1656   -2.6833 C   0  0  0  0  0  0  0  0  0  0  0  0
   -2.2830   -1.1729   -2.2988 O   0  5  0  0  0  0  0  0  0  0  0  0
   -2.1227    0.7765   -3.3492 O   0  0  0  0  0  0  0  0  0  0  0  0
   -0.3133    1.3466    0.4666 C   0  0  0  0  0  0  0  0  0  0  0  0
   -1.2414    2.0450    0.0852 O   0  0  0  0  0  0  0  0  0  0  0  0
    0.6340    1.9281    1.2937 N   0  0  0  0  0  0  0  0  0  0  0  0
    1.3391    1.3180    1.6913 H   0  0  0  0  0  0  0  0  0  0  0  0
    0.5887    3.3228    1.7110 C   0  0  0  0  0  0  0  0  0  0  0  0
   -0.3031    3.5109    2.3175 H   0  0  0  0  0  0  0  0  0  0  0  0
    1.4727    3.5654    2.3078 H   0  0  0  0  0  0  0  0  0  0  0  0
    0.5693    3.9840    0.8385 H   0  0  0  0  0  0  0  0  0  0  0  0
  1  2  1  0  0  0  0
  2  3  1  0  0  0  0
  2  4  1  0  0  0  0
  2  5  1  0  0  0  0
  5  6  2  0  0  0  0
  5  7  1  0  0  0  0
  7  8  1  0  0  0  0
  7  9  1  0  0  0  0
  9 10  1  0  0  0  0
  9 11  1  0  0  0  0
  9 20  1  0  0  0  0
 11 12  1  0  0  0  0
 11 13  1  0  0  0  0
 11 14  1  0  0  0  0
 14 15  1  0  0  0  0
 14 16  1  0  0  0  0
 14 17  1  0  0  0  0
 17 18  1  0  0  0  0
 17 19  2  0  0  0  0
 20 21  2  0  0  0  0
 20 22  1  0  0  0  0
 22 23  1  0  0  0  0
 22 24  1  0  0  0  0
 24 25  1  0  0  0  0
 24 26  1  0  0  0  0
 24 27  1  0  0  0  0
M  CHG  1  18  -1
M  END
$$$$

  -OEChem-03222214043D

 27 26  0     1  0  0  0  0  0999 V2000
   -3.0729   -3.7864    1.0659 H   0  0  0  0  0  0  0  0  0  0  0  0
   -3.0703   -2.8099    0.5748 C   0  0  0  0  0  0  0  0  0  0  0  0
   -3.9273   -2.2304    0.9266 H   0  0  0  0  0  0  0  0  0  0  0  0
   -3.1632   -2.9547   -0.5053 H   0  0  0  0  0  0  0  0  0  0  0  0
   -1.7842   -2.0640    0.8799 C   0  0  0  0  0  0  0  0  0  0  0  0
   -0.9653   -2.5442    1.6566 O   0  0  0  0  0  0  0  0  0  0  0  0
   -1.5564   -0.8499    0.2763 N   0  0  0  0  0  0  0  0  0  0  0  0
   -2.2070   -0.6220   -0.4883 H   0  0  0  0  0  0  0  0  0  0  0  0
   -0.2605   -0.1696    0.2183 C   0  0  1  0  0  0  0  0  0  0  0  0
    0.3537   -0.5902    1.0185 H   0  0  0  0  0  0  0  0  0  0  0  0
    0.4994   -0.4790   -1.0931 C   0  0  0  0  0  0  0  0  0  0  0  0
    1.4887   -0.0149   -1.0291 H   0  0  0  0  0  0  0  0  0  0  0  0
    0.6612   -1.5618   -1.0972 H   0  0  0  0  0  0  0  0  0  0  0  0
   -0.0972   -0.1242   -2.4869 C   0  0  0  0  0  0  0  0  0  0  0  0
    0.4639    0.7417   -2.8520 H   0  0  0  0  0  0  0  0  0  0  0  0
    0.1221   -0.9474   -3.1727 H   0  0  0  0  0  0  0  0  0  0  0  0
   -1.5857    0.2223   -2.6463 C   0  0  0  0  0  0  0  0  0  0  0  0
   -1.8655    1.2692   -3.2780 O   0  5  0  0  0  0  0  0  0  0  0  0
   -2.4335   -0.6383   -2.2866 O   0  0  0  0  0  0  0  0  0  0  0  0
   -0.3114    1.3398    0.5428 C   0  0  0  0  0  0  0  0  0  0  0  0
   -1.2586    2.0514    0.2426 O   0  0  0  0  0  0  0  0  0  0  0  0
    0.6463    1.8718    1.3911 N   0  0  0  0  0  0  0  0  0  0  0  0
    1.3874    1.2543    1.7019 H   0  0  0  0  0  0  0  0  0  0  0  0
    0.6316    3.2520    1.8549 C   0  0  0  0  0  0  0  0  0  0  0  0
   -0.2753    3.4507    2.4350 H   0  0  0  0  0  0  0  0  0  0  0  0
    1.4998    3.4439    2.4920 H   0  0  0  0  0  0  0  0  0  0  0  0
    0.6668    3.9409    1.0046 H   0  0  0  0  0  0  0  0  0  0  0  0
  1  2  1  0  0  0  0
  2  3  1  0  0  0  0
  2  4  1  0  0  0  0
  2  5  1  0  0  0  0
  5  6  2  0  0  0  0
  5  7  1  0  0  0  0
  7  8  1  0  0  0  0
  7  9  1  0  0  0  0
  9 10  1  0  0  0  0
  9 11  1  0  0  0  0
  9 20  1  0  0  0  0
 11 12  1  0  0  0  0
 11 13  1  0  0  0  0
 11 14  1  0  0  0  0
 14 15  1  0  0  0  0
 14 16  1  0  0  0  0
 14 17  1  0  0  0  0
 17 18  1  0  0  0  0
 17 19  2  0  0  0  0
 20 21  2  0  0  0  0
 20 22  1  0  0  0  0
 22 23  1  0  0  0  0
 22 24  1  0  0  0  0
 24 25  1  0  0  0  0
 24 26  1  0  0  0  0
 24 27  1  0  0  0  0
M  CHG  1  18  -1
M  END
$$$$

  -OEChem-03222214043D

 27 26  0     1  0  0  0  0  0999 V2000
   -3.0268   -3.7451    1.1737 H   0  0  0  0  0  0  0  0  0  0  0  0
   -3.0414   -2.7758    0.6688 C   0  0  0  0  0  0  0  0  0  0  0  0
   -3.8830   -2.1895    1.0458 H   0  0  0  0  0  0  0  0  0  0  0  0
   -3.1767   -2.9360   -0.4045 H   0  0  0  0  0  0  0  0  0  0  0  0
   -1.7427   -2.0297    0.9147 C   0  0  0  0  0  0  0  0  0  0  0  0
   -0.8930   -2.5066    1.6591 O   0  0  0  0  0  0  0  0  0  0  0  0
   -1.5337   -0.8249    0.2868 N   0  0  0  0  0  0  0  0  0  0  0  0
   -2.2194   -0.5749   -0.4406 H   0  0  0  0  0  0  0  0  0  0  0  0
   -0.2539   -0.1174    0.2011 C   0  0  1  0  0  0  0  0  0  0  0  0
    0.3612   -0.4995    1.0197 H   0  0  0  0  0  0  0  0  0  0  0  0
    0.5102   -0.5002   -1.0854 C   0  0  0  0  0  0  0  0  0  0  0  0
    1.4761    0.0136   -1.0578 H   0  0  0  0  0  0  0  0  0  0  0  0
    0.7233   -1.5724   -1.0219 H   0  0  0  0  0  0  0  0  0  0  0  0
   -0.1117   -0.2448   -2.4870 C   0  0  0  0  0  0  0  0  0  0  0  0
    0.5882    0.3818   -3.0485 H   0  0  0  0  0  0  0  0  0  0  0  0
   -0.1597   -1.2049   -3.0091 H   0  0  0  0  0  0  0  0  0  0  0  0
   -1.5024    0.3926   -2.6025 C   0  0  0  0  0  0  0  0  0  0  0  0
   -2.4906   -0.3004   -2.2369 O   0  5  0  0  0  0  0  0  0  0  0  0
   -1.5837    1.4833   -3.2171 O   0  0  0  0  0  0  0  0  0  0  0  0
   -0.3146    1.4003    0.4902 C   0  0  0  0  0  0  0  0  0  0  0  0
   -1.3065    2.0770    0.2642 O   0  0  0  0  0  0  0  0  0  0  0  0
    0.6525    1.9553    1.3135 N   0  0  0  0  0  0  0  0  0  0  0  0
    1.4352    1.3665    1.5734 H   0  0  0  0  0  0  0  0  0  0  0  0
    0.6199    3.3359    1.7761 C   0  0  0  0  0  0  0  0  0  0  0  0
   -0.2634    3.5098    2.3991 H   0  0  0  0  0  0  0  0  0  0  0  0
    1.5119    3.5547    2.3701 H   0  0  0  0  0  0  0  0  0  0  0  0
    0.5940    4.0235    0.9243 H   0  0  0  0  0  0  0  0  0  0  0  0
  1  2  1  0  0  0  0
  2  3  1  0  0  0  0
  2  4  1  0  0  0  0
  2  5  1  0  0  0  0
  5  6  2  0  0  0  0
  5  7  1  0  0  0  0
  7  8  1  0  0  0  0
  7  9  1  0  0  0  0
  9 10  1  0  0  0  0
  9 11  1  0  0  0  0
  9 20  1  0  0  0  0
 11 12  1  0  0  0  0
 11 13  1  0  0  0  0
 11 14  1  0  0  0  0
 14 15  1  0  0  0  0
 14 16  1  0  0  0  0
 14 17  1  0  0  0  0
 17 18  1  0  0  0  0
 17 19  2  0  0  0  0
 20 21  2  0  0  0  0
 20 22  1  0  0  0  0
 22 23  1  0  0  0  0
 22 24  1  0  0  0  0
 24 25  1  0  0  0  0
 24 26  1  0  0  0  0
 24 27  1  0  0  0  0
M  CHG  1  18  -1
M  END
$$$$

  -OEChem-03222214043D

 27 26  0     1  0  0  0  0  0999 V2000
   -2.8761   -3.6109    1.6600 H   0  0  0  0  0  0  0  0  0  0  0  0
   -2.9417   -2.6781    1.0941 C   0  0  0  0  0  0  0  0  0  0  0  0
   -3.7230   -2.0507    1.5301 H   0  0  0  0  0  0  0  0  0  0  0  0
   -3.2103   -2.9081    0.0594 H   0  0  0  0  0  0  0  0  0  0  0  0
   -1.6140   -1.9435    1.1264 C   0  0  0  0  0  0  0  0  0  0  0  0
   -0.6813   -2.3895    1.7850 O   0  0  0  0  0  0  0  0  0  0  0  0
   -1.4742   -0.7851    0.4006 N   0  0  0  0  0  0  0  0  0  0  0  0
   -2.2462   -0.5407   -0.2368 H   0  0  0  0  0  0  0  0  0  0  0  0
   -0.2251   -0.0634    0.1477 C   0  0  1  0  0  0  0  0  0  0  0  0
    0.4521   -0.3621    0.9520 H   0  0  0  0  0  0  0  0  0  0  0  0
    0.4545   -0.5828   -1.1365 C   0  0  0  0  0  0  0  0  0  0  0  0
    1.3895   -0.0263   -1.2539 H   0  0  0  0  0  0  0  0  0  0  0  0
    0.7265   -1.6313   -0.9777 H   0  0  0  0  0  0  0  0  0  0  0  0
   -0.3089   -0.4931   -2.4813 C   0  0  0  0  0  0  0  0  0  0  0  0
    0.3965   -0.1825   -3.2581 H   0  0  0  0  0  0  0  0  0  0  0  0
   -0.6390   -1.5030   -2.7428 H   0  0  0  0  0  0  0  0  0  0  0  0
   -1.5435    0.4064   -2.5552 C   0  0  0  0  0  0  0  0  0  0  0  0
   -2.6147   -0.0558   -2.0763 O   0  5  0  0  0  0  0  0  0  0  0  0
   -1.4430    1.4768   -3.2020 O   0  0  0  0  0  0  0  0  0  0  0  0
   -0.2831    1.4732    0.3284 C   0  0  0  0  0  0  0  0  0  0  0  0
   -1.3284    2.1017    0.2462 O   0  0  0  0  0  0  0  0  0  0  0  0
    0.7512    2.0908    1.0148 N   0  0  0  0  0  0  0  0  0  0  0  0
    1.6049    1.5593    1.1375 H   0  0  0  0  0  0  0  0  0  0  0  0
    0.7370    3.4975    1.3929 C   0  0  0  0  0  0  0  0  0  0  0  0
    0.6228    4.1299    0.5065 H   0  0  0  0  0  0  0  0  0  0  0  0
    1.6747    3.7624    1.8897 H   0  0  0  0  0  0  0  0  0  0  0  0
   -0.0889    3.7007    2.0822 H   0  0  0  0  0  0  0  0  0  0  0  0
  1  2  1  0  0  0  0
  2  3  1  0  0  0  0
  2  4  1  0  0  0  0
  2  5  1  0  0  0  0
  5  6  2  0  0  0  0
  5  7  1  0  0  0  0
  7  8  1  0  0  0  0
  7  9  1  0  0  0  0
  9 10  1  0  0  0  0
  9 11  1  0  0  0  0
  9 20  1  0  0  0  0
 11 12  1  0  0  0  0
 11 13  1  0  0  0  0
 11 14  1  0  0  0  0
 14 15  1  0  0  0  0
 14 16  1  0  0  0  0
 14 17  1  0  0  0  0
 17 18  1  0  0  0  0
 17 19  2  0  0  0  0
 20 21  2  0  0  0  0
 20 22  1  0  0  0  0
 22 23  1  0  0  0  0
 22 24  1  0  0  0  0
 24 25  1  0  0  0  0
 24 26  1  0  0  0  0
 24 27  1  0  0  0  0
M  CHG  1  18  -1
M  END
$$$$

  -OEChem-03222214043D

 27 26  0     1  0  0  0  0  0999 V2000
   -3.1186   -3.6594    1.1170 H   0  0  0  0  0  0  0  0  0  0  0  0
   -3.0969   -2.7004    0.5931 C   0  0  0  0  0  0  0  0  0  0  0  0
   -3.9117   -2.0740    0.9642 H   0  0  0  0  0  0  0  0  0  0  0  0
   -3.2443   -2.8765   -0.4756 H   0  0  0  0  0  0  0  0  0  0  0  0
   -1.7679   -2.0033    0.8207 C   0  0  0  0  0  0  0  0  0  0  0  0
   -0.9298   -2.5093    1.5573 O   0  0  0  0  0  0  0  0  0  0  0  0
   -1.5211   -0.8084    0.1870 N   0  0  0  0  0  0  0  0  0  0  0  0
   -2.2189   -0.4746   -0.4876 H   0  0  0  0  0  0  0  0  0  0  0  0
   -0.2576   -0.0671    0.1800 C   0  0  1  0  0  0  0  0  0  0  0  0
    0.2681   -0.3903    1.0825 H   0  0  0  0  0  0  0  0  0  0  0  0
    0.6556   -0.5475   -0.9673 C   0  0  0  0  0  0  0  0  0  0  0  0
    1.5821    0.0323   -0.9098 H   0  0  0  0  0  0  0  0  0  0  0  0
    0.9197   -1.5955   -0.7927 H   0  0  0  0  0  0  0  0  0  0  0  0
    0.1178   -0.4221   -2.4073 C   0  0  0  0  0  0  0  0  0  0  0  0
    0.9636   -0.3364   -3.0956 H   0  0  0  0  0  0  0  0  0  0  0  0
   -0.3998   -1.3538   -2.6553 H   0  0  0  0  0  0  0  0  0  0  0  0
   -0.8530    0.7218   -2.6730 C   0  0  0  0  0  0  0  0  0  0  0  0
   -2.0793    0.4587   -2.5635 O   0  5  0  0  0  0  0  0  0  0  0  0
   -0.3714    1.8255   -3.0278 O   0  0  0  0  0  0  0  0  0  0  0  0
   -0.3803    1.4585    0.4246 C   0  0  0  0  0  0  0  0  0  0  0  0
   -1.4498    2.0391    0.2927 O   0  0  0  0  0  0  0  0  0  0  0  0
    0.5154    2.0489    1.3035 N   0  0  0  0  0  0  0  0  0  0  0  0
    1.3970    1.5687    1.4390 H   0  0  0  0  0  0  0  0  0  0  0  0
    0.4011    3.4324    1.7457 C   0  0  0  0  0  0  0  0  0  0  0  0
   -0.5082    3.5705    2.3394 H   0  0  0  0  0  0  0  0  0  0  0  0
    1.2618    3.7013    2.3647 H   0  0  0  0  0  0  0  0  0  0  0  0
    0.3679    4.1078    0.8844 H   0  0  0  0  0  0  0  0  0  0  0  0
  1  2  1  0  0  0  0
  2  3  1  0  0  0  0
  2  4  1  0  0  0  0
  2  5  1  0  0  0  0
  5  6  2  0  0  0  0
  5  7  1  0  0  0  0
  7  8  1  0  0  0  0
  7  9  1  0  0  0  0
  9 10  1  0  0  0  0
  9 11  1  0  0  0  0
  9 20  1  0  0  0  0
 11 12  1  0  0  0  0
 11 13  1  0  0  0  0
 11 14  1  0  0  0  0
 14 15  1  0  0  0  0
 14 16  1  0  0  0  0
 14 17  1  0  0  0  0
 17 18  1  0  0  0  0
 17 19  2  0  0  0  0
 20 21  2  0  0  0  0
 20 22  1  0  0  0  0
 22 23  1  0  0  0  0
 22 24  1  0  0  0  0
 24 25  1  0  0  0  0
 24 26  1  0  0  0  0
 24 27  1  0  0  0  0
M  CHG  1  18  -1
M  END
$$$$

  -OEChem-03222214043D

 27 26  0     1  0  0  0  0  0999 V2000
   -3.2766   -3.5926    1.0359 H   0  0  0  0  0  0  0  0  0  0  0  0
   -3.1956   -2.6395    0.5064 C   0  0  0  0  0  0  0  0  0  0  0  0
   -3.9397   -1.9468    0.9077 H   0  0  0  0  0  0  0  0  0  0  0  0
   -3.4004   -2.8053   -0.5544 H   0  0  0  0  0  0  0  0  0  0  0  0
   -1.8038   -2.0576    0.6772 C   0  0  0  0  0  0  0  0  0  0  0  0
   -0.9672   -2.6618    1.3359 O   0  0  0  0  0  0  0  0  0  0  0  0
   -1.5032   -0.8483    0.0940 N   0  0  0  0  0  0  0  0  0  0  0  0
   -2.2424   -0.3665   -0.4199 H   0  0  0  0  0  0  0  0  0  0  0  0
   -0.2166   -0.1466    0.1668 C   0  0  1  0  0  0  0  0  0  0  0  0
    0.2850   -0.5152    1.0659 H   0  0  0  0  0  0  0  0  0  0  0  0
    0.7127   -0.5641   -0.9936 C   0  0  0  0  0  0  0  0  0  0  0  0
    1.6577   -0.0269   -0.8649 H   0  0  0  0  0  0  0  0  0  0  0  0
    0.9314   -1.6321   -0.8942 H   0  0  0  0  0  0  0  0  0  0  0  0
    0.2292   -0.3118   -2.4351 C   0  0  0  0  0  0  0  0  0  0  0  0
    1.0719   -0.4493   -3.1185 H   0  0  0  0  0  0  0  0  0  0  0  0
   -0.5189   -1.0713   -2.6822 H   0  0  0  0  0  0  0  0  0  0  0  0
   -0.3827    1.0612   -2.6918 C   0  0  0  0  0  0  0  0  0  0  0  0
    0.3667    2.0541   -2.5087 O   0  5  0  0  0  0  0  0  0  0  0  0
   -1.5524    1.1083   -3.1466 O   0  0  0  0  0  0  0  0  0  0  0  0
   -0.3815    1.3651    0.4638 C   0  0  0  0  0  0  0  0  0  0  0  0
   -1.4841    1.8880    0.3326 O   0  0  0  0  0  0  0  0  0  0  0  0
    0.4532    1.9431    1.4073 N   0  0  0  0  0  0  0  0  0  0  0  0
    1.3812    1.5406    1.4660 H   0  0  0  0  0  0  0  0  0  0  0  0
    0.2841    3.3207    1.8504 C   0  0  0  0  0  0  0  0  0  0  0  0
   -0.6659    3.4403    2.3811 H   0  0  0  0  0  0  0  0  0  0  0  0
    1.0951    3.5983    2.5298 H   0  0  0  0  0  0  0  0  0  0  0  0
    0.2996    4.0021    0.9931 H   0  0  0  0  0  0  0  0  0  0  0  0
  1  2  1  0  0  0  0
  2  3  1  0  0  0  0
  2  4  1  0  0  0  0
  2  5  1  0  0  0  0
  5  6  2  0  0  0  0
  5  7  1  0  0  0  0
  7  8  1  0  0  0  0
  7  9  1  0  0  0  0
  9 10  1  0  0  0  0
  9 11  1  0  0  0  0
  9 20  1  0  0  0  0
 11 12  1  0  0  0  0
 11 13  1  0  0  0  0
 11 14  1  0  0  0  0
 14 15  1  0  0  0  0
 14 16  1  0  0  0  0
 14 17  1  0  0  0  0
 17 18  1  0  0  0  0
 17 19  2  0  0  0  0
 20 21  2  0  0  0  0
 20 22  1  0  0  0  0
 22 23  1  0  0  0  0
 22 24  1  0  0  0  0
 24 25  1  0  0  0  0
 24 26  1  0  0  0  0
 24 27  1  0  0  0  0
M  CHG  1  18  -1
M  END
$$$$

  -OEChem-03222214043D

 27 26  0     1  0  0  0  0  0999 V2000
   -3.2290   -3.5815    1.1971 H   0  0  0  0  0  0  0  0  0  0  0  0
   -3.1583   -2.6392    0.6471 C   0  0  0  0  0  0  0  0  0  0  0  0
   -3.8450   -1.9161    1.0947 H   0  0  0  0  0  0  0  0  0  0  0  0
   -3.4515   -2.8120   -0.3915 H   0  0  0  0  0  0  0  0  0  0  0  0
   -1.7386   -2.1034    0.6982 C   0  0  0  0  0  0  0  0  0  0  0  0
   -0.8652   -2.7430    1.2690 O   0  0  0  0  0  0  0  0  0  0  0  0
   -1.4566   -0.8922    0.1097 N   0  0  0  0  0  0  0  0  0  0  0  0
   -2.2346   -0.3559   -0.2744 H   0  0  0  0  0  0  0  0  0  0  0  0
   -0.1596   -0.2038    0.1304 C   0  0  1  0  0  0  0  0  0  0  0  0
    0.4015   -0.5901    0.9859 H   0  0  0  0  0  0  0  0  0  0  0  0
    0.6841   -0.5626   -1.1117 C   0  0  0  0  0  0  0  0  0  0  0  0
    1.6544   -0.0637   -1.0206 H   0  0  0  0  0  0  0  0  0  0  0  0
    0.8742   -1.6402   -1.0898 H   0  0  0  0  0  0  0  0  0  0  0  0
    0.0941   -0.2184   -2.4947 C   0  0  0  0  0  0  0  0  0  0  0  0
    0.7960   -0.5504   -3.2645 H   0  0  0  0  0  0  0  0  0  0  0  0
   -0.8357   -0.7781   -2.6321 H   0  0  0  0  0  0  0  0  0  0  0  0
   -0.1852    1.2677   -2.7216 C   0  0  0  0  0  0  0  0  0  0  0  0
    0.6929    2.0803   -2.3297 O   0  5  0  0  0  0  0  0  0  0  0  0
   -1.2047    1.5746   -3.3867 O   0  0  0  0  0  0  0  0  0  0  0  0
   -0.3407    1.3011    0.4491 C   0  0  0  0  0  0  0  0  0  0  0  0
   -1.4589    1.8000    0.3400 O   0  0  0  0  0  0  0  0  0  0  0  0
    0.5137    1.8938    1.3641 N   0  0  0  0  0  0  0  0  0  0  0  0
    1.4616    1.5352    1.3473 H   0  0  0  0  0  0  0  0  0  0  0  0
    0.3299    3.2727    1.7969 C   0  0  0  0  0  0  0  0  0  0  0  0
   -0.6107    3.3808    2.3464 H   0  0  0  0  0  0  0  0  0  0  0  0
    1.1498    3.5716    2.4562 H   0  0  0  0  0  0  0  0  0  0  0  0
    0.3150    3.9452    0.9325 H   0  0  0  0  0  0  0  0  0  0  0  0
  1  2  1  0  0  0  0
  2  3  1  0  0  0  0
  2  4  1  0  0  0  0
  2  5  1  0  0  0  0
  5  6  2  0  0  0  0
  5  7  1  0  0  0  0
  7  8  1  0  0  0  0
  7  9  1  0  0  0  0
  9 10  1  0  0  0  0
  9 11  1  0  0  0  0
  9 20  1  0  0  0  0
 11 12  1  0  0  0  0
 11 13  1  0  0  0  0
 11 14  1  0  0  0  0
 14 15  1  0  0  0  0
 14 16  1  0  0  0  0
 14 17  1  0  0  0  0
 17 18  1  0  0  0  0
 17 19  2  0  0  0  0
 20 21  2  0  0  0  0
 20 22  1  0  0  0  0
 22 23  1  0  0  0  0
 22 24  1  0  0  0  0
 24 25  1  0  0  0  0
 24 26  1  0  0  0  0
 24 27  1  0  0  0  0
M  CHG  1  18  -1
M  END
$$$$

  -OEChem-03222214043D

 27 26  0     1  0  0  0  0  0999 V2000
   -3.2427   -3.5674    1.2586 H   0  0  0  0  0  0  0  0  0  0  0  0
   -3.1599   -2.6425    0.6812 C   0  0  0  0  0  0  0  0  0  0  0  0
   -3.8358   -1.8974    1.1086 H   0  0  0  0  0  0  0  0  0  0  0  0
   -3.4578   -2.8417   -0.3513 H   0  0  0  0  0  0  0  0  0  0  0  0
   -1.7325   -2.1258    0.7145 C   0  0  0  0  0  0  0  0  0  0  0  0
   -0.8647   -2.7695    1.2885 O   0  0  0  0  0  0  0  0  0  0  0  0
   -1.4371   -0.9276    0.1059 N   0  0  0  0  0  0  0  0  0  0  0  0
   -2.2127   -0.3756   -0.2599 H   0  0  0  0  0  0  0  0  0  0  0  0
   -0.1334   -0.2504    0.1307 C   0  0  1  0  0  0  0  0  0  0  0  0
    0.4337   -0.6344    0.9836 H   0  0  0  0  0  0  0  0  0  0  0  0
    0.6998   -0.5742   -1.1254 C   0  0  0  0  0  0  0  0  0  0  0  0
    1.6908   -0.1195   -1.0266 H   0  0  0  0  0  0  0  0  0  0  0  0
    0.8517   -1.6578   -1.1451 H   0  0  0  0  0  0  0  0  0  0  0  0
    0.0777   -0.1700   -2.4795 C   0  0  0  0  0  0  0  0  0  0  0  0
    0.6261   -0.6828   -3.2744 H   0  0  0  0  0  0  0  0  0  0  0  0
   -0.9614   -0.5078   -2.5231 H   0  0  0  0  0  0  0  0  0  0  0  0
    0.1333    1.3334   -2.7787 C   0  0  0  0  0  0  0  0  0  0  0  0
    1.0455    2.0126   -2.2366 O   0  5  0  0  0  0  0  0  0  0  0  0
   -0.6703    1.7726   -3.6373 O   0  0  0  0  0  0  0  0  0  0  0  0
   -0.3290    1.2578    0.4212 C   0  0  0  0  0  0  0  0  0  0  0  0
   -1.4406    1.7554    0.2469 O   0  0  0  0  0  0  0  0  0  0  0  0
    0.5024    1.8783    1.3378 N   0  0  0  0  0  0  0  0  0  0  0  0
    1.4544    1.5289    1.3363 H   0  0  0  0  0  0  0  0  0  0  0  0
    0.3119    3.2744    1.7075 C   0  0  0  0  0  0  0  0  0  0  0  0
   -0.6490    3.4112    2.2139 H   0  0  0  0  0  0  0  0  0  0  0  0
    1.1070    3.5946    2.3870 H   0  0  0  0  0  0  0  0  0  0  0  0
    0.3373    3.9113    0.8168 H   0  0  0  0  0  0  0  0  0  0  0  0
  1  2  1  0  0  0  0
  2  3  1  0  0  0  0
  2  4  1  0  0  0  0
  2  5  1  0  0  0  0
  5  6  2  0  0  0  0
  5  7  1  0  0  0  0
  7  8  1  0  0  0  0
  7  9  1  0  0  0  0
  9 10  1  0  0  0  0
  9 11  1  0  0  0  0
  9 20  1  0  0  0  0
 11 12  1  0  0  0  0
 11 13  1  0  0  0  0
 11 14  1  0  0  0  0
 14 15  1  0  0  0  0
 14 16  1  0  0  0  0
 14 17  1  0  0  0  0
 17 18  1  0  0  0  0
 17 19  2  0  0  0  0
 20 21  2  0  0  0  0
 20 22  1  0  0  0  0
 22 23  1  0  0  0  0
 22 24  1  0  0  0  0
 24 25  1  0  0  0  0
 24 26  1  0  0  0  0
 24 27  1  0  0  0  0
M  CHG  1  18  -1
M  END
$$$$

  -OEChem-03222214043D

 27 26  0     1  0  0  0  0  0999 V2000
   -3.2510   -3.5715    1.2832 H   0  0  0  0  0  0  0  0  0  0  0  0
   -3.1635   -2.6475    0.7051 C   0  0  0  0  0  0  0  0  0  0  0  0
   -3.8308   -1.8967    1.1355 H   0  0  0  0  0  0  0  0  0  0  0  0
   -3.4681   -2.8449   -0.3257 H   0  0  0  0  0  0  0  0  0  0  0  0
   -1.7321   -2.1418    0.7312 C   0  0  0  0  0  0  0  0  0  0  0  0
   -0.8696   -2.7832    1.3152 O   0  0  0  0  0  0  0  0  0  0  0  0
   -1.4275   -0.9540    0.1068 N   0  0  0  0  0  0  0  0  0  0  0  0
   -2.1985   -0.4018   -0.2671 H   0  0  0  0  0  0  0  0  0  0  0  0
   -0.1195   -0.2840    0.1311 C   0  0  1  0  0  0  0  0  0  0  0  0
    0.4528   -0.6666    0.9812 H   0  0  0  0  0  0  0  0  0  0  0  0
    0.7058   -0.5797   -1.1341 C   0  0  0  0  0  0  0  0  0  0  0  0
    1.7099   -0.1565   -1.0313 H   0  0  0  0  0  0  0  0  0  0  0  0
    0.8341   -1.6656   -1.1836 H   0  0  0  0  0  0  0  0  0  0  0  0
    0.0565   -0.1319   -2.4634 C   0  0  0  0  0  0  0  0  0  0  0  0
    0.4068   -0.8027   -3.2531 H   0  0  0  0  0  0  0  0  0  0  0  0
   -1.0310   -0.2273   -2.4078 H   0  0  0  0  0  0  0  0  0  0  0  0
    0.4162    1.3003   -2.8900 C   0  0  0  0  0  0  0  0  0  0  0  0
    1.2298    1.9617   -2.1913 O   0  5  0  0  0  0  0  0  0  0  0  0
   -0.0816    1.7009   -3.9708 O   0  0  0  0  0  0  0  0  0  0  0  0
   -0.3170    1.2278    0.3989 C   0  0  0  0  0  0  0  0  0  0  0  0
   -1.4183    1.7321    0.1788 O   0  0  0  0  0  0  0  0  0  0  0  0
    0.5053    1.8631    1.3130 N   0  0  0  0  0  0  0  0  0  0  0  0
    1.4560    1.5095    1.3254 H   0  0  0  0  0  0  0  0  0  0  0  0
    0.3241    3.2711    1.6387 C   0  0  0  0  0  0  0  0  0  0  0  0
   -0.6477    3.4345    2.1155 H   0  0  0  0  0  0  0  0  0  0  0  0
    1.1056    3.5999    2.3297 H   0  0  0  0  0  0  0  0  0  0  0  0
    0.3813    3.8819    0.7314 H   0  0  0  0  0  0  0  0  0  0  0  0
  1  2  1  0  0  0  0
  2  3  1  0  0  0  0
  2  4  1  0  0  0  0
  2  5  1  0  0  0  0
  5  6  2  0  0  0  0
  5  7  1  0  0  0  0
  7  8  1  0  0  0  0
  7  9  1  0  0  0  0
  9 10  1  0  0  0  0
  9 11  1  0  0  0  0
  9 20  1  0  0  0  0
 11 12  1  0  0  0  0
 11 13  1  0  0  0  0
 11 14  1  0  0  0  0
 14 15  1  0  0  0  0
 14 16  1  0  0  0  0
 14 17  1  0  0  0  0
 17 18  1  0  0  0  0
 17 19  2  0  0  0  0
 20 21  2  0  0  0  0
 20 22  1  0  0  0  0
 22 23  1  0  0  0  0
 22 24  1  0  0  0  0
 24 25  1  0  0  0  0
 24 26  1  0  0  0  0
 24 27  1  0  0  0  0
M  CHG  1  18  -1
M  END
$$$$

  -OEChem-03222214043D

 27 26  0     1  0  0  0  0  0999 V2000
   -3.2501   -3.5738    1.3033 H   0  0  0  0  0  0  0  0  0  0  0  0
   -3.1647   -2.6530    0.7196 C   0  0  0  0  0  0  0  0  0  0  0  0
   -3.8331   -1.9010    1.1463 H   0  0  0  0  0  0  0  0  0  0  0  0
   -3.4695   -2.8573   -0.3098 H   0  0  0  0  0  0  0  0  0  0  0  0
   -1.7335   -2.1465    0.7421 C   0  0  0  0  0  0  0  0  0  0  0  0
   -0.8723   -2.7830    1.3331 O   0  0  0  0  0  0  0  0  0  0  0  0
   -1.4270   -0.9637    0.1086 N   0  0  0  0  0  0  0  0  0  0  0  0
   -2.1965   -0.4110   -0.2668 H   0  0  0  0  0  0  0  0  0  0  0  0
   -0.1147   -0.3012    0.1234 C   0  0  1  0  0  0  0  0  0  0  0  0
    0.4652   -0.6869    0.9668 H   0  0  0  0  0  0  0  0  0  0  0  0
    0.6942   -0.5852   -1.1534 C   0  0  0  0  0  0  0  0  0  0  0  0
    1.7000   -0.1643   -1.0558 H   0  0  0  0  0  0  0  0  0  0  0  0
    0.8223   -1.6702   -1.2211 H   0  0  0  0  0  0  0  0  0  0  0  0
    0.0207   -0.1125   -2.4623 C   0  0  0  0  0  0  0  0  0  0  0  0
    0.1138   -0.9091   -3.2065 H   0  0  0  0  0  0  0  0  0  0  0  0
   -1.0458    0.0696   -2.3069 H   0  0  0  0  0  0  0  0  0  0  0  0
    0.6609    1.1589   -3.0413 C   0  0  0  0  0  0  0  0  0  0  0  0
    1.2637    1.9448   -2.2630 O   0  5  0  0  0  0  0  0  0  0  0  0
    0.5667    1.3220   -4.2830 O   0  0  0  0  0  0  0  0  0  0  0  0
   -0.3036    1.2135    0.3835 C   0  0  0  0  0  0  0  0  0  0  0  0
   -1.4002    1.7258    0.1562 O   0  0  0  0  0  0  0  0  0  0  0  0
    0.5247    1.8513    1.2903 N   0  0  0  0  0  0  0  0  0  0  0  0
    1.4719    1.4886    1.3100 H   0  0  0  0  0  0  0  0  0  0  0  0
    0.3534    3.2627    1.6066 C   0  0  0  0  0  0  0  0  0  0  0  0
   -0.6176    3.4365    2.0815 H   0  0  0  0  0  0  0  0  0  0  0  0
    1.1367    3.5902    2.2962 H   0  0  0  0  0  0  0  0  0  0  0  0
    0.4160    3.8674    0.6956 H   0  0  0  0  0  0  0  0  0  0  0  0
  1  2  1  0  0  0  0
  2  3  1  0  0  0  0
  2  4  1  0  0  0  0
  2  5  1  0  0  0  0
  5  6  2  0  0  0  0
  5  7  1  0  0  0  0
  7  8  1  0  0  0  0
  7  9  1  0  0  0  0
  9 10  1  0  0  0  0
  9 11  1  0  0  0  0
  9 20  1  0  0  0  0
 11 12  1  0  0  0  0
 11 13  1  0  0  0  0
 11 14  1  0  0  0  0
 14 15  1  0  0  0  0
 14 16  1  0  0  0  0
 14 17  1  0  0  0  0
 17 18  1  0  0  0  0
 17 19  2  0  0  0  0
 20 21  2  0  0  0  0
 20 22  1  0  0  0  0
 22 23  1  0  0  0  0
 22 24  1  0  0  0  0
 24 25  1  0  0  0  0
 24 26  1  0  0  0  0
 24 27  1  0  0  0  0
M  CHG  1  18  -1
M  END
$$$$

  -OEChem-03222214043D

 27 26  0     1  0  0  0  0  0999 V2000
   -3.2465   -3.5920    1.2782 H   0  0  0  0  0  0  0  0  0  0  0  0
   -3.1608   -2.6730    0.6921 C   0  0  0  0  0  0  0  0  0  0  0  0
   -3.8509   -1.9294    1.0983 H   0  0  0  0  0  0  0  0  0  0  0  0
   -3.4369   -2.8870   -0.3435 H   0  0  0  0  0  0  0  0  0  0  0  0
   -1.7390   -2.1437    0.7473 C   0  0  0  0  0  0  0  0  0  0  0  0
   -0.8824   -2.7625    1.3630 O   0  0  0  0  0  0  0  0  0  0  0  0
   -1.4370   -0.9589    0.1153 N   0  0  0  0  0  0  0  0  0  0  0  0
   -2.2027   -0.4316   -0.3007 H   0  0  0  0  0  0  0  0  0  0  0  0
   -0.1276   -0.2919    0.1252 C   0  0  1  0  0  0  0  0  0  0  0  0
    0.4564   -0.6812    0.9640 H   0  0  0  0  0  0  0  0  0  0  0  0
    0.6705   -0.5813   -1.1552 C   0  0  0  0  0  0  0  0  0  0  0  0
    1.6637   -0.1301   -1.0610 H   0  0  0  0  0  0  0  0  0  0  0  0
    0.8280   -1.6622   -1.2236 H   0  0  0  0  0  0  0  0  0  0  0  0
   -0.0228   -0.1139   -2.4554 C   0  0  0  0  0  0  0  0  0  0  0  0
   -0.2030   -0.9828   -3.0954 H   0  0  0  0  0  0  0  0  0  0  0  0
   -0.9941    0.3382   -2.2389 H   0  0  0  0  0  0  0  0  0  0  0  0
    0.8243    0.9108   -3.2197 C   0  0  0  0  0  0  0  0  0  0  0  0
    1.3556    1.8458   -2.5655 O   0  5  0  0  0  0  0  0  0  0  0  0
    0.9556    0.7422   -4.4574 O   0  0  0  0  0  0  0  0  0  0  0  0
   -0.2951    1.2244    0.3872 C   0  0  0  0  0  0  0  0  0  0  0  0
   -1.3735    1.7642    0.1431 O   0  0  0  0  0  0  0  0  0  0  0  0
    0.5474    1.8513    1.2886 N   0  0  0  0  0  0  0  0  0  0  0  0
    1.4764    1.4483    1.3504 H   0  0  0  0  0  0  0  0  0  0  0  0
    0.4118    3.2664    1.6056 C   0  0  0  0  0  0  0  0  0  0  0  0
   -0.5558    3.4646    2.0775 H   0  0  0  0  0  0  0  0  0  0  0  0
    1.2011    3.5729    2.2981 H   0  0  0  0  0  0  0  0  0  0  0  0
    0.4928    3.8703    0.6957 H   0  0  0  0  0  0  0  0  0  0  0  0
  1  2  1  0  0  0  0
  2  3  1  0  0  0  0
  2  4  1  0  0  0  0
  2  5  1  0  0  0  0
  5  6  2  0  0  0  0
  5  7  1  0  0  0  0
  7  8  1  0  0  0  0
  7  9  1  0  0  0  0
  9 10  1  0  0  0  0
  9 11  1  0  0  0  0
  9 20  1  0  0  0  0
 11 12  1  0  0  0  0
 11 13  1  0  0  0  0
 11 14  1  0  0  0  0
 14 15  1  0  0  0  0
 14 16  1  0  0  0  0
 14 17  1  0  0  0  0
 17 18  1  0  0  0  0
 17 19  2  0  0  0  0
 20 21  2  0  0  0  0
 20 22  1  0  0  0  0
 22 23  1  0  0  0  0
 22 24  1  0  0  0  0
 24 25  1  0  0  0  0
 24 26  1  0  0  0  0
 24 27  1  0  0  0  0
M  CHG  1  18  -1
M  END
$$$$

  -OEChem-03222214043D

 27 26  0     1  0  0  0  0  0999 V2000
   -3.2372   -3.6145    1.2264 H   0  0  0  0  0  0  0  0  0  0  0  0
   -3.1549   -2.6887    0.6502 C   0  0  0  0  0  0  0  0  0  0  0  0
   -3.8743   -1.9644    1.0403 H   0  0  0  0  0  0  0  0  0  0  0  0
   -3.3941   -2.9009   -0.3950 H   0  0  0  0  0  0  0  0  0  0  0  0
   -1.7480   -2.1271    0.7526 C   0  0  0  0  0  0  0  0  0  0  0  0
   -0.9015   -2.7202    1.4062 O   0  0  0  0  0  0  0  0  0  0  0  0
   -1.4498   -0.9390    0.1246 N   0  0  0  0  0  0  0  0  0  0  0  0
   -2.2047   -0.4474   -0.3498 H   0  0  0  0  0  0  0  0  0  0  0  0
   -0.1416   -0.2704    0.1312 C   0  0  1  0  0  0  0  0  0  0  0  0
    0.4445   -0.6639    0.9667 H   0  0  0  0  0  0  0  0  0  0  0  0
    0.6473   -0.5778   -1.1510 C   0  0  0  0  0  0  0  0  0  0  0  0
    1.6264   -0.0954   -1.0632 H   0  0  0  0  0  0  0  0  0  0  0  0
    0.8317   -1.6551   -1.2117 H   0  0  0  0  0  0  0  0  0  0  0  0
   -0.0523   -0.1270   -2.4523 C   0  0  0  0  0  0  0  0  0  0  0  0
   -0.4969   -0.9966   -2.9456 H   0  0  0  0  0  0  0  0  0  0  0  0
   -0.8632    0.5721   -2.2334 H   0  0  0  0  0  0  0  0  0  0  0  0
    0.9205    0.5771   -3.4032 C   0  0  0  0  0  0  0  0  0  0  0  0
    1.5425    1.5807   -2.9698 O   0  5  0  0  0  0  0  0  0  0  0  0
    1.0559    0.0956   -4.5553 O   0  0  0  0  0  0  0  0  0  0  0  0
   -0.2888    1.2454    0.3994 C   0  0  0  0  0  0  0  0  0  0  0  0
   -1.3420    1.8178    0.1274 O   0  0  0  0  0  0  0  0  0  0  0  0
    0.5664    1.8598    1.2974 N   0  0  0  0  0  0  0  0  0  0  0  0
    1.4700    1.4136    1.4148 H   0  0  0  0  0  0  0  0  0  0  0  0
    0.4575    3.2730    1.6320 C   0  0  0  0  0  0  0  0  0  0  0  0
   -0.5034    3.4809    2.1136 H   0  0  0  0  0  0  0  0  0  0  0  0
    1.2571    3.5579    2.3220 H   0  0  0  0  0  0  0  0  0  0  0  0
    0.5422    3.8866    0.7290 H   0  0  0  0  0  0  0  0  0  0  0  0
  1  2  1  0  0  0  0
  2  3  1  0  0  0  0
  2  4  1  0  0  0  0
  2  5  1  0  0  0  0
  5  6  2  0  0  0  0
  5  7  1  0  0  0  0
  7  8  1  0  0  0  0
  7  9  1  0  0  0  0
  9 10  1  0  0  0  0
  9 11  1  0  0  0  0
  9 20  1  0  0  0  0
 11 12  1  0  0  0  0
 11 13  1  0  0  0  0
 11 14  1  0  0  0  0
 14 15  1  0  0  0  0
 14 16  1  0  0  0  0
 14 17  1  0  0  0  0
 17 18  1  0  0  0  0
 17 19  2  0  0  0  0
 20 21  2  0  0  0  0
 20 22  1  0  0  0  0
 22 23  1  0  0  0  0
 22 24  1  0  0  0  0
 24 25  1  0  0  0  0
 24 26  1  0  0  0  0
 24 27  1  0  0  0  0
M  CHG  1  18  -1
M  END
$$$$

  -OEChem-03222214043D

 27 26  0     1  0  0  0  0  0999 V2000
   -3.2282   -3.6274    1.1908 H   0  0  0  0  0  0  0  0  0  0  0  0
   -3.1499   -2.6985    0.6191 C   0  0  0  0  0  0  0  0  0  0  0  0
   -3.8903   -1.9883    0.9958 H   0  0  0  0  0  0  0  0  0  0  0  0
   -3.3624   -2.9121   -0.4317 H   0  0  0  0  0  0  0  0  0  0  0  0
   -1.7558   -2.1127    0.7549 C   0  0  0  0  0  0  0  0  0  0  0  0
   -0.9203   -2.6835    1.4418 O   0  0  0  0  0  0  0  0  0  0  0  0
   -1.4595   -0.9230    0.1282 N   0  0  0  0  0  0  0  0  0  0  0  0
   -2.2003   -0.4635   -0.3971 H   0  0  0  0  0  0  0  0  0  0  0  0
   -0.1513   -0.2549    0.1351 C   0  0  1  0  0  0  0  0  0  0  0  0
    0.4353   -0.6516    0.9687 H   0  0  0  0  0  0  0  0  0  0  0  0
    0.6309   -0.5750   -1.1490 C   0  0  0  0  0  0  0  0  0  0  0  0
    1.6043   -0.0788   -1.0727 H   0  0  0  0  0  0  0  0  0  0  0  0
    0.8229   -1.6514   -1.2032 H   0  0  0  0  0  0  0  0  0  0  0  0
   -0.0713   -0.1332   -2.4495 C   0  0  0  0  0  0  0  0  0  0  0  0
   -0.7433   -0.9252   -2.7931 H   0  0  0  0  0  0  0  0  0  0  0  0
   -0.6777    0.7588   -2.2742 H   0  0  0  0  0  0  0  0  0  0  0  0
    0.9458    0.2128   -3.5397 C   0  0  0  0  0  0  0  0  0  0  0  0
    1.7283    1.1740   -3.3272 O   0  5  0  0  0  0  0  0  0  0  0  0
    0.9538   -0.5004   -4.5736 O   0  0  0  0  0  0  0  0  0  0  0  0
   -0.2847    1.2610    0.4056 C   0  0  0  0  0  0  0  0  0  0  0  0
   -1.3133    1.8592    0.1006 O   0  0  0  0  0  0  0  0  0  0  0  0
    0.5768    1.8674    1.3029 N   0  0  0  0  0  0  0  0  0  0  0  0
    1.4548    1.3877    1.4715 H   0  0  0  0  0  0  0  0  0  0  0  0
    0.4845    3.2780    1.6529 C   0  0  0  0  0  0  0  0  0  0  0  0
   -0.4799    3.4947    2.1235 H   0  0  0  0  0  0  0  0  0  0  0  0
    1.2782    3.5422    2.3579 H   0  0  0  0  0  0  0  0  0  0  0  0
    0.5913    3.9017    0.7593 H   0  0  0  0  0  0  0  0  0  0  0  0
  1  2  1  0  0  0  0
  2  3  1  0  0  0  0
  2  4  1  0  0  0  0
  2  5  1  0  0  0  0
  5  6  2  0  0  0  0
  5  7  1  0  0  0  0
  7  8  1  0  0  0  0
  7  9  1  0  0  0  0
  9 10  1  0  0  0  0
  9 11  1  0  0  0  0
  9 20  1  0  0  0  0
 11 12  1  0  0  0  0
 11 13  1  0  0  0  0
 11 14  1  0  0  0  0
 14 15  1  0  0  0  0
 14 16  1  0  0  0  0
 14 17  1  0  0  0  0
 17 18  1  0  0  0  0
 17 19  2  0  0  0  0
 20 21  2  0  0  0  0
 20 22  1  0  0  0  0
 22 23  1  0  0  0  0
 22 24  1  0  0  0  0
 24 25  1  0  0  0  0
 24 26  1  0  0  0  0
 24 27  1  0  0  0  0
M  CHG  1  18  -1
M  END
$$$$

  -OEChem-03222214043D

 27 26  0     1  0  0  0  0  0999 V2000
   -3.2282   -3.6341    1.1623 H   0  0  0  0  0  0  0  0  0  0  0  0
   -3.1421   -2.7113    0.5819 C   0  0  0  0  0  0  0  0  0  0  0  0
   -3.9106   -2.0102    0.9167 H   0  0  0  0  0  0  0  0  0  0  0  0
   -3.3057   -2.9424   -0.4739 H   0  0  0  0  0  0  0  0  0  0  0  0
   -1.7656   -2.0983    0.7680 C   0  0  0  0  0  0  0  0  0  0  0  0
   -0.9501   -2.6420    1.4995 O   0  0  0  0  0  0  0  0  0  0  0  0
   -1.4646   -0.9118    0.1372 N   0  0  0  0  0  0  0  0  0  0  0  0
   -2.1824   -0.4898   -0.4480 H   0  0  0  0  0  0  0  0  0  0  0  0
   -0.1547   -0.2477    0.1469 C   0  0  1  0  0  0  0  0  0  0  0  0
    0.4311   -0.6462    0.9802 H   0  0  0  0  0  0  0  0  0  0  0  0
    0.6215   -0.5748   -1.1396 C   0  0  0  0  0  0  0  0  0  0  0  0
    1.5984   -0.0835   -1.0780 H   0  0  0  0  0  0  0  0  0  0  0  0
    0.8031   -1.6532   -1.1909 H   0  0  0  0  0  0  0  0  0  0  0  0
   -0.0859   -0.1305   -2.4342 C   0  0  0  0  0  0  0  0  0  0  0  0
   -0.9384   -0.7858   -2.6363 H   0  0  0  0  0  0  0  0  0  0  0  0
   -0.4661    0.8888   -2.3296 H   0  0  0  0  0  0  0  0  0  0  0  0
    0.8819   -0.1490   -3.6188 C   0  0  0  0  0  0  0  0  0  0  0  0
    1.8552    0.6463   -3.5913 O   0  5  0  0  0  0  0  0  0  0  0  0
    0.6579   -0.9737   -4.5394 O   0  0  0  0  0  0  0  0  0  0  0  0
   -0.2783    1.2695    0.4104 C   0  0  0  0  0  0  0  0  0  0  0  0
   -1.2794    1.8887    0.0612 O   0  0  0  0  0  0  0  0  0  0  0  0
    0.5831    1.8749    1.3085 N   0  0  0  0  0  0  0  0  0  0  0  0
    1.4324    1.3672    1.5337 H   0  0  0  0  0  0  0  0  0  0  0  0
    0.5046    3.2871    1.6547 C   0  0  0  0  0  0  0  0  0  0  0  0
   -0.4650    3.5179    2.1077 H   0  0  0  0  0  0  0  0  0  0  0  0
    1.2894    3.5414    2.3731 H   0  0  0  0  0  0  0  0  0  0  0  0
    0.6358    3.9071    0.7619 H   0  0  0  0  0  0  0  0  0  0  0  0
  1  2  1  0  0  0  0
  2  3  1  0  0  0  0
  2  4  1  0  0  0  0
  2  5  1  0  0  0  0
  5  6  2  0  0  0  0
  5  7  1  0  0  0  0
  7  8  1  0  0  0  0
  7  9  1  0  0  0  0
  9 10  1  0  0  0  0
  9 11  1  0  0  0  0
  9 20  1  0  0  0  0
 11 12  1  0  0  0  0
 11 13  1  0  0  0  0
 11 14  1  0  0  0  0
 14 15  1  0  0  0  0
 14 16  1  0  0  0  0
 14 17  1  0  0  0  0
 17 18  1  0  0  0  0
 17 19  2  0  0  0  0
 20 21  2  0  0  0  0
 20 22  1  0  0  0  0
 22 23  1  0  0  0  0
 22 24  1  0  0  0  0
 24 25  1  0  0  0  0
 24 26  1  0  0  0  0
 24 27  1  0  0  0  0
M  CHG  1  18  -1
M  END
$$$$

  -OEChem-03222214043D

 27 26  0     1  0  0  0  0  0999 V2000
   -3.2152   -3.6465    1.0949 H   0  0  0  0  0  0  0  0  0  0  0  0
   -3.1311   -2.7139    0.5303 C   0  0  0  0  0  0  0  0  0  0  0  0
   -3.9184   -2.0302    0.8569 H   0  0  0  0  0  0  0  0  0  0  0  0
   -3.2665   -2.9318   -0.5322 H   0  0  0  0  0  0  0  0  0  0  0  0
   -1.7695   -2.0814    0.7561 C   0  0  0  0  0  0  0  0  0  0  0  0
   -0.9648   -2.6161    1.5058 O   0  0  0  0  0  0  0  0  0  0  0  0
   -1.4694   -0.8891    0.1349 N   0  0  0  0  0  0  0  0  0  0  0  0
   -2.1771   -0.4832   -0.4733 H   0  0  0  0  0  0  0  0  0  0  0  0
   -0.1608   -0.2222    0.1506 C   0  0  1  0  0  0  0  0  0  0  0  0
    0.4187   -0.6301    0.9837 H   0  0  0  0  0  0  0  0  0  0  0  0
    0.6145   -0.5642   -1.1338 C   0  0  0  0  0  0  0  0  0  0  0  0
    1.6673   -0.3028   -0.9836 H   0  0  0  0  0  0  0  0  0  0  0  0
    0.5694   -1.6451   -1.3060 H   0  0  0  0  0  0  0  0  0  0  0  0
    0.1092    0.1685   -2.3882 C   0  0  0  0  0  0  0  0  0  0  0  0
   -0.9438   -0.0719   -2.5619 H   0  0  0  0  0  0  0  0  0  0  0  0
    0.1891    1.2512   -2.2580 H   0  0  0  0  0  0  0  0  0  0  0  0
    0.9364   -0.2340   -3.6085 C   0  0  0  0  0  0  0  0  0  0  0  0
    2.1202    0.1842   -3.6693 O   0  5  0  0  0  0  0  0  0  0  0  0
    0.3959   -0.9826   -4.4602 O   0  0  0  0  0  0  0  0  0  0  0  0
   -0.2756    1.2930    0.4251 C   0  0  0  0  0  0  0  0  0  0  0  0
   -1.2628    1.9258    0.0617 O   0  0  0  0  0  0  0  0  0  0  0  0
    0.5884    1.8892    1.3265 N   0  0  0  0  0  0  0  0  0  0  0  0
    1.4222    1.3659    1.5730 H   0  0  0  0  0  0  0  0  0  0  0  0
    0.5155    3.2984    1.6850 C   0  0  0  0  0  0  0  0  0  0  0  0
   -0.4424    3.5219    2.1656 H   0  0  0  0  0  0  0  0  0  0  0  0
    1.3191    3.5504    2.3832 H   0  0  0  0  0  0  0  0  0  0  0  0
    0.6201    3.9256    0.7937 H   0  0  0  0  0  0  0  0  0  0  0  0
  1  2  1  0  0  0  0
  2  3  1  0  0  0  0
  2  4  1  0  0  0  0
  2  5  1  0  0  0  0
  5  6  2  0  0  0  0
  5  7  1  0  0  0  0
  7  8  1  0  0  0  0
  7  9  1  0  0  0  0
  9 10  1  0  0  0  0
  9 11  1  0  0  0  0
  9 20  1  0  0  0  0
 11 12  1  0  0  0  0
 11 13  1  0  0  0  0
 11 14  1  0  0  0  0
 14 15  1  0  0  0  0
 14 16  1  0  0  0  0
 14 17  1  0  0  0  0
 17 18  1  0  0  0  0
 17 19  2  0  0  0  0
 20 21  2  0  0  0  0
 20 22  1  0  0  0  0
 22 23  1  0  0  0  0
 22 24  1  0  0  0  0
 24 25  1  0  0  0  0
 24 26  1  0  0  0  0
 24 27  1  0  0  0  0
M  CHG  1  18  -1
M  END
$$$$

  -OEChem-03222214043D

 27 26  0     1  0  0  0  0  0999 V2000
   -3.2090   -3.6525    1.0610 H   0  0  0  0  0  0  0  0  0  0  0  0
   -3.1205   -2.7238    0.4907 C   0  0  0  0  0  0  0  0  0  0  0  0
   -3.9358   -2.0542    0.7752 H   0  0  0  0  0  0  0  0  0  0  0  0
   -3.2046   -2.9551   -0.5745 H   0  0  0  0  0  0  0  0  0  0  0  0
   -1.7842   -2.0594    0.7689 C   0  0  0  0  0  0  0  0  0  0  0  0
   -1.0072   -2.5616    1.5693 O   0  0  0  0  0  0  0  0  0  0  0  0
   -1.4766   -0.8741    0.1381 N   0  0  0  0  0  0  0  0  0  0  0  0
   -2.1484   -0.5169   -0.5380 H   0  0  0  0  0  0  0  0  0  0  0  0
   -0.1650   -0.2133    0.1642 C   0  0  1  0  0  0  0  0  0  0  0  0
    0.4073   -0.6204    1.0025 H   0  0  0  0  0  0  0  0  0  0  0  0
    0.6092   -0.5706   -1.1163 C   0  0  0  0  0  0  0  0  0  0  0  0
    1.6686   -0.3310   -0.9787 H   0  0  0  0  0  0  0  0  0  0  0  0
    0.5396   -1.6521   -1.2780 H   0  0  0  0  0  0  0  0  0  0  0  0
    0.1043    0.1637   -2.3693 C   0  0  0  0  0  0  0  0  0  0  0  0
   -0.9888    0.1397   -2.4044 H   0  0  0  0  0  0  0  0  0  0  0  0
    0.4140    1.2124   -2.3442 H   0  0  0  0  0  0  0  0  0  0  0  0
    0.6532   -0.4992   -3.6316 C   0  0  0  0  0  0  0  0  0  0  0  0
    1.8603   -0.2948   -3.9149 O   0  5  0  0  0  0  0  0  0  0  0  0
   -0.1216   -1.2411   -4.2857 O   0  0  0  0  0  0  0  0  0  0  0  0
   -0.2645    1.3061    0.4224 C   0  0  0  0  0  0  0  0  0  0  0  0
   -1.2214    1.9589    0.0175 O   0  0  0  0  0  0  0  0  0  0  0  0
    0.5963    1.9006    1.3283 N   0  0  0  0  0  0  0  0  0  0  0  0
    1.3915    1.3511    1.6367 H   0  0  0  0  0  0  0  0  0  0  0  0
    0.5372    3.3124    1.6795 C   0  0  0  0  0  0  0  0  0  0  0  0
   -0.4270    3.5523    2.1391 H   0  0  0  0  0  0  0  0  0  0  0  0
    1.3299    3.5559    2.3931 H   0  0  0  0  0  0  0  0  0  0  0  0
    0.6696    3.9340    0.7879 H   0  0  0  0  0  0  0  0  0  0  0  0
  1  2  1  0  0  0  0
  2  3  1  0  0  0  0
  2  4  1  0  0  0  0
  2  5  1  0  0  0  0
  5  6  2  0  0  0  0
  5  7  1  0  0  0  0
  7  8  1  0  0  0  0
  7  9  1  0  0  0  0
  9 10  1  0  0  0  0
  9 11  1  0  0  0  0
  9 20  1  0  0  0  0
 11 12  1  0  0  0  0
 11 13  1  0  0  0  0
 11 14  1  0  0  0  0
 14 15  1  0  0  0  0
 14 16  1  0  0  0  0
 14 17  1  0  0  0  0
 17 18  1  0  0  0  0
 17 19  2  0  0  0  0
 20 21  2  0  0  0  0
 20 22  1  0  0  0  0
 22 23  1  0  0  0  0
 22 24  1  0  0  0  0
 24 25  1  0  0  0  0
 24 26  1  0  0  0  0
 24 27  1  0  0  0  0
M  CHG  1  18  -1
M  END
$$$$

  -OEChem-03222214043D

 27 26  0     1  0  0  0  0  0999 V2000
   -3.1873   -3.6632    0.9965 H   0  0  0  0  0  0  0  0  0  0  0  0
   -3.1017   -2.7323    0.4295 C   0  0  0  0  0  0  0  0  0  0  0  0
   -3.9575   -2.0943    0.6631 H   0  0  0  0  0  0  0  0  0  0  0  0
   -3.1140   -2.9680   -0.6382 H   0  0  0  0  0  0  0  0  0  0  0  0
   -1.8104   -2.0164    0.7823 C   0  0  0  0  0  0  0  0  0  0  0  0
   -1.0765   -2.4704    1.6502 O   0  0  0  0  0  0  0  0  0  0  0  0
   -1.4953   -0.8396    0.1395 N   0  0  0  0  0  0  0  0  0  0  0  0
   -2.1094   -0.5575   -0.6223 H   0  0  0  0  0  0  0  0  0  0  0  0
   -0.1786   -0.1893    0.1780 C   0  0  1  0  0  0  0  0  0  0  0  0
    0.3810   -0.5956    1.0250 H   0  0  0  0  0  0  0  0  0  0  0  0
    0.5935   -0.5806   -1.0933 C   0  0  0  0  0  0  0  0  0  0  0  0
    1.6578   -0.3613   -0.9616 H   0  0  0  0  0  0  0  0  0  0  0  0
    0.5040   -1.6643   -1.2303 H   0  0  0  0  0  0  0  0  0  0  0  0
    0.0992    0.1422   -2.3592 C   0  0  0  0  0  0  0  0  0  0  0  0
   -0.9702    0.3592   -2.2834 H   0  0  0  0  0  0  0  0  0  0  0  0
    0.6213    1.0964   -2.4760 H   0  0  0  0  0  0  0  0  0  0  0  0
    0.3148   -0.7320   -3.5926 C   0  0  0  0  0  0  0  0  0  0  0  0
    1.4002   -0.6115   -4.2130 O   0  5  0  0  0  0  0  0  0  0  0  0
   -0.5861   -1.5622   -3.8746 O   0  0  0  0  0  0  0  0  0  0  0  0
   -0.2500    1.3351    0.4185 C   0  0  0  0  0  0  0  0  0  0  0  0
   -1.1744    2.0135   -0.0172 O   0  0  0  0  0  0  0  0  0  0  0  0
    0.6129    1.9184    1.3301 N   0  0  0  0  0  0  0  0  0  0  0  0
    1.3650    1.3415    1.6916 H   0  0  0  0  0  0  0  0  0  0  0  0
    0.5671    3.3282    1.6912 C   0  0  0  0  0  0  0  0  0  0  0  0
   -0.3916    3.5720    2.1606 H   0  0  0  0  0  0  0  0  0  0  0  0
    1.3680    3.5608    2.3991 H   0  0  0  0  0  0  0  0  0  0  0  0
    0.6969    3.9550    0.8028 H   0  0  0  0  0  0  0  0  0  0  0  0
  1  2  1  0  0  0  0
  2  3  1  0  0  0  0
  2  4  1  0  0  0  0
  2  5  1  0  0  0  0
  5  6  2  0  0  0  0
  5  7  1  0  0  0  0
  7  8  1  0  0  0  0
  7  9  1  0  0  0  0
  9 10  1  0  0  0  0
  9 11  1  0  0  0  0
  9 20  1  0  0  0  0
 11 12  1  0  0  0  0
 11 13  1  0  0  0  0
 11 14  1  0  0  0  0
 14 15  1  0  0  0  0
 14 16  1  0  0  0  0
 14 17  1  0  0  0  0
 17 18  1  0  0  0  0
 17 19  2  0  0  0  0
 20 21  2  0  0  0  0
 20 22  1  0  0  0  0
 22 23  1  0  0  0  0
 22 24  1  0  0  0  0
 24 25  1  0  0  0  0
 24 26  1  0  0  0  0
 24 27  1  0  0  0  0
M  CHG  1  18  -1
M  END
$$$$

  -OEChem-03222214043D

 27 26  0     1  0  0  0  0  0999 V2000
   -3.1320   -3.6800    0.9203 H   0  0  0  0  0  0  0  0  0  0  0  0
   -3.0539   -2.7503    0.3503 C   0  0  0  0  0  0  0  0  0  0  0  0
   -3.9589   -2.1588    0.5085 H   0  0  0  0  0  0  0  0  0  0  0  0
   -2.9699   -2.9944   -0.7128 H   0  0  0  0  0  0  0  0  0  0  0  0
   -1.8349   -1.9607    0.7915 C   0  0  0  0  0  0  0  0  0  0  0  0
   -1.1550   -2.3545    1.7310 O   0  0  0  0  0  0  0  0  0  0  0  0
   -1.5190   -0.7910    0.1365 N   0  0  0  0  0  0  0  0  0  0  0  0
   -2.0571   -0.6070   -0.7101 H   0  0  0  0  0  0  0  0  0  0  0  0
   -0.1998   -0.1463    0.1918 C   0  0  1  0  0  0  0  0  0  0  0  0
    0.3452   -0.5499    1.0494 H   0  0  0  0  0  0  0  0  0  0  0  0
    0.5638   -0.5932   -1.0655 C   0  0  0  0  0  0  0  0  0  0  0  0
    1.6288   -0.3758   -0.9384 H   0  0  0  0  0  0  0  0  0  0  0  0
    0.4735   -1.6816   -1.1614 H   0  0  0  0  0  0  0  0  0  0  0  0
    0.0801    0.0986   -2.3562 C   0  0  0  0  0  0  0  0  0  0  0  0
   -0.8918    0.5766   -2.2082 H   0  0  0  0  0  0  0  0  0  0  0  0
    0.7882    0.8799   -2.6476 H   0  0  0  0  0  0  0  0  0  0  0  0
   -0.0759   -0.9200   -3.4829 C   0  0  0  0  0  0  0  0  0  0  0  0
    0.8114   -0.9683   -4.3699 O   0  5  0  0  0  0  0  0  0  0  0  0
   -1.0682   -1.6911   -3.4131 O   0  0  0  0  0  0  0  0  0  0  0  0
   -0.2352    1.3833    0.4157 C   0  0  0  0  0  0  0  0  0  0  0  0
   -1.1211    2.0922   -0.0492 O   0  0  0  0  0  0  0  0  0  0  0  0
    0.6316    1.9491    1.3353 N   0  0  0  0  0  0  0  0  0  0  0  0
    1.3203    1.3387    1.7618 H   0  0  0  0  0  0  0  0  0  0  0  0
    0.6030    3.3556    1.7110 C   0  0  0  0  0  0  0  0  0  0  0  0
   -0.3507    3.6044    2.1875 H   0  0  0  0  0  0  0  0  0  0  0  0
    1.4104    3.5726    2.4166 H   0  0  0  0  0  0  0  0  0  0  0  0
    0.7350    3.9901    0.8285 H   0  0  0  0  0  0  0  0  0  0  0  0
  1  2  1  0  0  0  0
  2  3  1  0  0  0  0
  2  4  1  0  0  0  0
  2  5  1  0  0  0  0
  5  6  2  0  0  0  0
  5  7  1  0  0  0  0
  7  8  1  0  0  0  0
  7  9  1  0  0  0  0
  9 10  1  0  0  0  0
  9 11  1  0  0  0  0
  9 20  1  0  0  0  0
 11 12  1  0  0  0  0
 11 13  1  0  0  0  0
 11 14  1  0  0  0  0
 14 15  1  0  0  0  0
 14 16  1  0  0  0  0
 14 17  1  0  0  0  0
 17 18  1  0  0  0  0
 17 19  2  0  0  0  0
 20 21  2  0  0  0  0
 20 22  1  0  0  0  0
 22 23  1  0  0  0  0
 22 24  1  0  0  0  0
 24 25  1  0  0  0  0
 24 26  1  0  0  0  0
 24 27  1  0  0  0  0
M  CHG  1  18  -1
M  END
$$$$

  -OEChem-03222214043D

 27 26  0     1  0  0  0  0  0999 V2000
   -3.1156   -3.6601    0.9028 H   0  0  0  0  0  0  0  0  0  0  0  0
   -3.0220   -2.7514    0.3024 C   0  0  0  0  0  0  0  0  0  0  0  0
   -3.9483   -2.1771    0.3782 H   0  0  0  0  0  0  0  0  0  0  0  0
   -2.8651   -3.0328   -0.7432 H   0  0  0  0  0  0  0  0  0  0  0  0
   -1.8526   -1.9135    0.7867 C   0  0  0  0  0  0  0  0  0  0  0  0
   -1.2140   -2.2623    1.7733 O   0  0  0  0  0  0  0  0  0  0  0  0
   -1.5366   -0.7508    0.1196 N   0  0  0  0  0  0  0  0  0  0  0  0
   -2.0009   -0.6601   -0.7883 H   0  0  0  0  0  0  0  0  0  0  0  0
   -0.2167   -0.1074    0.1934 C   0  0  1  0  0  0  0  0  0  0  0  0
    0.3118   -0.5047    1.0639 H   0  0  0  0  0  0  0  0  0  0  0  0
    0.5425   -0.6067   -1.0464 C   0  0  0  0  0  0  0  0  0  0  0  0
    1.6037   -0.3735   -0.9156 H   0  0  0  0  0  0  0  0  0  0  0  0
    0.4693   -1.6989   -1.1084 H   0  0  0  0  0  0  0  0  0  0  0  0
    0.0723    0.0509   -2.3613 C   0  0  0  0  0  0  0  0  0  0  0  0
   -0.7233    0.7805   -2.1988 H   0  0  0  0  0  0  0  0  0  0  0  0
    0.9099    0.5789   -2.8266 H   0  0  0  0  0  0  0  0  0  0  0  0
   -0.4503   -1.0203   -3.3154 C   0  0  0  0  0  0  0  0  0  0  0  0
    0.2160   -1.2947   -4.3430 O   0  5  0  0  0  0  0  0  0  0  0  0
   -1.5081   -1.6070   -2.9613 O   0  0  0  0  0  0  0  0  0  0  0  0
   -0.2242    1.4261    0.4009 C   0  0  0  0  0  0  0  0  0  0  0  0
   -1.0833    2.1579   -0.0778 O   0  0  0  0  0  0  0  0  0  0  0  0
    0.6423    1.9762    1.3307 N   0  0  0  0  0  0  0  0  0  0  0  0
    1.2799    1.3430    1.8009 H   0  0  0  0  0  0  0  0  0  0  0  0
    0.6170    3.3770    1.7279 C   0  0  0  0  0  0  0  0  0  0  0  0
   -0.3342    3.6197    2.2126 H   0  0  0  0  0  0  0  0  0  0  0  0
    1.4280    3.5820    2.4328 H   0  0  0  0  0  0  0  0  0  0  0  0
    0.7459    4.0255    0.8552 H   0  0  0  0  0  0  0  0  0  0  0  0
  1  2  1  0  0  0  0
  2  3  1  0  0  0  0
  2  4  1  0  0  0  0
  2  5  1  0  0  0  0
  5  6  2  0  0  0  0
  5  7  1  0  0  0  0
  7  8  1  0  0  0  0
  7  9  1  0  0  0  0
  9 10  1  0  0  0  0
  9 11  1  0  0  0  0
  9 20  1  0  0  0  0
 11 12  1  0  0  0  0
 11 13  1  0  0  0  0
 11 14  1  0  0  0  0
 14 15  1  0  0  0  0
 14 16  1  0  0  0  0
 14 17  1  0  0  0  0
 17 18  1  0  0  0  0
 17 19  2  0  0  0  0
 20 21  2  0  0  0  0
 20 22  1  0  0  0  0
 22 23  1  0  0  0  0
 22 24  1  0  0  0  0
 24 25  1  0  0  0  0
 24 26  1  0  0  0  0
 24 27  1  0  0  0  0
M  CHG  1  18  -1
M  END
$$$$

  -OEChem-03222214043D

 27 26  0     1  0  0  0  0  0999 V2000
   -2.9187   -3.7940    0.9252 H   0  0  0  0  0  0  0  0  0  0  0  0
   -2.9102   -2.8539    0.3675 C   0  0  0  0  0  0  0  0  0  0  0  0
   -3.8492   -2.3244    0.5453 H   0  0  0  0  0  0  0  0  0  0  0  0
   -2.8283   -3.0772   -0.7003 H   0  0  0  0  0  0  0  0  0  0  0  0
   -1.7393   -1.9899    0.8006 C   0  0  0  0  0  0  0  0  0  0  0  0
   -1.0249   -2.3491    1.7305 O   0  0  0  0  0  0  0  0  0  0  0  0
   -1.5062   -0.7957    0.1558 N   0  0  0  0  0  0  0  0  0  0  0  0
   -2.0185   -0.7105   -0.7324 H   0  0  0  0  0  0  0  0  0  0  0  0
   -0.2091   -0.1055    0.1716 C   0  0  1  0  0  0  0  0  0  0  0  0
    0.3783   -0.5060    1.0017 H   0  0  0  0  0  0  0  0  0  0  0  0
    0.5151   -0.5362   -1.1182 C   0  0  0  0  0  0  0  0  0  0  0  0
    1.5657   -0.2469   -1.0182 H   0  0  0  0  0  0  0  0  0  0  0  0
    0.4981   -1.6280   -1.2138 H   0  0  0  0  0  0  0  0  0  0  0  0
   -0.0298    0.1268   -2.4014 C   0  0  0  0  0  0  0  0  0  0  0  0
   -0.6327    1.0115   -2.1918 H   0  0  0  0  0  0  0  0  0  0  0  0
    0.8119    0.4481   -3.0223 H   0  0  0  0  0  0  0  0  0  0  0  0
   -0.8694   -0.8785   -3.1909 C   0  0  0  0  0  0  0  0  0  0  0  0
   -1.9506   -1.2510   -2.6604 O   0  5  0  0  0  0  0  0  0  0  0  0
   -0.4182   -1.3119   -4.2789 O   0  0  0  0  0  0  0  0  0  0  0  0
   -0.2604    1.4195    0.4316 C   0  0  0  0  0  0  0  0  0  0  0  0
   -1.1654    2.1391    0.0250 O   0  0  0  0  0  0  0  0  0  0  0  0
    0.6418    1.9710    1.3263 N   0  0  0  0  0  0  0  0  0  0  0  0
    1.3256    1.3459    1.7386 H   0  0  0  0  0  0  0  0  0  0  0  0
    0.5986    3.3591    1.7642 C   0  0  0  0  0  0  0  0  0  0  0  0
   -0.3419    3.5670    2.2844 H   0  0  0  0  0  0  0  0  0  0  0  0
    1.4264    3.5624    2.4498 H   0  0  0  0  0  0  0  0  0  0  0  0
    0.6865    4.0337    0.9064 H   0  0  0  0  0  0  0  0  0  0  0  0
  1  2  1  0  0  0  0
  2  3  1  0  0  0  0
  2  4  1  0  0  0  0
  2  5  1  0  0  0  0
  5  6  2  0  0  0  0
  5  7  1  0  0  0  0
  7  8  1  0  0  0  0
  7  9  1  0  0  0  0
  9 10  1  0  0  0  0
  9 11  1  0  0  0  0
  9 20  1  0  0  0  0
 11 12  1  0  0  0  0
 11 13  1  0  0  0  0
 11 14  1  0  0  0  0
 14 15  1  0  0  0  0
 14 16  1  0  0  0  0
 14 17  1  0  0  0  0
 17 18  1  0  0  0  0
 17 19  2  0  0  0  0
 20 21  2  0  0  0  0
 20 22  1  0  0  0  0
 22 23  1  0  0  0  0
 22 24  1  0  0  0  0
 24 25  1  0  0  0  0
 24 26  1  0  0  0  0
 24 27  1  0  0  0  0
M  CHG  1  18  -1
M  END
$$$$

  -OEChem-03222214043D

 27 26  0     1  0  0  0  0  0999 V2000
   -2.9630   -3.7963    0.9643 H   0  0  0  0  0  0  0  0  0  0  0  0
   -2.9515   -2.8481    0.4211 C   0  0  0  0  0  0  0  0  0  0  0  0
   -3.8681   -2.2970    0.6442 H   0  0  0  0  0  0  0  0  0  0  0  0
   -2.9174   -3.0547   -0.6525 H   0  0  0  0  0  0  0  0  0  0  0  0
   -1.7426   -2.0214    0.8194 C   0  0  0  0  0  0  0  0  0  0  0  0
   -0.9857   -2.4226    1.6970 O   0  0  0  0  0  0  0  0  0  0  0  0
   -1.5148   -0.8201    0.1889 N   0  0  0  0  0  0  0  0  0  0  0  0
   -2.0908   -0.6703   -0.6524 H   0  0  0  0  0  0  0  0  0  0  0  0
   -0.2256   -0.1222    0.1741 C   0  0  1  0  0  0  0  0  0  0  0  0
    0.3707   -0.5222    0.9980 H   0  0  0  0  0  0  0  0  0  0  0  0
    0.5220   -0.5156   -1.1189 C   0  0  0  0  0  0  0  0  0  0  0  0
    1.5642   -0.2046   -0.9983 H   0  0  0  0  0  0  0  0  0  0  0  0
    0.5259   -1.6057   -1.2295 H   0  0  0  0  0  0  0  0  0  0  0  0
   -0.0048    0.1340   -2.4174 C   0  0  0  0  0  0  0  0  0  0  0  0
   -0.3909    1.1393   -2.2369 H   0  0  0  0  0  0  0  0  0  0  0  0
    0.8282    0.2330   -3.1199 H   0  0  0  0  0  0  0  0  0  0  0  0
   -1.0933   -0.7232   -3.0772 C   0  0  0  0  0  0  0  0  0  0  0  0
   -2.2083   -0.8236   -2.5006 O   0  5  0  0  0  0  0  0  0  0  0  0
   -0.7839   -1.3290   -4.1322 O   0  0  0  0  0  0  0  0  0  0  0  0
   -0.2884    1.3985    0.4521 C   0  0  0  0  0  0  0  0  0  0  0  0
   -1.1977    2.1167    0.0544 O   0  0  0  0  0  0  0  0  0  0  0  0
    0.6311    1.9532    1.3273 N   0  0  0  0  0  0  0  0  0  0  0  0
    1.3286    1.3316    1.7212 H   0  0  0  0  0  0  0  0  0  0  0  0
    0.6001    3.3446    1.7554 C   0  0  0  0  0  0  0  0  0  0  0  0
   -0.3378    3.5641    2.2757 H   0  0  0  0  0  0  0  0  0  0  0  0
    1.4306    3.5463    2.4382 H   0  0  0  0  0  0  0  0  0  0  0  0
    0.6916    4.0124    0.8926 H   0  0  0  0  0  0  0  0  0  0  0  0
  1  2  1  0  0  0  0
  2  3  1  0  0  0  0
  2  4  1  0  0  0  0
  2  5  1  0  0  0  0
  5  6  2  0  0  0  0
  5  7  1  0  0  0  0
  7  8  1  0  0  0  0
  7  9  1  0  0  0  0
  9 10  1  0  0  0  0
  9 11  1  0  0  0  0
  9 20  1  0  0  0  0
 11 12  1  0  0  0  0
 11 13  1  0  0  0  0
 11 14  1  0  0  0  0
 14 15  1  0  0  0  0
 14 16  1  0  0  0  0
 14 17  1  0  0  0  0
 17 18  1  0  0  0  0
 17 19  2  0  0  0  0
 20 21  2  0  0  0  0
 20 22  1  0  0  0  0
 22 23  1  0  0  0  0
 22 24  1  0  0  0  0
 24 25  1  0  0  0  0
 24 26  1  0  0  0  0
 24 27  1  0  0  0  0
M  CHG  1  18  -1
M  END
$$$$

  -OEChem-03222214043D

 27 26  0     1  0  0  0  0  0999 V2000
   -3.0286   -3.7583    1.1269 H   0  0  0  0  0  0  0  0  0  0  0  0
   -2.9906   -2.8460    0.5262 C   0  0  0  0  0  0  0  0  0  0  0  0
   -3.9085   -2.2750    0.6851 H   0  0  0  0  0  0  0  0  0  0  0  0
   -2.9249   -3.1199   -0.5307 H   0  0  0  0  0  0  0  0  0  0  0  0
   -1.7867   -2.0058    0.9119 C   0  0  0  0  0  0  0  0  0  0  0  0
   -1.0547   -2.3705    1.8265 O   0  0  0  0  0  0  0  0  0  0  0  0
   -1.5453   -0.8280    0.2420 N   0  0  0  0  0  0  0  0  0  0  0  0
   -2.0752   -0.7506   -0.6365 H   0  0  0  0  0  0  0  0  0  0  0  0
   -0.2385   -0.1651    0.2143 C   0  0  1  0  0  0  0  0  0  0  0  0
    0.3553   -0.5589    1.0428 H   0  0  0  0  0  0  0  0  0  0  0  0
    0.5169   -0.5542   -1.0805 C   0  0  0  0  0  0  0  0  0  0  0  0
    1.5658   -0.2776   -0.9379 H   0  0  0  0  0  0  0  0  0  0  0  0
    0.4866   -1.6429   -1.1968 H   0  0  0  0  0  0  0  0  0  0  0  0
    0.0503    0.1003   -2.4070 C   0  0  0  0  0  0  0  0  0  0  0  0
   -0.0405    1.1803   -2.2684 H   0  0  0  0  0  0  0  0  0  0  0  0
    0.8420   -0.0640   -3.1437 H   0  0  0  0  0  0  0  0  0  0  0  0
   -1.2558   -0.4164   -3.0353 C   0  0  0  0  0  0  0  0  0  0  0  0
   -1.9690   -1.2474   -2.4140 O   0  5  0  0  0  0  0  0  0  0  0  0
   -1.5071   -0.0025   -4.1928 O   0  0  0  0  0  0  0  0  0  0  0  0
   -0.2972    1.3612    0.4527 C   0  0  0  0  0  0  0  0  0  0  0  0
   -1.1906    2.0706    0.0069 O   0  0  0  0  0  0  0  0  0  0  0  0
    0.6145    1.9395    1.3203 N   0  0  0  0  0  0  0  0  0  0  0  0
    1.2964    1.3266    1.7530 H   0  0  0  0  0  0  0  0  0  0  0  0
    0.5897    3.3471    1.6927 C   0  0  0  0  0  0  0  0  0  0  0  0
   -0.3399    3.5875    2.2186 H   0  0  0  0  0  0  0  0  0  0  0  0
    1.4314    3.5764    2.3527 H   0  0  0  0  0  0  0  0  0  0  0  0
    0.6666    3.9797    0.8024 H   0  0  0  0  0  0  0  0  0  0  0  0
  1  2  1  0  0  0  0
  2  3  1  0  0  0  0
  2  4  1  0  0  0  0
  2  5  1  0  0  0  0
  5  6  2  0  0  0  0
  5  7  1  0  0  0  0
  7  8  1  0  0  0  0
  7  9  1  0  0  0  0
  9 10  1  0  0  0  0
  9 11  1  0  0  0  0
  9 20  1  0  0  0  0
 11 12  1  0  0  0  0
 11 13  1  0  0  0  0
 11 14  1  0  0  0  0
 14 15  1  0  0  0  0
 14 16  1  0  0  0  0
 14 17  1  0  0  0  0
 17 18  1  0  0  0  0
 17 19  2  0  0  0  0
 20 21  2  0  0  0  0
 20 22  1  0  0  0  0
 22 23  1  0  0  0  0
 22 24  1  0  0  0  0
 24 25  1  0  0  0  0
 24 26  1  0  0  0  0
 24 27  1  0  0  0  0
M  CHG  1  18  -1
M  END
$$$$

  -OEChem-03222214043D

 27 26  0     1  0  0  0  0  0999 V2000
   -3.0223   -3.7704    1.1212 H   0  0  0  0  0  0  0  0  0  0  0  0
   -3.0100   -2.8357    0.5548 C   0  0  0  0  0  0  0  0  0  0  0  0
   -3.9221   -2.2744    0.7713 H   0  0  0  0  0  0  0  0  0  0  0  0
   -2.9854   -3.0692   -0.5135 H   0  0  0  0  0  0  0  0  0  0  0  0
   -1.7938   -2.0064    0.9254 C   0  0  0  0  0  0  0  0  0  0  0  0
   -1.0509   -2.3801    1.8272 O   0  0  0  0  0  0  0  0  0  0  0  0
   -1.5520   -0.8305    0.2531 N   0  0  0  0  0  0  0  0  0  0  0  0
   -2.0978   -0.7396   -0.6140 H   0  0  0  0  0  0  0  0  0  0  0  0
   -0.2465   -0.1633    0.2206 C   0  0  1  0  0  0  0  0  0  0  0  0
    0.3445   -0.5521    1.0533 H   0  0  0  0  0  0  0  0  0  0  0  0
    0.5190   -0.5508   -1.0673 C   0  0  0  0  0  0  0  0  0  0  0  0
    1.5707   -0.2857   -0.9227 H   0  0  0  0  0  0  0  0  0  0  0  0
    0.4751   -1.6393   -1.1791 H   0  0  0  0  0  0  0  0  0  0  0  0
    0.0625    0.0910   -2.4031 C   0  0  0  0  0  0  0  0  0  0  0  0
    0.2032    1.1734   -2.3324 H   0  0  0  0  0  0  0  0  0  0  0  0
    0.7265   -0.2736   -3.1915 H   0  0  0  0  0  0  0  0  0  0  0  0
   -1.3806   -0.1696   -2.8657 C   0  0  0  0  0  0  0  0  0  0  0  0
   -1.9934   -1.1770   -2.4217 O   0  5  0  0  0  0  0  0  0  0  0  0
   -1.8283    0.5879   -3.7593 O   0  0  0  0  0  0  0  0  0  0  0  0
   -0.3018    1.3631    0.4531 C   0  0  0  0  0  0  0  0  0  0  0  0
   -1.1985    2.0700    0.0132 O   0  0  0  0  0  0  0  0  0  0  0  0
    0.6140    1.9420    1.3162 N   0  0  0  0  0  0  0  0  0  0  0  0
    1.3057    1.3319    1.7370 H   0  0  0  0  0  0  0  0  0  0  0  0
    0.5970    3.3518    1.6793 C   0  0  0  0  0  0  0  0  0  0  0  0
   -0.3423    3.6067    2.1803 H   0  0  0  0  0  0  0  0  0  0  0  0
    1.4243    3.5748    2.3592 H   0  0  0  0  0  0  0  0  0  0  0  0
    0.7039    3.9771    0.7870 H   0  0  0  0  0  0  0  0  0  0  0  0
  1  2  1  0  0  0  0
  2  3  1  0  0  0  0
  2  4  1  0  0  0  0
  2  5  1  0  0  0  0
  5  6  2  0  0  0  0
  5  7  1  0  0  0  0
  7  8  1  0  0  0  0
  7  9  1  0  0  0  0
  9 10  1  0  0  0  0
  9 11  1  0  0  0  0
  9 20  1  0  0  0  0
 11 12  1  0  0  0  0
 11 13  1  0  0  0  0
 11 14  1  0  0  0  0
 14 15  1  0  0  0  0
 14 16  1  0  0  0  0
 14 17  1  0  0  0  0
 17 18  1  0  0  0  0
 17 19  2  0  0  0  0
 20 21  2  0  0  0  0
 20 22  1  0  0  0  0
 22 23  1  0  0  0  0
 22 24  1  0  0  0  0
 24 25  1  0  0  0  0
 24 26  1  0  0  0  0
 24 27  1  0  0  0  0
M  CHG  1  18  -1
M  END
$$$$

  -OEChem-03222214043D

 27 26  0     1  0  0  0  0  0999 V2000
   -3.0185   -3.7792    1.1158 H   0  0  0  0  0  0  0  0  0  0  0  0
   -3.0217   -2.8238    0.5850 C   0  0  0  0  0  0  0  0  0  0  0  0
   -3.9174   -2.2632    0.8625 H   0  0  0  0  0  0  0  0  0  0  0  0
   -3.0459   -3.0156   -0.4916 H   0  0  0  0  0  0  0  0  0  0  0  0
   -1.7824   -2.0191    0.9318 C   0  0  0  0  0  0  0  0  0  0  0  0
   -1.0053   -2.4274    1.7884 O   0  0  0  0  0  0  0  0  0  0  0  0
   -1.5498   -0.8341    0.2736 N   0  0  0  0  0  0  0  0  0  0  0  0
   -2.1410   -0.6931   -0.5570 H   0  0  0  0  0  0  0  0  0  0  0  0
   -0.2536   -0.1517    0.2229 C   0  0  1  0  0  0  0  0  0  0  0  0
    0.3439   -0.5397    1.0516 H   0  0  0  0  0  0  0  0  0  0  0  0
    0.5155   -0.5334   -1.0634 C   0  0  0  0  0  0  0  0  0  0  0  0
    1.5682   -0.2719   -0.9201 H   0  0  0  0  0  0  0  0  0  0  0  0
    0.4675   -1.6228   -1.1630 H   0  0  0  0  0  0  0  0  0  0  0  0
    0.0654    0.0782   -2.4162 C   0  0  0  0  0  0  0  0  0  0  0  0
    0.4192    1.1133   -2.4422 H   0  0  0  0  0  0  0  0  0  0  0  0
    0.5747   -0.4620   -3.2190 H   0  0  0  0  0  0  0  0  0  0  0  0
   -1.4357    0.1013   -2.7472 C   0  0  0  0  0  0  0  0  0  0  0  0
   -2.1426   -0.8794   -2.3897 O   0  5  0  0  0  0  0  0  0  0  0  0
   -1.8368    1.0216   -3.4991 O   0  0  0  0  0  0  0  0  0  0  0  0
   -0.3096    1.3719    0.4712 C   0  0  0  0  0  0  0  0  0  0  0  0
   -1.2331    2.0728    0.0829 O   0  0  0  0  0  0  0  0  0  0  0  0
    0.6218    1.9469    1.3203 N   0  0  0  0  0  0  0  0  0  0  0  0
    1.3421    1.3424    1.6985 H   0  0  0  0  0  0  0  0  0  0  0  0
    0.6040    3.3527    1.6996 C   0  0  0  0  0  0  0  0  0  0  0  0
   -0.3206    3.5932    2.2344 H   0  0  0  0  0  0  0  0  0  0  0  0
    1.4513    3.5765    2.3542 H   0  0  0  0  0  0  0  0  0  0  0  0
    0.6751    3.9890    0.8113 H   0  0  0  0  0  0  0  0  0  0  0  0
  1  2  1  0  0  0  0
  2  3  1  0  0  0  0
  2  4  1  0  0  0  0
  2  5  1  0  0  0  0
  5  6  2  0  0  0  0
  5  7  1  0  0  0  0
  7  8  1  0  0  0  0
  7  9  1  0  0  0  0
  9 10  1  0  0  0  0
  9 11  1  0  0  0  0
  9 20  1  0  0  0  0
 11 12  1  0  0  0  0
 11 13  1  0  0  0  0
 11 14  1  0  0  0  0
 14 15  1  0  0  0  0
 14 16  1  0  0  0  0
 14 17  1  0  0  0  0
 17 18  1  0  0  0  0
 17 19  2  0  0  0  0
 20 21  2  0  0  0  0
 20 22  1  0  0  0  0
 22 23  1  0  0  0  0
 22 24  1  0  0  0  0
 24 25  1  0  0  0  0
 24 26  1  0  0  0  0
 24 27  1  0  0  0  0
M  CHG  1  18  -1
M  END
$$$$

  -OEChem-03222214043D

 27 26  0     1  0  0  0  0  0999 V2000
   -3.0229   -3.7746    1.1045 H   0  0  0  0  0  0  0  0  0  0  0  0
   -3.0341   -2.8062    0.5978 C   0  0  0  0  0  0  0  0  0  0  0  0
   -3.9072   -2.2393    0.9297 H   0  0  0  0  0  0  0  0  0  0  0  0
   -3.1100   -2.9707   -0.4808 H   0  0  0  0  0  0  0  0  0  0  0  0
   -1.7672   -2.0300    0.9079 C   0  0  0  0  0  0  0  0  0  0  0  0
   -0.9522   -2.4806    1.7055 O   0  0  0  0  0  0  0  0  0  0  0  0
   -1.5475   -0.8287    0.2761 N   0  0  0  0  0  0  0  0  0  0  0  0
   -2.1833   -0.6266   -0.5085 H   0  0  0  0  0  0  0  0  0  0  0  0
   -0.2621   -0.1274    0.2145 C   0  0  1  0  0  0  0  0  0  0  0  0
    0.3377   -0.5176    1.0404 H   0  0  0  0  0  0  0  0  0  0  0  0
    0.5153   -0.5112   -1.0647 C   0  0  0  0  0  0  0  0  0  0  0  0
    1.5664   -0.2429   -0.9202 H   0  0  0  0  0  0  0  0  0  0  0  0
    0.4757   -1.6024   -1.1456 H   0  0  0  0  0  0  0  0  0  0  0  0
    0.0718    0.0638   -2.4360 C   0  0  0  0  0  0  0  0  0  0  0  0
    0.6242    0.9966   -2.5866 H   0  0  0  0  0  0  0  0  0  0  0  0
    0.3907   -0.6307   -3.2183 H   0  0  0  0  0  0  0  0  0  0  0  0
   -1.4139    0.3830   -2.6633 C   0  0  0  0  0  0  0  0  0  0  0  0
   -2.2599   -0.4965   -2.3451 O   0  5  0  0  0  0  0  0  0  0  0  0
   -1.6793    1.4131   -3.3284 O   0  0  0  0  0  0  0  0  0  0  0  0
   -0.3166    1.3914    0.4943 C   0  0  0  0  0  0  0  0  0  0  0  0
   -1.2812    2.0826    0.2017 O   0  0  0  0  0  0  0  0  0  0  0  0
    0.6344    1.9488    1.3340 N   0  0  0  0  0  0  0  0  0  0  0  0
    1.3964    1.3519    1.6347 H   0  0  0  0  0  0  0  0  0  0  0  0
    0.6126    3.3408    1.7620 C   0  0  0  0  0  0  0  0  0  0  0  0
   -0.2956    3.5507    2.3360 H   0  0  0  0  0  0  0  0  0  0  0  0
    1.4791    3.5537    2.3947 H   0  0  0  0  0  0  0  0  0  0  0  0
    0.6453    4.0074    0.8940 H   0  0  0  0  0  0  0  0  0  0  0  0
  1  2  1  0  0  0  0
  2  3  1  0  0  0  0
  2  4  1  0  0  0  0
  2  5  1  0  0  0  0
  5  6  2  0  0  0  0
  5  7  1  0  0  0  0
  7  8  1  0  0  0  0
  7  9  1  0  0  0  0
  9 10  1  0  0  0  0
  9 11  1  0  0  0  0
  9 20  1  0  0  0  0
 11 12  1  0  0  0  0
 11 13  1  0  0  0  0
 11 14  1  0  0  0  0
 14 15  1  0  0  0  0
 14 16  1  0  0  0  0
 14 17  1  0  0  0  0
 17 18  1  0  0  0  0
 17 19  2  0  0  0  0
 20 21  2  0  0  0  0
 20 22  1  0  0  0  0
 22 23  1  0  0  0  0
 22 24  1  0  0  0  0
 24 25  1  0  0  0  0
 24 26  1  0  0  0  0
 24 27  1  0  0  0  0
M  CHG  1  18  -1
M  END
$$$$

  -OEChem-03222214043D

 27 26  0     1  0  0  0  0  0999 V2000
   -3.0256   -3.7493    1.1177 H   0  0  0  0  0  0  0  0  0  0  0  0
   -3.0354   -2.7789    0.6148 C   0  0  0  0  0  0  0  0  0  0  0  0
   -3.8857   -2.1970    0.9786 H   0  0  0  0  0  0  0  0  0  0  0  0
   -3.1510   -2.9371   -0.4609 H   0  0  0  0  0  0  0  0  0  0  0  0
   -1.7446   -2.0275    0.8850 C   0  0  0  0  0  0  0  0  0  0  0  0
   -0.8979   -2.5110    1.6282 O   0  0  0  0  0  0  0  0  0  0  0  0
   -1.5376   -0.8142    0.2729 N   0  0  0  0  0  0  0  0  0  0  0  0
   -2.2123   -0.5578   -0.4626 H   0  0  0  0  0  0  0  0  0  0  0  0
   -0.2650   -0.0924    0.1995 C   0  0  1  0  0  0  0  0  0  0  0  0
    0.3335   -0.4768    1.0293 H   0  0  0  0  0  0  0  0  0  0  0  0
    0.5223   -0.5009   -1.0644 C   0  0  0  0  0  0  0  0  0  0  0  0
    1.5661   -0.2045   -0.9226 H   0  0  0  0  0  0  0  0  0  0  0  0
    0.5102   -1.5951   -1.1102 H   0  0  0  0  0  0  0  0  0  0  0  0
    0.0755    0.0215   -2.4547 C   0  0  0  0  0  0  0  0  0  0  0  0
    0.7957    0.7862   -2.7620 H   0  0  0  0  0  0  0  0  0  0  0  0
    0.1567   -0.8003   -3.1719 H   0  0  0  0  0  0  0  0  0  0  0  0
   -1.3250    0.6317   -2.5990 C   0  0  0  0  0  0  0  0  0  0  0  0
   -2.3076   -0.0954   -2.2873 O   0  5  0  0  0  0  0  0  0  0  0  0
   -1.4112    1.7328   -3.1946 O   0  0  0  0  0  0  0  0  0  0  0  0
   -0.3213    1.4234    0.5013 C   0  0  0  0  0  0  0  0  0  0  0  0
   -1.3287    2.0916    0.3215 O   0  0  0  0  0  0  0  0  0  0  0  0
    0.6479    1.9676    1.3295 N   0  0  0  0  0  0  0  0  0  0  0  0
    1.4549    1.3917    1.5391 H   0  0  0  0  0  0  0  0  0  0  0  0
    0.6158    3.3422    1.8106 C   0  0  0  0  0  0  0  0  0  0  0  0
   -0.2590    3.5042    2.4486 H   0  0  0  0  0  0  0  0  0  0  0  0
    1.5152    3.5573    2.3949 H   0  0  0  0  0  0  0  0  0  0  0  0
    0.5746    4.0409    0.9684 H   0  0  0  0  0  0  0  0  0  0  0  0
  1  2  1  0  0  0  0
  2  3  1  0  0  0  0
  2  4  1  0  0  0  0
  2  5  1  0  0  0  0
  5  6  2  0  0  0  0
  5  7  1  0  0  0  0
  7  8  1  0  0  0  0
  7  9  1  0  0  0  0
  9 10  1  0  0  0  0
  9 11  1  0  0  0  0
  9 20  1  0  0  0  0
 11 12  1  0  0  0  0
 11 13  1  0  0  0  0
 11 14  1  0  0  0  0
 14 15  1  0  0  0  0
 14 16  1  0  0  0  0
 14 17  1  0  0  0  0
 17 18  1  0  0  0  0
 17 19  2  0  0  0  0
 20 21  2  0  0  0  0
 20 22  1  0  0  0  0
 22 23  1  0  0  0  0
 22 24  1  0  0  0  0
 24 25  1  0  0  0  0
 24 26  1  0  0  0  0
 24 27  1  0  0  0  0
M  CHG  1  18  -1
M  END
$$$$

  -OEChem-03222214043D

 27 26  0     1  0  0  0  0  0999 V2000
   -2.8653   -3.6242    1.6544 H   0  0  0  0  0  0  0  0  0  0  0  0
   -2.9330   -2.6991    1.0759 C   0  0  0  0  0  0  0  0  0  0  0  0
   -3.7230   -2.0729    1.4980 H   0  0  0  0  0  0  0  0  0  0  0  0
   -3.1908   -2.9441    0.0421 H   0  0  0  0  0  0  0  0  0  0  0  0
   -1.6110   -1.9537    1.1118 C   0  0  0  0  0  0  0  0  0  0  0  0
   -0.6756   -2.3988    1.7668 O   0  0  0  0  0  0  0  0  0  0  0  0
   -1.4815   -0.7846    0.4000 N   0  0  0  0  0  0  0  0  0  0  0  0
   -2.2479   -0.5407   -0.2420 H   0  0  0  0  0  0  0  0  0  0  0  0
   -0.2441   -0.0374    0.1643 C   0  0  1  0  0  0  0  0  0  0  0  0
    0.4115   -0.3276    0.9895 H   0  0  0  0  0  0  0  0  0  0  0  0
    0.4891   -0.5687   -1.0860 C   0  0  0  0  0  0  0  0  0  0  0  0
    1.5175   -0.1963   -1.0445 H   0  0  0  0  0  0  0  0  0  0  0  0
    0.5466   -1.6589   -1.0045 H   0  0  0  0  0  0  0  0  0  0  0  0
   -0.0661   -0.2278   -2.4905 C   0  0  0  0  0  0  0  0  0  0  0  0
    0.7219    0.2817   -3.0535 H   0  0  0  0  0  0  0  0  0  0  0  0
   -0.2715   -1.1667   -3.0129 H   0  0  0  0  0  0  0  0  0  0  0  0
   -1.3344    0.6239   -2.5685 C   0  0  0  0  0  0  0  0  0  0  0  0
   -2.4041    0.0851   -2.1736 O   0  5  0  0  0  0  0  0  0  0  0  0
   -1.2537    1.7369   -3.1427 O   0  0  0  0  0  0  0  0  0  0  0  0
   -0.3193    1.4973    0.3577 C   0  0  0  0  0  0  0  0  0  0  0  0
   -1.3825    2.1009    0.3227 O   0  0  0  0  0  0  0  0  0  0  0  0
    0.7056    2.1178    1.0557 N   0  0  0  0  0  0  0  0  0  0  0  0
    1.5814    1.6132    1.1244 H   0  0  0  0  0  0  0  0  0  0  0  0
    0.6729    3.5218    1.4434 C   0  0  0  0  0  0  0  0  0  0  0  0
   -0.1416    3.7042    2.1519 H   0  0  0  0  0  0  0  0  0  0  0  0
    1.6160    3.8021    1.9212 H   0  0  0  0  0  0  0  0  0  0  0  0
    0.5266    4.1576    0.5640 H   0  0  0  0  0  0  0  0  0  0  0  0
  1  2  1  0  0  0  0
  2  3  1  0  0  0  0
  2  4  1  0  0  0  0
  2  5  1  0  0  0  0
  5  6  2  0  0  0  0
  5  7  1  0  0  0  0
  7  8  1  0  0  0  0
  7  9  1  0  0  0  0
  9 10  1  0  0  0  0
  9 11  1  0  0  0  0
  9 20  1  0  0  0  0
 11 12  1  0  0  0  0
 11 13  1  0  0  0  0
 11 14  1  0  0  0  0
 14 15  1  0  0  0  0
 14 16  1  0  0  0  0
 14 17  1  0  0  0  0
 17 18  1  0  0  0  0
 17 19  2  0  0  0  0
 20 21  2  0  0  0  0
 20 22  1  0  0  0  0
 22 23  1  0  0  0  0
 22 24  1  0  0  0  0
 24 25  1  0  0  0  0
 24 26  1  0  0  0  0
 24 27  1  0  0  0  0
M  CHG  1  18  -1
M  END
$$$$

  -OEChem-03222214043D

 27 26  0     1  0  0  0  0  0999 V2000
   -3.1295   -3.5955    1.2901 H   0  0  0  0  0  0  0  0  0  0  0  0
   -3.1097   -2.6568    0.7300 C   0  0  0  0  0  0  0  0  0  0  0  0
   -3.9114   -2.0090    1.0935 H   0  0  0  0  0  0  0  0  0  0  0  0
   -3.2803   -2.8718   -0.3281 H   0  0  0  0  0  0  0  0  0  0  0  0
   -1.7699   -1.9650    0.9050 C   0  0  0  0  0  0  0  0  0  0  0  0
   -0.9149   -2.4636    1.6266 O   0  0  0  0  0  0  0  0  0  0  0  0
   -1.5334   -0.7844    0.2403 N   0  0  0  0  0  0  0  0  0  0  0  0
   -2.2526   -0.4500   -0.4077 H   0  0  0  0  0  0  0  0  0  0  0  0
   -0.2721   -0.0401    0.1968 C   0  0  1  0  0  0  0  0  0  0  0  0
    0.2462   -0.3334    1.1138 H   0  0  0  0  0  0  0  0  0  0  0  0
    0.6545   -0.5808   -0.9153 C   0  0  0  0  0  0  0  0  0  0  0  0
    1.6525   -0.1803   -0.7127 H   0  0  0  0  0  0  0  0  0  0  0  0
    0.7247   -1.6687   -0.8153 H   0  0  0  0  0  0  0  0  0  0  0  0
    0.3340   -0.2517   -2.3895 C   0  0  0  0  0  0  0  0  0  0  0  0
    1.2669   -0.0169   -2.9106 H   0  0  0  0  0  0  0  0  0  0  0  0
   -0.0678   -1.1566   -2.8550 H   0  0  0  0  0  0  0  0  0  0  0  0
   -0.6679    0.8672   -2.6467 C   0  0  0  0  0  0  0  0  0  0  0  0
   -1.8862    0.5533   -2.6367 O   0  5  0  0  0  0  0  0  0  0  0  0
   -0.2106    2.0090   -2.8989 O   0  0  0  0  0  0  0  0  0  0  0  0
   -0.3959    1.4909    0.4072 C   0  0  0  0  0  0  0  0  0  0  0  0
   -1.4845    2.0452    0.3142 O   0  0  0  0  0  0  0  0  0  0  0  0
    0.5115    2.1048    1.2577 N   0  0  0  0  0  0  0  0  0  0  0  0
    1.4174    1.6582    1.3354 H   0  0  0  0  0  0  0  0  0  0  0  0
    0.3966    3.5015    1.6566 C   0  0  0  0  0  0  0  0  0  0  0  0
   -0.5119    3.6591    2.2470 H   0  0  0  0  0  0  0  0  0  0  0  0
    1.2577    3.7901    2.2663 H   0  0  0  0  0  0  0  0  0  0  0  0
    0.3625    4.1487    0.7739 H   0  0  0  0  0  0  0  0  0  0  0  0
  1  2  1  0  0  0  0
  2  3  1  0  0  0  0
  2  4  1  0  0  0  0
  2  5  1  0  0  0  0
  5  6  2  0  0  0  0
  5  7  1  0  0  0  0
  7  8  1  0  0  0  0
  7  9  1  0  0  0  0
  9 10  1  0  0  0  0
  9 11  1  0  0  0  0
  9 20  1  0  0  0  0
 11 12  1  0  0  0  0
 11 13  1  0  0  0  0
 11 14  1  0  0  0  0
 14 15  1  0  0  0  0
 14 16  1  0  0  0  0
 14 17  1  0  0  0  0
 17 18  1  0  0  0  0
 17 19  2  0  0  0  0
 20 21  2  0  0  0  0
 20 22  1  0  0  0  0
 22 23  1  0  0  0  0
 22 24  1  0  0  0  0
 24 25  1  0  0  0  0
 24 26  1  0  0  0  0
 24 27  1  0  0  0  0
M  CHG  1  18  -1
M  END
$$$$

  -OEChem-03222214043D

 27 26  0     1  0  0  0  0  0999 V2000
   -3.3725   -3.5227    1.0160 H   0  0  0  0  0  0  0  0  0  0  0  0
   -3.2653   -2.5731    0.4848 C   0  0  0  0  0  0  0  0  0  0  0  0
   -3.9929   -1.8611    0.8825 H   0  0  0  0  0  0  0  0  0  0  0  0
   -3.4711   -2.7360   -0.5762 H   0  0  0  0  0  0  0  0  0  0  0  0
   -1.8598   -2.0258    0.6593 C   0  0  0  0  0  0  0  0  0  0  0  0
   -1.0372   -2.6562    1.3107 O   0  0  0  0  0  0  0  0  0  0  0  0
   -1.5327   -0.8179    0.0871 N   0  0  0  0  0  0  0  0  0  0  0  0
   -2.2689   -0.3032   -0.3975 H   0  0  0  0  0  0  0  0  0  0  0  0
   -0.2421   -0.1271    0.1937 C   0  0  1  0  0  0  0  0  0  0  0  0
    0.2148   -0.4958    1.1166 H   0  0  0  0  0  0  0  0  0  0  0  0
    0.7318   -0.5926   -0.9151 C   0  0  0  0  0  0  0  0  0  0  0  0
    1.7248   -0.2504   -0.6071 H   0  0  0  0  0  0  0  0  0  0  0  0
    0.7607   -1.6869   -0.9182 H   0  0  0  0  0  0  0  0  0  0  0  0
    0.5465   -0.1130   -2.3712 C   0  0  0  0  0  0  0  0  0  0  0  0
    1.5166   -0.1362   -2.8759 H   0  0  0  0  0  0  0  0  0  0  0  0
   -0.0959   -0.8393   -2.8781 H   0  0  0  0  0  0  0  0  0  0  0  0
   -0.0723    1.2651   -2.5761 C   0  0  0  0  0  0  0  0  0  0  0  0
    0.6333    2.2475   -2.2321 O   0  5  0  0  0  0  0  0  0  0  0  0
   -1.1885    1.3373   -3.1469 O   0  0  0  0  0  0  0  0  0  0  0  0
   -0.4062    1.3853    0.4898 C   0  0  0  0  0  0  0  0  0  0  0  0
   -1.5135    1.8982    0.3485 O   0  0  0  0  0  0  0  0  0  0  0  0
    0.4064    1.9587    1.4547 N   0  0  0  0  0  0  0  0  0  0  0  0
    1.3454    1.5796    1.4916 H   0  0  0  0  0  0  0  0  0  0  0  0
    0.2305    3.3422    1.8761 C   0  0  0  0  0  0  0  0  0  0  0  0
   -0.7303    3.4701    2.3850 H   0  0  0  0  0  0  0  0  0  0  0  0
    1.0275    3.6277    2.5686 H   0  0  0  0  0  0  0  0  0  0  0  0
    0.2650    4.0120    1.0100 H   0  0  0  0  0  0  0  0  0  0  0  0
  1  2  1  0  0  0  0
  2  3  1  0  0  0  0
  2  4  1  0  0  0  0
  2  5  1  0  0  0  0
  5  6  2  0  0  0  0
  5  7  1  0  0  0  0
  7  8  1  0  0  0  0
  7  9  1  0  0  0  0
  9 10  1  0  0  0  0
  9 11  1  0  0  0  0
  9 20  1  0  0  0  0
 11 12  1  0  0  0  0
 11 13  1  0  0  0  0
 11 14  1  0  0  0  0
 14 15  1  0  0  0  0
 14 16  1  0  0  0  0
 14 17  1  0  0  0  0
 17 18  1  0  0  0  0
 17 19  2  0  0  0  0
 20 21  2  0  0  0  0
 20 22  1  0  0  0  0
 22 23  1  0  0  0  0
 22 24  1  0  0  0  0
 24 25  1  0  0  0  0
 24 26  1  0  0  0  0
 24 27  1  0  0  0  0
M  CHG  1  18  -1
M  END
$$$$

  -OEChem-03222214043D

 27 26  0     1  0  0  0  0  0999 V2000
   -3.2672   -3.5665    1.0964 H   0  0  0  0  0  0  0  0  0  0  0  0
   -3.1913   -2.6103    0.5717 C   0  0  0  0  0  0  0  0  0  0  0  0
   -3.8690   -1.8939    1.0431 H   0  0  0  0  0  0  0  0  0  0  0  0
   -3.4927   -2.7525   -0.4692 H   0  0  0  0  0  0  0  0  0  0  0  0
   -1.7664   -2.0890    0.6288 C   0  0  0  0  0  0  0  0  0  0  0  0
   -0.8952   -2.7567    1.1696 O   0  0  0  0  0  0  0  0  0  0  0  0
   -1.4777   -0.8605    0.0800 N   0  0  0  0  0  0  0  0  0  0  0  0
   -2.2578   -0.2958   -0.2562 H   0  0  0  0  0  0  0  0  0  0  0  0
   -0.1826   -0.1709    0.1453 C   0  0  1  0  0  0  0  0  0  0  0  0
    0.3441   -0.5728    1.0157 H   0  0  0  0  0  0  0  0  0  0  0  0
    0.7046   -0.5560   -1.0636 C   0  0  0  0  0  0  0  0  0  0  0  0
    1.7237   -0.2462   -0.8105 H   0  0  0  0  0  0  0  0  0  0  0  0
    0.7158   -1.6471   -1.1503 H   0  0  0  0  0  0  0  0  0  0  0  0
    0.4076    0.0303   -2.4610 C   0  0  0  0  0  0  0  0  0  0  0  0
    1.2561   -0.1836   -3.1168 H   0  0  0  0  0  0  0  0  0  0  0  0
   -0.4619   -0.4955   -2.8668 H   0  0  0  0  0  0  0  0  0  0  0  0
    0.1212    1.5289   -2.5228 C   0  0  0  0  0  0  0  0  0  0  0  0
    0.9634    2.2808   -1.9656 O   0  5  0  0  0  0  0  0  0  0  0  0
   -0.8460    1.9212   -3.2198 O   0  0  0  0  0  0  0  0  0  0  0  0
   -0.3768    1.3240    0.5040 C   0  0  0  0  0  0  0  0  0  0  0  0
   -1.5038    1.8071    0.4036 O   0  0  0  0  0  0  0  0  0  0  0  0
    0.4575    1.8925    1.4518 N   0  0  0  0  0  0  0  0  0  0  0  0
    1.4185    1.5748    1.3891 H   0  0  0  0  0  0  0  0  0  0  0  0
    0.2486    3.2554    1.9217 C   0  0  0  0  0  0  0  0  0  0  0  0
   -0.6986    3.3350    2.4649 H   0  0  0  0  0  0  0  0  0  0  0  0
    1.0580    3.5468    2.5971 H   0  0  0  0  0  0  0  0  0  0  0  0
    0.2327    3.9521    1.0767 H   0  0  0  0  0  0  0  0  0  0  0  0
  1  2  1  0  0  0  0
  2  3  1  0  0  0  0
  2  4  1  0  0  0  0
  2  5  1  0  0  0  0
  5  6  2  0  0  0  0
  5  7  1  0  0  0  0
  7  8  1  0  0  0  0
  7  9  1  0  0  0  0
  9 10  1  0  0  0  0
  9 11  1  0  0  0  0
  9 20  1  0  0  0  0
 11 12  1  0  0  0  0
 11 13  1  0  0  0  0
 11 14  1  0  0  0  0
 14 15  1  0  0  0  0
 14 16  1  0  0  0  0
 14 17  1  0  0  0  0
 17 18  1  0  0  0  0
 17 19  2  0  0  0  0
 20 21  2  0  0  0  0
 20 22  1  0  0  0  0
 22 23  1  0  0  0  0
 22 24  1  0  0  0  0
 24 25  1  0  0  0  0
 24 26  1  0  0  0  0
 24 27  1  0  0  0  0
M  CHG  1  18  -1
M  END
$$$$

  -OEChem-03222214043D

 27 26  0     1  0  0  0  0  0999 V2000
   -3.2246   -3.5621    1.2184 H   0  0  0  0  0  0  0  0  0  0  0  0
   -3.1557   -2.6170    0.6731 C   0  0  0  0  0  0  0  0  0  0  0  0
   -3.8086   -1.8838    1.1534 H   0  0  0  0  0  0  0  0  0  0  0  0
   -3.4935   -2.7754   -0.3541 H   0  0  0  0  0  0  0  0  0  0  0  0
   -1.7236   -2.1125    0.6719 C   0  0  0  0  0  0  0  0  0  0  0  0
   -0.8411   -2.7851    1.1868 O   0  0  0  0  0  0  0  0  0  0  0  0
   -1.4403   -0.8949    0.0963 N   0  0  0  0  0  0  0  0  0  0  0  0
   -2.2266   -0.3184   -0.2028 H   0  0  0  0  0  0  0  0  0  0  0  0
   -0.1389   -0.2133    0.1286 C   0  0  1  0  0  0  0  0  0  0  0  0
    0.4221   -0.6111    0.9794 H   0  0  0  0  0  0  0  0  0  0  0  0
    0.6951   -0.5695   -1.1244 C   0  0  0  0  0  0  0  0  0  0  0  0
    1.7359   -0.3024   -0.9146 H   0  0  0  0  0  0  0  0  0  0  0  0
    0.6674   -1.6561   -1.2529 H   0  0  0  0  0  0  0  0  0  0  0  0
    0.3150    0.0793   -2.4729 C   0  0  0  0  0  0  0  0  0  0  0  0
    0.9883   -0.3042   -3.2444 H   0  0  0  0  0  0  0  0  0  0  0  0
   -0.7014   -0.2303   -2.7337 H   0  0  0  0  0  0  0  0  0  0  0  0
    0.3841    1.6091   -2.5048 C   0  0  0  0  0  0  0  0  0  0  0  0
    1.3035    2.1564   -1.8388 O   0  5  0  0  0  0  0  0  0  0  0  0
   -0.3934    2.2127   -3.2827 O   0  0  0  0  0  0  0  0  0  0  0  0
   -0.3460    1.2846    0.4671 C   0  0  0  0  0  0  0  0  0  0  0  0
   -1.4732    1.7621    0.3342 O   0  0  0  0  0  0  0  0  0  0  0  0
    0.4878    1.8853    1.3942 N   0  0  0  0  0  0  0  0  0  0  0  0
    1.4560    1.5957    1.3003 H   0  0  0  0  0  0  0  0  0  0  0  0
    0.2662    3.2616    1.8170 C   0  0  0  0  0  0  0  0  0  0  0  0
   -0.6872    3.3536    2.3471 H   0  0  0  0  0  0  0  0  0  0  0  0
    1.0666    3.5802    2.4909 H   0  0  0  0  0  0  0  0  0  0  0  0
    0.2552    3.9295    0.9489 H   0  0  0  0  0  0  0  0  0  0  0  0
  1  2  1  0  0  0  0
  2  3  1  0  0  0  0
  2  4  1  0  0  0  0
  2  5  1  0  0  0  0
  5  6  2  0  0  0  0
  5  7  1  0  0  0  0
  7  8  1  0  0  0  0
  7  9  1  0  0  0  0
  9 10  1  0  0  0  0
  9 11  1  0  0  0  0
  9 20  1  0  0  0  0
 11 12  1  0  0  0  0
 11 13  1  0  0  0  0
 11 14  1  0  0  0  0
 14 15  1  0  0  0  0
 14 16  1  0  0  0  0
 14 17  1  0  0  0  0
 17 18  1  0  0  0  0
 17 19  2  0  0  0  0
 20 21  2  0  0  0  0
 20 22  1  0  0  0  0
 22 23  1  0  0  0  0
 22 24  1  0  0  0  0
 24 25  1  0  0  0  0
 24 26  1  0  0  0  0
 24 27  1  0  0  0  0
M  CHG  1  18  -1
M  END
$$$$

  -OEChem-03222214043D

 27 26  0     1  0  0  0  0  0999 V2000
   -3.2453   -3.5401    1.2724 H   0  0  0  0  0  0  0  0  0  0  0  0
   -3.1599   -2.6174    0.6919 C   0  0  0  0  0  0  0  0  0  0  0  0
   -3.8113   -1.8600    1.1352 H   0  0  0  0  0  0  0  0  0  0  0  0
   -3.4867   -2.8125   -0.3326 H   0  0  0  0  0  0  0  0  0  0  0  0
   -1.7230   -2.1267    0.6902 C   0  0  0  0  0  0  0  0  0  0  0  0
   -0.8520   -2.7949    1.2291 O   0  0  0  0  0  0  0  0  0  0  0  0
   -1.4242   -0.9247    0.0900 N   0  0  0  0  0  0  0  0  0  0  0  0
   -2.2036   -0.3467   -0.2231 H   0  0  0  0  0  0  0  0  0  0  0  0
   -0.1171   -0.2526    0.1241 C   0  0  1  0  0  0  0  0  0  0  0  0
    0.4459   -0.6444    0.9763 H   0  0  0  0  0  0  0  0  0  0  0  0
    0.7123   -0.5845   -1.1347 C   0  0  0  0  0  0  0  0  0  0  0  0
    1.7650   -0.3616   -0.9327 H   0  0  0  0  0  0  0  0  0  0  0  0
    0.6498   -1.6646   -1.3002 H   0  0  0  0  0  0  0  0  0  0  0  0
    0.2917    0.1210   -2.4420 C   0  0  0  0  0  0  0  0  0  0  0  0
    0.7666   -0.3966   -3.2800 H   0  0  0  0  0  0  0  0  0  0  0  0
   -0.7918    0.0352   -2.5658 H   0  0  0  0  0  0  0  0  0  0  0  0
    0.6923    1.6021   -2.5253 C   0  0  0  0  0  0  0  0  0  0  0  0
    1.5853    2.0250   -1.7418 O   0  5  0  0  0  0  0  0  0  0  0  0
    0.1684    2.2825   -3.4400 O   0  0  0  0  0  0  0  0  0  0  0  0
   -0.3259    1.2526    0.4259 C   0  0  0  0  0  0  0  0  0  0  0  0
   -1.4406    1.7394    0.2314 O   0  0  0  0  0  0  0  0  0  0  0  0
    0.4927    1.8765    1.3502 N   0  0  0  0  0  0  0  0  0  0  0  0
    1.4635    1.5903    1.2649 H   0  0  0  0  0  0  0  0  0  0  0  0
    0.2679    3.2649    1.7289 C   0  0  0  0  0  0  0  0  0  0  0  0
   -0.7008    3.3772    2.2263 H   0  0  0  0  0  0  0  0  0  0  0  0
    1.0493    3.5960    2.4189 H   0  0  0  0  0  0  0  0  0  0  0  0
    0.2893    3.9093    0.8435 H   0  0  0  0  0  0  0  0  0  0  0  0
  1  2  1  0  0  0  0
  2  3  1  0  0  0  0
  2  4  1  0  0  0  0
  2  5  1  0  0  0  0
  5  6  2  0  0  0  0
  5  7  1  0  0  0  0
  7  8  1  0  0  0  0
  7  9  1  0  0  0  0
  9 10  1  0  0  0  0
  9 11  1  0  0  0  0
  9 20  1  0  0  0  0
 11 12  1  0  0  0  0
 11 13  1  0  0  0  0
 11 14  1  0  0  0  0
 14 15  1  0  0  0  0
 14 16  1  0  0  0  0
 14 17  1  0  0  0  0
 17 18  1  0  0  0  0
 17 19  2  0  0  0  0
 20 21  2  0  0  0  0
 20 22  1  0  0  0  0
 22 23  1  0  0  0  0
 22 24  1  0  0  0  0
 24 25  1  0  0  0  0
 24 26  1  0  0  0  0
 24 27  1  0  0  0  0
M  CHG  1  18  -1
M  END
$$$$

  -OEChem-03222214043D

 27 26  0     1  0  0  0  0  0999 V2000
   -3.2465   -3.5466    1.2879 H   0  0  0  0  0  0  0  0  0  0  0  0
   -3.1603   -2.6218    0.7109 C   0  0  0  0  0  0  0  0  0  0  0  0
   -3.8047   -1.8630    1.1620 H   0  0  0  0  0  0  0  0  0  0  0  0
   -3.4946   -2.8105   -0.3122 H   0  0  0  0  0  0  0  0  0  0  0  0
   -1.7213   -2.1381    0.7024 C   0  0  0  0  0  0  0  0  0  0  0  0
   -0.8541   -2.8005    1.2541 O   0  0  0  0  0  0  0  0  0  0  0  0
   -1.4177   -0.9456    0.0861 N   0  0  0  0  0  0  0  0  0  0  0  0
   -2.1941   -0.3716   -0.2403 H   0  0  0  0  0  0  0  0  0  0  0  0
   -0.1085   -0.2779    0.1153 C   0  0  1  0  0  0  0  0  0  0  0  0
    0.4584   -0.6676    0.9658 H   0  0  0  0  0  0  0  0  0  0  0  0
    0.7163   -0.5898   -1.1479 C   0  0  0  0  0  0  0  0  0  0  0  0
    1.7752   -0.3912   -0.9537 H   0  0  0  0  0  0  0  0  0  0  0  0
    0.6365   -1.6649   -1.3371 H   0  0  0  0  0  0  0  0  0  0  0  0
    0.2610    0.1538   -2.4221 C   0  0  0  0  0  0  0  0  0  0  0  0
    0.5026   -0.4712   -3.2866 H   0  0  0  0  0  0  0  0  0  0  0  0
   -0.8233    0.2947   -2.4072 H   0  0  0  0  0  0  0  0  0  0  0  0
    0.9505    1.5143   -2.6271 C   0  0  0  0  0  0  0  0  0  0  0  0
    1.6985    1.9648   -1.7170 O   0  5  0  0  0  0  0  0  0  0  0  0
    0.7593    2.0786   -3.7317 O   0  0  0  0  0  0  0  0  0  0  0  0
   -0.3102    1.2324    0.3956 C   0  0  0  0  0  0  0  0  0  0  0  0
   -1.4163    1.7293    0.1751 O   0  0  0  0  0  0  0  0  0  0  0  0
    0.5088    1.8639    1.3137 N   0  0  0  0  0  0  0  0  0  0  0  0
    1.4788    1.5735    1.2281 H   0  0  0  0  0  0  0  0  0  0  0  0
    0.2922    3.2587    1.6721 C   0  0  0  0  0  0  0  0  0  0  0  0
   -0.6791    3.3853    2.1609 H   0  0  0  0  0  0  0  0  0  0  0  0
    1.0713    3.5929    2.3634 H   0  0  0  0  0  0  0  0  0  0  0  0
    0.3252    3.8910    0.7784 H   0  0  0  0  0  0  0  0  0  0  0  0
  1  2  1  0  0  0  0
  2  3  1  0  0  0  0
  2  4  1  0  0  0  0
  2  5  1  0  0  0  0
  5  6  2  0  0  0  0
  5  7  1  0  0  0  0
  7  8  1  0  0  0  0
  7  9  1  0  0  0  0
  9 10  1  0  0  0  0
  9 11  1  0  0  0  0
  9 20  1  0  0  0  0
 11 12  1  0  0  0  0
 11 13  1  0  0  0  0
 11 14  1  0  0  0  0
 14 15  1  0  0  0  0
 14 16  1  0  0  0  0
 14 17  1  0  0  0  0
 17 18  1  0  0  0  0
 17 19  2  0  0  0  0
 20 21  2  0  0  0  0
 20 22  1  0  0  0  0
 22 23  1  0  0  0  0
 22 24  1  0  0  0  0
 24 25  1  0  0  0  0
 24 26  1  0  0  0  0
 24 27  1  0  0  0  0
M  CHG  1  18  -1
M  END
$$$$

  -OEChem-03222214043D

 27 26  0     1  0  0  0  0  0999 V2000
   -3.2384   -3.5650    1.2955 H   0  0  0  0  0  0  0  0  0  0  0  0
   -3.1588   -2.6408    0.7165 C   0  0  0  0  0  0  0  0  0  0  0  0
   -3.8099   -1.8863    1.1650 H   0  0  0  0  0  0  0  0  0  0  0  0
   -3.4904   -2.8347   -0.3066 H   0  0  0  0  0  0  0  0  0  0  0  0
   -1.7232   -2.1461    0.7075 C   0  0  0  0  0  0  0  0  0  0  0  0
   -0.8516   -2.8015    1.2604 O   0  0  0  0  0  0  0  0  0  0  0  0
   -1.4273   -0.9528    0.0883 N   0  0  0  0  0  0  0  0  0  0  0  0
   -2.2064   -0.3861   -0.2431 H   0  0  0  0  0  0  0  0  0  0  0  0
   -0.1186   -0.2836    0.1041 C   0  0  1  0  0  0  0  0  0  0  0  0
    0.4569   -0.6769    0.9471 H   0  0  0  0  0  0  0  0  0  0  0  0
    0.6965   -0.5814   -1.1664 C   0  0  0  0  0  0  0  0  0  0  0  0
    1.7549   -0.3740   -0.9770 H   0  0  0  0  0  0  0  0  0  0  0  0
    0.6261   -1.6552   -1.3663 H   0  0  0  0  0  0  0  0  0  0  0  0
    0.2168    0.1764   -2.4235 C   0  0  0  0  0  0  0  0  0  0  0  0
    0.1964   -0.5237   -3.2641 H   0  0  0  0  0  0  0  0  0  0  0  0
   -0.8004    0.5539   -2.2894 H   0  0  0  0  0  0  0  0  0  0  0  0
    1.1526    1.3390   -2.7874 C   0  0  0  0  0  0  0  0  0  0  0  0
    1.7073    1.9734   -1.8503 O   0  5  0  0  0  0  0  0  0  0  0  0
    1.3282    1.5753   -4.0078 O   0  0  0  0  0  0  0  0  0  0  0  0
   -0.3025    1.2288    0.3861 C   0  0  0  0  0  0  0  0  0  0  0  0
   -1.4043    1.7390    0.1751 O   0  0  0  0  0  0  0  0  0  0  0  0
    0.5332    1.8540    1.2938 N   0  0  0  0  0  0  0  0  0  0  0  0
    1.4958    1.5366    1.2245 H   0  0  0  0  0  0  0  0  0  0  0  0
    0.3439    3.2546    1.6456 C   0  0  0  0  0  0  0  0  0  0  0  0
   -0.6207    3.4010    2.1419 H   0  0  0  0  0  0  0  0  0  0  0  0
    1.1345    3.5794    2.3281 H   0  0  0  0  0  0  0  0  0  0  0  0
    0.3799    3.8809    0.7479 H   0  0  0  0  0  0  0  0  0  0  0  0
  1  2  1  0  0  0  0
  2  3  1  0  0  0  0
  2  4  1  0  0  0  0
  2  5  1  0  0  0  0
  5  6  2  0  0  0  0
  5  7  1  0  0  0  0
  7  8  1  0  0  0  0
  7  9  1  0  0  0  0
  9 10  1  0  0  0  0
  9 11  1  0  0  0  0
  9 20  1  0  0  0  0
 11 12  1  0  0  0  0
 11 13  1  0  0  0  0
 11 14  1  0  0  0  0
 14 15  1  0  0  0  0
 14 16  1  0  0  0  0
 14 17  1  0  0  0  0
 17 18  1  0  0  0  0
 17 19  2  0  0  0  0
 20 21  2  0  0  0  0
 20 22  1  0  0  0  0
 22 23  1  0  0  0  0
 22 24  1  0  0  0  0
 24 25  1  0  0  0  0
 24 26  1  0  0  0  0
 24 27  1  0  0  0  0
M  CHG  1  18  -1
M  END
$$$$

  -OEChem-03222214043D

 27 26  0     1  0  0  0  0  0999 V2000
   -3.2293   -3.6002    1.2608 H   0  0  0  0  0  0  0  0  0  0  0  0
   -3.1552   -2.6753    0.6823 C   0  0  0  0  0  0  0  0  0  0  0  0
   -3.8357   -1.9352    1.1109 H   0  0  0  0  0  0  0  0  0  0  0  0
   -3.4541   -2.8789   -0.3490 H   0  0  0  0  0  0  0  0  0  0  0  0
   -1.7318   -2.1475    0.7120 C   0  0  0  0  0  0  0  0  0  0  0  0
   -0.8603   -2.7816    1.2892 O   0  0  0  0  0  0  0  0  0  0  0  0
   -1.4474   -0.9470    0.1007 N   0  0  0  0  0  0  0  0  0  0  0  0
   -2.2269   -0.4107   -0.2756 H   0  0  0  0  0  0  0  0  0  0  0  0
   -0.1453   -0.2661    0.1084 C   0  0  1  0  0  0  0  0  0  0  0  0
    0.4346   -0.6650    0.9457 H   0  0  0  0  0  0  0  0  0  0  0  0
    0.6665   -0.5641   -1.1620 C   0  0  0  0  0  0  0  0  0  0  0  0
    1.7156   -0.3186   -0.9654 H   0  0  0  0  0  0  0  0  0  0  0  0
    0.6336   -1.6411   -1.3553 H   0  0  0  0  0  0  0  0  0  0  0  0
    0.1742    0.1790   -2.4240 C   0  0  0  0  0  0  0  0  0  0  0  0
   -0.1132   -0.5590   -3.1789 H   0  0  0  0  0  0  0  0  0  0  0  0
   -0.7114    0.7833   -2.2143 H   0  0  0  0  0  0  0  0  0  0  0  0
    1.2690    1.0837   -2.9980 C   0  0  0  0  0  0  0  0  0  0  0  0
    1.8278    1.8892   -2.2077 O   0  5  0  0  0  0  0  0  0  0  0  0
    1.5604    0.9555   -4.2125 O   0  0  0  0  0  0  0  0  0  0  0  0
   -0.3034    1.2457    0.4011 C   0  0  0  0  0  0  0  0  0  0  0  0
   -1.3876    1.7870    0.1846 O   0  0  0  0  0  0  0  0  0  0  0  0
    0.5534    1.8543    1.3005 N   0  0  0  0  0  0  0  0  0  0  0  0
    1.4943    1.4726    1.2948 H   0  0  0  0  0  0  0  0  0  0  0  0
    0.4195    3.2635    1.6430 C   0  0  0  0  0  0  0  0  0  0  0  0
   -0.5421    3.4526    2.1308 H   0  0  0  0  0  0  0  0  0  0  0  0
    1.2175    3.5589    2.3303 H   0  0  0  0  0  0  0  0  0  0  0  0
    0.4890    3.8829    0.7425 H   0  0  0  0  0  0  0  0  0  0  0  0
  1  2  1  0  0  0  0
  2  3  1  0  0  0  0
  2  4  1  0  0  0  0
  2  5  1  0  0  0  0
  5  6  2  0  0  0  0
  5  7  1  0  0  0  0
  7  8  1  0  0  0  0
  7  9  1  0  0  0  0
  9 10  1  0  0  0  0
  9 11  1  0  0  0  0
  9 20  1  0  0  0  0
 11 12  1  0  0  0  0
 11 13  1  0  0  0  0
 11 14  1  0  0  0  0
 14 15  1  0  0  0  0
 14 16  1  0  0  0  0
 14 17  1  0  0  0  0
 17 18  1  0  0  0  0
 17 19  2  0  0  0  0
 20 21  2  0  0  0  0
 20 22  1  0  0  0  0
 22 23  1  0  0  0  0
 22 24  1  0  0  0  0
 24 25  1  0  0  0  0
 24 26  1  0  0  0  0
 24 27  1  0  0  0  0
M  CHG  1  18  -1
M  END
$$$$

  -OEChem-03222214043D

 27 26  0     1  0  0  0  0  0999 V2000
   -3.2158   -3.6249    1.2053 H   0  0  0  0  0  0  0  0  0  0  0  0
   -3.1476   -2.6917    0.6396 C   0  0  0  0  0  0  0  0  0  0  0  0
   -3.8574   -1.9731    1.0566 H   0  0  0  0  0  0  0  0  0  0  0  0
   -3.4118   -2.8899   -0.4022 H   0  0  0  0  0  0  0  0  0  0  0  0
   -1.7386   -2.1313    0.7167 C   0  0  0  0  0  0  0  0  0  0  0  0
   -0.8740   -2.7411    1.3294 O   0  0  0  0  0  0  0  0  0  0  0  0
   -1.4607   -0.9251    0.1130 N   0  0  0  0  0  0  0  0  0  0  0  0
   -2.2328   -0.4202   -0.3173 H   0  0  0  0  0  0  0  0  0  0  0  0
   -0.1607   -0.2407    0.1167 C   0  0  1  0  0  0  0  0  0  0  0  0
    0.4226   -0.6450    0.9492 H   0  0  0  0  0  0  0  0  0  0  0  0
    0.6389   -0.5560   -1.1587 C   0  0  0  0  0  0  0  0  0  0  0  0
    1.6791   -0.2754   -0.9625 H   0  0  0  0  0  0  0  0  0  0  0  0
    0.6352   -1.6362   -1.3372 H   0  0  0  0  0  0  0  0  0  0  0  0
    0.1476    0.1650   -2.4339 C   0  0  0  0  0  0  0  0  0  0  0  0
   -0.4124   -0.5411   -3.0542 H   0  0  0  0  0  0  0  0  0  0  0  0
   -0.5304    0.9858   -2.1922 H   0  0  0  0  0  0  0  0  0  0  0  0
    1.3189    0.7462   -3.2295 C   0  0  0  0  0  0  0  0  0  0  0  0
    2.0299    1.6150   -2.6614 O   0  5  0  0  0  0  0  0  0  0  0  0
    1.5164    0.3063   -4.3891 O   0  0  0  0  0  0  0  0  0  0  0  0
   -0.3021    1.2688    0.4205 C   0  0  0  0  0  0  0  0  0  0  0  0
   -1.3647    1.8400    0.1826 O   0  0  0  0  0  0  0  0  0  0  0  0
    0.5671    1.8654    1.3164 N   0  0  0  0  0  0  0  0  0  0  0  0
    1.4846    1.4349    1.3756 H   0  0  0  0  0  0  0  0  0  0  0  0
    0.4602    3.2723    1.6772 C   0  0  0  0  0  0  0  0  0  0  0  0
   -0.4959    3.4713    2.1719 H   0  0  0  0  0  0  0  0  0  0  0  0
    1.2663    3.5455    2.3644 H   0  0  0  0  0  0  0  0  0  0  0  0
    0.5358    3.9022    0.7846 H   0  0  0  0  0  0  0  0  0  0  0  0
  1  2  1  0  0  0  0
  2  3  1  0  0  0  0
  2  4  1  0  0  0  0
  2  5  1  0  0  0  0
  5  6  2  0  0  0  0
  5  7  1  0  0  0  0
  7  8  1  0  0  0  0
  7  9  1  0  0  0  0
  9 10  1  0  0  0  0
  9 11  1  0  0  0  0
  9 20  1  0  0  0  0
 11 12  1  0  0  0  0
 11 13  1  0  0  0  0
 11 14  1  0  0  0  0
 14 15  1  0  0  0  0
 14 16  1  0  0  0  0
 14 17  1  0  0  0  0
 17 18  1  0  0  0  0
 17 19  2  0  0  0  0
 20 21  2  0  0  0  0
 20 22  1  0  0  0  0
 22 23  1  0  0  0  0
 22 24  1  0  0  0  0
 24 25  1  0  0  0  0
 24 26  1  0  0  0  0
 24 27  1  0  0  0  0
M  CHG  1  18  -1
M  END
$$$$

  -OEChem-03222214043D

 27 26  0     1  0  0  0  0  0999 V2000
   -3.2067   -3.6433    1.1555 H   0  0  0  0  0  0  0  0  0  0  0  0
   -3.1428   -2.6997    0.6064 C   0  0  0  0  0  0  0  0  0  0  0  0
   -3.8741   -2.0004    1.0194 H   0  0  0  0  0  0  0  0  0  0  0  0
   -3.3812   -2.8859   -0.4439 H   0  0  0  0  0  0  0  0  0  0  0  0
   -1.7460   -2.1161    0.7225 C   0  0  0  0  0  0  0  0  0  0  0  0
   -0.8927   -2.7056    1.3699 O   0  0  0  0  0  0  0  0  0  0  0  0
   -1.4675   -0.9096    0.1194 N   0  0  0  0  0  0  0  0  0  0  0  0
   -2.2264   -0.4325   -0.3624 H   0  0  0  0  0  0  0  0  0  0  0  0
   -0.1664   -0.2277    0.1238 C   0  0  1  0  0  0  0  0  0  0  0  0
    0.4183   -0.6353    0.9538 H   0  0  0  0  0  0  0  0  0  0  0  0
    0.6223   -0.5531   -1.1568 C   0  0  0  0  0  0  0  0  0  0  0  0
    1.6615   -0.2613   -0.9711 H   0  0  0  0  0  0  0  0  0  0  0  0
    0.6221   -1.6339   -1.3312 H   0  0  0  0  0  0  0  0  0  0  0  0
    0.1295    0.1628   -2.4318 C   0  0  0  0  0  0  0  0  0  0  0  0
   -0.6557   -0.4327   -2.9067 H   0  0  0  0  0  0  0  0  0  0  0  0
   -0.2987    1.1394   -2.1970 H   0  0  0  0  0  0  0  0  0  0  0  0
    1.2845    0.3980   -3.4071 C   0  0  0  0  0  0  0  0  0  0  0  0
    2.1774    1.2143   -3.0631 O   0  5  0  0  0  0  0  0  0  0  0  0
    1.2875   -0.2570   -4.4787 O   0  0  0  0  0  0  0  0  0  0  0  0
   -0.2992    1.2814    0.4285 C   0  0  0  0  0  0  0  0  0  0  0  0
   -1.3387    1.8770    0.1550 O   0  0  0  0  0  0  0  0  0  0  0  0
    0.5731    1.8729    1.3249 N   0  0  0  0  0  0  0  0  0  0  0  0
    1.4656    1.4046    1.4456 H   0  0  0  0  0  0  0  0  0  0  0  0
    0.4831    3.2787    1.6939 C   0  0  0  0  0  0  0  0  0  0  0  0
   -0.4729    3.4865    2.1852 H   0  0  0  0  0  0  0  0  0  0  0  0
    1.2893    3.5368    2.3867 H   0  0  0  0  0  0  0  0  0  0  0  0
    0.5710    3.9133    0.8059 H   0  0  0  0  0  0  0  0  0  0  0  0
  1  2  1  0  0  0  0
  2  3  1  0  0  0  0
  2  4  1  0  0  0  0
  2  5  1  0  0  0  0
  5  6  2  0  0  0  0
  5  7  1  0  0  0  0
  7  8  1  0  0  0  0
  7  9  1  0  0  0  0
  9 10  1  0  0  0  0
  9 11  1  0  0  0  0
  9 20  1  0  0  0  0
 11 12  1  0  0  0  0
 11 13  1  0  0  0  0
 11 14  1  0  0  0  0
 14 15  1  0  0  0  0
 14 16  1  0  0  0  0
 14 17  1  0  0  0  0
 17 18  1  0  0  0  0
 17 19  2  0  0  0  0
 20 21  2  0  0  0  0
 20 22  1  0  0  0  0
 22 23  1  0  0  0  0
 22 24  1  0  0  0  0
 24 25  1  0  0  0  0
 24 26  1  0  0  0  0
 24 27  1  0  0  0  0
M  CHG  1  18  -1
M  END
$$$$

  -OEChem-03222214043D

 27 26  0     1  0  0  0  0  0999 V2000
   -3.2086   -3.6466    1.1202 H   0  0  0  0  0  0  0  0  0  0  0  0
   -3.1363   -2.7064    0.5665 C   0  0  0  0  0  0  0  0  0  0  0  0
   -3.8959   -2.0159    0.9413 H   0  0  0  0  0  0  0  0  0  0  0  0
   -3.3258   -2.9049   -0.4916 H   0  0  0  0  0  0  0  0  0  0  0  0
   -1.7555   -2.0987    0.7374 C   0  0  0  0  0  0  0  0  0  0  0  0
   -0.9245   -2.6612    1.4360 O   0  0  0  0  0  0  0  0  0  0  0  0
   -1.4678   -0.8980    0.1270 N   0  0  0  0  0  0  0  0  0  0  0  0
   -2.2041   -0.4546   -0.4178 H   0  0  0  0  0  0  0  0  0  0  0  0
   -0.1635   -0.2224    0.1359 C   0  0  1  0  0  0  0  0  0  0  0  0
    0.4201   -0.6301    0.9665 H   0  0  0  0  0  0  0  0  0  0  0  0
    0.6162   -0.5581   -1.1474 C   0  0  0  0  0  0  0  0  0  0  0  0
    1.6609   -0.2749   -0.9797 H   0  0  0  0  0  0  0  0  0  0  0  0
    0.5988   -1.6394   -1.3197 H   0  0  0  0  0  0  0  0  0  0  0  0
    0.1156    0.1633   -2.4125 C   0  0  0  0  0  0  0  0  0  0  0  0
   -0.8359   -0.2696   -2.7349 H   0  0  0  0  0  0  0  0  0  0  0  0
   -0.0522    1.2245   -2.2144 H   0  0  0  0  0  0  0  0  0  0  0  0
    1.1503    0.0627   -3.5336 C   0  0  0  0  0  0  0  0  0  0  0  0
    2.2248    0.6997   -3.3903 O   0  5  0  0  0  0  0  0  0  0  0  0
    0.8774   -0.6693   -4.5170 O   0  0  0  0  0  0  0  0  0  0  0  0
   -0.2884    1.2893    0.4284 C   0  0  0  0  0  0  0  0  0  0  0  0
   -1.3029    1.9046    0.1108 O   0  0  0  0  0  0  0  0  0  0  0  0
    0.5807    1.8827    1.3269 N   0  0  0  0  0  0  0  0  0  0  0  0
    1.4444    1.3834    1.5137 H   0  0  0  0  0  0  0  0  0  0  0  0
    0.4998    3.2892    1.6949 C   0  0  0  0  0  0  0  0  0  0  0  0
   -0.4582    3.5040    2.1794 H   0  0  0  0  0  0  0  0  0  0  0  0
    1.3032    3.5411    2.3934 H   0  0  0  0  0  0  0  0  0  0  0  0
    0.5992    3.9231    0.8077 H   0  0  0  0  0  0  0  0  0  0  0  0
  1  2  1  0  0  0  0
  2  3  1  0  0  0  0
  2  4  1  0  0  0  0
  2  5  1  0  0  0  0
  5  6  2  0  0  0  0
  5  7  1  0  0  0  0
  7  8  1  0  0  0  0
  7  9  1  0  0  0  0
  9 10  1  0  0  0  0
  9 11  1  0  0  0  0
  9 20  1  0  0  0  0
 11 12  1  0  0  0  0
 11 13  1  0  0  0  0
 11 14  1  0  0  0  0
 14 15  1  0  0  0  0
 14 16  1  0  0  0  0
 14 17  1  0  0  0  0
 17 18  1  0  0  0  0
 17 19  2  0  0  0  0
 20 21  2  0  0  0  0
 20 22  1  0  0  0  0
 22 23  1  0  0  0  0
 22 24  1  0  0  0  0
 24 25  1  0  0  0  0
 24 26  1  0  0  0  0
 24 27  1  0  0  0  0
M  CHG  1  18  -1
M  END
$$$$

  -OEChem-03222214043D

 27 26  0     1  0  0  0  0  0999 V2000
   -3.2106   -3.6447    1.0815 H   0  0  0  0  0  0  0  0  0  0  0  0
   -3.1358   -2.7037    0.5298 C   0  0  0  0  0  0  0  0  0  0  0  0
   -3.9072   -2.0193    0.8913 H   0  0  0  0  0  0  0  0  0  0  0  0
   -3.3052   -2.9032   -0.5314 H   0  0  0  0  0  0  0  0  0  0  0  0
   -1.7625   -2.0866    0.7259 C   0  0  0  0  0  0  0  0  0  0  0  0
   -0.9408   -2.6436    1.4400 O   0  0  0  0  0  0  0  0  0  0  0  0
   -1.4717   -0.8821    0.1237 N   0  0  0  0  0  0  0  0  0  0  0  0
   -2.1974   -0.4499   -0.4441 H   0  0  0  0  0  0  0  0  0  0  0  0
   -0.1661   -0.2088    0.1408 C   0  0  1  0  0  0  0  0  0  0  0  0
    0.4097   -0.6254    0.9723 H   0  0  0  0  0  0  0  0  0  0  0  0
    0.6186   -0.5496   -1.1421 C   0  0  0  0  0  0  0  0  0  0  0  0
    1.6875   -0.5260   -0.9046 H   0  0  0  0  0  0  0  0  0  0  0  0
    0.3822   -1.5717   -1.4577 H   0  0  0  0  0  0  0  0  0  0  0  0
    0.3789    0.4141   -2.3156 C   0  0  0  0  0  0  0  0  0  0  0  0
   -0.6836    0.4252   -2.5770 H   0  0  0  0  0  0  0  0  0  0  0  0
    0.6694    1.4331   -2.0447 H   0  0  0  0  0  0  0  0  0  0  0  0
    1.2021   -0.0171   -3.5283 C   0  0  0  0  0  0  0  0  0  0  0  0
    2.4196    0.2947   -3.5386 O   0  5  0  0  0  0  0  0  0  0  0  0
    0.6267   -0.6908   -4.4187 O   0  0  0  0  0  0  0  0  0  0  0  0
   -0.2888    1.3010    0.4427 C   0  0  0  0  0  0  0  0  0  0  0  0
   -1.2861    1.9300    0.0998 O   0  0  0  0  0  0  0  0  0  0  0  0
    0.5778    1.8880    1.3475 N   0  0  0  0  0  0  0  0  0  0  0  0
    1.4248    1.3720    1.5628 H   0  0  0  0  0  0  0  0  0  0  0  0
    0.5087    3.2957    1.7125 C   0  0  0  0  0  0  0  0  0  0  0  0
   -0.4535    3.5231    2.1826 H   0  0  0  0  0  0  0  0  0  0  0  0
    1.3049    3.5391    2.4221 H   0  0  0  0  0  0  0  0  0  0  0  0
    0.6282    3.9263    0.8255 H   0  0  0  0  0  0  0  0  0  0  0  0
  1  2  1  0  0  0  0
  2  3  1  0  0  0  0
  2  4  1  0  0  0  0
  2  5  1  0  0  0  0
  5  6  2  0  0  0  0
  5  7  1  0  0  0  0
  7  8  1  0  0  0  0
  7  9  1  0  0  0  0
  9 10  1  0  0  0  0
  9 11  1  0  0  0  0
  9 20  1  0  0  0  0
 11 12  1  0  0  0  0
 11 13  1  0  0  0  0
 11 14  1  0  0  0  0
 14 15  1  0  0  0  0
 14 16  1  0  0  0  0
 14 17  1  0  0  0  0
 17 18  1  0  0  0  0
 17 19  2  0  0  0  0
 20 21  2  0  0  0  0
 20 22  1  0  0  0  0
 22 23  1  0  0  0  0
 22 24  1  0  0  0  0
 24 25  1  0  0  0  0
 24 26  1  0  0  0  0
 24 27  1  0  0  0  0
M  CHG  1  18  -1
M  END
$$$$

  -OEChem-03222214043D

 27 26  0     1  0  0  0  0  0999 V2000
   -3.2133   -3.6430    1.0480 H   0  0  0  0  0  0  0  0  0  0  0  0
   -3.1319   -2.7062    0.4901 C   0  0  0  0  0  0  0  0  0  0  0  0
   -3.9330   -2.0342    0.8075 H   0  0  0  0  0  0  0  0  0  0  0  0
   -3.2476   -2.9196   -0.5758 H   0  0  0  0  0  0  0  0  0  0  0  0
   -1.7824   -2.0581    0.7425 C   0  0  0  0  0  0  0  0  0  0  0  0
   -0.9882   -2.5828    1.5107 O   0  0  0  0  0  0  0  0  0  0  0  0
   -1.4831   -0.8615    0.1289 N   0  0  0  0  0  0  0  0  0  0  0  0
   -2.1755   -0.4757   -0.5096 H   0  0  0  0  0  0  0  0  0  0  0  0
   -0.1736   -0.1956    0.1519 C   0  0  1  0  0  0  0  0  0  0  0  0
    0.3934   -0.6092    0.9909 H   0  0  0  0  0  0  0  0  0  0  0  0
    0.6127   -0.5586   -1.1233 C   0  0  0  0  0  0  0  0  0  0  0  0
    1.6835   -0.5552   -0.8958 H   0  0  0  0  0  0  0  0  0  0  0  0
    0.3524   -1.5795   -1.4251 H   0  0  0  0  0  0  0  0  0  0  0  0
    0.3775    0.3993   -2.3017 C   0  0  0  0  0  0  0  0  0  0  0  0
   -0.6921    0.6039   -2.4081 H   0  0  0  0  0  0  0  0  0  0  0  0
    0.8856    1.3522   -2.1266 H   0  0  0  0  0  0  0  0  0  0  0  0
    0.8842   -0.2234   -3.6014 C   0  0  0  0  0  0  0  0  0  0  0  0
    2.0886   -0.0307   -3.9027 O   0  5  0  0  0  0  0  0  0  0  0  0
    0.0838   -0.9319   -4.2616 O   0  0  0  0  0  0  0  0  0  0  0  0
   -0.2756    1.3196    0.4359 C   0  0  0  0  0  0  0  0  0  0  0  0
   -1.2511    1.9682    0.0695 O   0  0  0  0  0  0  0  0  0  0  0  0
    0.5934    1.9014    1.3421 N   0  0  0  0  0  0  0  0  0  0  0  0
    1.4109    1.3606    1.6044 H   0  0  0  0  0  0  0  0  0  0  0  0
    0.5333    3.3074    1.7155 C   0  0  0  0  0  0  0  0  0  0  0  0
   -0.4209    3.5338    2.2019 H   0  0  0  0  0  0  0  0  0  0  0  0
    1.3413    3.5456    2.4134 H   0  0  0  0  0  0  0  0  0  0  0  0
    0.6403    3.9429    0.8304 H   0  0  0  0  0  0  0  0  0  0  0  0
  1  2  1  0  0  0  0
  2  3  1  0  0  0  0
  2  4  1  0  0  0  0
  2  5  1  0  0  0  0
  5  6  2  0  0  0  0
  5  7  1  0  0  0  0
  7  8  1  0  0  0  0
  7  9  1  0  0  0  0
  9 10  1  0  0  0  0
  9 11  1  0  0  0  0
  9 20  1  0  0  0  0
 11 12  1  0  0  0  0
 11 13  1  0  0  0  0
 11 14  1  0  0  0  0
 14 15  1  0  0  0  0
 14 16  1  0  0  0  0
 14 17  1  0  0  0  0
 17 18  1  0  0  0  0
 17 19  2  0  0  0  0
 20 21  2  0  0  0  0
 20 22  1  0  0  0  0
 22 23  1  0  0  0  0
 22 24  1  0  0  0  0
 24 25  1  0  0  0  0
 24 26  1  0  0  0  0
 24 27  1  0  0  0  0
M  CHG  1  18  -1
M  END
$$$$

  -OEChem-03222214043D

 27 26  0     1  0  0  0  0  0999 V2000
   -3.2006   -3.6498    1.0034 H   0  0  0  0  0  0  0  0  0  0  0  0
   -3.1177   -2.7159    0.4408 C   0  0  0  0  0  0  0  0  0  0  0  0
   -3.9568   -2.0676    0.7044 H   0  0  0  0  0  0  0  0  0  0  0  0
   -3.1650   -2.9428   -0.6277 H   0  0  0  0  0  0  0  0  0  0  0  0
   -1.8061   -2.0218    0.7610 C   0  0  0  0  0  0  0  0  0  0  0  0
   -1.0428   -2.5086    1.5844 O   0  0  0  0  0  0  0  0  0  0  0  0
   -1.5051   -0.8299    0.1387 N   0  0  0  0  0  0  0  0  0  0  0  0
   -2.1532   -0.5092   -0.5781 H   0  0  0  0  0  0  0  0  0  0  0  0
   -0.1932   -0.1687    0.1661 C   0  0  1  0  0  0  0  0  0  0  0  0
    0.3638   -0.5803    1.0124 H   0  0  0  0  0  0  0  0  0  0  0  0
    0.5940   -0.5638   -1.0991 C   0  0  0  0  0  0  0  0  0  0  0  0
    1.6645   -0.5687   -0.8713 H   0  0  0  0  0  0  0  0  0  0  0  0
    0.3249   -1.5906   -1.3730 H   0  0  0  0  0  0  0  0  0  0  0  0
    0.3710    0.3723   -2.3006 C   0  0  0  0  0  0  0  0  0  0  0  0
   -0.6419    0.7844   -2.2774 H   0  0  0  0  0  0  0  0  0  0  0  0
    1.0727    1.2108   -2.2618 H   0  0  0  0  0  0  0  0  0  0  0  0
    0.5220   -0.3906   -3.6159 C   0  0  0  0  0  0  0  0  0  0  0  0
    1.6082   -0.2725   -4.2354 O   0  5  0  0  0  0  0  0  0  0  0  0
   -0.4286   -1.1340   -3.9685 O   0  0  0  0  0  0  0  0  0  0  0  0
   -0.2673    1.3512    0.4380 C   0  0  0  0  0  0  0  0  0  0  0  0
   -1.2219    2.0231    0.0605 O   0  0  0  0  0  0  0  0  0  0  0  0
    0.6105    1.9208    1.3439 N   0  0  0  0  0  0  0  0  0  0  0  0
    1.3998    1.3556    1.6384 H   0  0  0  0  0  0  0  0  0  0  0  0
    0.5684    3.3253    1.7258 C   0  0  0  0  0  0  0  0  0  0  0  0
   -0.3855    3.5620    2.2081 H   0  0  0  0  0  0  0  0  0  0  0  0
    1.3758    3.5478    2.4297 H   0  0  0  0  0  0  0  0  0  0  0  0
    0.6895    3.9647    0.8453 H   0  0  0  0  0  0  0  0  0  0  0  0
  1  2  1  0  0  0  0
  2  3  1  0  0  0  0
  2  4  1  0  0  0  0
  2  5  1  0  0  0  0
  5  6  2  0  0  0  0
  5  7  1  0  0  0  0
  7  8  1  0  0  0  0
  7  9  1  0  0  0  0
  9 10  1  0  0  0  0
  9 11  1  0  0  0  0
  9 20  1  0  0  0  0
 11 12  1  0  0  0  0
 11 13  1  0  0  0  0
 11 14  1  0  0  0  0
 14 15  1  0  0  0  0
 14 16  1  0  0  0  0
 14 17  1  0  0  0  0
 17 18  1  0  0  0  0
 17 19  2  0  0  0  0
 20 21  2  0  0  0  0
 20 22  1  0  0  0  0
 22 23  1  0  0  0  0
 22 24  1  0  0  0  0
 24 25  1  0  0  0  0
 24 26  1  0  0  0  0
 24 27  1  0  0  0  0
M  CHG  1  18  -1
M  END
$$$$

  -OEChem-03222214043D

 27 26  0     1  0  0  0  0  0999 V2000
   -3.1725   -3.6517    0.9614 H   0  0  0  0  0  0  0  0  0  0  0  0
   -3.0924   -2.7207    0.3939 C   0  0  0  0  0  0  0  0  0  0  0  0
   -3.9645   -2.0982    0.6078 H   0  0  0  0  0  0  0  0  0  0  0  0
   -3.0783   -2.9581   -0.6734 H   0  0  0  0  0  0  0  0  0  0  0  0
   -1.8220   -1.9803    0.7710 C   0  0  0  0  0  0  0  0  0  0  0  0
   -1.0859   -2.4316    1.6391 O   0  0  0  0  0  0  0  0  0  0  0  0
   -1.5253   -0.7905    0.1433 N   0  0  0  0  0  0  0  0  0  0  0  0
   -2.1258   -0.5360   -0.6401 H   0  0  0  0  0  0  0  0  0  0  0  0
   -0.2131   -0.1311    0.1755 C   0  0  1  0  0  0  0  0  0  0  0  0
    0.3351   -0.5397    1.0287 H   0  0  0  0  0  0  0  0  0  0  0  0
    0.5700   -0.5673   -1.0786 C   0  0  0  0  0  0  0  0  0  0  0  0
    1.6388   -0.5629   -0.8435 H   0  0  0  0  0  0  0  0  0  0  0  0
    0.3104   -1.6055   -1.3160 H   0  0  0  0  0  0  0  0  0  0  0  0
    0.3631    0.3323   -2.3144 C   0  0  0  0  0  0  0  0  0  0  0  0
   -0.5193    0.9660   -2.1979 H   0  0  0  0  0  0  0  0  0  0  0  0
    1.2275    0.9898   -2.4464 H   0  0  0  0  0  0  0  0  0  0  0  0
    0.1396   -0.5134   -3.5683 C   0  0  0  0  0  0  0  0  0  0  0  0
    1.0550   -0.5426   -4.4275 O   0  5  0  0  0  0  0  0  0  0  0  0
   -0.9303   -1.1724   -3.6349 O   0  0  0  0  0  0  0  0  0  0  0  0
   -0.2636    1.3915    0.4412 C   0  0  0  0  0  0  0  0  0  0  0  0
   -1.2019    2.0842    0.0615 O   0  0  0  0  0  0  0  0  0  0  0  0
    0.6227    1.9469    1.3481 N   0  0  0  0  0  0  0  0  0  0  0  0
    1.3782    1.3563    1.6787 H   0  0  0  0  0  0  0  0  0  0  0  0
    0.5927    3.3464    1.7487 C   0  0  0  0  0  0  0  0  0  0  0  0
   -0.3535    3.5817    2.2466 H   0  0  0  0  0  0  0  0  0  0  0  0
    1.4108    3.5556    2.4440 H   0  0  0  0  0  0  0  0  0  0  0  0
    0.7054    3.9968    0.8752 H   0  0  0  0  0  0  0  0  0  0  0  0
  1  2  1  0  0  0  0
  2  3  1  0  0  0  0
  2  4  1  0  0  0  0
  2  5  1  0  0  0  0
  5  6  2  0  0  0  0
  5  7  1  0  0  0  0
  7  8  1  0  0  0  0
  7  9  1  0  0  0  0
  9 10  1  0  0  0  0
  9 11  1  0  0  0  0
  9 20  1  0  0  0  0
 11 12  1  0  0  0  0
 11 13  1  0  0  0  0
 11 14  1  0  0  0  0
 14 15  1  0  0  0  0
 14 16  1  0  0  0  0
 14 17  1  0  0  0  0
 17 18  1  0  0  0  0
 17 19  2  0  0  0  0
 20 21  2  0  0  0  0
 20 22  1  0  0  0  0
 22 23  1  0  0  0  0
 22 24  1  0  0  0  0
 24 25  1  0  0  0  0
 24 26  1  0  0  0  0
 24 27  1  0  0  0  0
M  CHG  1  18  -1
M  END
$$$$

  -OEChem-03222214043D

 27 26  0     1  0  0  0  0  0999 V2000
   -2.9328   -3.7795    0.8979 H   0  0  0  0  0  0  0  0  0  0  0  0
   -2.9243   -2.8242    0.3667 C   0  0  0  0  0  0  0  0  0  0  0  0
   -3.8434   -2.2802    0.5976 H   0  0  0  0  0  0  0  0  0  0  0  0
   -2.8877   -3.0181   -0.7091 H   0  0  0  0  0  0  0  0  0  0  0  0
   -1.7182   -1.9999    0.7782 C   0  0  0  0  0  0  0  0  0  0  0  0
   -0.9679   -2.4074    1.6568 O   0  0  0  0  0  0  0  0  0  0  0  0
   -1.4904   -0.7907    0.1600 N   0  0  0  0  0  0  0  0  0  0  0  0
   -2.0658   -0.6159   -0.6672 H   0  0  0  0  0  0  0  0  0  0  0  0
   -0.2023   -0.0850    0.1688 C   0  0  1  0  0  0  0  0  0  0  0  0
    0.3837   -0.4871    0.9996 H   0  0  0  0  0  0  0  0  0  0  0  0
    0.5319   -0.5183   -1.1150 C   0  0  0  0  0  0  0  0  0  0  0  0
    1.6061   -0.4577   -0.9157 H   0  0  0  0  0  0  0  0  0  0  0  0
    0.3233   -1.5733   -1.3288 H   0  0  0  0  0  0  0  0  0  0  0  0
    0.2533    0.3605   -2.3527 C   0  0  0  0  0  0  0  0  0  0  0  0
   -0.4357    1.1779   -2.1359 H   0  0  0  0  0  0  0  0  0  0  0  0
    1.1885    0.8028   -2.7088 H   0  0  0  0  0  0  0  0  0  0  0  0
   -0.3670   -0.4962   -3.4568 C   0  0  0  0  0  0  0  0  0  0  0  0
   -1.4845   -1.0212   -3.2050 O   0  5  0  0  0  0  0  0  0  0  0  0
    0.2804   -0.6600   -4.5200 O   0  0  0  0  0  0  0  0  0  0  0  0
   -0.2753    1.4329    0.4594 C   0  0  0  0  0  0  0  0  0  0  0  0
   -1.2309    2.1210    0.1181 O   0  0  0  0  0  0  0  0  0  0  0  0
    0.6286    1.9881    1.3495 N   0  0  0  0  0  0  0  0  0  0  0  0
    1.3746    1.3899    1.6874 H   0  0  0  0  0  0  0  0  0  0  0  0
    0.5625    3.3673    1.8116 C   0  0  0  0  0  0  0  0  0  0  0  0
   -0.3504    3.5319    2.3930 H   0  0  0  0  0  0  0  0  0  0  0  0
    1.4243    3.5925    2.4466 H   0  0  0  0  0  0  0  0  0  0  0  0
    0.5705    4.0569    0.9611 H   0  0  0  0  0  0  0  0  0  0  0  0
  1  2  1  0  0  0  0
  2  3  1  0  0  0  0
  2  4  1  0  0  0  0
  2  5  1  0  0  0  0
  5  6  2  0  0  0  0
  5  7  1  0  0  0  0
  7  8  1  0  0  0  0
  7  9  1  0  0  0  0
  9 10  1  0  0  0  0
  9 11  1  0  0  0  0
  9 20  1  0  0  0  0
 11 12  1  0  0  0  0
 11 13  1  0  0  0  0
 11 14  1  0  0  0  0
 14 15  1  0  0  0  0
 14 16  1  0  0  0  0
 14 17  1  0  0  0  0
 17 18  1  0  0  0  0
 17 19  2  0  0  0  0
 20 21  2  0  0  0  0
 20 22  1  0  0  0  0
 22 23  1  0  0  0  0
 22 24  1  0  0  0  0
 24 25  1  0  0  0  0
 24 26  1  0  0  0  0
 24 27  1  0  0  0  0
M  CHG  1  18  -1
M  END
$$$$

  -OEChem-03222214043D

 27 26  0     1  0  0  0  0  0999 V2000
   -2.9105   -3.7863    0.8334 H   0  0  0  0  0  0  0  0  0  0  0  0
   -2.9215   -2.8137    0.3348 C   0  0  0  0  0  0  0  0  0  0  0  0
   -3.8524   -2.2969    0.5800 H   0  0  0  0  0  0  0  0  0  0  0  0
   -2.8786   -2.9700   -0.7471 H   0  0  0  0  0  0  0  0  0  0  0  0
   -1.7348   -1.9776    0.7777 C   0  0  0  0  0  0  0  0  0  0  0  0
   -1.0059   -2.3757    1.6795 O   0  0  0  0  0  0  0  0  0  0  0  0
   -1.4967   -0.7723    0.1579 N   0  0  0  0  0  0  0  0  0  0  0  0
   -2.0260   -0.6374   -0.7135 H   0  0  0  0  0  0  0  0  0  0  0  0
   -0.2062   -0.0736    0.1783 C   0  0  1  0  0  0  0  0  0  0  0  0
    0.3722   -0.4782    1.0128 H   0  0  0  0  0  0  0  0  0  0  0  0
    0.5199   -0.5316   -1.1034 C   0  0  0  0  0  0  0  0  0  0  0  0
    1.5926   -0.4607   -0.8991 H   0  0  0  0  0  0  0  0  0  0  0  0
    0.3199   -1.5898   -1.3098 H   0  0  0  0  0  0  0  0  0  0  0  0
    0.2506    0.3348   -2.3512 C   0  0  0  0  0  0  0  0  0  0  0  0
   -0.1661    1.3138   -2.1129 H   0  0  0  0  0  0  0  0  0  0  0  0
    1.1948    0.5037   -2.8778 H   0  0  0  0  0  0  0  0  0  0  0  0
   -0.7084   -0.4124   -3.2841 C   0  0  0  0  0  0  0  0  0  0  0  0
   -1.7920   -0.8244   -2.7846 O   0  5  0  0  0  0  0  0  0  0  0  0
   -0.3487   -0.6061   -4.4712 O   0  0  0  0  0  0  0  0  0  0  0  0
   -0.2674    1.4463    0.4632 C   0  0  0  0  0  0  0  0  0  0  0  0
   -1.1981    2.1542    0.0958 O   0  0  0  0  0  0  0  0  0  0  0  0
    0.6345    1.9923    1.3615 N   0  0  0  0  0  0  0  0  0  0  0  0
    1.3514    1.3775    1.7307 H   0  0  0  0  0  0  0  0  0  0  0  0
    0.5784    3.3721    1.8235 C   0  0  0  0  0  0  0  0  0  0  0  0
   -0.3681    3.5653    2.3390 H   0  0  0  0  0  0  0  0  0  0  0  0
    1.3984    3.5687    2.5204 H   0  0  0  0  0  0  0  0  0  0  0  0
    0.6689    4.0618    0.9780 H   0  0  0  0  0  0  0  0  0  0  0  0
  1  2  1  0  0  0  0
  2  3  1  0  0  0  0
  2  4  1  0  0  0  0
  2  5  1  0  0  0  0
  5  6  2  0  0  0  0
  5  7  1  0  0  0  0
  7  8  1  0  0  0  0
  7  9  1  0  0  0  0
  9 10  1  0  0  0  0
  9 11  1  0  0  0  0
  9 20  1  0  0  0  0
 11 12  1  0  0  0  0
 11 13  1  0  0  0  0
 11 14  1  0  0  0  0
 14 15  1  0  0  0  0
 14 16  1  0  0  0  0
 14 17  1  0  0  0  0
 17 18  1  0  0  0  0
 17 19  2  0  0  0  0
 20 21  2  0  0  0  0
 20 22  1  0  0  0  0
 22 23  1  0  0  0  0
 22 24  1  0  0  0  0
 24 25  1  0  0  0  0
 24 26  1  0  0  0  0
 24 27  1  0  0  0  0
M  CHG  1  18  -1
M  END
$$$$

  -OEChem-03222214043D

 27 26  0     1  0  0  0  0  0999 V2000
   -2.9615   -3.7863    0.8979 H   0  0  0  0  0  0  0  0  0  0  0  0
   -2.9651   -2.8156    0.3956 C   0  0  0  0  0  0  0  0  0  0  0  0
   -3.8832   -2.2827    0.6544 H   0  0  0  0  0  0  0  0  0  0  0  0
   -2.9438   -2.9762   -0.6862 H   0  0  0  0  0  0  0  0  0  0  0  0
   -1.7576   -1.9966    0.8139 C   0  0  0  0  0  0  0  0  0  0  0  0
   -1.0115   -2.4100    1.6947 O   0  0  0  0  0  0  0  0  0  0  0  0
   -1.5166   -0.7938    0.1918 N   0  0  0  0  0  0  0  0  0  0  0  0
   -2.0671   -0.6399   -0.6655 H   0  0  0  0  0  0  0  0  0  0  0  0
   -0.2261   -0.0990    0.1919 C   0  0  1  0  0  0  0  0  0  0  0  0
    0.3533   -0.5010    1.0269 H   0  0  0  0  0  0  0  0  0  0  0  0
    0.5249   -0.5328   -1.0890 C   0  0  0  0  0  0  0  0  0  0  0  0
    1.5937   -0.4593   -0.8662 H   0  0  0  0  0  0  0  0  0  0  0  0
    0.3247   -1.5867   -1.3134 H   0  0  0  0  0  0  0  0  0  0  0  0
    0.2748    0.3306   -2.3452 C   0  0  0  0  0  0  0  0  0  0  0  0
    0.1184    1.3814   -2.0953 H   0  0  0  0  0  0  0  0  0  0  0  0
    1.1691    0.2818   -2.9739 H   0  0  0  0  0  0  0  0  0  0  0  0
   -0.9156   -0.1844   -3.1721 C   0  0  0  0  0  0  0  0  0  0  0  0
   -1.9302   -0.6297   -2.5693 O   0  5  0  0  0  0  0  0  0  0  0  0
   -0.7846   -0.1687   -4.4206 O   0  0  0  0  0  0  0  0  0  0  0  0
   -0.2885    1.4205    0.4749 C   0  0  0  0  0  0  0  0  0  0  0  0
   -1.2074    2.1336    0.0904 O   0  0  0  0  0  0  0  0  0  0  0  0
    0.6232    1.9716    1.3603 N   0  0  0  0  0  0  0  0  0  0  0  0
    1.3412    1.3582    1.7291 H   0  0  0  0  0  0  0  0  0  0  0  0
    0.5917    3.3634    1.7875 C   0  0  0  0  0  0  0  0  0  0  0  0
   -0.3565    3.5899    2.2858 H   0  0  0  0  0  0  0  0  0  0  0  0
    1.4071    3.5594    2.4899 H   0  0  0  0  0  0  0  0  0  0  0  0
    0.7081    4.0297    0.9265 H   0  0  0  0  0  0  0  0  0  0  0  0
  1  2  1  0  0  0  0
  2  3  1  0  0  0  0
  2  4  1  0  0  0  0
  2  5  1  0  0  0  0
  5  6  2  0  0  0  0
  5  7  1  0  0  0  0
  7  8  1  0  0  0  0
  7  9  1  0  0  0  0
  9 10  1  0  0  0  0
  9 11  1  0  0  0  0
  9 20  1  0  0  0  0
 11 12  1  0  0  0  0
 11 13  1  0  0  0  0
 11 14  1  0  0  0  0
 14 15  1  0  0  0  0
 14 16  1  0  0  0  0
 14 17  1  0  0  0  0
 17 18  1  0  0  0  0
 17 19  2  0  0  0  0
 20 21  2  0  0  0  0
 20 22  1  0  0  0  0
 22 23  1  0  0  0  0
 22 24  1  0  0  0  0
 24 25  1  0  0  0  0
 24 26  1  0  0  0  0
 24 27  1  0  0  0  0
M  CHG  1  18  -1
M  END
$$$$

  -OEChem-03222214043D

 27 26  0     1  0  0  0  0  0999 V2000
   -2.9991   -3.7773    0.9658 H   0  0  0  0  0  0  0  0  0  0  0  0
   -2.9962   -2.8115    0.4540 C   0  0  0  0  0  0  0  0  0  0  0  0
   -3.9063   -2.2659    0.7146 H   0  0  0  0  0  0  0  0  0  0  0  0
   -2.9843   -2.9821   -0.6264 H   0  0  0  0  0  0  0  0  0  0  0  0
   -1.7769   -2.0019    0.8562 C   0  0  0  0  0  0  0  0  0  0  0  0
   -1.0305   -2.4142    1.7375 O   0  0  0  0  0  0  0  0  0  0  0  0
   -1.5264   -0.8095    0.2186 N   0  0  0  0  0  0  0  0  0  0  0  0
   -2.0762   -0.6635   -0.6402 H   0  0  0  0  0  0  0  0  0  0  0  0
   -0.2309   -0.1247    0.2105 C   0  0  1  0  0  0  0  0  0  0  0  0
    0.3474   -0.5215    1.0486 H   0  0  0  0  0  0  0  0  0  0  0  0
    0.5273   -0.5527   -1.0689 C   0  0  0  0  0  0  0  0  0  0  0  0
    1.5962   -0.4963   -0.8423 H   0  0  0  0  0  0  0  0  0  0  0  0
    0.3095   -1.6011   -1.3007 H   0  0  0  0  0  0  0  0  0  0  0  0
    0.2927    0.3128   -2.3285 C   0  0  0  0  0  0  0  0  0  0  0  0
    0.4070    1.3727   -2.0887 H   0  0  0  0  0  0  0  0  0  0  0  0
    1.0707    0.0600   -3.0544 H   0  0  0  0  0  0  0  0  0  0  0  0
   -1.0655    0.0994   -3.0224 C   0  0  0  0  0  0  0  0  0  0  0  0
   -1.9110   -0.6880   -2.5157 O   0  5  0  0  0  0  0  0  0  0  0  0
   -1.2150    0.6791   -4.1255 O   0  0  0  0  0  0  0  0  0  0  0  0
   -0.2926    1.3975    0.4741 C   0  0  0  0  0  0  0  0  0  0  0  0
   -1.2058    2.1048    0.0682 O   0  0  0  0  0  0  0  0  0  0  0  0
    0.6161    1.9626    1.3538 N   0  0  0  0  0  0  0  0  0  0  0  0
    1.3355    1.3567    1.7318 H   0  0  0  0  0  0  0  0  0  0  0  0
    0.5929    3.3655    1.7437 C   0  0  0  0  0  0  0  0  0  0  0  0
   -0.3540    3.6104    2.2356 H   0  0  0  0  0  0  0  0  0  0  0  0
    1.4096    3.5759    2.4403 H   0  0  0  0  0  0  0  0  0  0  0  0
    0.7125    4.0078    0.8651 H   0  0  0  0  0  0  0  0  0  0  0  0
  1  2  1  0  0  0  0
  2  3  1  0  0  0  0
  2  4  1  0  0  0  0
  2  5  1  0  0  0  0
  5  6  2  0  0  0  0
  5  7  1  0  0  0  0
  7  8  1  0  0  0  0
  7  9  1  0  0  0  0
  9 10  1  0  0  0  0
  9 11  1  0  0  0  0
  9 20  1  0  0  0  0
 11 12  1  0  0  0  0
 11 13  1  0  0  0  0
 11 14  1  0  0  0  0
 14 15  1  0  0  0  0
 14 16  1  0  0  0  0
 14 17  1  0  0  0  0
 17 18  1  0  0  0  0
 17 19  2  0  0  0  0
 20 21  2  0  0  0  0
 20 22  1  0  0  0  0
 22 23  1  0  0  0  0
 22 24  1  0  0  0  0
 24 25  1  0  0  0  0
 24 26  1  0  0  0  0
 24 27  1  0  0  0  0
M  CHG  1  18  -1
M  END
$$$$

  -OEChem-03222214043D

 27 26  0     1  0  0  0  0  0999 V2000
   -3.0197   -3.7711    1.0027 H   0  0  0  0  0  0  0  0  0  0  0  0
   -3.0149   -2.8056    0.4904 C   0  0  0  0  0  0  0  0  0  0  0  0
   -3.9139   -2.2495    0.7669 H   0  0  0  0  0  0  0  0  0  0  0  0
   -3.0246   -2.9769   -0.5898 H   0  0  0  0  0  0  0  0  0  0  0  0
   -1.7801   -2.0090    0.8702 C   0  0  0  0  0  0  0  0  0  0  0  0
   -1.0152   -2.4349    1.7286 O   0  0  0  0  0  0  0  0  0  0  0  0
   -1.5342   -0.8156    0.2330 N   0  0  0  0  0  0  0  0  0  0  0  0
   -2.1077   -0.6482   -0.6060 H   0  0  0  0  0  0  0  0  0  0  0  0
   -0.2428   -0.1231    0.2135 C   0  0  1  0  0  0  0  0  0  0  0  0
    0.3340   -0.5148    1.0549 H   0  0  0  0  0  0  0  0  0  0  0  0
    0.5317   -0.5457   -1.0566 C   0  0  0  0  0  0  0  0  0  0  0  0
    1.6000   -0.4971   -0.8261 H   0  0  0  0  0  0  0  0  0  0  0  0
    0.3041   -1.5922   -1.2867 H   0  0  0  0  0  0  0  0  0  0  0  0
    0.3024    0.3044   -2.3271 C   0  0  0  0  0  0  0  0  0  0  0  0
    0.6370    1.3282   -2.1366 H   0  0  0  0  0  0  0  0  0  0  0  0
    0.9275   -0.1030   -3.1264 H   0  0  0  0  0  0  0  0  0  0  0  0
   -1.1460    0.3550   -2.8459 C   0  0  0  0  0  0  0  0  0  0  0  0
   -1.9578   -0.5409   -2.4840 O   0  5  0  0  0  0  0  0  0  0  0  0
   -1.3906    1.2164   -3.7250 O   0  0  0  0  0  0  0  0  0  0  0  0
   -0.2999    1.3991    0.4760 C   0  0  0  0  0  0  0  0  0  0  0  0
   -1.2317    2.0997    0.1057 O   0  0  0  0  0  0  0  0  0  0  0  0
    0.6195    1.9621    1.3459 N   0  0  0  0  0  0  0  0  0  0  0  0
    1.3597    1.3622    1.6915 H   0  0  0  0  0  0  0  0  0  0  0  0
    0.6014    3.3642    1.7385 C   0  0  0  0  0  0  0  0  0  0  0  0
   -0.3333    3.6048    2.2552 H   0  0  0  0  0  0  0  0  0  0  0  0
    1.4351    3.5763    2.4142 H   0  0  0  0  0  0  0  0  0  0  0  0
    0.6958    4.0085    0.8582 H   0  0  0  0  0  0  0  0  0  0  0  0
  1  2  1  0  0  0  0
  2  3  1  0  0  0  0
  2  4  1  0  0  0  0
  2  5  1  0  0  0  0
  5  6  2  0  0  0  0
  5  7  1  0  0  0  0
  7  8  1  0  0  0  0
  7  9  1  0  0  0  0
  9 10  1  0  0  0  0
  9 11  1  0  0  0  0
  9 20  1  0  0  0  0
 11 12  1  0  0  0  0
 11 13  1  0  0  0  0
 11 14  1  0  0  0  0
 14 15  1  0  0  0  0
 14 16  1  0  0  0  0
 14 17  1  0  0  0  0
 17 18  1  0  0  0  0
 17 19  2  0  0  0  0
 20 21  2  0  0  0  0
 20 22  1  0  0  0  0
 22 23  1  0  0  0  0
 22 24  1  0  0  0  0
 24 25  1  0  0  0  0
 24 26  1  0  0  0  0
 24 27  1  0  0  0  0
M  CHG  1  18  -1
M  END
$$$$

  -OEChem-03222214043D

 27 26  0     1  0  0  0  0  0999 V2000
   -3.0365   -3.7585    1.0420 H   0  0  0  0  0  0  0  0  0  0  0  0
   -3.0309   -2.7931    0.5295 C   0  0  0  0  0  0  0  0  0  0  0  0
   -3.9077   -2.2195    0.8399 H   0  0  0  0  0  0  0  0  0  0  0  0
   -3.0845   -2.9634   -0.5494 H   0  0  0  0  0  0  0  0  0  0  0  0
   -1.7668   -2.0223    0.8636 C   0  0  0  0  0  0  0  0  0  0  0  0
   -0.9637   -2.4816    1.6678 O   0  0  0  0  0  0  0  0  0  0  0  0
   -1.5371   -0.8168    0.2437 N   0  0  0  0  0  0  0  0  0  0  0  0
   -2.1533   -0.6028   -0.5536 H   0  0  0  0  0  0  0  0  0  0  0  0
   -0.2566   -0.1056    0.2062 C   0  0  1  0  0  0  0  0  0  0  0  0
    0.3217   -0.4945    1.0479 H   0  0  0  0  0  0  0  0  0  0  0  0
    0.5377   -0.5249   -1.0515 C   0  0  0  0  0  0  0  0  0  0  0  0
    1.6043   -0.4701   -0.8138 H   0  0  0  0  0  0  0  0  0  0  0  0
    0.3140   -1.5752   -1.2669 H   0  0  0  0  0  0  0  0  0  0  0  0
    0.3139    0.2891   -2.3465 C   0  0  0  0  0  0  0  0  0  0  0  0
    0.8449    1.2404   -2.2460 H   0  0  0  0  0  0  0  0  0  0  0  0
    0.7651   -0.2550   -3.1807 H   0  0  0  0  0  0  0  0  0  0  0  0
   -1.1461    0.6051   -2.7122 C   0  0  0  0  0  0  0  0  0  0  0  0
   -2.0305   -0.2487   -2.4261 O   0  5  0  0  0  0  0  0  0  0  0  0
   -1.3383    1.6105   -3.4381 O   0  0  0  0  0  0  0  0  0  0  0  0
   -0.3128    1.4130    0.4905 C   0  0  0  0  0  0  0  0  0  0  0  0
   -1.2868    2.0989    0.2152 O   0  0  0  0  0  0  0  0  0  0  0  0
    0.6280    1.9642    1.3457 N   0  0  0  0  0  0  0  0  0  0  0  0
    1.4112    1.3791    1.6125 H   0  0  0  0  0  0  0  0  0  0  0  0
    0.6058    3.3558    1.7740 C   0  0  0  0  0  0  0  0  0  0  0  0
   -0.3146    3.5721    2.3261 H   0  0  0  0  0  0  0  0  0  0  0  0
    1.4578    3.5617    2.4284 H   0  0  0  0  0  0  0  0  0  0  0  0
    0.6643    4.0227    0.9075 H   0  0  0  0  0  0  0  0  0  0  0  0
  1  2  1  0  0  0  0
  2  3  1  0  0  0  0
  2  4  1  0  0  0  0
  2  5  1  0  0  0  0
  5  6  2  0  0  0  0
  5  7  1  0  0  0  0
  7  8  1  0  0  0  0
  7  9  1  0  0  0  0
  9 10  1  0  0  0  0
  9 11  1  0  0  0  0
  9 20  1  0  0  0  0
 11 12  1  0  0  0  0
 11 13  1  0  0  0  0
 11 14  1  0  0  0  0
 14 15  1  0  0  0  0
 14 16  1  0  0  0  0
 14 17  1  0  0  0  0
 17 18  1  0  0  0  0
 17 19  2  0  0  0  0
 20 21  2  0  0  0  0
 20 22  1  0  0  0  0
 22 23  1  0  0  0  0
 22 24  1  0  0  0  0
 24 25  1  0  0  0  0
 24 26  1  0  0  0  0
 24 27  1  0  0  0  0
M  CHG  1  18  -1
M  END
$$$$

  -OEChem-03222214043D

 27 26  0     1  0  0  0  0  0999 V2000
   -3.0430   -3.7393    1.0765 H   0  0  0  0  0  0  0  0  0  0  0  0
   -3.0401   -2.7733    0.5650 C   0  0  0  0  0  0  0  0  0  0  0  0
   -3.8926   -2.1839    0.9117 H   0  0  0  0  0  0  0  0  0  0  0  0
   -3.1404   -2.9405   -0.5109 H   0  0  0  0  0  0  0  0  0  0  0  0
   -1.7492   -2.0268    0.8482 C   0  0  0  0  0  0  0  0  0  0  0  0
   -0.9075   -2.5195    1.5905 O   0  0  0  0  0  0  0  0  0  0  0  0
   -1.5385   -0.8070    0.2497 N   0  0  0  0  0  0  0  0  0  0  0  0
   -2.2011   -0.5402   -0.4914 H   0  0  0  0  0  0  0  0  0  0  0  0
   -0.2698   -0.0769    0.1933 C   0  0  1  0  0  0  0  0  0  0  0  0
    0.3073   -0.4612    1.0380 H   0  0  0  0  0  0  0  0  0  0  0  0
    0.5466   -0.5084   -1.0458 C   0  0  0  0  0  0  0  0  0  0  0  0
    1.6097   -0.4376   -0.7973 H   0  0  0  0  0  0  0  0  0  0  0  0
    0.3370   -1.5667   -1.2334 H   0  0  0  0  0  0  0  0  0  0  0  0
    0.3312    0.2547   -2.3728 C   0  0  0  0  0  0  0  0  0  0  0  0
    1.0423    1.0861   -2.3970 H   0  0  0  0  0  0  0  0  0  0  0  0
    0.5765   -0.4109   -3.2050 H   0  0  0  0  0  0  0  0  0  0  0  0
   -1.0677    0.8391   -2.6138 C   0  0  0  0  0  0  0  0  0  0  0  0
   -2.0574    0.0934   -2.3756 O   0  5  0  0  0  0  0  0  0  0  0  0
   -1.1298    1.9456   -3.2026 O   0  0  0  0  0  0  0  0  0  0  0  0
   -0.3280    1.4372    0.5062 C   0  0  0  0  0  0  0  0  0  0  0  0
   -1.3484    2.0945    0.3576 O   0  0  0  0  0  0  0  0  0  0  0  0
    0.6364    1.9737    1.3450 N   0  0  0  0  0  0  0  0  0  0  0  0
    1.4677    1.4170    1.5057 H   0  0  0  0  0  0  0  0  0  0  0  0
    0.6061    3.3489    1.8242 C   0  0  0  0  0  0  0  0  0  0  0  0
   -0.2788    3.5180    2.4462 H   0  0  0  0  0  0  0  0  0  0  0  0
    1.4960    3.5576    2.4250 H   0  0  0  0  0  0  0  0  0  0  0  0
    0.5851    4.0469    0.9808 H   0  0  0  0  0  0  0  0  0  0  0  0
  1  2  1  0  0  0  0
  2  3  1  0  0  0  0
  2  4  1  0  0  0  0
  2  5  1  0  0  0  0
  5  6  2  0  0  0  0
  5  7  1  0  0  0  0
  7  8  1  0  0  0  0
  7  9  1  0  0  0  0
  9 10  1  0  0  0  0
  9 11  1  0  0  0  0
  9 20  1  0  0  0  0
 11 12  1  0  0  0  0
 11 13  1  0  0  0  0
 11 14  1  0  0  0  0
 14 15  1  0  0  0  0
 14 16  1  0  0  0  0
 14 17  1  0  0  0  0
 17 18  1  0  0  0  0
 17 19  2  0  0  0  0
 20 21  2  0  0  0  0
 20 22  1  0  0  0  0
 22 23  1  0  0  0  0
 22 24  1  0  0  0  0
 24 25  1  0  0  0  0
 24 26  1  0  0  0  0
 24 27  1  0  0  0  0
M  CHG  1  18  -1
M  END
$$$$

  -OEChem-03222214043D

 27 26  0     1  0  0  0  0  0999 V2000
   -2.8628   -3.6006    1.7083 H   0  0  0  0  0  0  0  0  0  0  0  0
   -2.9325   -2.6779    1.1262 C   0  0  0  0  0  0  0  0  0  0  0  0
   -3.7048   -2.0396    1.5624 H   0  0  0  0  0  0  0  0  0  0  0  0
   -3.2162   -2.9260    0.1001 H   0  0  0  0  0  0  0  0  0  0  0  0
   -1.6012   -1.9486    1.1284 C   0  0  0  0  0  0  0  0  0  0  0  0
   -0.6502   -2.4145    1.7447 O   0  0  0  0  0  0  0  0  0  0  0  0
   -1.4830   -0.7712    0.4277 N   0  0  0  0  0  0  0  0  0  0  0  0
   -2.2675   -0.5048   -0.1784 H   0  0  0  0  0  0  0  0  0  0  0  0
   -0.2476   -0.0311    0.1605 C   0  0  1  0  0  0  0  0  0  0  0  0
    0.4164   -0.3310    0.9755 H   0  0  0  0  0  0  0  0  0  0  0  0
    0.4693   -0.5808   -1.0951 C   0  0  0  0  0  0  0  0  0  0  0  0
    1.5461   -0.4504   -0.9509 H   0  0  0  0  0  0  0  0  0  0  0  0
    0.2890   -1.6600   -1.1380 H   0  0  0  0  0  0  0  0  0  0  0  0
    0.1211    0.0083   -2.4811 C   0  0  0  0  0  0  0  0  0  0  0  0
    0.9535    0.6464   -2.7937 H   0  0  0  0  0  0  0  0  0  0  0  0
    0.0529   -0.8101   -3.2033 H   0  0  0  0  0  0  0  0  0  0  0  0
   -1.1614    0.8373   -2.5752 C   0  0  0  0  0  0  0  0  0  0  0  0
   -2.2345    0.2611   -2.2506 O   0  5  0  0  0  0  0  0  0  0  0  0
   -1.0802    1.9771   -3.0942 O   0  0  0  0  0  0  0  0  0  0  0  0
   -0.3039    1.5018    0.3761 C   0  0  0  0  0  0  0  0  0  0  0  0
   -1.3700    2.1021    0.4091 O   0  0  0  0  0  0  0  0  0  0  0  0
    0.7488    2.1052    1.0472 N   0  0  0  0  0  0  0  0  0  0  0  0
    1.6321    1.6091    1.0421 H   0  0  0  0  0  0  0  0  0  0  0  0
    0.7370    3.5048    1.4520 C   0  0  0  0  0  0  0  0  0  0  0  0
    0.5621    4.1513    0.5857 H   0  0  0  0  0  0  0  0  0  0  0  0
    1.6981    3.7750    1.8989 H   0  0  0  0  0  0  0  0  0  0  0  0
   -0.0499    3.6832    2.1920 H   0  0  0  0  0  0  0  0  0  0  0  0
  1  2  1  0  0  0  0
  2  3  1  0  0  0  0
  2  4  1  0  0  0  0
  2  5  1  0  0  0  0
  5  6  2  0  0  0  0
  5  7  1  0  0  0  0
  7  8  1  0  0  0  0
  7  9  1  0  0  0  0
  9 10  1  0  0  0  0
  9 11  1  0  0  0  0
  9 20  1  0  0  0  0
 11 12  1  0  0  0  0
 11 13  1  0  0  0  0
 11 14  1  0  0  0  0
 14 15  1  0  0  0  0
 14 16  1  0  0  0  0
 14 17  1  0  0  0  0
 17 18  1  0  0  0  0
 17 19  2  0  0  0  0
 20 21  2  0  0  0  0
 20 22  1  0  0  0  0
 22 23  1  0  0  0  0
 22 24  1  0  0  0  0
 24 25  1  0  0  0  0
 24 26  1  0  0  0  0
 24 27  1  0  0  0  0
M  CHG  1  18  -1
M  END
$$$$

  -OEChem-03222214043D

 27 26  0     1  0  0  0  0  0999 V2000
   -3.0936   -3.5676    1.4546 H   0  0  0  0  0  0  0  0  0  0  0  0
   -3.0869   -2.6434    0.8705 C   0  0  0  0  0  0  0  0  0  0  0  0
   -3.8604   -1.9744    1.2563 H   0  0  0  0  0  0  0  0  0  0  0  0
   -3.3116   -2.8814   -0.1724 H   0  0  0  0  0  0  0  0  0  0  0  0
   -1.7297   -1.9698    0.9630 C   0  0  0  0  0  0  0  0  0  0  0  0
   -0.8393   -2.4810    1.6304 O   0  0  0  0  0  0  0  0  0  0  0  0
   -1.5198   -0.7899    0.2874 N   0  0  0  0  0  0  0  0  0  0  0  0
   -2.2809   -0.4287   -0.2914 H   0  0  0  0  0  0  0  0  0  0  0  0
   -0.2623   -0.0418    0.1979 C   0  0  1  0  0  0  0  0  0  0  0  0
    0.2772   -0.3272    1.1054 H   0  0  0  0  0  0  0  0  0  0  0  0
    0.6468   -0.5924   -0.9289 C   0  0  0  0  0  0  0  0  0  0  0  0
    1.6795   -0.4215   -0.6093 H   0  0  0  0  0  0  0  0  0  0  0  0
    0.5131   -1.6781   -0.9753 H   0  0  0  0  0  0  0  0  0  0  0  0
    0.5400   -0.0389   -2.3682 C   0  0  0  0  0  0  0  0  0  0  0  0
    1.5221    0.3399   -2.6670 H   0  0  0  0  0  0  0  0  0  0  0  0
    0.3071   -0.8719   -3.0382 H   0  0  0  0  0  0  0  0  0  0  0  0
   -0.4908    1.0552   -2.6217 C   0  0  0  0  0  0  0  0  0  0  0  0
   -1.6906    0.6968   -2.7327 O   0  5  0  0  0  0  0  0  0  0  0  0
   -0.0659    2.2295   -2.7541 O   0  0  0  0  0  0  0  0  0  0  0  0
   -0.4017    1.4871    0.4113 C   0  0  0  0  0  0  0  0  0  0  0  0
   -1.5108    2.0086    0.3679 O   0  0  0  0  0  0  0  0  0  0  0  0
    0.5223    2.1189    1.2294 N   0  0  0  0  0  0  0  0  0  0  0  0
    1.4492    1.7098    1.2358 H   0  0  0  0  0  0  0  0  0  0  0  0
    0.3946    3.5195    1.6099 C   0  0  0  0  0  0  0  0  0  0  0  0
   -0.4994    3.6711    2.2234 H   0  0  0  0  0  0  0  0  0  0  0  0
    1.2673    3.8322    2.1905 H   0  0  0  0  0  0  0  0  0  0  0  0
    0.3241    4.1519    0.7186 H   0  0  0  0  0  0  0  0  0  0  0  0
  1  2  1  0  0  0  0
  2  3  1  0  0  0  0
  2  4  1  0  0  0  0
  2  5  1  0  0  0  0
  5  6  2  0  0  0  0
  5  7  1  0  0  0  0
  7  8  1  0  0  0  0
  7  9  1  0  0  0  0
  9 10  1  0  0  0  0
  9 11  1  0  0  0  0
  9 20  1  0  0  0  0
 11 12  1  0  0  0  0
 11 13  1  0  0  0  0
 11 14  1  0  0  0  0
 14 15  1  0  0  0  0
 14 16  1  0  0  0  0
 14 17  1  0  0  0  0
 17 18  1  0  0  0  0
 17 19  2  0  0  0  0
 20 21  2  0  0  0  0
 20 22  1  0  0  0  0
 22 23  1  0  0  0  0
 22 24  1  0  0  0  0
 24 25  1  0  0  0  0
 24 26  1  0  0  0  0
 24 27  1  0  0  0  0
M  CHG  1  18  -1
M  END
$$$$

  -OEChem-03222214043D

 27 26  0     1  0  0  0  0  0999 V2000
   -3.4546   -3.4499    1.0387 H   0  0  0  0  0  0  0  0  0  0  0  0
   -3.3273   -2.5038    0.5057 C   0  0  0  0  0  0  0  0  0  0  0  0
   -4.0371   -1.7747    0.9045 H   0  0  0  0  0  0  0  0  0  0  0  0
   -3.5395   -2.6635   -0.5545 H   0  0  0  0  0  0  0  0  0  0  0  0
   -1.9090   -1.9892    0.6751 C   0  0  0  0  0  0  0  0  0  0  0  0
   -1.1025   -2.6331    1.3328 O   0  0  0  0  0  0  0  0  0  0  0  0
   -1.5527   -0.7952    0.0906 N   0  0  0  0  0  0  0  0  0  0  0  0
   -2.2822   -0.2575   -0.3781 H   0  0  0  0  0  0  0  0  0  0  0  0
   -0.2553   -0.1190    0.2176 C   0  0  1  0  0  0  0  0  0  0  0  0
    0.1631   -0.4736    1.1642 H   0  0  0  0  0  0  0  0  0  0  0  0
    0.7505   -0.6348   -0.8459 C   0  0  0  0  0  0  0  0  0  0  0  0
    1.7374   -0.5301   -0.3842 H   0  0  0  0  0  0  0  0  0  0  0  0
    0.5881   -1.7084   -0.9854 H   0  0  0  0  0  0  0  0  0  0  0  0
    0.8853    0.0132   -2.2451 C   0  0  0  0  0  0  0  0  0  0  0  0
    1.9468    0.0653   -2.5045 H   0  0  0  0  0  0  0  0  0  0  0  0
    0.4193   -0.6660   -2.9656 H   0  0  0  0  0  0  0  0  0  0  0  0
    0.2720    1.3905   -2.4680 C   0  0  0  0  0  0  0  0  0  0  0  0
    0.9236    2.3669   -2.0172 O   0  5  0  0  0  0  0  0  0  0  0  0
   -0.7818    1.4722   -3.1448 O   0  0  0  0  0  0  0  0  0  0  0  0
   -0.4226    1.3988    0.4840 C   0  0  0  0  0  0  0  0  0  0  0  0
   -1.5296    1.9033    0.3048 O   0  0  0  0  0  0  0  0  0  0  0  0
    0.3638    1.9903    1.4593 N   0  0  0  0  0  0  0  0  0  0  0  0
    1.3124    1.6347    1.4931 H   0  0  0  0  0  0  0  0  0  0  0  0
    0.1724    3.3838    1.8399 C   0  0  0  0  0  0  0  0  0  0  0  0
   -0.7947    3.5181    2.3350 H   0  0  0  0  0  0  0  0  0  0  0  0
    0.9601    3.6952    2.5319 H   0  0  0  0  0  0  0  0  0  0  0  0
    0.2111    4.0293    0.9557 H   0  0  0  0  0  0  0  0  0  0  0  0
  1  2  1  0  0  0  0
  2  3  1  0  0  0  0
  2  4  1  0  0  0  0
  2  5  1  0  0  0  0
  5  6  2  0  0  0  0
  5  7  1  0  0  0  0
  7  8  1  0  0  0  0
  7  9  1  0  0  0  0
  9 10  1  0  0  0  0
  9 11  1  0  0  0  0
  9 20  1  0  0  0  0
 11 12  1  0  0  0  0
 11 13  1  0  0  0  0
 11 14  1  0  0  0  0
 14 15  1  0  0  0  0
 14 16  1  0  0  0  0
 14 17  1  0  0  0  0
 17 18  1  0  0  0  0
 17 19  2  0  0  0  0
 20 21  2  0  0  0  0
 20 22  1  0  0  0  0
 22 23  1  0  0  0  0
 22 24  1  0  0  0  0
 24 25  1  0  0  0  0
 24 26  1  0  0  0  0
 24 27  1  0  0  0  0
M  CHG  1  18  -1
M  END
$$$$

  -OEChem-03222214043D

 27 26  0     1  0  0  0  0  0999 V2000
   -3.2594   -3.6302    0.8467 H   0  0  0  0  0  0  0  0  0  0  0  0
   -3.1789   -2.6449    0.3797 C   0  0  0  0  0  0  0  0  0  0  0  0
   -3.8747   -1.9617    0.8733 H   0  0  0  0  0  0  0  0  0  0  0  0
   -3.4522   -2.7297   -0.6750 H   0  0  0  0  0  0  0  0  0  0  0  0
   -1.7608   -2.1166    0.5036 C   0  0  0  0  0  0  0  0  0  0  0  0
   -0.9021   -2.7991    1.0454 O   0  0  0  0  0  0  0  0  0  0  0  0
   -1.4647   -0.8660    0.0108 N   0  0  0  0  0  0  0  0  0  0  0  0
   -2.2419   -0.2902   -0.3134 H   0  0  0  0  0  0  0  0  0  0  0  0
   -0.1856   -0.1595    0.1676 C   0  0  1  0  0  0  0  0  0  0  0  0
    0.2933   -0.5782    1.0577 H   0  0  0  0  0  0  0  0  0  0  0  0
    0.7754   -0.5157   -1.0001 C   0  0  0  0  0  0  0  0  0  0  0  0
    1.7812   -0.4270   -0.5773 H   0  0  0  0  0  0  0  0  0  0  0  0
    0.6389   -1.5712   -1.2558 H   0  0  0  0  0  0  0  0  0  0  0  0
    0.8257    0.2933   -2.3191 C   0  0  0  0  0  0  0  0  0  0  0  0
    1.8194    0.1788   -2.7615 H   0  0  0  0  0  0  0  0  0  0  0  0
    0.1117   -0.1677   -3.0082 H   0  0  0  0  0  0  0  0  0  0  0  0
    0.4974    1.7823   -2.2607 C   0  0  0  0  0  0  0  0  0  0  0  0
    1.2449    2.4813   -1.5274 O   0  5  0  0  0  0  0  0  0  0  0  0
   -0.3939    2.2327   -3.0202 O   0  0  0  0  0  0  0  0  0  0  0  0
   -0.4442    1.3170    0.5636 C   0  0  0  0  0  0  0  0  0  0  0  0
   -1.5808    1.7657    0.4119 O   0  0  0  0  0  0  0  0  0  0  0  0
    0.3162    1.8798    1.5744 N   0  0  0  0  0  0  0  0  0  0  0  0
    1.2978    1.6306    1.5120 H   0  0  0  0  0  0  0  0  0  0  0  0
    0.0263    3.2191    2.0693 C   0  0  0  0  0  0  0  0  0  0  0  0
   -0.9559    3.2480    2.5518 H   0  0  0  0  0  0  0  0  0  0  0  0
    0.7792    3.5180    2.8042 H   0  0  0  0  0  0  0  0  0  0  0  0
    0.0381    3.9404    1.2452 H   0  0  0  0  0  0  0  0  0  0  0  0
  1  2  1  0  0  0  0
  2  3  1  0  0  0  0
  2  4  1  0  0  0  0
  2  5  1  0  0  0  0
  5  6  2  0  0  0  0
  5  7  1  0  0  0  0
  7  8  1  0  0  0  0
  7  9  1  0  0  0  0
  9 10  1  0  0  0  0
  9 11  1  0  0  0  0
  9 20  1  0  0  0  0
 11 12  1  0  0  0  0
 11 13  1  0  0  0  0
 11 14  1  0  0  0  0
 14 15  1  0  0  0  0
 14 16  1  0  0  0  0
 14 17  1  0  0  0  0
 17 18  1  0  0  0  0
 17 19  2  0  0  0  0
 20 21  2  0  0  0  0
 20 22  1  0  0  0  0
 22 23  1  0  0  0  0
 22 24  1  0  0  0  0
 24 25  1  0  0  0  0
 24 26  1  0  0  0  0
 24 27  1  0  0  0  0
M  CHG  1  18  -1
M  END
$$$$

  -OEChem-03222214043D

 27 26  0     1  0  0  0  0  0999 V2000
   -3.1885   -3.5648    1.2182 H   0  0  0  0  0  0  0  0  0  0  0  0
   -3.1330   -2.6112    0.6859 C   0  0  0  0  0  0  0  0  0  0  0  0
   -3.7618   -1.8819    1.2029 H   0  0  0  0  0  0  0  0  0  0  0  0
   -3.5111   -2.7501   -0.3301 H   0  0  0  0  0  0  0  0  0  0  0  0
   -1.6983   -2.1160    0.6392 C   0  0  0  0  0  0  0  0  0  0  0  0
   -0.8007   -2.8100    1.0957 O   0  0  0  0  0  0  0  0  0  0  0  0
   -1.4312   -0.8813    0.0923 N   0  0  0  0  0  0  0  0  0  0  0  0
   -2.2279   -0.2874   -0.1379 H   0  0  0  0  0  0  0  0  0  0  0  0
   -0.1317   -0.1937    0.1247 C   0  0  1  0  0  0  0  0  0  0  0  0
    0.4352   -0.6041    0.9658 H   0  0  0  0  0  0  0  0  0  0  0  0
    0.6943   -0.5454   -1.1428 C   0  0  0  0  0  0  0  0  0  0  0  0
    1.7442   -0.4954   -0.8369 H   0  0  0  0  0  0  0  0  0  0  0  0
    0.4963   -1.5885   -1.4090 H   0  0  0  0  0  0  0  0  0  0  0  0
    0.5985    0.3034   -2.4323 C   0  0  0  0  0  0  0  0  0  0  0  0
    1.4091    0.0090   -3.1048 H   0  0  0  0  0  0  0  0  0  0  0  0
   -0.3463    0.0556   -2.9254 H   0  0  0  0  0  0  0  0  0  0  0  0
    0.6512    1.8213   -2.2571 C   0  0  0  0  0  0  0  0  0  0  0  0
    1.5391    2.2628   -1.4788 O   0  5  0  0  0  0  0  0  0  0  0  0
   -0.0930    2.5325   -2.9733 O   0  0  0  0  0  0  0  0  0  0  0  0
   -0.3665    1.2907    0.5089 C   0  0  0  0  0  0  0  0  0  0  0  0
   -1.5090    1.7415    0.4067 O   0  0  0  0  0  0  0  0  0  0  0  0
    0.4652    1.8813    1.4434 N   0  0  0  0  0  0  0  0  0  0  0  0
    1.4432    1.6796    1.2523 H   0  0  0  0  0  0  0  0  0  0  0  0
    0.1891    3.2221    1.9412 C   0  0  0  0  0  0  0  0  0  0  0  0
   -0.7507    3.2398    2.5022 H   0  0  0  0  0  0  0  0  0  0  0  0
    0.9935    3.5467    2.6073 H   0  0  0  0  0  0  0  0  0  0  0  0
    0.1191    3.9307    1.1090 H   0  0  0  0  0  0  0  0  0  0  0  0
  1  2  1  0  0  0  0
  2  3  1  0  0  0  0
  2  4  1  0  0  0  0
  2  5  1  0  0  0  0
  5  6  2  0  0  0  0
  5  7  1  0  0  0  0
  7  8  1  0  0  0  0
  7  9  1  0  0  0  0
  9 10  1  0  0  0  0
  9 11  1  0  0  0  0
  9 20  1  0  0  0  0
 11 12  1  0  0  0  0
 11 13  1  0  0  0  0
 11 14  1  0  0  0  0
 14 15  1  0  0  0  0
 14 16  1  0  0  0  0
 14 17  1  0  0  0  0
 17 18  1  0  0  0  0
 17 19  2  0  0  0  0
 20 21  2  0  0  0  0
 20 22  1  0  0  0  0
 22 23  1  0  0  0  0
 22 24  1  0  0  0  0
 24 25  1  0  0  0  0
 24 26  1  0  0  0  0
 24 27  1  0  0  0  0
M  CHG  1  18  -1
M  END
$$$$

  -OEChem-03222214043D

 27 26  0     1  0  0  0  0  0999 V2000
   -3.2422   -3.5104    1.2639 H   0  0  0  0  0  0  0  0  0  0  0  0
   -3.1625   -2.5712    0.7098 C   0  0  0  0  0  0  0  0  0  0  0  0
   -3.7793   -1.8165    1.2040 H   0  0  0  0  0  0  0  0  0  0  0  0
   -3.5350   -2.7265   -0.3058 H   0  0  0  0  0  0  0  0  0  0  0  0
   -1.7177   -2.1072    0.6631 C   0  0  0  0  0  0  0  0  0  0  0  0
   -0.8399   -2.8037    1.1526 O   0  0  0  0  0  0  0  0  0  0  0  0
   -1.4206   -0.8969    0.0790 N   0  0  0  0  0  0  0  0  0  0  0  0
   -2.2035   -0.2939   -0.1737 H   0  0  0  0  0  0  0  0  0  0  0  0
   -0.1097   -0.2312    0.1160 C   0  0  1  0  0  0  0  0  0  0  0  0
    0.4490   -0.6284    0.9690 H   0  0  0  0  0  0  0  0  0  0  0  0
    0.7210   -0.5834   -1.1453 C   0  0  0  0  0  0  0  0  0  0  0  0
    1.7748   -0.5832   -0.8479 H   0  0  0  0  0  0  0  0  0  0  0  0
    0.4820   -1.6103   -1.4392 H   0  0  0  0  0  0  0  0  0  0  0  0
    0.6083    0.3124   -2.3993 C   0  0  0  0  0  0  0  0  0  0  0  0
    1.2398   -0.1080   -3.1867 H   0  0  0  0  0  0  0  0  0  0  0  0
   -0.4273    0.2888   -2.7513 H   0  0  0  0  0  0  0  0  0  0  0  0
    1.0210    1.7755   -2.1903 C   0  0  0  0  0  0  0  0  0  0  0  0
    1.8927    2.0124   -1.3094 O   0  5  0  0  0  0  0  0  0  0  0  0
    0.5404    2.6351   -2.9662 O   0  0  0  0  0  0  0  0  0  0  0  0
   -0.3432    1.2665    0.4449 C   0  0  0  0  0  0  0  0  0  0  0  0
   -1.4721    1.7314    0.2718 O   0  0  0  0  0  0  0  0  0  0  0  0
    0.4686    1.8842    1.3780 N   0  0  0  0  0  0  0  0  0  0  0  0
    1.4508    1.6996    1.1785 H   0  0  0  0  0  0  0  0  0  0  0  0
    0.1754    3.2333    1.8421 C   0  0  0  0  0  0  0  0  0  0  0  0
   -0.7795    3.2588    2.3767 H   0  0  0  0  0  0  0  0  0  0  0  0
    0.9605    3.5725    2.5240 H   0  0  0  0  0  0  0  0  0  0  0  0
    0.1266    3.9259    0.9951 H   0  0  0  0  0  0  0  0  0  0  0  0
  1  2  1  0  0  0  0
  2  3  1  0  0  0  0
  2  4  1  0  0  0  0
  2  5  1  0  0  0  0
  5  6  2  0  0  0  0
  5  7  1  0  0  0  0
  7  8  1  0  0  0  0
  7  9  1  0  0  0  0
  9 10  1  0  0  0  0
  9 11  1  0  0  0  0
  9 20  1  0  0  0  0
 11 12  1  0  0  0  0
 11 13  1  0  0  0  0
 11 14  1  0  0  0  0
 14 15  1  0  0  0  0
 14 16  1  0  0  0  0
 14 17  1  0  0  0  0
 17 18  1  0  0  0  0
 17 19  2  0  0  0  0
 20 21  2  0  0  0  0
 20 22  1  0  0  0  0
 22 23  1  0  0  0  0
 22 24  1  0  0  0  0
 24 25  1  0  0  0  0
 24 26  1  0  0  0  0
 24 27  1  0  0  0  0
M  CHG  1  18  -1
M  END
$$$$

  -OEChem-03222214043D

 27 26  0     1  0  0  0  0  0999 V2000
   -3.2534   -3.4977    1.3099 H   0  0  0  0  0  0  0  0  0  0  0  0
   -3.1648   -2.5789    0.7238 C   0  0  0  0  0  0  0  0  0  0  0  0
   -3.7883   -1.8069    1.1818 H   0  0  0  0  0  0  0  0  0  0  0  0
   -3.5233   -2.7702   -0.2906 H   0  0  0  0  0  0  0  0  0  0  0  0
   -1.7185   -2.1184    0.6814 C   0  0  0  0  0  0  0  0  0  0  0  0
   -0.8476   -2.8074    1.1928 O   0  0  0  0  0  0  0  0  0  0  0  0
   -1.4125   -0.9215    0.0740 N   0  0  0  0  0  0  0  0  0  0  0  0
   -2.1909   -0.3232   -0.2008 H   0  0  0  0  0  0  0  0  0  0  0  0
   -0.0985   -0.2608    0.1050 C   0  0  1  0  0  0  0  0  0  0  0  0
    0.4618   -0.6511    0.9602 H   0  0  0  0  0  0  0  0  0  0  0  0
    0.7336   -0.5949   -1.1551 C   0  0  0  0  0  0  0  0  0  0  0  0
    1.7915   -0.6313   -0.8752 H   0  0  0  0  0  0  0  0  0  0  0  0
    0.4674   -1.6056   -1.4797 H   0  0  0  0  0  0  0  0  0  0  0  0
    0.5767    0.3531   -2.3635 C   0  0  0  0  0  0  0  0  0  0  0  0
    0.9925   -0.1405   -3.2463 H   0  0  0  0  0  0  0  0  0  0  0  0
   -0.4869    0.5305   -2.5480 H   0  0  0  0  0  0  0  0  0  0  0  0
    1.2961    1.7043   -2.2013 C   0  0  0  0  0  0  0  0  0  0  0  0
    2.0765    1.8599   -1.2211 O   0  5  0  0  0  0  0  0  0  0  0  0
    1.1033    2.5613   -3.0962 O   0  0  0  0  0  0  0  0  0  0  0  0
   -0.3196    1.2455    0.4010 C   0  0  0  0  0  0  0  0  0  0  0  0
   -1.4360    1.7247    0.1884 O   0  0  0  0  0  0  0  0  0  0  0  0
    0.4917    1.8775    1.3240 N   0  0  0  0  0  0  0  0  0  0  0  0
    1.4740    1.6879    1.1204 H   0  0  0  0  0  0  0  0  0  0  0  0
    0.2046    3.2366    1.7613 C   0  0  0  0  0  0  0  0  0  0  0  0
   -0.7626    3.2813    2.2719 H   0  0  0  0  0  0  0  0  0  0  0  0
    0.9766    3.5768    2.4575 H   0  0  0  0  0  0  0  0  0  0  0  0
    0.1855    3.9172    0.9035 H   0  0  0  0  0  0  0  0  0  0  0  0
  1  2  1  0  0  0  0
  2  3  1  0  0  0  0
  2  4  1  0  0  0  0
  2  5  1  0  0  0  0
  5  6  2  0  0  0  0
  5  7  1  0  0  0  0
  7  8  1  0  0  0  0
  7  9  1  0  0  0  0
  9 10  1  0  0  0  0
  9 11  1  0  0  0  0
  9 20  1  0  0  0  0
 11 12  1  0  0  0  0
 11 13  1  0  0  0  0
 11 14  1  0  0  0  0
 14 15  1  0  0  0  0
 14 16  1  0  0  0  0
 14 17  1  0  0  0  0
 17 18  1  0  0  0  0
 17 19  2  0  0  0  0
 20 21  2  0  0  0  0
 20 22  1  0  0  0  0
 22 23  1  0  0  0  0
 22 24  1  0  0  0  0
 24 25  1  0  0  0  0
 24 26  1  0  0  0  0
 24 27  1  0  0  0  0
M  CHG  1  18  -1
M  END
$$$$

  -OEChem-03222214043D

 27 26  0     1  0  0  0  0  0999 V2000
   -3.2445   -3.5064    1.3312 H   0  0  0  0  0  0  0  0  0  0  0  0
   -3.1613   -2.5897    0.7410 C   0  0  0  0  0  0  0  0  0  0  0  0
   -3.7814   -1.8165    1.2018 H   0  0  0  0  0  0  0  0  0  0  0  0
   -3.5277   -2.7851   -0.2698 H   0  0  0  0  0  0  0  0  0  0  0  0
   -1.7156   -2.1282    0.6850 C   0  0  0  0  0  0  0  0  0  0  0  0
   -0.8405   -2.8119    1.1958 O   0  0  0  0  0  0  0  0  0  0  0  0
   -1.4157   -0.9343    0.0686 N   0  0  0  0  0  0  0  0  0  0  0  0
   -2.1969   -0.3416   -0.2090 H   0  0  0  0  0  0  0  0  0  0  0  0
   -0.1027   -0.2713    0.0864 C   0  0  1  0  0  0  0  0  0  0  0  0
    0.4634   -0.6599    0.9384 H   0  0  0  0  0  0  0  0  0  0  0  0
    0.7303   -0.5912   -1.1735 C   0  0  0  0  0  0  0  0  0  0  0  0
    1.7908   -0.6372   -0.9045 H   0  0  0  0  0  0  0  0  0  0  0  0
    0.4581   -1.5962   -1.5111 H   0  0  0  0  0  0  0  0  0  0  0  0
    0.5393    0.3823   -2.3555 C   0  0  0  0  0  0  0  0  0  0  0  0
    0.7161   -0.1680   -3.2842 H   0  0  0  0  0  0  0  0  0  0  0  0
   -0.4892    0.7529   -2.3823 H   0  0  0  0  0  0  0  0  0  0  0  0
    1.5216    1.5677   -2.3200 C   0  0  0  0  0  0  0  0  0  0  0  0
    2.1196    1.8302   -1.2396 O   0  5  0  0  0  0  0  0  0  0  0  0
    1.6869    2.1979   -3.3919 O   0  0  0  0  0  0  0  0  0  0  0  0
   -0.3070    1.2388    0.3744 C   0  0  0  0  0  0  0  0  0  0  0  0
   -1.4197    1.7290    0.1661 O   0  0  0  0  0  0  0  0  0  0  0  0
    0.5192    1.8676    1.2859 N   0  0  0  0  0  0  0  0  0  0  0  0
    1.4978    1.6751    1.0648 H   0  0  0  0  0  0  0  0  0  0  0  0
    0.2444    3.2265    1.7309 C   0  0  0  0  0  0  0  0  0  0  0  0
   -0.7143    3.2738    2.2571 H   0  0  0  0  0  0  0  0  0  0  0  0
    1.0292    3.5613    2.4153 H   0  0  0  0  0  0  0  0  0  0  0  0
    0.2146    3.9093    0.8752 H   0  0  0  0  0  0  0  0  0  0  0  0
  1  2  1  0  0  0  0
  2  3  1  0  0  0  0
  2  4  1  0  0  0  0
  2  5  1  0  0  0  0
  5  6  2  0  0  0  0
  5  7  1  0  0  0  0
  7  8  1  0  0  0  0
  7  9  1  0  0  0  0
  9 10  1  0  0  0  0
  9 11  1  0  0  0  0
  9 20  1  0  0  0  0
 11 12  1  0  0  0  0
 11 13  1  0  0  0  0
 11 14  1  0  0  0  0
 14 15  1  0  0  0  0
 14 16  1  0  0  0  0
 14 17  1  0  0  0  0
 17 18  1  0  0  0  0
 17 19  2  0  0  0  0
 20 21  2  0  0  0  0
 20 22  1  0  0  0  0
 22 23  1  0  0  0  0
 22 24  1  0  0  0  0
 24 25  1  0  0  0  0
 24 26  1  0  0  0  0
 24 27  1  0  0  0  0
M  CHG  1  18  -1
M  END
$$$$

  -OEChem-03222214043D

 27 26  0     1  0  0  0  0  0999 V2000
   -3.2257   -3.5506    1.3113 H   0  0  0  0  0  0  0  0  0  0  0  0
   -3.1560   -2.6281    0.7282 C   0  0  0  0  0  0  0  0  0  0  0  0
   -3.7905   -1.8688    1.1923 H   0  0  0  0  0  0  0  0  0  0  0  0
   -3.5158   -2.8218   -0.2854 H   0  0  0  0  0  0  0  0  0  0  0  0
   -1.7182   -2.1421    0.6810 C   0  0  0  0  0  0  0  0  0  0  0  0
   -0.8340   -2.8136    1.1924 O   0  0  0  0  0  0  0  0  0  0  0  0
   -1.4370   -0.9397    0.0721 N   0  0  0  0  0  0  0  0  0  0  0  0
   -2.2267   -0.3637   -0.2150 H   0  0  0  0  0  0  0  0  0  0  0  0
   -0.1312   -0.2637    0.0749 C   0  0  1  0  0  0  0  0  0  0  0  0
    0.4407   -0.6597    0.9197 H   0  0  0  0  0  0  0  0  0  0  0  0
    0.7045   -0.5697   -1.1826 C   0  0  0  0  0  0  0  0  0  0  0  0
    1.7651   -0.5942   -0.9100 H   0  0  0  0  0  0  0  0  0  0  0  0
    0.4544   -1.5798   -1.5218 H   0  0  0  0  0  0  0  0  0  0  0  0
    0.4858    0.4079   -2.3570 C   0  0  0  0  0  0  0  0  0  0  0  0
    0.4096   -0.1725   -3.2812 H   0  0  0  0  0  0  0  0  0  0  0  0
   -0.4478    0.9661   -2.2520 H   0  0  0  0  0  0  0  0  0  0  0  0
    1.6703    1.3743   -2.4922 C   0  0  0  0  0  0  0  0  0  0  0  0
    2.1397    1.8711   -1.4319 O   0  5  0  0  0  0  0  0  0  0  0  0
    2.1124    1.6034   -3.6441 O   0  0  0  0  0  0  0  0  0  0  0  0
   -0.3057    1.2466    0.3775 C   0  0  0  0  0  0  0  0  0  0  0  0
   -1.4136    1.7552    0.1924 O   0  0  0  0  0  0  0  0  0  0  0  0
    0.5476    1.8593    1.2755 N   0  0  0  0  0  0  0  0  0  0  0  0
    1.5190    1.6134    1.0861 H   0  0  0  0  0  0  0  0  0  0  0  0
    0.3247    3.2331    1.7036 C   0  0  0  0  0  0  0  0  0  0  0  0
   -0.6267    3.3213    2.2377 H   0  0  0  0  0  0  0  0  0  0  0  0
    1.1273    3.5493    2.3760 H   0  0  0  0  0  0  0  0  0  0  0  0
    0.3106    3.9046    0.8386 H   0  0  0  0  0  0  0  0  0  0  0  0
  1  2  1  0  0  0  0
  2  3  1  0  0  0  0
  2  4  1  0  0  0  0
  2  5  1  0  0  0  0
  5  6  2  0  0  0  0
  5  7  1  0  0  0  0
  7  8  1  0  0  0  0
  7  9  1  0  0  0  0
  9 10  1  0  0  0  0
  9 11  1  0  0  0  0
  9 20  1  0  0  0  0
 11 12  1  0  0  0  0
 11 13  1  0  0  0  0
 11 14  1  0  0  0  0
 14 15  1  0  0  0  0
 14 16  1  0  0  0  0
 14 17  1  0  0  0  0
 17 18  1  0  0  0  0
 17 19  2  0  0  0  0
 20 21  2  0  0  0  0
 20 22  1  0  0  0  0
 22 23  1  0  0  0  0
 22 24  1  0  0  0  0
 24 25  1  0  0  0  0
 24 26  1  0  0  0  0
 24 27  1  0  0  0  0
M  CHG  1  18  -1
M  END
$$$$

  -OEChem-03222214043D

 27 26  0     1  0  0  0  0  0999 V2000
   -3.2060   -3.6086    1.2493 H   0  0  0  0  0  0  0  0  0  0  0  0
   -3.1495   -2.6737    0.6850 C   0  0  0  0  0  0  0  0  0  0  0  0
   -3.8148   -1.9411    1.1489 H   0  0  0  0  0  0  0  0  0  0  0  0
   -3.4818   -2.8586   -0.3396 H   0  0  0  0  0  0  0  0  0  0  0  0
   -1.7250   -2.1480    0.6781 C   0  0  0  0  0  0  0  0  0  0  0  0
   -0.8363   -2.7960    1.2112 O   0  0  0  0  0  0  0  0  0  0  0  0
   -1.4610   -0.9327    0.0863 N   0  0  0  0  0  0  0  0  0  0  0  0
   -2.2549   -0.3854   -0.2407 H   0  0  0  0  0  0  0  0  0  0  0  0
   -0.1641   -0.2409    0.0859 C   0  0  1  0  0  0  0  0  0  0  0  0
    0.4111   -0.6459    0.9241 H   0  0  0  0  0  0  0  0  0  0  0  0
    0.6700   -0.5450   -1.1722 C   0  0  0  0  0  0  0  0  0  0  0  0
    1.7270   -0.5301   -0.8851 H   0  0  0  0  0  0  0  0  0  0  0  0
    0.4586   -1.5677   -1.5002 H   0  0  0  0  0  0  0  0  0  0  0  0
    0.4442    0.4150   -2.3633 C   0  0  0  0  0  0  0  0  0  0  0  0
    0.0941   -0.1666   -3.2213 H   0  0  0  0  0  0  0  0  0  0  0  0
   -0.3239    1.1627   -2.1570 H   0  0  0  0  0  0  0  0  0  0  0  0
    1.7477    1.1233   -2.7399 C   0  0  0  0  0  0  0  0  0  0  0  0
    2.3143    1.7863   -1.8308 O   0  5  0  0  0  0  0  0  0  0  0  0
    2.1857    0.9888   -3.9086 O   0  0  0  0  0  0  0  0  0  0  0  0
   -0.3171    1.2643    0.4104 C   0  0  0  0  0  0  0  0  0  0  0  0
   -1.4058    1.8057    0.2156 O   0  0  0  0  0  0  0  0  0  0  0  0
    0.5547    1.8584    1.3041 N   0  0  0  0  0  0  0  0  0  0  0  0
    1.5072    1.5092    1.2274 H   0  0  0  0  0  0  0  0  0  0  0  0
    0.4063    3.2534    1.6942 C   0  0  0  0  0  0  0  0  0  0  0  0
   -0.5434    3.4089    2.2161 H   0  0  0  0  0  0  0  0  0  0  0  0
    1.2195    3.5426    2.3662 H   0  0  0  0  0  0  0  0  0  0  0  0
    0.4371    3.9010    0.8116 H   0  0  0  0  0  0  0  0  0  0  0  0
  1  2  1  0  0  0  0
  2  3  1  0  0  0  0
  2  4  1  0  0  0  0
  2  5  1  0  0  0  0
  5  6  2  0  0  0  0
  5  7  1  0  0  0  0
  7  8  1  0  0  0  0
  7  9  1  0  0  0  0
  9 10  1  0  0  0  0
  9 11  1  0  0  0  0
  9 20  1  0  0  0  0
 11 12  1  0  0  0  0
 11 13  1  0  0  0  0
 11 14  1  0  0  0  0
 14 15  1  0  0  0  0
 14 16  1  0  0  0  0
 14 17  1  0  0  0  0
 17 18  1  0  0  0  0
 17 19  2  0  0  0  0
 20 21  2  0  0  0  0
 20 22  1  0  0  0  0
 22 23  1  0  0  0  0
 22 24  1  0  0  0  0
 24 25  1  0  0  0  0
 24 26  1  0  0  0  0
 24 27  1  0  0  0  0
M  CHG  1  18  -1
M  END
$$$$

  -OEChem-03222214043D

 27 26  0     1  0  0  0  0  0999 V2000
   -3.1957   -3.6301    1.1890 H   0  0  0  0  0  0  0  0  0  0  0  0
   -3.1367   -2.6937    0.6274 C   0  0  0  0  0  0  0  0  0  0  0  0
   -3.8435   -1.9795    1.0573 H   0  0  0  0  0  0  0  0  0  0  0  0
   -3.4135   -2.8872   -0.4120 H   0  0  0  0  0  0  0  0  0  0  0  0
   -1.7278   -2.1304    0.6888 C   0  0  0  0  0  0  0  0  0  0  0  0
   -0.8493   -2.7533    1.2668 O   0  0  0  0  0  0  0  0  0  0  0  0
   -1.4655   -0.9098    0.1070 N   0  0  0  0  0  0  0  0  0  0  0  0
   -2.2506   -0.3939   -0.2848 H   0  0  0  0  0  0  0  0  0  0  0  0
   -0.1704   -0.2154    0.1064 C   0  0  1  0  0  0  0  0  0  0  0  0
    0.4123   -0.6274    0.9360 H   0  0  0  0  0  0  0  0  0  0  0  0
    0.6375   -0.5351   -1.1673 C   0  0  0  0  0  0  0  0  0  0  0  0
    1.6950   -0.4907   -0.8851 H   0  0  0  0  0  0  0  0  0  0  0  0
    0.4459   -1.5669   -1.4793 H   0  0  0  0  0  0  0  0  0  0  0  0
    0.4100    0.4065   -2.3732 C   0  0  0  0  0  0  0  0  0  0  0  0
   -0.2251   -0.0987   -3.1069 H   0  0  0  0  0  0  0  0  0  0  0  0
   -0.1043    1.3257   -2.0889 H   0  0  0  0  0  0  0  0  0  0  0  0
    1.7396    0.8007   -3.0181 C   0  0  0  0  0  0  0  0  0  0  0  0
    2.5216    1.5055   -2.3291 O   0  5  0  0  0  0  0  0  0  0  0  0
    1.9844    0.3810   -4.1758 O   0  0  0  0  0  0  0  0  0  0  0  0
   -0.3164    1.2860    0.4431 C   0  0  0  0  0  0  0  0  0  0  0  0
   -1.3811    1.8575    0.2135 O   0  0  0  0  0  0  0  0  0  0  0  0
    0.5606    1.8717    1.3379 N   0  0  0  0  0  0  0  0  0  0  0  0
    1.4866    1.4536    1.3610 H   0  0  0  0  0  0  0  0  0  0  0  0
    0.4480    3.2702    1.7274 C   0  0  0  0  0  0  0  0  0  0  0  0
   -0.5073    3.4542    2.2293 H   0  0  0  0  0  0  0  0  0  0  0  0
    1.2550    3.5333    2.4175 H   0  0  0  0  0  0  0  0  0  0  0  0
    0.5174    3.9181    0.8474 H   0  0  0  0  0  0  0  0  0  0  0  0
  1  2  1  0  0  0  0
  2  3  1  0  0  0  0
  2  4  1  0  0  0  0
  2  5  1  0  0  0  0
  5  6  2  0  0  0  0
  5  7  1  0  0  0  0
  7  8  1  0  0  0  0
  7  9  1  0  0  0  0
  9 10  1  0  0  0  0
  9 11  1  0  0  0  0
  9 20  1  0  0  0  0
 11 12  1  0  0  0  0
 11 13  1  0  0  0  0
 11 14  1  0  0  0  0
 14 15  1  0  0  0  0
 14 16  1  0  0  0  0
 14 17  1  0  0  0  0
 17 18  1  0  0  0  0
 17 19  2  0  0  0  0
 20 21  2  0  0  0  0
 20 22  1  0  0  0  0
 22 23  1  0  0  0  0
 22 24  1  0  0  0  0
 24 25  1  0  0  0  0
 24 26  1  0  0  0  0
 24 27  1  0  0  0  0
M  CHG  1  18  -1
M  END
$$$$

  -OEChem-03222214043D

 27 26  0     1  0  0  0  0  0999 V2000
   -3.1883   -3.6547    1.1193 H   0  0  0  0  0  0  0  0  0  0  0  0
   -3.1334   -2.6977    0.5930 C   0  0  0  0  0  0  0  0  0  0  0  0
   -3.8566   -2.0085    1.0361 H   0  0  0  0  0  0  0  0  0  0  0  0
   -3.3903   -2.8576   -0.4573 H   0  0  0  0  0  0  0  0  0  0  0  0
   -1.7342   -2.1181    0.6988 C   0  0  0  0  0  0  0  0  0  0  0  0
   -0.8708   -2.7227    1.3177 O   0  0  0  0  0  0  0  0  0  0  0  0
   -1.4652   -0.8995    0.1156 N   0  0  0  0  0  0  0  0  0  0  0  0
   -2.2367   -0.4058   -0.3281 H   0  0  0  0  0  0  0  0  0  0  0  0
   -0.1674   -0.2108    0.1196 C   0  0  1  0  0  0  0  0  0  0  0  0
    0.4176   -0.6271    0.9452 H   0  0  0  0  0  0  0  0  0  0  0  0
    0.6239   -0.5355   -1.1644 C   0  0  0  0  0  0  0  0  0  0  0  0
    1.6838   -0.4833   -0.8930 H   0  0  0  0  0  0  0  0  0  0  0  0
    0.4313   -1.5671   -1.4765 H   0  0  0  0  0  0  0  0  0  0  0  0
    0.3944    0.4091   -2.3645 C   0  0  0  0  0  0  0  0  0  0  0  0
   -0.4580    0.0557   -2.9522 H   0  0  0  0  0  0  0  0  0  0  0  0
    0.1678    1.4264   -2.0411 H   0  0  0  0  0  0  0  0  0  0  0  0
    1.6478    0.4903   -3.2367 C   0  0  0  0  0  0  0  0  0  0  0  0
    2.6371    1.1080   -2.7659 O   0  5  0  0  0  0  0  0  0  0  0  0
    1.6262   -0.0835   -4.3533 O   0  0  0  0  0  0  0  0  0  0  0  0
   -0.3111    1.2906    0.4533 C   0  0  0  0  0  0  0  0  0  0  0  0
   -1.3528    1.8830    0.1800 O   0  0  0  0  0  0  0  0  0  0  0  0
    0.5611    1.8782    1.3519 N   0  0  0  0  0  0  0  0  0  0  0  0
    1.4622    1.4201    1.4510 H   0  0  0  0  0  0  0  0  0  0  0  0
    0.4645    3.2811    1.7302 C   0  0  0  0  0  0  0  0  0  0  0  0
   -0.4953    3.4827    2.2168 H   0  0  0  0  0  0  0  0  0  0  0  0
    1.2655    3.5366    2.4300 H   0  0  0  0  0  0  0  0  0  0  0  0
    0.5562    3.9222    0.8473 H   0  0  0  0  0  0  0  0  0  0  0  0
  1  2  1  0  0  0  0
  2  3  1  0  0  0  0
  2  4  1  0  0  0  0
  2  5  1  0  0  0  0
  5  6  2  0  0  0  0
  5  7  1  0  0  0  0
  7  8  1  0  0  0  0
  7  9  1  0  0  0  0
  9 10  1  0  0  0  0
  9 11  1  0  0  0  0
  9 20  1  0  0  0  0
 11 12  1  0  0  0  0
 11 13  1  0  0  0  0
 11 14  1  0  0  0  0
 14 15  1  0  0  0  0
 14 16  1  0  0  0  0
 14 17  1  0  0  0  0
 17 18  1  0  0  0  0
 17 19  2  0  0  0  0
 20 21  2  0  0  0  0
 20 22  1  0  0  0  0
 22 23  1  0  0  0  0
 22 24  1  0  0  0  0
 24 25  1  0  0  0  0
 24 26  1  0  0  0  0
 24 27  1  0  0  0  0
M  CHG  1  18  -1
M  END
$$$$

  -OEChem-03222214043D

 27 26  0     1  0  0  0  0  0999 V2000
   -3.1947   -3.6566    1.0881 H   0  0  0  0  0  0  0  0  0  0  0  0
   -3.1322   -2.7024    0.5577 C   0  0  0  0  0  0  0  0  0  0  0  0
   -3.8808   -2.0200    0.9681 H   0  0  0  0  0  0  0  0  0  0  0  0
   -3.3465   -2.8728   -0.5005 H   0  0  0  0  0  0  0  0  0  0  0  0
   -1.7457   -2.1037    0.7125 C   0  0  0  0  0  0  0  0  0  0  0  0
   -0.9019   -2.6855    1.3788 O   0  0  0  0  0  0  0  0  0  0  0  0
   -1.4666   -0.8912    0.1218 N   0  0  0  0  0  0  0  0  0  0  0  0
   -2.2175   -0.4262   -0.3838 H   0  0  0  0  0  0  0  0  0  0  0  0
   -0.1654   -0.2094    0.1325 C   0  0  1  0  0  0  0  0  0  0  0  0
    0.4172   -0.6263    0.9593 H   0  0  0  0  0  0  0  0  0  0  0  0
    0.6180   -0.5412   -1.1542 C   0  0  0  0  0  0  0  0  0  0  0  0
    1.6829   -0.4984   -0.9014 H   0  0  0  0  0  0  0  0  0  0  0  0
    0.4066   -1.5687   -1.4685 H   0  0  0  0  0  0  0  0  0  0  0  0
    0.3808    0.4135   -2.3396 C   0  0  0  0  0  0  0  0  0  0  0  0
   -0.6118    0.2378   -2.7646 H   0  0  0  0  0  0  0  0  0  0  0  0
    0.4269    1.4575   -2.0211 H   0  0  0  0  0  0  0  0  0  0  0  0
    1.4576    0.2165   -3.4062 C   0  0  0  0  0  0  0  0  0  0  0  0
    2.5989    0.6859   -3.1661 O   0  5  0  0  0  0  0  0  0  0  0  0
    1.1498   -0.4264   -4.4401 O   0  0  0  0  0  0  0  0  0  0  0  0
   -0.3019    1.2951    0.4529 C   0  0  0  0  0  0  0  0  0  0  0  0
   -1.3199    1.9072    0.1398 O   0  0  0  0  0  0  0  0  0  0  0  0
    0.5668    1.8820    1.3555 N   0  0  0  0  0  0  0  0  0  0  0  0
    1.4412    1.3912    1.5150 H   0  0  0  0  0  0  0  0  0  0  0  0
    0.4898    3.2893    1.7211 C   0  0  0  0  0  0  0  0  0  0  0  0
   -0.4827    3.5178    2.1690 H   0  0  0  0  0  0  0  0  0  0  0  0
    1.2690    3.5300    2.4502 H   0  0  0  0  0  0  0  0  0  0  0  0
    0.6313    3.9215    0.8384 H   0  0  0  0  0  0  0  0  0  0  0  0
  1  2  1  0  0  0  0
  2  3  1  0  0  0  0
  2  4  1  0  0  0  0
  2  5  1  0  0  0  0
  5  6  2  0  0  0  0
  5  7  1  0  0  0  0
  7  8  1  0  0  0  0
  7  9  1  0  0  0  0
  9 10  1  0  0  0  0
  9 11  1  0  0  0  0
  9 20  1  0  0  0  0
 11 12  1  0  0  0  0
 11 13  1  0  0  0  0
 11 14  1  0  0  0  0
 14 15  1  0  0  0  0
 14 16  1  0  0  0  0
 14 17  1  0  0  0  0
 17 18  1  0  0  0  0
 17 19  2  0  0  0  0
 20 21  2  0  0  0  0
 20 22  1  0  0  0  0
 22 23  1  0  0  0  0
 22 24  1  0  0  0  0
 24 25  1  0  0  0  0
 24 26  1  0  0  0  0
 24 27  1  0  0  0  0
M  CHG  1  18  -1
M  END
$$$$

  -OEChem-03222214043D

 27 26  0     1  0  0  0  0  0999 V2000
   -3.2088   -3.6450    1.0562 H   0  0  0  0  0  0  0  0  0  0  0  0
   -3.1352   -2.6941    0.5213 C   0  0  0  0  0  0  0  0  0  0  0  0
   -3.9016   -2.0142    0.9014 H   0  0  0  0  0  0  0  0  0  0  0  0
   -3.3133   -2.8731   -0.5421 H   0  0  0  0  0  0  0  0  0  0  0  0
   -1.7584   -2.0847    0.7168 C   0  0  0  0  0  0  0  0  0  0  0  0
   -0.9344   -2.6540    1.4180 O   0  0  0  0  0  0  0  0  0  0  0  0
   -1.4646   -0.8767    0.1230 N   0  0  0  0  0  0  0  0  0  0  0  0
   -2.1971   -0.4256   -0.4209 H   0  0  0  0  0  0  0  0  0  0  0  0
   -0.1565   -0.2071    0.1427 C   0  0  1  0  0  0  0  0  0  0  0  0
    0.4194   -0.6254    0.9735 H   0  0  0  0  0  0  0  0  0  0  0  0
    0.6288   -0.5444   -1.1461 C   0  0  0  0  0  0  0  0  0  0  0  0
    1.6570   -0.7940   -0.8633 H   0  0  0  0  0  0  0  0  0  0  0  0
    0.2033   -1.4380   -1.6161 H   0  0  0  0  0  0  0  0  0  0  0  0
    0.6936    0.5862   -2.1862 C   0  0  0  0  0  0  0  0  0  0  0  0
   -0.3177    0.8674   -2.4951 H   0  0  0  0  0  0  0  0  0  0  0  0
    1.1759    1.4717   -1.7622 H   0  0  0  0  0  0  0  0  0  0  0  0
    1.4916    0.1355   -3.4084 C   0  0  0  0  0  0  0  0  0  0  0  0
    2.7373    0.2964   -3.3719 O   0  5  0  0  0  0  0  0  0  0  0  0
    0.8656   -0.4075   -4.3523 O   0  0  0  0  0  0  0  0  0  0  0  0
   -0.2926    1.2997    0.4572 C   0  0  0  0  0  0  0  0  0  0  0  0
   -1.2927    1.9231    0.1114 O   0  0  0  0  0  0  0  0  0  0  0  0
    0.5675    1.8881    1.3673 N   0  0  0  0  0  0  0  0  0  0  0  0
    1.4242    1.3819    1.5685 H   0  0  0  0  0  0  0  0  0  0  0  0
    0.4931    3.2965    1.7296 C   0  0  0  0  0  0  0  0  0  0  0  0
   -0.4906    3.5351    2.1467 H   0  0  0  0  0  0  0  0  0  0  0  0
    1.2513    3.5307    2.4825 H   0  0  0  0  0  0  0  0  0  0  0  0
    0.6678    3.9261    0.8512 H   0  0  0  0  0  0  0  0  0  0  0  0
  1  2  1  0  0  0  0
  2  3  1  0  0  0  0
  2  4  1  0  0  0  0
  2  5  1  0  0  0  0
  5  6  2  0  0  0  0
  5  7  1  0  0  0  0
  7  8  1  0  0  0  0
  7  9  1  0  0  0  0
  9 10  1  0  0  0  0
  9 11  1  0  0  0  0
  9 20  1  0  0  0  0
 11 12  1  0  0  0  0
 11 13  1  0  0  0  0
 11 14  1  0  0  0  0
 14 15  1  0  0  0  0
 14 16  1  0  0  0  0
 14 17  1  0  0  0  0
 17 18  1  0  0  0  0
 17 19  2  0  0  0  0
 20 21  2  0  0  0  0
 20 22  1  0  0  0  0
 22 23  1  0  0  0  0
 22 24  1  0  0  0  0
 24 25  1  0  0  0  0
 24 26  1  0  0  0  0
 24 27  1  0  0  0  0
M  CHG  1  18  -1
M  END
$$$$

  -OEChem-03222214043D

 27 26  0     1  0  0  0  0  0999 V2000
   -3.2238   -3.6336    1.0416 H   0  0  0  0  0  0  0  0  0  0  0  0
   -3.1430   -2.6891    0.4966 C   0  0  0  0  0  0  0  0  0  0  0  0
   -3.9278   -2.0123    0.8431 H   0  0  0  0  0  0  0  0  0  0  0  0
   -3.2858   -2.8843   -0.5695 H   0  0  0  0  0  0  0  0  0  0  0  0
   -1.7796   -2.0623    0.7272 C   0  0  0  0  0  0  0  0  0  0  0  0
   -0.9726   -2.6116    1.4638 O   0  0  0  0  0  0  0  0  0  0  0  0
   -1.4807   -0.8589    0.1272 N   0  0  0  0  0  0  0  0  0  0  0  0
   -2.1899   -0.4422   -0.4723 H   0  0  0  0  0  0  0  0  0  0  0  0
   -0.1704   -0.1944    0.1492 C   0  0  1  0  0  0  0  0  0  0  0  0
    0.3961   -0.6113    0.9869 H   0  0  0  0  0  0  0  0  0  0  0  0
    0.6232   -0.5522   -1.1281 C   0  0  0  0  0  0  0  0  0  0  0  0
    1.6484   -0.8133   -0.8462 H   0  0  0  0  0  0  0  0  0  0  0  0
    0.1834   -1.4463   -1.5846 H   0  0  0  0  0  0  0  0  0  0  0  0
    0.6969    0.5675   -2.1801 C   0  0  0  0  0  0  0  0  0  0  0  0
   -0.2927    1.0106   -2.3264 H   0  0  0  0  0  0  0  0  0  0  0  0
    1.3740    1.3588   -1.8444 H   0  0  0  0  0  0  0  0  0  0  0  0
    1.1671    0.0138   -3.5248 C   0  0  0  0  0  0  0  0  0  0  0  0
    2.3737    0.1870   -3.8287 O   0  5  0  0  0  0  0  0  0  0  0  0
    0.3366   -0.6234   -4.2199 O   0  0  0  0  0  0  0  0  0  0  0  0
   -0.2852    1.3165    0.4535 C   0  0  0  0  0  0  0  0  0  0  0  0
   -1.2742    1.9555    0.1061 O   0  0  0  0  0  0  0  0  0  0  0  0
    0.5822    1.8963    1.3624 N   0  0  0  0  0  0  0  0  0  0  0  0
    1.4186    1.3693    1.5916 H   0  0  0  0  0  0  0  0  0  0  0  0
    0.5210    3.3034    1.7317 C   0  0  0  0  0  0  0  0  0  0  0  0
   -0.4485    3.5403    2.1817 H   0  0  0  0  0  0  0  0  0  0  0  0
    1.3041    3.5350    2.4595 H   0  0  0  0  0  0  0  0  0  0  0  0
    0.6668    3.9361    0.8502 H   0  0  0  0  0  0  0  0  0  0  0  0
  1  2  1  0  0  0  0
  2  3  1  0  0  0  0
  2  4  1  0  0  0  0
  2  5  1  0  0  0  0
  5  6  2  0  0  0  0
  5  7  1  0  0  0  0
  7  8  1  0  0  0  0
  7  9  1  0  0  0  0
  9 10  1  0  0  0  0
  9 11  1  0  0  0  0
  9 20  1  0  0  0  0
 11 12  1  0  0  0  0
 11 13  1  0  0  0  0
 11 14  1  0  0  0  0
 14 15  1  0  0  0  0
 14 16  1  0  0  0  0
 14 17  1  0  0  0  0
 17 18  1  0  0  0  0
 17 19  2  0  0  0  0
 20 21  2  0  0  0  0
 20 22  1  0  0  0  0
 22 23  1  0  0  0  0
 22 24  1  0  0  0  0
 24 25  1  0  0  0  0
 24 26  1  0  0  0  0
 24 27  1  0  0  0  0
M  CHG  1  18  -1
M  END
$$$$

  -OEChem-03222214043D

 27 26  0     1  0  0  0  0  0999 V2000
   -3.2204   -3.6327    1.0201 H   0  0  0  0  0  0  0  0  0  0  0  0
   -3.1423   -2.6889    0.4735 C   0  0  0  0  0  0  0  0  0  0  0  0
   -3.9502   -2.0263    0.7933 H   0  0  0  0  0  0  0  0  0  0  0  0
   -3.2493   -2.8912   -0.5955 H   0  0  0  0  0  0  0  0  0  0  0  0
   -1.7988   -2.0340    0.7407 C   0  0  0  0  0  0  0  0  0  0  0  0
   -1.0048   -2.5615    1.5075 O   0  0  0  0  0  0  0  0  0  0  0  0
   -1.5030   -0.8315    0.1369 N   0  0  0  0  0  0  0  0  0  0  0  0
   -2.1897   -0.4543   -0.5132 H   0  0  0  0  0  0  0  0  0  0  0  0
   -0.1921   -0.1677    0.1553 C   0  0  1  0  0  0  0  0  0  0  0  0
    0.3656   -0.5806    1.0004 H   0  0  0  0  0  0  0  0  0  0  0  0
    0.6111   -0.5547   -1.1087 C   0  0  0  0  0  0  0  0  0  0  0  0
    1.6331   -0.8149   -0.8157 H   0  0  0  0  0  0  0  0  0  0  0  0
    0.1710   -1.4620   -1.5379 H   0  0  0  0  0  0  0  0  0  0  0  0
    0.6999    0.5362   -2.1941 C   0  0  0  0  0  0  0  0  0  0  0  0
   -0.2070    1.1466   -2.1978 H   0  0  0  0  0  0  0  0  0  0  0  0
    1.5477    1.1975   -1.9917 H   0  0  0  0  0  0  0  0  0  0  0  0
    0.8177   -0.0770   -3.5904 C   0  0  0  0  0  0  0  0  0  0  0  0
    1.9238    0.0314   -4.1755 O   0  5  0  0  0  0  0  0  0  0  0  0
   -0.1798   -0.6884   -4.0504 O   0  0  0  0  0  0  0  0  0  0  0  0
   -0.2851    1.3459    0.4556 C   0  0  0  0  0  0  0  0  0  0  0  0
   -1.2677    1.9998    0.1194 O   0  0  0  0  0  0  0  0  0  0  0  0
    0.5957    1.9139    1.3596 N   0  0  0  0  0  0  0  0  0  0  0  0
    1.4170    1.3694    1.6012 H   0  0  0  0  0  0  0  0  0  0  0  0
    0.5443    3.3160    1.7486 C   0  0  0  0  0  0  0  0  0  0  0  0
   -0.4037    3.5401    2.2481 H   0  0  0  0  0  0  0  0  0  0  0  0
    1.3610    3.5445    2.4395 H   0  0  0  0  0  0  0  0  0  0  0  0
    0.6433    3.9605    0.8690 H   0  0  0  0  0  0  0  0  0  0  0  0
  1  2  1  0  0  0  0
  2  3  1  0  0  0  0
  2  4  1  0  0  0  0
  2  5  1  0  0  0  0
  5  6  2  0  0  0  0
  5  7  1  0  0  0  0
  7  8  1  0  0  0  0
  7  9  1  0  0  0  0
  9 10  1  0  0  0  0
  9 11  1  0  0  0  0
  9 20  1  0  0  0  0
 11 12  1  0  0  0  0
 11 13  1  0  0  0  0
 11 14  1  0  0  0  0
 14 15  1  0  0  0  0
 14 16  1  0  0  0  0
 14 17  1  0  0  0  0
 17 18  1  0  0  0  0
 17 19  2  0  0  0  0
 20 21  2  0  0  0  0
 20 22  1  0  0  0  0
 22 23  1  0  0  0  0
 22 24  1  0  0  0  0
 24 25  1  0  0  0  0
 24 26  1  0  0  0  0
 24 27  1  0  0  0  0
M  CHG  1  18  -1
M  END
$$$$

  -OEChem-03222214043D

 27 26  0     1  0  0  0  0  0999 V2000
   -3.1984   -3.6333    0.9944 H   0  0  0  0  0  0  0  0  0  0  0  0
   -3.1234   -2.6922    0.4428 C   0  0  0  0  0  0  0  0  0  0  0  0
   -3.9584   -2.0472    0.7273 H   0  0  0  0  0  0  0  0  0  0  0  0
   -3.1869   -2.9053   -0.6278 H   0  0  0  0  0  0  0  0  0  0  0  0
   -1.8072   -2.0019    0.7529 C   0  0  0  0  0  0  0  0  0  0  0  0
   -1.0283   -2.5041    1.5523 O   0  0  0  0  0  0  0  0  0  0  0  0
   -1.5190   -0.7980    0.1486 N   0  0  0  0  0  0  0  0  0  0  0  0
   -2.1724   -0.4731   -0.5624 H   0  0  0  0  0  0  0  0  0  0  0  0
   -0.2096   -0.1321    0.1673 C   0  0  1  0  0  0  0  0  0  0  0  0
    0.3440   -0.5438    1.0158 H   0  0  0  0  0  0  0  0  0  0  0  0
    0.5874   -0.5518   -1.0909 C   0  0  0  0  0  0  0  0  0  0  0  0
    1.6089   -0.7975   -0.7845 H   0  0  0  0  0  0  0  0  0  0  0  0
    0.1597   -1.4804   -1.4857 H   0  0  0  0  0  0  0  0  0  0  0  0
    0.6910    0.5010   -2.2177 C   0  0  0  0  0  0  0  0  0  0  0  0
   -0.0526    1.2910   -2.0969 H   0  0  0  0  0  0  0  0  0  0  0  0
    1.6783    0.9719   -2.1936 H   0  0  0  0  0  0  0  0  0  0  0  0
    0.4325   -0.1254   -3.5902 C   0  0  0  0  0  0  0  0  0  0  0  0
    1.3789   -0.1197   -4.4159 O   0  5  0  0  0  0  0  0  0  0  0  0
   -0.6942   -0.6463   -3.7947 O   0  0  0  0  0  0  0  0  0  0  0  0
   -0.2856    1.3826    0.4682 C   0  0  0  0  0  0  0  0  0  0  0  0
   -1.2552    2.0542    0.1310 O   0  0  0  0  0  0  0  0  0  0  0  0
    0.6049    1.9390    1.3705 N   0  0  0  0  0  0  0  0  0  0  0  0
    1.4072    1.3756    1.6312 H   0  0  0  0  0  0  0  0  0  0  0  0
    0.5663    3.3372    1.7747 C   0  0  0  0  0  0  0  0  0  0  0  0
   -0.3819    3.5658    2.2721 H   0  0  0  0  0  0  0  0  0  0  0  0
    1.3822    3.5495    2.4719 H   0  0  0  0  0  0  0  0  0  0  0  0
    0.6757    3.9900    0.9027 H   0  0  0  0  0  0  0  0  0  0  0  0
  1  2  1  0  0  0  0
  2  3  1  0  0  0  0
  2  4  1  0  0  0  0
  2  5  1  0  0  0  0
  5  6  2  0  0  0  0
  5  7  1  0  0  0  0
  7  8  1  0  0  0  0
  7  9  1  0  0  0  0
  9 10  1  0  0  0  0
  9 11  1  0  0  0  0
  9 20  1  0  0  0  0
 11 12  1  0  0  0  0
 11 13  1  0  0  0  0
 11 14  1  0  0  0  0
 14 15  1  0  0  0  0
 14 16  1  0  0  0  0
 14 17  1  0  0  0  0
 17 18  1  0  0  0  0
 17 19  2  0  0  0  0
 20 21  2  0  0  0  0
 20 22  1  0  0  0  0
 22 23  1  0  0  0  0
 22 24  1  0  0  0  0
 24 25  1  0  0  0  0
 24 26  1  0  0  0  0
 24 27  1  0  0  0  0
M  CHG  1  18  -1
M  END
$$$$

  -OEChem-03222214043D

 27 26  0     1  0  0  0  0  0999 V2000
   -2.9909   -3.7586    0.9516 H   0  0  0  0  0  0  0  0  0  0  0  0
   -2.9732   -2.8005    0.4252 C   0  0  0  0  0  0  0  0  0  0  0  0
   -3.8485   -2.2169    0.7207 H   0  0  0  0  0  0  0  0  0  0  0  0
   -3.0182   -2.9883   -0.6511 H   0  0  0  0  0  0  0  0  0  0  0  0
   -1.7050   -2.0363    0.7605 C   0  0  0  0  0  0  0  0  0  0  0  0
   -0.9041   -2.5026    1.5608 O   0  0  0  0  0  0  0  0  0  0  0  0
   -1.4808   -0.8131    0.1687 N   0  0  0  0  0  0  0  0  0  0  0  0
   -2.1287   -0.5447   -0.5730 H   0  0  0  0  0  0  0  0  0  0  0  0
   -0.1988   -0.0973    0.1684 C   0  0  1  0  0  0  0  0  0  0  0  0
    0.3878   -0.4993    0.9990 H   0  0  0  0  0  0  0  0  0  0  0  0
    0.5680   -0.4994   -1.1142 C   0  0  0  0  0  0  0  0  0  0  0  0
    1.6070   -0.6822   -0.8229 H   0  0  0  0  0  0  0  0  0  0  0  0
    0.1919   -1.4594   -1.4866 H   0  0  0  0  0  0  0  0  0  0  0  0
    0.6104    0.5419   -2.2567 C   0  0  0  0  0  0  0  0  0  0  0  0
    0.0820    1.4621   -2.0051 H   0  0  0  0  0  0  0  0  0  0  0  0
    1.6510    0.8097   -2.4636 H   0  0  0  0  0  0  0  0  0  0  0  0
   -0.0321   -0.0300   -3.5238 C   0  0  0  0  0  0  0  0  0  0  0  0
   -1.2201   -0.4386   -3.4411 O   0  5  0  0  0  0  0  0  0  0  0  0
    0.6735   -0.0842   -4.5615 O   0  0  0  0  0  0  0  0  0  0  0  0
   -0.3128    1.4101    0.4942 C   0  0  0  0  0  0  0  0  0  0  0  0
   -1.3028    2.0652    0.1872 O   0  0  0  0  0  0  0  0  0  0  0  0
    0.5846    1.9769    1.3833 N   0  0  0  0  0  0  0  0  0  0  0  0
    1.3892    1.4187    1.6471 H   0  0  0  0  0  0  0  0  0  0  0  0
    0.5084    3.3606    1.8296 C   0  0  0  0  0  0  0  0  0  0  0  0
   -0.4188    3.5327    2.3856 H   0  0  0  0  0  0  0  0  0  0  0  0
    1.3531    3.5906    2.4856 H   0  0  0  0  0  0  0  0  0  0  0  0
    0.5397    4.0411    0.9725 H   0  0  0  0  0  0  0  0  0  0  0  0
  1  2  1  0  0  0  0
  2  3  1  0  0  0  0
  2  4  1  0  0  0  0
  2  5  1  0  0  0  0
  5  6  2  0  0  0  0
  5  7  1  0  0  0  0
  7  8  1  0  0  0  0
  7  9  1  0  0  0  0
  9 10  1  0  0  0  0
  9 11  1  0  0  0  0
  9 20  1  0  0  0  0
 11 12  1  0  0  0  0
 11 13  1  0  0  0  0
 11 14  1  0  0  0  0
 14 15  1  0  0  0  0
 14 16  1  0  0  0  0
 14 17  1  0  0  0  0
 17 18  1  0  0  0  0
 17 19  2  0  0  0  0
 20 21  2  0  0  0  0
 20 22  1  0  0  0  0
 22 23  1  0  0  0  0
 22 24  1  0  0  0  0
 24 25  1  0  0  0  0
 24 26  1  0  0  0  0
 24 27  1  0  0  0  0
M  CHG  1  18  -1
M  END
$$$$

  -OEChem-03222214043D

 27 26  0     1  0  0  0  0  0999 V2000
   -2.9783   -3.7549    0.8807 H   0  0  0  0  0  0  0  0  0  0  0  0
   -2.9651   -2.7849    0.3767 C   0  0  0  0  0  0  0  0  0  0  0  0
   -3.8586   -2.2235    0.6609 H   0  0  0  0  0  0  0  0  0  0  0  0
   -2.9780   -2.9476   -0.7047 H   0  0  0  0  0  0  0  0  0  0  0  0
   -1.7216   -2.0055    0.7632 C   0  0  0  0  0  0  0  0  0  0  0  0
   -0.9524   -2.4571    1.6030 O   0  0  0  0  0  0  0  0  0  0  0  0
   -1.4808   -0.7888    0.1670 N   0  0  0  0  0  0  0  0  0  0  0  0
   -2.0705   -0.5660   -0.6408 H   0  0  0  0  0  0  0  0  0  0  0  0
   -0.1957   -0.0822    0.1844 C   0  0  1  0  0  0  0  0  0  0  0  0
    0.3808   -0.4868    1.0206 H   0  0  0  0  0  0  0  0  0  0  0  0
    0.5520   -0.5201   -1.0971 C   0  0  0  0  0  0  0  0  0  0  0  0
    1.5918   -0.6887   -0.8005 H   0  0  0  0  0  0  0  0  0  0  0  0
    0.1866   -1.4897   -1.4557 H   0  0  0  0  0  0  0  0  0  0  0  0
    0.5990    0.5073   -2.2484 C   0  0  0  0  0  0  0  0  0  0  0  0
    0.3744    1.5253   -1.9289 H   0  0  0  0  0  0  0  0  0  0  0  0
    1.6099    0.5177   -2.6671 H   0  0  0  0  0  0  0  0  0  0  0  0
   -0.3810    0.0904   -3.3535 C   0  0  0  0  0  0  0  0  0  0  0  0
   -1.5234   -0.3167   -3.0058 O   0  5  0  0  0  0  0  0  0  0  0  0
    0.0254    0.1494   -4.5403 O   0  0  0  0  0  0  0  0  0  0  0  0
   -0.2939    1.4296    0.4972 C   0  0  0  0  0  0  0  0  0  0  0  0
   -1.2549    2.1093    0.1563 O   0  0  0  0  0  0  0  0  0  0  0  0
    0.5986    1.9872    1.3978 N   0  0  0  0  0  0  0  0  0  0  0  0
    1.3739    1.4082    1.7006 H   0  0  0  0  0  0  0  0  0  0  0  0
    0.5303    3.3708    1.8467 C   0  0  0  0  0  0  0  0  0  0  0  0
   -0.4218    3.5624    2.3522 H   0  0  0  0  0  0  0  0  0  0  0  0
    1.3423    3.5794    2.5494 H   0  0  0  0  0  0  0  0  0  0  0  0
    0.6236    4.0530    0.9956 H   0  0  0  0  0  0  0  0  0  0  0  0
  1  2  1  0  0  0  0
  2  3  1  0  0  0  0
  2  4  1  0  0  0  0
  2  5  1  0  0  0  0
  5  6  2  0  0  0  0
  5  7  1  0  0  0  0
  7  8  1  0  0  0  0
  7  9  1  0  0  0  0
  9 10  1  0  0  0  0
  9 11  1  0  0  0  0
  9 20  1  0  0  0  0
 11 12  1  0  0  0  0
 11 13  1  0  0  0  0
 11 14  1  0  0  0  0
 14 15  1  0  0  0  0
 14 16  1  0  0  0  0
 14 17  1  0  0  0  0
 17 18  1  0  0  0  0
 17 19  2  0  0  0  0
 20 21  2  0  0  0  0
 20 22  1  0  0  0  0
 22 23  1  0  0  0  0
 22 24  1  0  0  0  0
 24 25  1  0  0  0  0
 24 26  1  0  0  0  0
 24 27  1  0  0  0  0
M  CHG  1  18  -1
M  END
$$$$

  -OEChem-03222214043D

 27 26  0     1  0  0  0  0  0999 V2000
   -3.0020   -3.7528    0.8889 H   0  0  0  0  0  0  0  0  0  0  0  0
   -2.9835   -2.7842    0.3826 C   0  0  0  0  0  0  0  0  0  0  0  0
   -3.8815   -2.2234    0.6531 H   0  0  0  0  0  0  0  0  0  0  0  0
   -2.9819   -2.9494   -0.6984 H   0  0  0  0  0  0  0  0  0  0  0  0
   -1.7465   -2.0007    0.7826 C   0  0  0  0  0  0  0  0  0  0  0  0
   -0.9862   -2.4494    1.6326 O   0  0  0  0  0  0  0  0  0  0  0  0
   -1.4955   -0.7903    0.1790 N   0  0  0  0  0  0  0  0  0  0  0  0
   -2.0648   -0.5801   -0.6509 H   0  0  0  0  0  0  0  0  0  0  0  0
   -0.2099   -0.0867    0.1972 C   0  0  1  0  0  0  0  0  0  0  0  0
    0.3582   -0.4871    1.0409 H   0  0  0  0  0  0  0  0  0  0  0  0
    0.5481   -0.5361   -1.0754 C   0  0  0  0  0  0  0  0  0  0  0  0
    1.5859   -0.7050   -0.7726 H   0  0  0  0  0  0  0  0  0  0  0  0
    0.1790   -1.5019   -1.4392 H   0  0  0  0  0  0  0  0  0  0  0  0
    0.5962    0.4891   -2.2259 C   0  0  0  0  0  0  0  0  0  0  0  0
    0.6464    1.5195   -1.8692 H   0  0  0  0  0  0  0  0  0  0  0  0
    1.5048    0.3066   -2.8074 H   0  0  0  0  0  0  0  0  0  0  0  0
   -0.6091    0.3117   -3.1666 C   0  0  0  0  0  0  0  0  0  0  0  0
   -1.6697   -0.2015   -2.7113 O   0  5  0  0  0  0  0  0  0  0  0  0
   -0.4408    0.6493   -4.3643 O   0  0  0  0  0  0  0  0  0  0  0  0
   -0.2942    1.4291    0.4953 C   0  0  0  0  0  0  0  0  0  0  0  0
   -1.2357    2.1247    0.1354 O   0  0  0  0  0  0  0  0  0  0  0  0
    0.6027    1.9815    1.3950 N   0  0  0  0  0  0  0  0  0  0  0  0
    1.3629    1.3907    1.7123 H   0  0  0  0  0  0  0  0  0  0  0  0
    0.5619    3.3731    1.8213 C   0  0  0  0  0  0  0  0  0  0  0  0
   -0.3885    3.5940    2.3179 H   0  0  0  0  0  0  0  0  0  0  0  0
    1.3747    3.5739    2.5255 H   0  0  0  0  0  0  0  0  0  0  0  0
    0.6756    4.0398    0.9603 H   0  0  0  0  0  0  0  0  0  0  0  0
  1  2  1  0  0  0  0
  2  3  1  0  0  0  0
  2  4  1  0  0  0  0
  2  5  1  0  0  0  0
  5  6  2  0  0  0  0
  5  7  1  0  0  0  0
  7  8  1  0  0  0  0
  7  9  1  0  0  0  0
  9 10  1  0  0  0  0
  9 11  1  0  0  0  0
  9 20  1  0  0  0  0
 11 12  1  0  0  0  0
 11 13  1  0  0  0  0
 11 14  1  0  0  0  0
 14 15  1  0  0  0  0
 14 16  1  0  0  0  0
 14 17  1  0  0  0  0
 17 18  1  0  0  0  0
 17 19  2  0  0  0  0
 20 21  2  0  0  0  0
 20 22  1  0  0  0  0
 22 23  1  0  0  0  0
 22 24  1  0  0  0  0
 24 25  1  0  0  0  0
 24 26  1  0  0  0  0
 24 27  1  0  0  0  0
M  CHG  1  18  -1
M  END
$$$$

  -OEChem-03222214043D

 27 26  0     1  0  0  0  0  0999 V2000
   -3.0354   -3.7448    0.9393 H   0  0  0  0  0  0  0  0  0  0  0  0
   -3.0107   -2.7799    0.4261 C   0  0  0  0  0  0  0  0  0  0  0  0
   -3.8994   -2.2068    0.7014 H   0  0  0  0  0  0  0  0  0  0  0  0
   -3.0224   -2.9520   -0.6537 H   0  0  0  0  0  0  0  0  0  0  0  0
   -1.7609   -2.0076    0.8082 C   0  0  0  0  0  0  0  0  0  0  0  0
   -0.9920   -2.4634    1.6468 O   0  0  0  0  0  0  0  0  0  0  0  0
   -1.5063   -0.8021    0.1972 N   0  0  0  0  0  0  0  0  0  0  0  0
   -2.0873   -0.5825   -0.6226 H   0  0  0  0  0  0  0  0  0  0  0  0
   -0.2204   -0.1001    0.2033 C   0  0  1  0  0  0  0  0  0  0  0  0
    0.3451   -0.4946    1.0511 H   0  0  0  0  0  0  0  0  0  0  0  0
    0.5534   -0.5482   -1.0600 C   0  0  0  0  0  0  0  0  0  0  0  0
    1.5888   -0.7265   -0.7551 H   0  0  0  0  0  0  0  0  0  0  0  0
    0.1720   -1.5062   -1.4314 H   0  0  0  0  0  0  0  0  0  0  0  0
    0.6020    0.4760   -2.2102 C   0  0  0  0  0  0  0  0  0  0  0  0
    0.8925    1.4640   -1.8446 H   0  0  0  0  0  0  0  0  0  0  0  0
    1.3677    0.1534   -2.9215 H   0  0  0  0  0  0  0  0  0  0  0  0
   -0.7331    0.5765   -2.9730 C   0  0  0  0  0  0  0  0  0  0  0  0
   -1.7109   -0.1357   -2.6089 O   0  5  0  0  0  0  0  0  0  0  0  0
   -0.7293    1.3067   -3.9943 O   0  0  0  0  0  0  0  0  0  0  0  0
   -0.2973    1.4179    0.4910 C   0  0  0  0  0  0  0  0  0  0  0  0
   -1.2470    2.1091    0.1470 O   0  0  0  0  0  0  0  0  0  0  0  0
    0.6073    1.9737    1.3809 N   0  0  0  0  0  0  0  0  0  0  0  0
    1.3791    1.3896    1.6814 H   0  0  0  0  0  0  0  0  0  0  0  0
    0.5759    3.3707    1.7903 C   0  0  0  0  0  0  0  0  0  0  0  0
   -0.3710    3.6025    2.2886 H   0  0  0  0  0  0  0  0  0  0  0  0
    1.3928    3.5761    2.4880 H   0  0  0  0  0  0  0  0  0  0  0  0
    0.6886    4.0260    0.9206 H   0  0  0  0  0  0  0  0  0  0  0  0
  1  2  1  0  0  0  0
  2  3  1  0  0  0  0
  2  4  1  0  0  0  0
  2  5  1  0  0  0  0
  5  6  2  0  0  0  0
  5  7  1  0  0  0  0
  7  8  1  0  0  0  0
  7  9  1  0  0  0  0
  9 10  1  0  0  0  0
  9 11  1  0  0  0  0
  9 20  1  0  0  0  0
 11 12  1  0  0  0  0
 11 13  1  0  0  0  0
 11 14  1  0  0  0  0
 14 15  1  0  0  0  0
 14 16  1  0  0  0  0
 14 17  1  0  0  0  0
 17 18  1  0  0  0  0
 17 19  2  0  0  0  0
 20 21  2  0  0  0  0
 20 22  1  0  0  0  0
 22 23  1  0  0  0  0
 22 24  1  0  0  0  0
 24 25  1  0  0  0  0
 24 26  1  0  0  0  0
 24 27  1  0  0  0  0
M  CHG  1  18  -1
M  END
$$$$

  -OEChem-03222214043D

 27 26  0     1  0  0  0  0  0999 V2000
   -3.0583   -3.7334    0.9893 H   0  0  0  0  0  0  0  0  0  0  0  0
   -3.0340   -2.7710    0.4715 C   0  0  0  0  0  0  0  0  0  0  0  0
   -3.9054   -2.1838    0.7711 H   0  0  0  0  0  0  0  0  0  0  0  0
   -3.0798   -2.9471   -0.6065 H   0  0  0  0  0  0  0  0  0  0  0  0
   -1.7618   -2.0167    0.8137 C   0  0  0  0  0  0  0  0  0  0  0  0
   -0.9650   -2.4930    1.6137 O   0  0  0  0  0  0  0  0  0  0  0  0
   -1.5183   -0.8063    0.2078 N   0  0  0  0  0  0  0  0  0  0  0  0
   -2.1320   -0.5585   -0.5786 H   0  0  0  0  0  0  0  0  0  0  0  0
   -0.2380   -0.0945    0.1963 C   0  0  1  0  0  0  0  0  0  0  0  0
    0.3236   -0.4830    1.0496 H   0  0  0  0  0  0  0  0  0  0  0  0
    0.5653   -0.5409   -1.0484 C   0  0  0  0  0  0  0  0  0  0  0  0
    1.5974   -0.7210   -0.7333 H   0  0  0  0  0  0  0  0  0  0  0  0
    0.1791   -1.4970   -1.4184 H   0  0  0  0  0  0  0  0  0  0  0  0
    0.6175    0.4633   -2.2150 C   0  0  0  0  0  0  0  0  0  0  0  0
    1.1079    1.3836   -1.8850 H   0  0  0  0  0  0  0  0  0  0  0  0
    1.2218    0.0335   -3.0187 H   0  0  0  0  0  0  0  0  0  0  0  0
   -0.7676    0.8126   -2.7887 C   0  0  0  0  0  0  0  0  0  0  0  0
   -1.7322    0.0291   -2.5637 O   0  5  0  0  0  0  0  0  0  0  0  0
   -0.8127    1.7905   -3.5743 O   0  0  0  0  0  0  0  0  0  0  0  0
   -0.3082    1.4225    0.4920 C   0  0  0  0  0  0  0  0  0  0  0  0
   -1.2954    2.0961    0.2310 O   0  0  0  0  0  0  0  0  0  0  0  0
    0.6152    1.9717    1.3673 N   0  0  0  0  0  0  0  0  0  0  0  0
    1.4224    1.4050    1.6005 H   0  0  0  0  0  0  0  0  0  0  0  0
    0.5821    3.3633    1.7962 C   0  0  0  0  0  0  0  0  0  0  0  0
   -0.3451    3.5748    2.3388 H   0  0  0  0  0  0  0  0  0  0  0  0
    1.4262    3.5728    2.4598 H   0  0  0  0  0  0  0  0  0  0  0  0
    0.6463    4.0310    0.9308 H   0  0  0  0  0  0  0  0  0  0  0  0
  1  2  1  0  0  0  0
  2  3  1  0  0  0  0
  2  4  1  0  0  0  0
  2  5  1  0  0  0  0
  5  6  2  0  0  0  0
  5  7  1  0  0  0  0
  7  8  1  0  0  0  0
  7  9  1  0  0  0  0
  9 10  1  0  0  0  0
  9 11  1  0  0  0  0
  9 20  1  0  0  0  0
 11 12  1  0  0  0  0
 11 13  1  0  0  0  0
 11 14  1  0  0  0  0
 14 15  1  0  0  0  0
 14 16  1  0  0  0  0
 14 17  1  0  0  0  0
 17 18  1  0  0  0  0
 17 19  2  0  0  0  0
 20 21  2  0  0  0  0
 20 22  1  0  0  0  0
 22 23  1  0  0  0  0
 22 24  1  0  0  0  0
 24 25  1  0  0  0  0
 24 26  1  0  0  0  0
 24 27  1  0  0  0  0
M  CHG  1  18  -1
M  END
$$$$

  -OEChem-03222214043D

 27 26  0     1  0  0  0  0  0999 V2000
   -3.0641   -3.7225    1.0377 H   0  0  0  0  0  0  0  0  0  0  0  0
   -3.0493   -2.7586    0.5222 C   0  0  0  0  0  0  0  0  0  0  0  0
   -3.8963   -2.1591    0.8651 H   0  0  0  0  0  0  0  0  0  0  0  0
   -3.1488   -2.9299   -0.5529 H   0  0  0  0  0  0  0  0  0  0  0  0
   -1.7505   -2.0262    0.8069 C   0  0  0  0  0  0  0  0  0  0  0  0
   -0.9132   -2.5327    1.5443 O   0  0  0  0  0  0  0  0  0  0  0  0
   -1.5294   -0.8029    0.2180 N   0  0  0  0  0  0  0  0  0  0  0  0
   -2.1948   -0.5089   -0.5056 H   0  0  0  0  0  0  0  0  0  0  0  0
   -0.2582   -0.0752    0.1823 C   0  0  1  0  0  0  0  0  0  0  0  0
    0.3019   -0.4590    1.0389 H   0  0  0  0  0  0  0  0  0  0  0  0
    0.5782   -0.5226   -1.0404 C   0  0  0  0  0  0  0  0  0  0  0  0
    1.6056   -0.6972   -0.7075 H   0  0  0  0  0  0  0  0  0  0  0  0
    0.1951   -1.4850   -1.3964 H   0  0  0  0  0  0  0  0  0  0  0  0
    0.6425    0.4395   -2.2418 C   0  0  0  0  0  0  0  0  0  0  0  0
    1.3169    1.2639   -1.9916 H   0  0  0  0  0  0  0  0  0  0  0  0
    1.0668   -0.0908   -3.0988 H   0  0  0  0  0  0  0  0  0  0  0  0
   -0.7115    1.0354   -2.6533 C   0  0  0  0  0  0  0  0  0  0  0  0
   -1.7341    0.3056   -2.5361 O   0  5  0  0  0  0  0  0  0  0  0  0
   -0.6884    2.1525   -3.2247 O   0  0  0  0  0  0  0  0  0  0  0  0
   -0.3294    1.4370    0.5048 C   0  0  0  0  0  0  0  0  0  0  0  0
   -1.3641    2.0764    0.3708 O   0  0  0  0  0  0  0  0  0  0  0  0
    0.6199    1.9730    1.3608 N   0  0  0  0  0  0  0  0  0  0  0  0
    1.4734    1.4410    1.4844 H   0  0  0  0  0  0  0  0  0  0  0  0
    0.5760    3.3481    1.8392 C   0  0  0  0  0  0  0  0  0  0  0  0
   -0.3174    3.5129    2.4504 H   0  0  0  0  0  0  0  0  0  0  0  0
    1.4571    3.5614    2.4514 H   0  0  0  0  0  0  0  0  0  0  0  0
    0.5619    4.0461    0.9955 H   0  0  0  0  0  0  0  0  0  0  0  0
  1  2  1  0  0  0  0
  2  3  1  0  0  0  0
  2  4  1  0  0  0  0
  2  5  1  0  0  0  0
  5  6  2  0  0  0  0
  5  7  1  0  0  0  0
  7  8  1  0  0  0  0
  7  9  1  0  0  0  0
  9 10  1  0  0  0  0
  9 11  1  0  0  0  0
  9 20  1  0  0  0  0
 11 12  1  0  0  0  0
 11 13  1  0  0  0  0
 11 14  1  0  0  0  0
 14 15  1  0  0  0  0
 14 16  1  0  0  0  0
 14 17  1  0  0  0  0
 17 18  1  0  0  0  0
 17 19  2  0  0  0  0
 20 21  2  0  0  0  0
 20 22  1  0  0  0  0
 22 23  1  0  0  0  0
 22 24  1  0  0  0  0
 24 25  1  0  0  0  0
 24 26  1  0  0  0  0
 24 27  1  0  0  0  0
M  CHG  1  18  -1
M  END
$$$$

  -OEChem-03222214043D

 27 26  0     1  0  0  0  0  0999 V2000
   -3.0731   -3.7025    1.1186 H   0  0  0  0  0  0  0  0  0  0  0  0
   -3.0651   -2.7394    0.6015 C   0  0  0  0  0  0  0  0  0  0  0  0
   -3.8641   -2.1134    1.0065 H   0  0  0  0  0  0  0  0  0  0  0  0
   -3.2502   -2.9068   -0.4627 H   0  0  0  0  0  0  0  0  0  0  0  0
   -1.7254   -2.0498    0.7877 C   0  0  0  0  0  0  0  0  0  0  0  0
   -0.8397   -2.6018    1.4288 O   0  0  0  0  0  0  0  0  0  0  0  0
   -1.5246   -0.8116    0.2223 N   0  0  0  0  0  0  0  0  0  0  0  0
   -2.2609   -0.4439   -0.3854 H   0  0  0  0  0  0  0  0  0  0  0  0
   -0.2609   -0.0704    0.1661 C   0  0  1  0  0  0  0  0  0  0  0  0
    0.3049   -0.4539    1.0194 H   0  0  0  0  0  0  0  0  0  0  0  0
    0.5965   -0.5077   -1.0491 C   0  0  0  0  0  0  0  0  0  0  0  0
    1.6202   -0.6772   -0.7016 H   0  0  0  0  0  0  0  0  0  0  0  0
    0.2203   -1.4766   -1.3936 H   0  0  0  0  0  0  0  0  0  0  0  0
    0.6815    0.4162   -2.2815 C   0  0  0  0  0  0  0  0  0  0  0  0
    1.5322    1.0899   -2.1394 H   0  0  0  0  0  0  0  0  0  0  0  0
    0.8885   -0.1908   -3.1673 H   0  0  0  0  0  0  0  0  0  0  0  0
   -0.5541    1.2760   -2.5554 C   0  0  0  0  0  0  0  0  0  0  0  0
   -1.6661    0.6860   -2.5871 O   0  5  0  0  0  0  0  0  0  0  0  0
   -0.3663    2.4827   -2.8454 O   0  0  0  0  0  0  0  0  0  0  0  0
   -0.3555    1.4329    0.5279 C   0  0  0  0  0  0  0  0  0  0  0  0
   -1.4350    2.0121    0.5152 O   0  0  0  0  0  0  0  0  0  0  0  0
    0.6073    1.9667    1.3706 N   0  0  0  0  0  0  0  0  0  0  0  0
    1.5061    1.4991    1.3716 H   0  0  0  0  0  0  0  0  0  0  0  0
    0.5377    3.3292    1.8824 C   0  0  0  0  0  0  0  0  0  0  0  0
   -0.3348    3.4502    2.5324 H   0  0  0  0  0  0  0  0  0  0  0  0
    1.4351    3.5586    2.4642 H   0  0  0  0  0  0  0  0  0  0  0  0
    0.4663    4.0444    1.0561 H   0  0  0  0  0  0  0  0  0  0  0  0
  1  2  1  0  0  0  0
  2  3  1  0  0  0  0
  2  4  1  0  0  0  0
  2  5  1  0  0  0  0
  5  6  2  0  0  0  0
  5  7  1  0  0  0  0
  7  8  1  0  0  0  0
  7  9  1  0  0  0  0
  9 10  1  0  0  0  0
  9 11  1  0  0  0  0
  9 20  1  0  0  0  0
 11 12  1  0  0  0  0
 11 13  1  0  0  0  0
 11 14  1  0  0  0  0
 14 15  1  0  0  0  0
 14 16  1  0  0  0  0
 14 17  1  0  0  0  0
 17 18  1  0  0  0  0
 17 19  2  0  0  0  0
 20 21  2  0  0  0  0
 20 22  1  0  0  0  0
 22 23  1  0  0  0  0
 22 24  1  0  0  0  0
 24 25  1  0  0  0  0
 24 26  1  0  0  0  0
 24 27  1  0  0  0  0
M  CHG  1  18  -1
M  END
$$$$

  -OEChem-03222214043D

 27 26  0     1  0  0  0  0  0999 V2000
   -3.0516   -3.5956    1.4895 H   0  0  0  0  0  0  0  0  0  0  0  0
   -3.0548   -2.6712    0.9058 C   0  0  0  0  0  0  0  0  0  0  0  0
   -3.7900   -1.9850    1.3338 H   0  0  0  0  0  0  0  0  0  0  0  0
   -3.3416   -2.9029   -0.1231 H   0  0  0  0  0  0  0  0  0  0  0  0
   -1.6787   -2.0304    0.9242 C   0  0  0  0  0  0  0  0  0  0  0  0
   -0.7579   -2.5819    1.5129 O   0  0  0  0  0  0  0  0  0  0  0  0
   -1.4864   -0.8318    0.2758 N   0  0  0  0  0  0  0  0  0  0  0  0
   -2.2880   -0.4038   -0.1892 H   0  0  0  0  0  0  0  0  0  0  0  0
   -0.2297   -0.0786    0.1866 C   0  0  1  0  0  0  0  0  0  0  0  0
    0.3332   -0.3848    1.0730 H   0  0  0  0  0  0  0  0  0  0  0  0
    0.6583   -0.5765   -0.9871 C   0  0  0  0  0  0  0  0  0  0  0  0
    1.6715   -0.7086   -0.5948 H   0  0  0  0  0  0  0  0  0  0  0  0
    0.3058   -1.5758   -1.2625 H   0  0  0  0  0  0  0  0  0  0  0  0
    0.7970    0.2294   -2.2996 C   0  0  0  0  0  0  0  0  0  0  0  0
    1.7907    0.6880   -2.3068 H   0  0  0  0  0  0  0  0  0  0  0  0
    0.7664   -0.4689   -3.1411 H   0  0  0  0  0  0  0  0  0  0  0  0
   -0.2205    1.3343   -2.5643 C   0  0  0  0  0  0  0  0  0  0  0  0
   -1.3805    0.9834   -2.8932 O   0  5  0  0  0  0  0  0  0  0  0  0
    0.1872    2.5202   -2.4914 O   0  0  0  0  0  0  0  0  0  0  0  0
   -0.4107    1.4378    0.4499 C   0  0  0  0  0  0  0  0  0  0  0  0
   -1.5423    1.9142    0.4334 O   0  0  0  0  0  0  0  0  0  0  0  0
    0.5010    2.0765    1.2755 N   0  0  0  0  0  0  0  0  0  0  0  0
    1.4472    1.7181    1.2203 H   0  0  0  0  0  0  0  0  0  0  0  0
    0.3361    3.4717    1.6624 C   0  0  0  0  0  0  0  0  0  0  0  0
   -0.5536    3.5952    2.2883 H   0  0  0  0  0  0  0  0  0  0  0  0
    1.2069    3.8088    2.2320 H   0  0  0  0  0  0  0  0  0  0  0  0
    0.2349    4.1041    0.7739 H   0  0  0  0  0  0  0  0  0  0  0  0
  1  2  1  0  0  0  0
  2  3  1  0  0  0  0
  2  4  1  0  0  0  0
  2  5  1  0  0  0  0
  5  6  2  0  0  0  0
  5  7  1  0  0  0  0
  7  8  1  0  0  0  0
  7  9  1  0  0  0  0
  9 10  1  0  0  0  0
  9 11  1  0  0  0  0
  9 20  1  0  0  0  0
 11 12  1  0  0  0  0
 11 13  1  0  0  0  0
 11 14  1  0  0  0  0
 14 15  1  0  0  0  0
 14 16  1  0  0  0  0
 14 17  1  0  0  0  0
 17 18  1  0  0  0  0
 17 19  2  0  0  0  0
 20 21  2  0  0  0  0
 20 22  1  0  0  0  0
 22 23  1  0  0  0  0
 22 24  1  0  0  0  0
 24 25  1  0  0  0  0
 24 26  1  0  0  0  0
 24 27  1  0  0  0  0
M  CHG  1  18  -1
M  END
$$$$

  -OEChem-03222214043D

 27 26  0     1  0  0  0  0  0999 V2000
   -3.5001   -3.3855    1.1110 H   0  0  0  0  0  0  0  0  0  0  0  0
   -3.3618   -2.4440    0.5724 C   0  0  0  0  0  0  0  0  0  0  0  0
   -4.0368   -1.6939    0.9921 H   0  0  0  0  0  0  0  0  0  0  0  0
   -3.6126   -2.5988   -0.4800 H   0  0  0  0  0  0  0  0  0  0  0  0
   -1.9241   -1.9714    0.6958 C   0  0  0  0  0  0  0  0  0  0  0  0
   -1.1164   -2.6374    1.3293 O   0  0  0  0  0  0  0  0  0  0  0  0
   -1.5517   -0.7886    0.0984 N   0  0  0  0  0  0  0  0  0  0  0  0
   -2.2850   -0.2190   -0.3245 H   0  0  0  0  0  0  0  0  0  0  0  0
   -0.2424   -0.1327    0.2210 C   0  0  1  0  0  0  0  0  0  0  0  0
    0.1741   -0.4817    1.1707 H   0  0  0  0  0  0  0  0  0  0  0  0
    0.7538   -0.6675   -0.8494 C   0  0  0  0  0  0  0  0  0  0  0  0
    1.6865   -0.8669   -0.3120 H   0  0  0  0  0  0  0  0  0  0  0  0
    0.3889   -1.6426   -1.1882 H   0  0  0  0  0  0  0  0  0  0  0  0
    1.1699    0.1288   -2.1139 C   0  0  0  0  0  0  0  0  0  0  0  0
    2.2599    0.2262   -2.1099 H   0  0  0  0  0  0  0  0  0  0  0  0
    0.9178   -0.4798   -2.9877 H   0  0  0  0  0  0  0  0  0  0  0  0
    0.5877    1.5183   -2.3472 C   0  0  0  0  0  0  0  0  0  0  0  0
    1.1897    2.4743   -1.7946 O   0  5  0  0  0  0  0  0  0  0  0  0
   -0.3938    1.6305   -3.1206 O   0  0  0  0  0  0  0  0  0  0  0  0
   -0.4177    1.3870    0.4721 C   0  0  0  0  0  0  0  0  0  0  0  0
   -1.5260    1.8829    0.2716 O   0  0  0  0  0  0  0  0  0  0  0  0
    0.3598    1.9931    1.4449 N   0  0  0  0  0  0  0  0  0  0  0  0
    1.3194    1.6653    1.4536 H   0  0  0  0  0  0  0  0  0  0  0  0
    0.1512    3.3889    1.8067 C   0  0  0  0  0  0  0  0  0  0  0  0
   -0.8225    3.5206    2.2894 H   0  0  0  0  0  0  0  0  0  0  0  0
    0.9284    3.7149    2.5038 H   0  0  0  0  0  0  0  0  0  0  0  0
    0.1944    4.0242    0.9153 H   0  0  0  0  0  0  0  0  0  0  0  0
  1  2  1  0  0  0  0
  2  3  1  0  0  0  0
  2  4  1  0  0  0  0
  2  5  1  0  0  0  0
  5  6  2  0  0  0  0
  5  7  1  0  0  0  0
  7  8  1  0  0  0  0
  7  9  1  0  0  0  0
  9 10  1  0  0  0  0
  9 11  1  0  0  0  0
  9 20  1  0  0  0  0
 11 12  1  0  0  0  0
 11 13  1  0  0  0  0
 11 14  1  0  0  0  0
 14 15  1  0  0  0  0
 14 16  1  0  0  0  0
 14 17  1  0  0  0  0
 17 18  1  0  0  0  0
 17 19  2  0  0  0  0
 20 21  2  0  0  0  0
 20 22  1  0  0  0  0
 22 23  1  0  0  0  0
 22 24  1  0  0  0  0
 24 25  1  0  0  0  0
 24 26  1  0  0  0  0
 24 27  1  0  0  0  0
M  CHG  1  18  -1
M  END
$$$$

  -OEChem-03222214043D

 27 26  0     1  0  0  0  0  0999 V2000
   -3.1238   -3.6823    0.9570 H   0  0  0  0  0  0  0  0  0  0  0  0
   -3.0910   -2.6918    0.4950 C   0  0  0  0  0  0  0  0  0  0  0  0
   -3.7408   -2.0178    1.0590 H   0  0  0  0  0  0  0  0  0  0  0  0
   -3.4602   -2.7673   -0.5309 H   0  0  0  0  0  0  0  0  0  0  0  0
   -1.6697   -2.1577    0.4925 C   0  0  0  0  0  0  0  0  0  0  0  0
   -0.7557   -2.8610    0.9000 O   0  0  0  0  0  0  0  0  0  0  0  0
   -1.4314   -0.8805    0.0377 N   0  0  0  0  0  0  0  0  0  0  0  0
   -2.2413   -0.2897   -0.1522 H   0  0  0  0  0  0  0  0  0  0  0  0
   -0.1477   -0.1674    0.1240 C   0  0  1  0  0  0  0  0  0  0  0  0
    0.4127   -0.6185    0.9488 H   0  0  0  0  0  0  0  0  0  0  0  0
    0.7074   -0.4461   -1.1493 C   0  0  0  0  0  0  0  0  0  0  0  0
    1.7128   -0.6488   -0.7667 H   0  0  0  0  0  0  0  0  0  0  0  0
    0.3633   -1.3830   -1.5993 H   0  0  0  0  0  0  0  0  0  0  0  0
    0.9271    0.5703   -2.3016 C   0  0  0  0  0  0  0  0  0  0  0  0
    1.9716    0.5095   -2.6209 H   0  0  0  0  0  0  0  0  0  0  0  0
    0.3199    0.2329   -3.1472 H   0  0  0  0  0  0  0  0  0  0  0  0
    0.5913    2.0407   -2.0750 C   0  0  0  0  0  0  0  0  0  0  0  0
    1.3415    2.6539   -1.2709 O   0  5  0  0  0  0  0  0  0  0  0  0
   -0.3177    2.5686   -2.7590 O   0  0  0  0  0  0  0  0  0  0  0  0
   -0.4180    1.2798    0.6152 C   0  0  0  0  0  0  0  0  0  0  0  0
   -1.5761    1.6986    0.5674 O   0  0  0  0  0  0  0  0  0  0  0  0
    0.4012    1.8159    1.5934 N   0  0  0  0  0  0  0  0  0  0  0  0
    1.3838    1.6585    1.3881 H   0  0  0  0  0  0  0  0  0  0  0  0
    0.0897    3.1043    2.1979 C   0  0  0  0  0  0  0  0  0  0  0  0
   -0.8495    3.0515    2.7578 H   0  0  0  0  0  0  0  0  0  0  0  0
    0.8859    3.3957    2.8890 H   0  0  0  0  0  0  0  0  0  0  0  0
   -0.0000    3.8761    1.4257 H   0  0  0  0  0  0  0  0  0  0  0  0
  1  2  1  0  0  0  0
  2  3  1  0  0  0  0
  2  4  1  0  0  0  0
  2  5  1  0  0  0  0
  5  6  2  0  0  0  0
  5  7  1  0  0  0  0
  7  8  1  0  0  0  0
  7  9  1  0  0  0  0
  9 10  1  0  0  0  0
  9 11  1  0  0  0  0
  9 20  1  0  0  0  0
 11 12  1  0  0  0  0
 11 13  1  0  0  0  0
 11 14  1  0  0  0  0
 14 15  1  0  0  0  0
 14 16  1  0  0  0  0
 14 17  1  0  0  0  0
 17 18  1  0  0  0  0
 17 19  2  0  0  0  0
 20 21  2  0  0  0  0
 20 22  1  0  0  0  0
 22 23  1  0  0  0  0
 22 24  1  0  0  0  0
 24 25  1  0  0  0  0
 24 26  1  0  0  0  0
 24 27  1  0  0  0  0
M  CHG  1  18  -1
M  END
$$$$

  -OEChem-03222214043D

 27 26  0     1  0  0  0  0  0999 V2000
   -3.1141   -3.5924    1.2191 H   0  0  0  0  0  0  0  0  0  0  0  0
   -3.0775   -2.6283    0.7043 C   0  0  0  0  0  0  0  0  0  0  0  0
   -3.6841   -1.9085    1.2597 H   0  0  0  0  0  0  0  0  0  0  0  0
   -3.4950   -2.7462   -0.2988 H   0  0  0  0  0  0  0  0  0  0  0  0
   -1.6447   -2.1341    0.6122 C   0  0  0  0  0  0  0  0  0  0  0  0
   -0.7313   -2.8404    1.0150 O   0  0  0  0  0  0  0  0  0  0  0  0
   -1.3973   -0.8864    0.0862 N   0  0  0  0  0  0  0  0  0  0  0  0
   -2.2022   -0.2829   -0.0846 H   0  0  0  0  0  0  0  0  0  0  0  0
   -0.0998   -0.1925    0.1144 C   0  0  1  0  0  0  0  0  0  0  0  0
    0.4900   -0.6098    0.9365 H   0  0  0  0  0  0  0  0  0  0  0  0
    0.6956   -0.5055   -1.1898 C   0  0  0  0  0  0  0  0  0  0  0  0
    1.7141   -0.7181   -0.8487 H   0  0  0  0  0  0  0  0  0  0  0  0
    0.3167   -1.4396   -1.6166 H   0  0  0  0  0  0  0  0  0  0  0  0
    0.8773    0.5031   -2.3537 C   0  0  0  0  0  0  0  0  0  0  0  0
    1.7952    0.2532   -2.8933 H   0  0  0  0  0  0  0  0  0  0  0  0
    0.0435    0.3529   -3.0463 H   0  0  0  0  0  0  0  0  0  0  0  0
    0.9141    1.9908   -2.0097 C   0  0  0  0  0  0  0  0  0  0  0  0
    1.7575    2.3307   -1.1361 O   0  5  0  0  0  0  0  0  0  0  0  0
    0.1995    2.7855   -2.6647 O   0  0  0  0  0  0  0  0  0  0  0  0
   -0.3807    1.2761    0.5373 C   0  0  0  0  0  0  0  0  0  0  0  0
   -1.5393    1.6924    0.4555 O   0  0  0  0  0  0  0  0  0  0  0  0
    0.4403    1.8679    1.4795 N   0  0  0  0  0  0  0  0  0  0  0  0
    1.4154    1.7894    1.1898 H   0  0  0  0  0  0  0  0  0  0  0  0
    0.0849    3.1502    2.0724 C   0  0  0  0  0  0  0  0  0  0  0  0
   -0.8380    3.0640    2.6547 H   0  0  0  0  0  0  0  0  0  0  0  0
    0.8832    3.4871    2.7400 H   0  0  0  0  0  0  0  0  0  0  0  0
   -0.0571    3.9048    1.2914 H   0  0  0  0  0  0  0  0  0  0  0  0
  1  2  1  0  0  0  0
  2  3  1  0  0  0  0
  2  4  1  0  0  0  0
  2  5  1  0  0  0  0
  5  6  2  0  0  0  0
  5  7  1  0  0  0  0
  7  8  1  0  0  0  0
  7  9  1  0  0  0  0
  9 10  1  0  0  0  0
  9 11  1  0  0  0  0
  9 20  1  0  0  0  0
 11 12  1  0  0  0  0
 11 13  1  0  0  0  0
 11 14  1  0  0  0  0
 14 15  1  0  0  0  0
 14 16  1  0  0  0  0
 14 17  1  0  0  0  0
 17 18  1  0  0  0  0
 17 19  2  0  0  0  0
 20 21  2  0  0  0  0
 20 22  1  0  0  0  0
 22 23  1  0  0  0  0
 22 24  1  0  0  0  0
 24 25  1  0  0  0  0
 24 26  1  0  0  0  0
 24 27  1  0  0  0  0
M  CHG  1  18  -1
M  END
$$$$

  -OEChem-03222214043D

 27 26  0     1  0  0  0  0  0999 V2000
   -3.2290   -3.4920    1.2708 H   0  0  0  0  0  0  0  0  0  0  0  0
   -3.1510   -2.5481    0.7243 C   0  0  0  0  0  0  0  0  0  0  0  0
   -3.7469   -1.7912    1.2405 H   0  0  0  0  0  0  0  0  0  0  0  0
   -3.5497   -2.6886   -0.2834 H   0  0  0  0  0  0  0  0  0  0  0  0
   -1.7019   -2.1012    0.6484 C   0  0  0  0  0  0  0  0  0  0  0  0
   -0.8208   -2.8189    1.0994 O   0  0  0  0  0  0  0  0  0  0  0  0
   -1.4043   -0.8845    0.0775 N   0  0  0  0  0  0  0  0  0  0  0  0
   -2.1865   -0.2641   -0.1327 H   0  0  0  0  0  0  0  0  0  0  0  0
   -0.0884   -0.2263    0.1211 C   0  0  1  0  0  0  0  0  0  0  0  0
    0.4778   -0.6281    0.9673 H   0  0  0  0  0  0  0  0  0  0  0  0
    0.7231   -0.5703   -1.1628 C   0  0  0  0  0  0  0  0  0  0  0  0
    1.7295   -0.8273   -0.8165 H   0  0  0  0  0  0  0  0  0  0  0  0
    0.3088   -1.4810   -1.6066 H   0  0  0  0  0  0  0  0  0  0  0  0
    0.9271    0.4584   -2.3023 C   0  0  0  0  0  0  0  0  0  0  0  0
    1.6924    0.0787   -2.9849 H   0  0  0  0  0  0  0  0  0  0  0  0
   -0.0103    0.5304   -2.8621 H   0  0  0  0  0  0  0  0  0  0  0  0
    1.3265    1.8725   -1.8694 C   0  0  0  0  0  0  0  0  0  0  0  0
    2.1420    1.9614   -0.9102 O   0  5  0  0  0  0  0  0  0  0  0  0
    0.8915    2.8459   -2.5279 O   0  0  0  0  0  0  0  0  0  0  0  0
   -0.3565    1.2636    0.4719 C   0  0  0  0  0  0  0  0  0  0  0  0
   -1.4920    1.7130    0.2936 O   0  0  0  0  0  0  0  0  0  0  0  0
    0.4385    1.8824    1.4176 N   0  0  0  0  0  0  0  0  0  0  0  0
    1.4228    1.7702    1.1595 H   0  0  0  0  0  0  0  0  0  0  0  0
    0.0938    3.2013    1.9300 C   0  0  0  0  0  0  0  0  0  0  0  0
   -0.8577    3.1689    2.4701 H   0  0  0  0  0  0  0  0  0  0  0  0
    0.8692    3.5484    2.6187 H   0  0  0  0  0  0  0  0  0  0  0  0
    0.0118    3.9206    1.1081 H   0  0  0  0  0  0  0  0  0  0  0  0
  1  2  1  0  0  0  0
  2  3  1  0  0  0  0
  2  4  1  0  0  0  0
  2  5  1  0  0  0  0
  5  6  2  0  0  0  0
  5  7  1  0  0  0  0
  7  8  1  0  0  0  0
  7  9  1  0  0  0  0
  9 10  1  0  0  0  0
  9 11  1  0  0  0  0
  9 20  1  0  0  0  0
 11 12  1  0  0  0  0
 11 13  1  0  0  0  0
 11 14  1  0  0  0  0
 14 15  1  0  0  0  0
 14 16  1  0  0  0  0
 14 17  1  0  0  0  0
 17 18  1  0  0  0  0
 17 19  2  0  0  0  0
 20 21  2  0  0  0  0
 20 22  1  0  0  0  0
 22 23  1  0  0  0  0
 22 24  1  0  0  0  0
 24 25  1  0  0  0  0
 24 26  1  0  0  0  0
 24 27  1  0  0  0  0
M  CHG  1  18  -1
M  END
$$$$

  -OEChem-03222214043D

 27 26  0     1  0  0  0  0  0999 V2000
   -3.2587   -3.4828    1.2864 H   0  0  0  0  0  0  0  0  0  0  0  0
   -3.1668   -2.5534    0.7176 C   0  0  0  0  0  0  0  0  0  0  0  0
   -3.7758   -1.7841    1.1992 H   0  0  0  0  0  0  0  0  0  0  0  0
   -3.5396   -2.7205   -0.2960 H   0  0  0  0  0  0  0  0  0  0  0  0
   -1.7157   -2.1083    0.6667 C   0  0  0  0  0  0  0  0  0  0  0  0
   -0.8474   -2.8145    1.1580 O   0  0  0  0  0  0  0  0  0  0  0  0
   -1.4025   -0.9076    0.0706 N   0  0  0  0  0  0  0  0  0  0  0  0
   -2.1784   -0.2933   -0.1762 H   0  0  0  0  0  0  0  0  0  0  0  0
   -0.0846   -0.2541    0.1178 C   0  0  1  0  0  0  0  0  0  0  0  0
    0.4751   -0.6441    0.9737 H   0  0  0  0  0  0  0  0  0  0  0  0
    0.7432   -0.5919   -1.1529 C   0  0  0  0  0  0  0  0  0  0  0  0
    1.7464   -0.8787   -0.8202 H   0  0  0  0  0  0  0  0  0  0  0  0
    0.3104   -1.4792   -1.6254 H   0  0  0  0  0  0  0  0  0  0  0  0
    0.9180    0.4880   -2.2456 C   0  0  0  0  0  0  0  0  0  0  0  0
    1.5023    0.0628   -3.0662 H   0  0  0  0  0  0  0  0  0  0  0  0
   -0.0687    0.7525   -2.6374 H   0  0  0  0  0  0  0  0  0  0  0  0
    1.6207    1.7715   -1.7752 C   0  0  0  0  0  0  0  0  0  0  0  0
    2.3592    1.6993   -0.7537 O   0  5  0  0  0  0  0  0  0  0  0  0
    1.4544    2.8095   -2.4575 O   0  0  0  0  0  0  0  0  0  0  0  0
   -0.3404    1.2458    0.4265 C   0  0  0  0  0  0  0  0  0  0  0  0
   -1.4549    1.7165    0.1840 O   0  0  0  0  0  0  0  0  0  0  0  0
    0.4457    1.8833    1.3665 N   0  0  0  0  0  0  0  0  0  0  0  0
    1.4354    1.7159    1.1572 H   0  0  0  0  0  0  0  0  0  0  0  0
    0.1361    3.2369    1.8041 C   0  0  0  0  0  0  0  0  0  0  0  0
   -0.8400    3.2694    2.2982 H   0  0  0  0  0  0  0  0  0  0  0  0
    0.8933    3.5813    2.5143 H   0  0  0  0  0  0  0  0  0  0  0  0
    0.1247    3.9208    0.9487 H   0  0  0  0  0  0  0  0  0  0  0  0
  1  2  1  0  0  0  0
  2  3  1  0  0  0  0
  2  4  1  0  0  0  0
  2  5  1  0  0  0  0
  5  6  2  0  0  0  0
  5  7  1  0  0  0  0
  7  8  1  0  0  0  0
  7  9  1  0  0  0  0
  9 10  1  0  0  0  0
  9 11  1  0  0  0  0
  9 20  1  0  0  0  0
 11 12  1  0  0  0  0
 11 13  1  0  0  0  0
 11 14  1  0  0  0  0
 14 15  1  0  0  0  0
 14 16  1  0  0  0  0
 14 17  1  0  0  0  0
 17 18  1  0  0  0  0
 17 19  2  0  0  0  0
 20 21  2  0  0  0  0
 20 22  1  0  0  0  0
 22 23  1  0  0  0  0
 22 24  1  0  0  0  0
 24 25  1  0  0  0  0
 24 26  1  0  0  0  0
 24 27  1  0  0  0  0
M  CHG  1  18  -1
M  END
$$$$

  -OEChem-03222214043D

 27 26  0     1  0  0  0  0  0999 V2000
   -3.2491   -3.5068    1.2884 H   0  0  0  0  0  0  0  0  0  0  0  0
   -3.1621   -2.5716    0.7284 C   0  0  0  0  0  0  0  0  0  0  0  0
   -3.7688   -1.8076    1.2211 H   0  0  0  0  0  0  0  0  0  0  0  0
   -3.5412   -2.7292   -0.2843 H   0  0  0  0  0  0  0  0  0  0  0  0
   -1.7123   -2.1234    0.6732 C   0  0  0  0  0  0  0  0  0  0  0  0
   -0.8430   -2.8210    1.1745 O   0  0  0  0  0  0  0  0  0  0  0  0
   -1.4033   -0.9277    0.0649 N   0  0  0  0  0  0  0  0  0  0  0  0
   -2.1811   -0.3227   -0.1963 H   0  0  0  0  0  0  0  0  0  0  0  0
   -0.0878   -0.2696    0.1018 C   0  0  1  0  0  0  0  0  0  0  0  0
    0.4747   -0.6557    0.9578 H   0  0  0  0  0  0  0  0  0  0  0  0
    0.7473   -0.5954   -1.1625 C   0  0  0  0  0  0  0  0  0  0  0  0
    1.7518   -0.8987   -0.8487 H   0  0  0  0  0  0  0  0  0  0  0  0
    0.3032   -1.4671   -1.6533 H   0  0  0  0  0  0  0  0  0  0  0  0
    0.8791    0.5258   -2.2162 C   0  0  0  0  0  0  0  0  0  0  0  0
    1.2520    0.0827   -3.1438 H   0  0  0  0  0  0  0  0  0  0  0  0
   -0.1063    0.9529   -2.4241 H   0  0  0  0  0  0  0  0  0  0  0  0
    1.8509    1.6501   -1.8121 C   0  0  0  0  0  0  0  0  0  0  0  0
    2.4489    1.5691   -0.7028 O   0  5  0  0  0  0  0  0  0  0  0  0
    2.0014    2.5892   -2.6287 O   0  0  0  0  0  0  0  0  0  0  0  0
   -0.3230    1.2356    0.3956 C   0  0  0  0  0  0  0  0  0  0  0  0
   -1.4271    1.7222    0.1382 O   0  0  0  0  0  0  0  0  0  0  0  0
    0.4745    1.8757    1.3233 N   0  0  0  0  0  0  0  0  0  0  0  0
    1.4623    1.6800    1.1245 H   0  0  0  0  0  0  0  0  0  0  0  0
    0.1902    3.2412    1.7404 C   0  0  0  0  0  0  0  0  0  0  0  0
   -0.7819    3.2976    2.2403 H   0  0  0  0  0  0  0  0  0  0  0  0
    0.9576    3.5851    2.4400 H   0  0  0  0  0  0  0  0  0  0  0  0
    0.1840    3.9112    0.8742 H   0  0  0  0  0  0  0  0  0  0  0  0
  1  2  1  0  0  0  0
  2  3  1  0  0  0  0
  2  4  1  0  0  0  0
  2  5  1  0  0  0  0
  5  6  2  0  0  0  0
  5  7  1  0  0  0  0
  7  8  1  0  0  0  0
  7  9  1  0  0  0  0
  9 10  1  0  0  0  0
  9 11  1  0  0  0  0
  9 20  1  0  0  0  0
 11 12  1  0  0  0  0
 11 13  1  0  0  0  0
 11 14  1  0  0  0  0
 14 15  1  0  0  0  0
 14 16  1  0  0  0  0
 14 17  1  0  0  0  0
 17 18  1  0  0  0  0
 17 19  2  0  0  0  0
 20 21  2  0  0  0  0
 20 22  1  0  0  0  0
 22 23  1  0  0  0  0
 22 24  1  0  0  0  0
 24 25  1  0  0  0  0
 24 26  1  0  0  0  0
 24 27  1  0  0  0  0
M  CHG  1  18  -1
M  END
$$$$

  -OEChem-03222214043D

 27 26  0     1  0  0  0  0  0999 V2000
   -3.2234   -3.5247    1.3085 H   0  0  0  0  0  0  0  0  0  0  0  0
   -3.1511   -2.5955    0.7364 C   0  0  0  0  0  0  0  0  0  0  0  0
   -3.7674   -1.8344    1.2215 H   0  0  0  0  0  0  0  0  0  0  0  0
   -3.5309   -2.7713   -0.2730 H   0  0  0  0  0  0  0  0  0  0  0  0
   -1.7076   -2.1287    0.6708 C   0  0  0  0  0  0  0  0  0  0  0  0
   -0.8265   -2.8174    1.1633 O   0  0  0  0  0  0  0  0  0  0  0  0
   -1.4171   -0.9284    0.0619 N   0  0  0  0  0  0  0  0  0  0  0  0
   -2.2033   -0.3328   -0.1941 H   0  0  0  0  0  0  0  0  0  0  0  0
   -0.1054   -0.2619    0.0785 C   0  0  1  0  0  0  0  0  0  0  0  0
    0.4637   -0.6494    0.9294 H   0  0  0  0  0  0  0  0  0  0  0  0
    0.7334   -0.5812   -1.1821 C   0  0  0  0  0  0  0  0  0  0  0  0
    1.7410   -0.8827   -0.8762 H   0  0  0  0  0  0  0  0  0  0  0  0
    0.2897   -1.4528   -1.6734 H   0  0  0  0  0  0  0  0  0  0  0  0
    0.8361    0.5512   -2.2264 C   0  0  0  0  0  0  0  0  0  0  0  0
    0.9738    0.0951   -3.2114 H   0  0  0  0  0  0  0  0  0  0  0  0
   -0.0868    1.1358   -2.2673 H   0  0  0  0  0  0  0  0  0  0  0  0
    2.0407    1.4724   -1.9646 C   0  0  0  0  0  0  0  0  0  0  0  0
    2.4568    1.5947   -0.7787 O   0  5  0  0  0  0  0  0  0  0  0  0
    2.5407    2.0574   -2.9547 O   0  0  0  0  0  0  0  0  0  0  0  0
   -0.3141    1.2450    0.3805 C   0  0  0  0  0  0  0  0  0  0  0  0
   -1.4186    1.7443    0.1509 O   0  0  0  0  0  0  0  0  0  0  0  0
    0.5116    1.8719    1.2924 N   0  0  0  0  0  0  0  0  0  0  0  0
    1.4931    1.6761    1.0625 H   0  0  0  0  0  0  0  0  0  0  0  0
    0.2421    3.2297    1.7424 C   0  0  0  0  0  0  0  0  0  0  0  0
   -0.7187    3.2791    2.2646 H   0  0  0  0  0  0  0  0  0  0  0  0
    1.0260    3.5560    2.4319 H   0  0  0  0  0  0  0  0  0  0  0  0
    0.2193    3.9171    0.8904 H   0  0  0  0  0  0  0  0  0  0  0  0
  1  2  1  0  0  0  0
  2  3  1  0  0  0  0
  2  4  1  0  0  0  0
  2  5  1  0  0  0  0
  5  6  2  0  0  0  0
  5  7  1  0  0  0  0
  7  8  1  0  0  0  0
  7  9  1  0  0  0  0
  9 10  1  0  0  0  0
  9 11  1  0  0  0  0
  9 20  1  0  0  0  0
 11 12  1  0  0  0  0
 11 13  1  0  0  0  0
 11 14  1  0  0  0  0
 14 15  1  0  0  0  0
 14 16  1  0  0  0  0
 14 17  1  0  0  0  0
 17 18  1  0  0  0  0
 17 19  2  0  0  0  0
 20 21  2  0  0  0  0
 20 22  1  0  0  0  0
 22 23  1  0  0  0  0
 22 24  1  0  0  0  0
 24 25  1  0  0  0  0
 24 26  1  0  0  0  0
 24 27  1  0  0  0  0
M  CHG  1  18  -1
M  END
$$$$

  -OEChem-03222214043D

 27 26  0     1  0  0  0  0  0999 V2000
   -3.1966   -3.5732    1.2887 H   0  0  0  0  0  0  0  0  0  0  0  0
   -3.1476   -2.6340    0.7308 C   0  0  0  0  0  0  0  0  0  0  0  0
   -3.7699   -1.8911    1.2359 H   0  0  0  0  0  0  0  0  0  0  0  0
   -3.5375   -2.8002   -0.2765 H   0  0  0  0  0  0  0  0  0  0  0  0
   -1.7132   -2.1415    0.6548 C   0  0  0  0  0  0  0  0  0  0  0  0
   -0.8155   -2.8182    1.1334 O   0  0  0  0  0  0  0  0  0  0  0  0
   -1.4508   -0.9293    0.0561 N   0  0  0  0  0  0  0  0  0  0  0  0
   -2.2502   -0.3516   -0.1981 H   0  0  0  0  0  0  0  0  0  0  0  0
   -0.1498   -0.2431    0.0502 C   0  0  1  0  0  0  0  0  0  0  0  0
    0.4175   -0.6350    0.9005 H   0  0  0  0  0  0  0  0  0  0  0  0
    0.7166   -0.5544   -1.1883 C   0  0  0  0  0  0  0  0  0  0  0  0
    1.7263   -0.8248   -0.8590 H   0  0  0  0  0  0  0  0  0  0  0  0
    0.3080   -1.4454   -1.6751 H   0  0  0  0  0  0  0  0  0  0  0  0
    0.7939    0.5744   -2.2402 C   0  0  0  0  0  0  0  0  0  0  0  0
    0.7058    0.1256   -3.2342 H   0  0  0  0  0  0  0  0  0  0  0  0
   -0.0200    1.2971   -2.1508 H   0  0  0  0  0  0  0  0  0  0  0  0
    2.1538    1.2752   -2.1506 C   0  0  0  0  0  0  0  0  0  0  0  0
    2.5141    1.6639   -1.0047 O   0  5  0  0  0  0  0  0  0  0  0  0
    2.8260    1.4193   -3.2001 O   0  0  0  0  0  0  0  0  0  0  0  0
   -0.3186    1.2626    0.3715 C   0  0  0  0  0  0  0  0  0  0  0  0
   -1.4236    1.7785    0.1897 O   0  0  0  0  0  0  0  0  0  0  0  0
    0.5489    1.8634    1.2624 N   0  0  0  0  0  0  0  0  0  0  0  0
    1.5202    1.6409    1.0226 H   0  0  0  0  0  0  0  0  0  0  0  0
    0.3224    3.2213    1.7353 C   0  0  0  0  0  0  0  0  0  0  0  0
   -0.6173    3.2837    2.2933 H   0  0  0  0  0  0  0  0  0  0  0  0
    1.1375    3.5259    2.3981 H   0  0  0  0  0  0  0  0  0  0  0  0
    0.2814    3.9178    0.8915 H   0  0  0  0  0  0  0  0  0  0  0  0
  1  2  1  0  0  0  0
  2  3  1  0  0  0  0
  2  4  1  0  0  0  0
  2  5  1  0  0  0  0
  5  6  2  0  0  0  0
  5  7  1  0  0  0  0
  7  8  1  0  0  0  0
  7  9  1  0  0  0  0
  9 10  1  0  0  0  0
  9 11  1  0  0  0  0
  9 20  1  0  0  0  0
 11 12  1  0  0  0  0
 11 13  1  0  0  0  0
 11 14  1  0  0  0  0
 14 15  1  0  0  0  0
 14 16  1  0  0  0  0
 14 17  1  0  0  0  0
 17 18  1  0  0  0  0
 17 19  2  0  0  0  0
 20 21  2  0  0  0  0
 20 22  1  0  0  0  0
 22 23  1  0  0  0  0
 22 24  1  0  0  0  0
 24 25  1  0  0  0  0
 24 26  1  0  0  0  0
 24 27  1  0  0  0  0
M  CHG  1  18  -1
M  END
$$$$

  -OEChem-03222214043D

 27 26  0     1  0  0  0  0  0999 V2000
   -3.1807   -3.6286    1.2196 H   0  0  0  0  0  0  0  0  0  0  0  0
   -3.1383   -2.6832    0.6717 C   0  0  0  0  0  0  0  0  0  0  0  0
   -3.8055   -1.9655    1.1555 H   0  0  0  0  0  0  0  0  0  0  0  0
   -3.4794   -2.8531   -0.3524 H   0  0  0  0  0  0  0  0  0  0  0  0
   -1.7186   -2.1446    0.6596 C   0  0  0  0  0  0  0  0  0  0  0  0
   -0.8207   -2.7938    1.1747 O   0  0  0  0  0  0  0  0  0  0  0  0
   -1.4696   -0.9195    0.0808 N   0  0  0  0  0  0  0  0  0  0  0  0
   -2.2716   -0.3736   -0.2279 H   0  0  0  0  0  0  0  0  0  0  0  0
   -0.1772   -0.2181    0.0750 C   0  0  1  0  0  0  0  0  0  0  0  0
    0.3949   -0.6213    0.9167 H   0  0  0  0  0  0  0  0  0  0  0  0
    0.6782   -0.5292   -1.1716 C   0  0  0  0  0  0  0  0  0  0  0  0
    1.6911   -0.7690   -0.8296 H   0  0  0  0  0  0  0  0  0  0  0  0
    0.2968   -1.4401   -1.6437 H   0  0  0  0  0  0  0  0  0  0  0  0
    0.7507    0.5823   -2.2476 C   0  0  0  0  0  0  0  0  0  0  0  0
    0.3759    0.1767   -3.1921 H   0  0  0  0  0  0  0  0  0  0  0  0
    0.1318    1.4508   -2.0193 H   0  0  0  0  0  0  0  0  0  0  0  0
    2.1979    1.0332   -2.4453 C   0  0  0  0  0  0  0  0  0  0  0  0
    2.7667    1.5301   -1.4366 O   0  5  0  0  0  0  0  0  0  0  0  0
    2.7335    0.8789   -3.5697 O   0  0  0  0  0  0  0  0  0  0  0  0
   -0.3320    1.2803    0.4198 C   0  0  0  0  0  0  0  0  0  0  0  0
   -1.4147    1.8295    0.2155 O   0  0  0  0  0  0  0  0  0  0  0  0
    0.5486    1.8647    1.3102 N   0  0  0  0  0  0  0  0  0  0  0  0
    1.5035    1.5219    1.2089 H   0  0  0  0  0  0  0  0  0  0  0  0
    0.3994    3.2507    1.7291 C   0  0  0  0  0  0  0  0  0  0  0  0
   -0.5512    3.3940    2.2527 H   0  0  0  0  0  0  0  0  0  0  0  0
    1.2114    3.5248    2.4089 H   0  0  0  0  0  0  0  0  0  0  0  0
    0.4317    3.9176    0.8613 H   0  0  0  0  0  0  0  0  0  0  0  0
  1  2  1  0  0  0  0
  2  3  1  0  0  0  0
  2  4  1  0  0  0  0
  2  5  1  0  0  0  0
  5  6  2  0  0  0  0
  5  7  1  0  0  0  0
  7  8  1  0  0  0  0
  7  9  1  0  0  0  0
  9 10  1  0  0  0  0
  9 11  1  0  0  0  0
  9 20  1  0  0  0  0
 11 12  1  0  0  0  0
 11 13  1  0  0  0  0
 11 14  1  0  0  0  0
 14 15  1  0  0  0  0
 14 16  1  0  0  0  0
 14 17  1  0  0  0  0
 17 18  1  0  0  0  0
 17 19  2  0  0  0  0
 20 21  2  0  0  0  0
 20 22  1  0  0  0  0
 22 23  1  0  0  0  0
 22 24  1  0  0  0  0
 24 25  1  0  0  0  0
 24 26  1  0  0  0  0
 24 27  1  0  0  0  0
M  CHG  1  18  -1
M  END
$$$$

  -OEChem-03222214043D

 27 26  0     1  0  0  0  0  0999 V2000
   -3.1811   -3.6302    1.1755 H   0  0  0  0  0  0  0  0  0  0  0  0
   -3.1259   -2.6925    0.6158 C   0  0  0  0  0  0  0  0  0  0  0  0
   -3.8289   -1.9792    1.0533 H   0  0  0  0  0  0  0  0  0  0  0  0
   -3.4107   -2.8832   -0.4219 H   0  0  0  0  0  0  0  0  0  0  0  0
   -1.7165   -2.1301    0.6684 C   0  0  0  0  0  0  0  0  0  0  0  0
   -0.8331   -2.7588    1.2318 O   0  0  0  0  0  0  0  0  0  0  0  0
   -1.4607   -0.9015    0.1002 N   0  0  0  0  0  0  0  0  0  0  0  0
   -2.2506   -0.3797   -0.2739 H   0  0  0  0  0  0  0  0  0  0  0  0
   -0.1665   -0.2038    0.1042 C   0  0  1  0  0  0  0  0  0  0  0  0
    0.4159   -0.6185    0.9330 H   0  0  0  0  0  0  0  0  0  0  0  0
    0.6472   -0.5200   -1.1730 C   0  0  0  0  0  0  0  0  0  0  0  0
    1.6670   -0.7428   -0.8402 H   0  0  0  0  0  0  0  0  0  0  0  0
    0.2719   -1.4389   -1.6350 H   0  0  0  0  0  0  0  0  0  0  0  0
    0.7226    0.5839   -2.2574 C   0  0  0  0  0  0  0  0  0  0  0  0
    0.0549    0.3208   -3.0829 H   0  0  0  0  0  0  0  0  0  0  0  0
    0.4037    1.5605   -1.8926 H   0  0  0  0  0  0  0  0  0  0  0  0
    2.1528    0.7404   -2.7735 C   0  0  0  0  0  0  0  0  0  0  0  0
    2.9890    1.2411   -1.9778 O   0  5  0  0  0  0  0  0  0  0  0  0
    2.4147    0.3464   -3.9363 O   0  0  0  0  0  0  0  0  0  0  0  0
   -0.3289    1.2902    0.4612 C   0  0  0  0  0  0  0  0  0  0  0  0
   -1.3868    1.8641    0.2078 O   0  0  0  0  0  0  0  0  0  0  0  0
    0.5413    1.8752    1.3627 N   0  0  0  0  0  0  0  0  0  0  0  0
    1.4693    1.4595    1.3887 H   0  0  0  0  0  0  0  0  0  0  0  0
    0.4207    3.2705    1.7607 C   0  0  0  0  0  0  0  0  0  0  0  0
   -0.5450    3.4507    2.2438 H   0  0  0  0  0  0  0  0  0  0  0  0
    1.2129    3.5279    2.4699 H   0  0  0  0  0  0  0  0  0  0  0  0
    0.5082    3.9253    0.8875 H   0  0  0  0  0  0  0  0  0  0  0  0
  1  2  1  0  0  0  0
  2  3  1  0  0  0  0
  2  4  1  0  0  0  0
  2  5  1  0  0  0  0
  5  6  2  0  0  0  0
  5  7  1  0  0  0  0
  7  8  1  0  0  0  0
  7  9  1  0  0  0  0
  9 10  1  0  0  0  0
  9 11  1  0  0  0  0
  9 20  1  0  0  0  0
 11 12  1  0  0  0  0
 11 13  1  0  0  0  0
 11 14  1  0  0  0  0
 14 15  1  0  0  0  0
 14 16  1  0  0  0  0
 14 17  1  0  0  0  0
 17 18  1  0  0  0  0
 17 19  2  0  0  0  0
 20 21  2  0  0  0  0
 20 22  1  0  0  0  0
 22 23  1  0  0  0  0
 22 24  1  0  0  0  0
 24 25  1  0  0  0  0
 24 26  1  0  0  0  0
 24 27  1  0  0  0  0
M  CHG  1  18  -1
M  END
$$$$

  -OEChem-03222214043D

 27 26  0     1  0  0  0  0  0999 V2000
   -3.1739   -3.6671    1.0786 H   0  0  0  0  0  0  0  0  0  0  0  0
   -3.1258   -2.6970    0.5763 C   0  0  0  0  0  0  0  0  0  0  0  0
   -3.8457   -2.0206    1.0436 H   0  0  0  0  0  0  0  0  0  0  0  0
   -3.3927   -2.8311   -0.4750 H   0  0  0  0  0  0  0  0  0  0  0  0
   -1.7264   -2.1180    0.6838 C   0  0  0  0  0  0  0  0  0  0  0  0
   -0.8624   -2.7277    1.2963 O   0  0  0  0  0  0  0  0  0  0  0  0
   -1.4582   -0.8938    0.1117 N   0  0  0  0  0  0  0  0  0  0  0  0
   -2.2321   -0.3918   -0.3182 H   0  0  0  0  0  0  0  0  0  0  0  0
   -0.1596   -0.2049    0.1237 C   0  0  1  0  0  0  0  0  0  0  0  0
    0.4249   -0.6243    0.9484 H   0  0  0  0  0  0  0  0  0  0  0  0
    0.6339   -0.5222   -1.1666 C   0  0  0  0  0  0  0  0  0  0  0  0
    1.6587   -0.7413   -0.8473 H   0  0  0  0  0  0  0  0  0  0  0  0
    0.2527   -1.4372   -1.6317 H   0  0  0  0  0  0  0  0  0  0  0  0
    0.7064    0.5907   -2.2370 C   0  0  0  0  0  0  0  0  0  0  0  0
   -0.1565    0.5163   -2.9052 H   0  0  0  0  0  0  0  0  0  0  0  0
    0.6914    1.5875   -1.7932 H   0  0  0  0  0  0  0  0  0  0  0  0
    2.0091    0.4908   -3.0301 C   0  0  0  0  0  0  0  0  0  0  0  0
    3.0571    0.8898   -2.4608 O   0  5  0  0  0  0  0  0  0  0  0  0
    1.9628   -0.0043   -4.1829 O   0  0  0  0  0  0  0  0  0  0  0  0
   -0.3223    1.2907    0.4727 C   0  0  0  0  0  0  0  0  0  0  0  0
   -1.3553    1.8851    0.1721 O   0  0  0  0  0  0  0  0  0  0  0  0
    0.5395    1.8783    1.3808 N   0  0  0  0  0  0  0  0  0  0  0  0
    1.4384    1.4176    1.4912 H   0  0  0  0  0  0  0  0  0  0  0  0
    0.4458    3.2839    1.7485 C   0  0  0  0  0  0  0  0  0  0  0  0
   -0.5254    3.4982    2.2061 H   0  0  0  0  0  0  0  0  0  0  0  0
    1.2290    3.5351    2.4698 H   0  0  0  0  0  0  0  0  0  0  0  0
    0.5694    3.9186    0.8648 H   0  0  0  0  0  0  0  0  0  0  0  0
  1  2  1  0  0  0  0
  2  3  1  0  0  0  0
  2  4  1  0  0  0  0
  2  5  1  0  0  0  0
  5  6  2  0  0  0  0
  5  7  1  0  0  0  0
  7  8  1  0  0  0  0
  7  9  1  0  0  0  0
  9 10  1  0  0  0  0
  9 11  1  0  0  0  0
  9 20  1  0  0  0  0
 11 12  1  0  0  0  0
 11 13  1  0  0  0  0
 11 14  1  0  0  0  0
 14 15  1  0  0  0  0
 14 16  1  0  0  0  0
 14 17  1  0  0  0  0
 17 18  1  0  0  0  0
 17 19  2  0  0  0  0
 20 21  2  0  0  0  0
 20 22  1  0  0  0  0
 22 23  1  0  0  0  0
 22 24  1  0  0  0  0
 24 25  1  0  0  0  0
 24 26  1  0  0  0  0
 24 27  1  0  0  0  0
M  CHG  1  18  -1
M  END
$$$$

  -OEChem-03222214043D

 27 26  0     1  0  0  0  0  0999 V2000
   -3.1880   -3.6559    1.0595 H   0  0  0  0  0  0  0  0  0  0  0  0
   -3.1278   -2.6919    0.5467 C   0  0  0  0  0  0  0  0  0  0  0  0
   -3.8723   -2.0163    0.9749 H   0  0  0  0  0  0  0  0  0  0  0  0
   -3.3500   -2.8422   -0.5129 H   0  0  0  0  0  0  0  0  0  0  0  0
   -1.7391   -2.0987    0.7030 C   0  0  0  0  0  0  0  0  0  0  0  0
   -0.8975   -2.6868    1.3660 O   0  0  0  0  0  0  0  0  0  0  0  0
   -1.4549   -0.8842    0.1184 N   0  0  0  0  0  0  0  0  0  0  0  0
   -2.2063   -0.4078   -0.3758 H   0  0  0  0  0  0  0  0  0  0  0  0
   -0.1503   -0.2078    0.1351 C   0  0  1  0  0  0  0  0  0  0  0  0
    0.4326   -0.6271    0.9608 H   0  0  0  0  0  0  0  0  0  0  0  0
    0.6303   -0.5337   -1.1601 C   0  0  0  0  0  0  0  0  0  0  0  0
    1.6584   -0.7686   -0.8638 H   0  0  0  0  0  0  0  0  0  0  0  0
    0.2243   -1.4360   -1.6298 H   0  0  0  0  0  0  0  0  0  0  0  0
    0.6975    0.5911   -2.2111 C   0  0  0  0  0  0  0  0  0  0  0  0
   -0.2752    0.7043   -2.6988 H   0  0  0  0  0  0  0  0  0  0  0  0
    0.9546    1.5481   -1.7499 H   0  0  0  0  0  0  0  0  0  0  0  0
    1.7784    0.2850   -3.2468 C   0  0  0  0  0  0  0  0  0  0  0  0
    2.9654    0.5575   -2.9357 O   0  5  0  0  0  0  0  0  0  0  0  0
    1.4247   -0.2528   -4.3251 O   0  0  0  0  0  0  0  0  0  0  0  0
   -0.3041    1.2933    0.4646 C   0  0  0  0  0  0  0  0  0  0  0  0
   -1.3183    1.9021    0.1325 O   0  0  0  0  0  0  0  0  0  0  0  0
    0.5532    1.8840    1.3755 N   0  0  0  0  0  0  0  0  0  0  0  0
    1.4306    1.3996    1.5398 H   0  0  0  0  0  0  0  0  0  0  0  0
    0.4627    3.2896    1.7440 C   0  0  0  0  0  0  0  0  0  0  0  0
   -0.5207    3.5127    2.1703 H   0  0  0  0  0  0  0  0  0  0  0  0
    1.2241    3.5312    2.4913 H   0  0  0  0  0  0  0  0  0  0  0  0
    0.6210    3.9250    0.8666 H   0  0  0  0  0  0  0  0  0  0  0  0
  1  2  1  0  0  0  0
  2  3  1  0  0  0  0
  2  4  1  0  0  0  0
  2  5  1  0  0  0  0
  5  6  2  0  0  0  0
  5  7  1  0  0  0  0
  7  8  1  0  0  0  0
  7  9  1  0  0  0  0
  9 10  1  0  0  0  0
  9 11  1  0  0  0  0
  9 20  1  0  0  0  0
 11 12  1  0  0  0  0
 11 13  1  0  0  0  0
 11 14  1  0  0  0  0
 14 15  1  0  0  0  0
 14 16  1  0  0  0  0
 14 17  1  0  0  0  0
 17 18  1  0  0  0  0
 17 19  2  0  0  0  0
 20 21  2  0  0  0  0
 20 22  1  0  0  0  0
 22 23  1  0  0  0  0
 22 24  1  0  0  0  0
 24 25  1  0  0  0  0
 24 26  1  0  0  0  0
 24 27  1  0  0  0  0
M  CHG  1  18  -1
M  END
$$$$

  -OEChem-03222214043D

 27 26  0     1  0  0  0  0  0999 V2000
   -3.2274   -3.6208    1.0537 H   0  0  0  0  0  0  0  0  0  0  0  0
   -3.1508   -2.6593    0.5383 C   0  0  0  0  0  0  0  0  0  0  0  0
   -3.8880   -1.9718    0.9605 H   0  0  0  0  0  0  0  0  0  0  0  0
   -3.3694   -2.8095   -0.5220 H   0  0  0  0  0  0  0  0  0  0  0  0
   -1.7549   -2.0847    0.7005 C   0  0  0  0  0  0  0  0  0  0  0  0
   -0.9296   -2.6731    1.3838 O   0  0  0  0  0  0  0  0  0  0  0  0
   -1.4480   -0.8806    0.1065 N   0  0  0  0  0  0  0  0  0  0  0  0
   -2.1851   -0.4019   -0.4070 H   0  0  0  0  0  0  0  0  0  0  0  0
   -0.1347   -0.2216    0.1365 C   0  0  1  0  0  0  0  0  0  0  0  0
    0.4396   -0.6344    0.9713 H   0  0  0  0  0  0  0  0  0  0  0  0
    0.6568   -0.5500   -1.1533 C   0  0  0  0  0  0  0  0  0  0  0  0
    1.5726   -1.0801   -0.8705 H   0  0  0  0  0  0  0  0  0  0  0  0
    0.0733   -1.2365   -1.7768 H   0  0  0  0  0  0  0  0  0  0  0  0
    1.0512    0.6646   -2.0116 C   0  0  0  0  0  0  0  0  0  0  0  0
    0.1562    1.2073   -2.3303 H   0  0  0  0  0  0  0  0  0  0  0  0
    1.6754    1.3512   -1.4316 H   0  0  0  0  0  0  0  0  0  0  0  0
    1.8252    0.2175   -3.2511 C   0  0  0  0  0  0  0  0  0  0  0  0
    3.0760    0.3310   -3.2183 O   0  5  0  0  0  0  0  0  0  0  0  0
    1.1749   -0.2776   -4.2047 O   0  0  0  0  0  0  0  0  0  0  0  0
   -0.2919    1.2843    0.4486 C   0  0  0  0  0  0  0  0  0  0  0  0
   -1.2975    1.8945    0.0940 O   0  0  0  0  0  0  0  0  0  0  0  0
    0.5504    1.8815    1.3694 N   0  0  0  0  0  0  0  0  0  0  0  0
    1.4160    1.3902    1.5697 H   0  0  0  0  0  0  0  0  0  0  0  0
    0.4492    3.2858    1.7395 C   0  0  0  0  0  0  0  0  0  0  0  0
   -0.5205    3.4907    2.2045 H   0  0  0  0  0  0  0  0  0  0  0  0
    1.2359    3.5420    2.4552 H   0  0  0  0  0  0  0  0  0  0  0  0
    0.5612    3.9233    0.8564 H   0  0  0  0  0  0  0  0  0  0  0  0
  1  2  1  0  0  0  0
  2  3  1  0  0  0  0
  2  4  1  0  0  0  0
  2  5  1  0  0  0  0
  5  6  2  0  0  0  0
  5  7  1  0  0  0  0
  7  8  1  0  0  0  0
  7  9  1  0  0  0  0
  9 10  1  0  0  0  0
  9 11  1  0  0  0  0
  9 20  1  0  0  0  0
 11 12  1  0  0  0  0
 11 13  1  0  0  0  0
 11 14  1  0  0  0  0
 14 15  1  0  0  0  0
 14 16  1  0  0  0  0
 14 17  1  0  0  0  0
 17 18  1  0  0  0  0
 17 19  2  0  0  0  0
 20 21  2  0  0  0  0
 20 22  1  0  0  0  0
 22 23  1  0  0  0  0
 22 24  1  0  0  0  0
 24 25  1  0  0  0  0
 24 26  1  0  0  0  0
 24 27  1  0  0  0  0
M  CHG  1  18  -1
M  END
$$$$

  -OEChem-03222214043D

 27 26  0     1  0  0  0  0  0999 V2000
   -3.2378   -3.6165    1.0432 H   0  0  0  0  0  0  0  0  0  0  0  0
   -3.1566   -2.6629    0.5144 C   0  0  0  0  0  0  0  0  0  0  0  0
   -3.9180   -1.9794    0.8980 H   0  0  0  0  0  0  0  0  0  0  0  0
   -3.3350   -2.8343   -0.5503 H   0  0  0  0  0  0  0  0  0  0  0  0
   -1.7756   -2.0653    0.7157 C   0  0  0  0  0  0  0  0  0  0  0  0
   -0.9613   -2.6375    1.4262 O   0  0  0  0  0  0  0  0  0  0  0  0
   -1.4689   -0.8613    0.1211 N   0  0  0  0  0  0  0  0  0  0  0  0
   -2.1905   -0.4116   -0.4388 H   0  0  0  0  0  0  0  0  0  0  0  0
   -0.1545   -0.2045    0.1477 C   0  0  1  0  0  0  0  0  0  0  0  0
    0.4132   -0.6181    0.9865 H   0  0  0  0  0  0  0  0  0  0  0  0
    0.6432   -0.5553   -1.1335 C   0  0  0  0  0  0  0  0  0  0  0  0
    1.5528   -1.0944   -0.8501 H   0  0  0  0  0  0  0  0  0  0  0  0
    0.0457   -1.2451   -1.7398 H   0  0  0  0  0  0  0  0  0  0  0  0
    1.0474    0.6418   -2.0158 C   0  0  0  0  0  0  0  0  0  0  0  0
    0.1952    1.3122   -2.1587 H   0  0  0  0  0  0  0  0  0  0  0  0
    1.8464    1.2106   -1.5307 H   0  0  0  0  0  0  0  0  0  0  0  0
    1.4953    0.1840   -3.4056 C   0  0  0  0  0  0  0  0  0  0  0  0
    2.7086    0.3348   -3.6943 O   0  5  0  0  0  0  0  0  0  0  0  0
    0.6407   -0.3472   -4.1584 O   0  0  0  0  0  0  0  0  0  0  0  0
   -0.2891    1.3036    0.4597 C   0  0  0  0  0  0  0  0  0  0  0  0
   -1.2854    1.9304    0.1097 O   0  0  0  0  0  0  0  0  0  0  0  0
    0.5666    1.8893    1.3760 N   0  0  0  0  0  0  0  0  0  0  0  0
    1.4158    1.3773    1.5920 H   0  0  0  0  0  0  0  0  0  0  0  0
    0.4904    3.2962    1.7427 C   0  0  0  0  0  0  0  0  0  0  0  0
   -0.4852    3.5257    2.1835 H   0  0  0  0  0  0  0  0  0  0  0  0
    1.2650    3.5354    2.4772 H   0  0  0  0  0  0  0  0  0  0  0  0
    0.6389    3.9285    0.8613 H   0  0  0  0  0  0  0  0  0  0  0  0
  1  2  1  0  0  0  0
  2  3  1  0  0  0  0
  2  4  1  0  0  0  0
  2  5  1  0  0  0  0
  5  6  2  0  0  0  0
  5  7  1  0  0  0  0
  7  8  1  0  0  0  0
  7  9  1  0  0  0  0
  9 10  1  0  0  0  0
  9 11  1  0  0  0  0
  9 20  1  0  0  0  0
 11 12  1  0  0  0  0
 11 13  1  0  0  0  0
 11 14  1  0  0  0  0
 14 15  1  0  0  0  0
 14 16  1  0  0  0  0
 14 17  1  0  0  0  0
 17 18  1  0  0  0  0
 17 19  2  0  0  0  0
 20 21  2  0  0  0  0
 20 22  1  0  0  0  0
 22 23  1  0  0  0  0
 22 24  1  0  0  0  0
 24 25  1  0  0  0  0
 24 26  1  0  0  0  0
 24 27  1  0  0  0  0
M  CHG  1  18  -1
M  END
$$$$

  -OEChem-03222214043D

 27 26  0     1  0  0  0  0  0999 V2000
   -3.2263   -3.6165    1.0347 H   0  0  0  0  0  0  0  0  0  0  0  0
   -3.1512   -2.6626    0.5054 C   0  0  0  0  0  0  0  0  0  0  0  0
   -3.9295   -1.9905    0.8753 H   0  0  0  0  0  0  0  0  0  0  0  0
   -3.3100   -2.8384   -0.5617 H   0  0  0  0  0  0  0  0  0  0  0  0
   -1.7830   -2.0429    0.7272 C   0  0  0  0  0  0  0  0  0  0  0  0
   -0.9708   -2.6016    1.4512 O   0  0  0  0  0  0  0  0  0  0  0  0
   -1.4844   -0.8368    0.1327 N   0  0  0  0  0  0  0  0  0  0  0  0
   -2.1947   -0.4149   -0.4625 H   0  0  0  0  0  0  0  0  0  0  0  0
   -0.1719   -0.1761    0.1521 C   0  0  1  0  0  0  0  0  0  0  0  0
    0.3914   -0.5865    0.9951 H   0  0  0  0  0  0  0  0  0  0  0  0
    0.6323   -0.5526   -1.1192 C   0  0  0  0  0  0  0  0  0  0  0  0
    1.5395   -1.0880   -0.8217 H   0  0  0  0  0  0  0  0  0  0  0  0
    0.0341   -1.2622   -1.7015 H   0  0  0  0  0  0  0  0  0  0  0  0
    1.0480    0.6144   -2.0425 C   0  0  0  0  0  0  0  0  0  0  0  0
    0.3020    1.4122   -2.0233 H   0  0  0  0  0  0  0  0  0  0  0  0
    1.9975    1.0377   -1.7011 H   0  0  0  0  0  0  0  0  0  0  0  0
    1.1484    0.1721   -3.5049 C   0  0  0  0  0  0  0  0  0  0  0  0
    2.2872    0.2031   -4.0339 O   0  5  0  0  0  0  0  0  0  0  0  0
    0.1035   -0.2270   -4.0784 O   0  0  0  0  0  0  0  0  0  0  0  0
   -0.2930    1.3324    0.4668 C   0  0  0  0  0  0  0  0  0  0  0  0
   -1.2887    1.9680    0.1331 O   0  0  0  0  0  0  0  0  0  0  0  0
    0.5757    1.9094    1.3767 N   0  0  0  0  0  0  0  0  0  0  0  0
    1.4190    1.3878    1.5924 H   0  0  0  0  0  0  0  0  0  0  0  0
    0.5031    3.3104    1.7666 C   0  0  0  0  0  0  0  0  0  0  0  0
   -0.4571    3.5257    2.2465 H   0  0  0  0  0  0  0  0  0  0  0  0
    1.3026    3.5445    2.4757 H   0  0  0  0  0  0  0  0  0  0  0  0
    0.6151    3.9574    0.8904 H   0  0  0  0  0  0  0  0  0  0  0  0
  1  2  1  0  0  0  0
  2  3  1  0  0  0  0
  2  4  1  0  0  0  0
  2  5  1  0  0  0  0
  5  6  2  0  0  0  0
  5  7  1  0  0  0  0
  7  8  1  0  0  0  0
  7  9  1  0  0  0  0
  9 10  1  0  0  0  0
  9 11  1  0  0  0  0
  9 20  1  0  0  0  0
 11 12  1  0  0  0  0
 11 13  1  0  0  0  0
 11 14  1  0  0  0  0
 14 15  1  0  0  0  0
 14 16  1  0  0  0  0
 14 17  1  0  0  0  0
 17 18  1  0  0  0  0
 17 19  2  0  0  0  0
 20 21  2  0  0  0  0
 20 22  1  0  0  0  0
 22 23  1  0  0  0  0
 22 24  1  0  0  0  0
 24 25  1  0  0  0  0
 24 26  1  0  0  0  0
 24 27  1  0  0  0  0
M  CHG  1  18  -1
M  END
$$$$

  -OEChem-03222214043D

 27 26  0     1  0  0  0  0  0999 V2000
   -3.2139   -3.6169    1.0155 H   0  0  0  0  0  0  0  0  0  0  0  0
   -3.1419   -2.6615    0.4885 C   0  0  0  0  0  0  0  0  0  0  0  0
   -3.9412   -2.0032    0.8377 H   0  0  0  0  0  0  0  0  0  0  0  0
   -3.2699   -2.8394   -0.5825 H   0  0  0  0  0  0  0  0  0  0  0  0
   -1.7913   -2.0174    0.7457 C   0  0  0  0  0  0  0  0  0  0  0  0
   -0.9879   -2.5613    1.4911 O   0  0  0  0  0  0  0  0  0  0  0  0
   -1.4964   -0.8102    0.1520 N   0  0  0  0  0  0  0  0  0  0  0  0
   -2.1879   -0.4203   -0.4863 H   0  0  0  0  0  0  0  0  0  0  0  0
   -0.1842   -0.1495    0.1673 C   0  0  1  0  0  0  0  0  0  0  0  0
    0.3775   -0.5588    1.0119 H   0  0  0  0  0  0  0  0  0  0  0  0
    0.6116   -0.5533   -1.1030 C   0  0  0  0  0  0  0  0  0  0  0  0
    1.5198   -1.0758   -0.7867 H   0  0  0  0  0  0  0  0  0  0  0  0
    0.0224   -1.2925   -1.6566 H   0  0  0  0  0  0  0  0  0  0  0  0
    1.0415    0.5789   -2.0702 C   0  0  0  0  0  0  0  0  0  0  0  0
    0.4903    1.5024   -1.8884 H   0  0  0  0  0  0  0  0  0  0  0  0
    2.1027    0.7987   -1.9186 H   0  0  0  0  0  0  0  0  0  0  0  0
    0.7817    0.2186   -3.5375 C   0  0  0  0  0  0  0  0  0  0  0  0
    1.7635    0.2700   -4.3194 O   0  5  0  0  0  0  0  0  0  0  0  0
   -0.3794   -0.1314   -3.8704 O   0  0  0  0  0  0  0  0  0  0  0  0
   -0.2950    1.3594    0.4846 C   0  0  0  0  0  0  0  0  0  0  0  0
   -1.2820    2.0078    0.1515 O   0  0  0  0  0  0  0  0  0  0  0  0
    0.5824    1.9291    1.3912 N   0  0  0  0  0  0  0  0  0  0  0  0
    1.4127    1.3930    1.6204 H   0  0  0  0  0  0  0  0  0  0  0  0
    0.5219    3.3292    1.7868 C   0  0  0  0  0  0  0  0  0  0  0  0
   -0.4379    3.5515    2.2643 H   0  0  0  0  0  0  0  0  0  0  0  0
    1.3213    3.5530    2.4993 H   0  0  0  0  0  0  0  0  0  0  0  0
    0.6426    3.9787    0.9136 H   0  0  0  0  0  0  0  0  0  0  0  0
  1  2  1  0  0  0  0
  2  3  1  0  0  0  0
  2  4  1  0  0  0  0
  2  5  1  0  0  0  0
  5  6  2  0  0  0  0
  5  7  1  0  0  0  0
  7  8  1  0  0  0  0
  7  9  1  0  0  0  0
  9 10  1  0  0  0  0
  9 11  1  0  0  0  0
  9 20  1  0  0  0  0
 11 12  1  0  0  0  0
 11 13  1  0  0  0  0
 11 14  1  0  0  0  0
 14 15  1  0  0  0  0
 14 16  1  0  0  0  0
 14 17  1  0  0  0  0
 17 18  1  0  0  0  0
 17 19  2  0  0  0  0
 20 21  2  0  0  0  0
 20 22  1  0  0  0  0
 22 23  1  0  0  0  0
 22 24  1  0  0  0  0
 24 25  1  0  0  0  0
 24 26  1  0  0  0  0
 24 27  1  0  0  0  0
M  CHG  1  18  -1
M  END
$$$$

  -OEChem-03222214043D

 27 26  0     1  0  0  0  0  0999 V2000
   -3.0463   -3.7210    1.0114 H   0  0  0  0  0  0  0  0  0  0  0  0
   -3.0143   -2.7622    0.4870 C   0  0  0  0  0  0  0  0  0  0  0  0
   -3.8398   -2.1382    0.8384 H   0  0  0  0  0  0  0  0  0  0  0  0
   -3.1354   -2.9416   -0.5845 H   0  0  0  0  0  0  0  0  0  0  0  0
   -1.6916   -2.0633    0.7454 C   0  0  0  0  0  0  0  0  0  0  0  0
   -0.8616   -2.5792    1.4822 O   0  0  0  0  0  0  0  0  0  0  0  0
   -1.4512   -0.8398    0.1617 N   0  0  0  0  0  0  0  0  0  0  0  0
   -2.1522   -0.4857   -0.4886 H   0  0  0  0  0  0  0  0  0  0  0  0
   -0.1670   -0.1280    0.1660 C   0  0  1  0  0  0  0  0  0  0  0  0
    0.4202   -0.5223    1.0001 H   0  0  0  0  0  0  0  0  0  0  0  0
    0.6189   -0.5056   -1.1185 C   0  0  0  0  0  0  0  0  0  0  0  0
    1.5568   -0.9692   -0.7972 H   0  0  0  0  0  0  0  0  0  0  0  0
    0.0751   -1.2892   -1.6581 H   0  0  0  0  0  0  0  0  0  0  0  0
    0.9966    0.6305   -2.1028 C   0  0  0  0  0  0  0  0  0  0  0  0
    0.6693    1.6122   -1.7600 H   0  0  0  0  0  0  0  0  0  0  0  0
    2.0864    0.6708   -2.1933 H   0  0  0  0  0  0  0  0  0  0  0  0
    0.3850    0.3978   -3.4892 C   0  0  0  0  0  0  0  0  0  0  0  0
   -0.8517    0.1820   -3.5644 O   0  5  0  0  0  0  0  0  0  0  0  0
    1.1674    0.4190   -4.4717 O   0  0  0  0  0  0  0  0  0  0  0  0
   -0.3312    1.3724    0.5010 C   0  0  0  0  0  0  0  0  0  0  0  0
   -1.3484    1.9881    0.2011 O   0  0  0  0  0  0  0  0  0  0  0  0
    0.5389    1.9625    1.4018 N   0  0  0  0  0  0  0  0  0  0  0  0
    1.3872    1.4515    1.6209 H   0  0  0  0  0  0  0  0  0  0  0  0
    0.4217    3.3480    1.8339 C   0  0  0  0  0  0  0  0  0  0  0  0
   -0.5314    3.5091    2.3480 H   0  0  0  0  0  0  0  0  0  0  0  0
    1.2328    3.5960    2.5247 H   0  0  0  0  0  0  0  0  0  0  0  0
    0.4790    4.0227    0.9736 H   0  0  0  0  0  0  0  0  0  0  0  0
  1  2  1  0  0  0  0
  2  3  1  0  0  0  0
  2  4  1  0  0  0  0
  2  5  1  0  0  0  0
  5  6  2  0  0  0  0
  5  7  1  0  0  0  0
  7  8  1  0  0  0  0
  7  9  1  0  0  0  0
  9 10  1  0  0  0  0
  9 11  1  0  0  0  0
  9 20  1  0  0  0  0
 11 12  1  0  0  0  0
 11 13  1  0  0  0  0
 11 14  1  0  0  0  0
 14 15  1  0  0  0  0
 14 16  1  0  0  0  0
 14 17  1  0  0  0  0
 17 18  1  0  0  0  0
 17 19  2  0  0  0  0
 20 21  2  0  0  0  0
 20 22  1  0  0  0  0
 22 23  1  0  0  0  0
 22 24  1  0  0  0  0
 24 25  1  0  0  0  0
 24 26  1  0  0  0  0
 24 27  1  0  0  0  0
M  CHG  1  18  -1
M  END
$$$$

  -OEChem-03222214043D

 27 26  0     1  0  0  0  0  0999 V2000
   -3.0687   -3.7036    1.0014 H   0  0  0  0  0  0  0  0  0  0  0  0
   -3.0270   -2.7456    0.4763 C   0  0  0  0  0  0  0  0  0  0  0  0
   -3.8579   -2.1204    0.8122 H   0  0  0  0  0  0  0  0  0  0  0  0
   -3.1294   -2.9258   -0.5970 H   0  0  0  0  0  0  0  0  0  0  0  0
   -1.7092   -2.0459    0.7563 C   0  0  0  0  0  0  0  0  0  0  0  0
   -0.8931   -2.5583    1.5116 O   0  0  0  0  0  0  0  0  0  0  0  0
   -1.4556   -0.8291    0.1654 N   0  0  0  0  0  0  0  0  0  0  0  0
   -2.1308   -0.4947   -0.5239 H   0  0  0  0  0  0  0  0  0  0  0  0
   -0.1684   -0.1252    0.1747 C   0  0  1  0  0  0  0  0  0  0  0  0
    0.4111   -0.5183    1.0145 H   0  0  0  0  0  0  0  0  0  0  0  0
    0.6099   -0.5261   -1.1063 C   0  0  0  0  0  0  0  0  0  0  0  0
    1.5513   -0.9694   -0.7674 H   0  0  0  0  0  0  0  0  0  0  0  0
    0.0851   -1.3275   -1.6385 H   0  0  0  0  0  0  0  0  0  0  0  0
    0.9908    0.6021   -2.0945 C   0  0  0  0  0  0  0  0  0  0  0  0
    0.9633    1.5927   -1.6391 H   0  0  0  0  0  0  0  0  0  0  0  0
    2.0225    0.4331   -2.4179 H   0  0  0  0  0  0  0  0  0  0  0  0
    0.1007    0.5923   -3.3459 C   0  0  0  0  0  0  0  0  0  0  0  0
   -1.1051    0.2503   -3.2276 O   0  5  0  0  0  0  0  0  0  0  0  0
    0.6475    0.9117   -4.4307 O   0  0  0  0  0  0  0  0  0  0  0  0
   -0.3205    1.3802    0.4956 C   0  0  0  0  0  0  0  0  0  0  0  0
   -1.3313    2.0062    0.1980 O   0  0  0  0  0  0  0  0  0  0  0  0
    0.5515    1.9649    1.3989 N   0  0  0  0  0  0  0  0  0  0  0  0
    1.3925    1.4461    1.6258 H   0  0  0  0  0  0  0  0  0  0  0  0
    0.4369    3.3479    1.8400 C   0  0  0  0  0  0  0  0  0  0  0  0
   -0.5194    3.5095    2.3480 H   0  0  0  0  0  0  0  0  0  0  0  0
    1.2433    3.5876    2.5392 H   0  0  0  0  0  0  0  0  0  0  0  0
    0.5037    4.0289    0.9852 H   0  0  0  0  0  0  0  0  0  0  0  0
  1  2  1  0  0  0  0
  2  3  1  0  0  0  0
  2  4  1  0  0  0  0
  2  5  1  0  0  0  0
  5  6  2  0  0  0  0
  5  7  1  0  0  0  0
  7  8  1  0  0  0  0
  7  9  1  0  0  0  0
  9 10  1  0  0  0  0
  9 11  1  0  0  0  0
  9 20  1  0  0  0  0
 11 12  1  0  0  0  0
 11 13  1  0  0  0  0
 11 14  1  0  0  0  0
 14 15  1  0  0  0  0
 14 16  1  0  0  0  0
 14 17  1  0  0  0  0
 17 18  1  0  0  0  0
 17 19  2  0  0  0  0
 20 21  2  0  0  0  0
 20 22  1  0  0  0  0
 22 23  1  0  0  0  0
 22 24  1  0  0  0  0
 24 25  1  0  0  0  0
 24 26  1  0  0  0  0
 24 27  1  0  0  0  0
M  CHG  1  18  -1
M  END
$$$$

  -OEChem-03222214043D

 27 26  0     1  0  0  0  0  0999 V2000
   -3.0902   -3.6967    1.0121 H   0  0  0  0  0  0  0  0  0  0  0  0
   -3.0432   -2.7410    0.4832 C   0  0  0  0  0  0  0  0  0  0  0  0
   -3.8768   -2.1141    0.8090 H   0  0  0  0  0  0  0  0  0  0  0  0
   -3.1368   -2.9253   -0.5903 H   0  0  0  0  0  0  0  0  0  0  0  0
   -1.7274   -2.0409    0.7717 C   0  0  0  0  0  0  0  0  0  0  0  0
   -0.9178   -2.5517    1.5356 O   0  0  0  0  0  0  0  0  0  0  0  0
   -1.4658   -0.8299    0.1733 N   0  0  0  0  0  0  0  0  0  0  0  0
   -2.1259   -0.5073   -0.5376 H   0  0  0  0  0  0  0  0  0  0  0  0
   -0.1778   -0.1298    0.1828 C   0  0  1  0  0  0  0  0  0  0  0  0
    0.3951   -0.5194    1.0285 H   0  0  0  0  0  0  0  0  0  0  0  0
    0.6032   -0.5459   -1.0896 C   0  0  0  0  0  0  0  0  0  0  0  0
    1.5449   -0.9840   -0.7455 H   0  0  0  0  0  0  0  0  0  0  0  0
    0.0815   -1.3476   -1.6243 H   0  0  0  0  0  0  0  0  0  0  0  0
    0.9788    0.5849   -2.0709 C   0  0  0  0  0  0  0  0  0  0  0  0
    1.2124    1.5167   -1.5517 H   0  0  0  0  0  0  0  0  0  0  0  0
    1.8868    0.2792   -2.5986 H   0  0  0  0  0  0  0  0  0  0  0  0
   -0.1025    0.8316   -3.1364 C   0  0  0  0  0  0  0  0  0  0  0  0
   -1.2335    0.2918   -3.0051 O   0  5  0  0  0  0  0  0  0  0  0  0
    0.2416    1.5326   -4.1199 O   0  0  0  0  0  0  0  0  0  0  0  0
   -0.3153    1.3805    0.4903 C   0  0  0  0  0  0  0  0  0  0  0  0
   -1.3243    2.0126    0.2021 O   0  0  0  0  0  0  0  0  0  0  0  0
    0.5627    1.9600    1.3915 N   0  0  0  0  0  0  0  0  0  0  0  0
    1.4038    1.4379    1.6095 H   0  0  0  0  0  0  0  0  0  0  0  0
    0.4687    3.3498    1.8164 C   0  0  0  0  0  0  0  0  0  0  0  0
   -0.4931    3.5372    2.3050 H   0  0  0  0  0  0  0  0  0  0  0  0
    1.2671    3.5798    2.5278 H   0  0  0  0  0  0  0  0  0  0  0  0
    0.5656    4.0195    0.9557 H   0  0  0  0  0  0  0  0  0  0  0  0
  1  2  1  0  0  0  0
  2  3  1  0  0  0  0
  2  4  1  0  0  0  0
  2  5  1  0  0  0  0
  5  6  2  0  0  0  0
  5  7  1  0  0  0  0
  7  8  1  0  0  0  0
  7  9  1  0  0  0  0
  9 10  1  0  0  0  0
  9 11  1  0  0  0  0
  9 20  1  0  0  0  0
 11 12  1  0  0  0  0
 11 13  1  0  0  0  0
 11 14  1  0  0  0  0
 14 15  1  0  0  0  0
 14 16  1  0  0  0  0
 14 17  1  0  0  0  0
 17 18  1  0  0  0  0
 17 19  2  0  0  0  0
 20 21  2  0  0  0  0
 20 22  1  0  0  0  0
 22 23  1  0  0  0  0
 22 24  1  0  0  0  0
 24 25  1  0  0  0  0
 24 26  1  0  0  0  0
 24 27  1  0  0  0  0
M  CHG  1  18  -1
M  END
$$$$

  -OEChem-03222214043D

 27 26  0     1  0  0  0  0  0999 V2000
   -3.1131   -3.6826    1.0497 H   0  0  0  0  0  0  0  0  0  0  0  0
   -3.0627   -2.7298    0.5159 C   0  0  0  0  0  0  0  0  0  0  0  0
   -3.8833   -2.0907    0.8514 H   0  0  0  0  0  0  0  0  0  0  0  0
   -3.1746   -2.9174   -0.5552 H   0  0  0  0  0  0  0  0  0  0  0  0
   -1.7347   -2.0443    0.7812 C   0  0  0  0  0  0  0  0  0  0  0  0
   -0.9141   -2.5675    1.5247 O   0  0  0  0  0  0  0  0  0  0  0  0
   -1.4732   -0.8350    0.1801 N   0  0  0  0  0  0  0  0  0  0  0  0
   -2.1497   -0.4945   -0.5063 H   0  0  0  0  0  0  0  0  0  0  0  0
   -0.1860   -0.1343    0.1797 C   0  0  1  0  0  0  0  0  0  0  0  0
    0.3830   -0.5197    1.0299 H   0  0  0  0  0  0  0  0  0  0  0  0
    0.6098   -0.5561   -1.0806 C   0  0  0  0  0  0  0  0  0  0  0  0
    1.5481   -1.0013   -0.7358 H   0  0  0  0  0  0  0  0  0  0  0  0
    0.0791   -1.3470   -1.6222 H   0  0  0  0  0  0  0  0  0  0  0  0
    0.9819    0.5726   -2.0610 C   0  0  0  0  0  0  0  0  0  0  0  0
    1.4294    1.4144   -1.5257 H   0  0  0  0  0  0  0  0  0  0  0  0
    1.7366    0.1871   -2.7521 H   0  0  0  0  0  0  0  0  0  0  0  0
   -0.2060    1.0634   -2.9050 C   0  0  0  0  0  0  0  0  0  0  0  0
   -1.2660    0.3820   -2.9247 O   0  5  0  0  0  0  0  0  0  0  0  0
    0.0022    2.0804   -3.6113 O   0  0  0  0  0  0  0  0  0  0  0  0
   -0.3144    1.3777    0.4838 C   0  0  0  0  0  0  0  0  0  0  0  0
   -1.3434    1.9961    0.2411 O   0  0  0  0  0  0  0  0  0  0  0  0
    0.5738    1.9554    1.3765 N   0  0  0  0  0  0  0  0  0  0  0  0
    1.4312    1.4464    1.5582 H   0  0  0  0  0  0  0  0  0  0  0  0
    0.4823    3.3457    1.8008 C   0  0  0  0  0  0  0  0  0  0  0  0
   -0.4770    3.5345    2.2937 H   0  0  0  0  0  0  0  0  0  0  0  0
    1.2837    3.5761    2.5088 H   0  0  0  0  0  0  0  0  0  0  0  0
    0.5756    4.0148    0.9390 H   0  0  0  0  0  0  0  0  0  0  0  0
  1  2  1  0  0  0  0
  2  3  1  0  0  0  0
  2  4  1  0  0  0  0
  2  5  1  0  0  0  0
  5  6  2  0  0  0  0
  5  7  1  0  0  0  0
  7  8  1  0  0  0  0
  7  9  1  0  0  0  0
  9 10  1  0  0  0  0
  9 11  1  0  0  0  0
  9 20  1  0  0  0  0
 11 12  1  0  0  0  0
 11 13  1  0  0  0  0
 11 14  1  0  0  0  0
 14 15  1  0  0  0  0
 14 16  1  0  0  0  0
 14 17  1  0  0  0  0
 17 18  1  0  0  0  0
 17 19  2  0  0  0  0
 20 21  2  0  0  0  0
 20 22  1  0  0  0  0
 22 23  1  0  0  0  0
 22 24  1  0  0  0  0
 24 25  1  0  0  0  0
 24 26  1  0  0  0  0
 24 27  1  0  0  0  0
M  CHG  1  18  -1
M  END
$$$$

  -OEChem-03222214043D

 27 26  0     1  0  0  0  0  0999 V2000
   -3.1252   -3.6735    1.0986 H   0  0  0  0  0  0  0  0  0  0  0  0
   -3.0844   -2.7192    0.5667 C   0  0  0  0  0  0  0  0  0  0  0  0
   -3.8785   -2.0696    0.9431 H   0  0  0  0  0  0  0  0  0  0  0  0
   -3.2491   -2.9002   -0.4986 H   0  0  0  0  0  0  0  0  0  0  0  0
   -1.7340   -2.0564    0.7728 C   0  0  0  0  0  0  0  0  0  0  0  0
   -0.8829   -2.6069    1.4596 O   0  0  0  0  0  0  0  0  0  0  0  0
   -1.4860   -0.8388    0.1820 N   0  0  0  0  0  0  0  0  0  0  0  0
   -2.2019   -0.4572   -0.4390 H   0  0  0  0  0  0  0  0  0  0  0  0
   -0.2034   -0.1279    0.1661 C   0  0  1  0  0  0  0  0  0  0  0  0
    0.3602   -0.5088    1.0221 H   0  0  0  0  0  0  0  0  0  0  0  0
    0.6277   -0.5470   -1.0731 C   0  0  0  0  0  0  0  0  0  0  0  0
    1.5578   -0.9997   -0.7164 H   0  0  0  0  0  0  0  0  0  0  0  0
    0.0907   -1.3292   -1.6207 H   0  0  0  0  0  0  0  0  0  0  0  0
    1.0077    0.5616   -2.0721 C   0  0  0  0  0  0  0  0  0  0  0  0
    1.6356    1.3016   -1.5673 H   0  0  0  0  0  0  0  0  0  0  0  0
    1.5994    0.1178   -2.8775 H   0  0  0  0  0  0  0  0  0  0  0  0
   -0.1956    1.2735   -2.7035 C   0  0  0  0  0  0  0  0  0  0  0  0
   -1.2525    0.6116   -2.8769 O   0  5  0  0  0  0  0  0  0  0  0  0
   -0.0046    2.4438   -3.1154 O   0  0  0  0  0  0  0  0  0  0  0  0
   -0.3315    1.3808    0.4882 C   0  0  0  0  0  0  0  0  0  0  0  0
   -1.3989    1.9655    0.3464 O   0  0  0  0  0  0  0  0  0  0  0  0
    0.5745    1.9486    1.3694 N   0  0  0  0  0  0  0  0  0  0  0  0
    1.4672    1.4769    1.4574 H   0  0  0  0  0  0  0  0  0  0  0  0
    0.4763    3.3318    1.8156 C   0  0  0  0  0  0  0  0  0  0  0  0
   -0.4435    3.4848    2.3892 H   0  0  0  0  0  0  0  0  0  0  0  0
    1.3273    3.5818    2.4557 H   0  0  0  0  0  0  0  0  0  0  0  0
    0.4757    4.0109    0.9565 H   0  0  0  0  0  0  0  0  0  0  0  0
  1  2  1  0  0  0  0
  2  3  1  0  0  0  0
  2  4  1  0  0  0  0
  2  5  1  0  0  0  0
  5  6  2  0  0  0  0
  5  7  1  0  0  0  0
  7  8  1  0  0  0  0
  7  9  1  0  0  0  0
  9 10  1  0  0  0  0
  9 11  1  0  0  0  0
  9 20  1  0  0  0  0
 11 12  1  0  0  0  0
 11 13  1  0  0  0  0
 11 14  1  0  0  0  0
 14 15  1  0  0  0  0
 14 16  1  0  0  0  0
 14 17  1  0  0  0  0
 17 18  1  0  0  0  0
 17 19  2  0  0  0  0
 20 21  2  0  0  0  0
 20 22  1  0  0  0  0
 22 23  1  0  0  0  0
 22 24  1  0  0  0  0
 24 25  1  0  0  0  0
 24 26  1  0  0  0  0
 24 27  1  0  0  0  0
M  CHG  1  18  -1
M  END
$$$$

  -OEChem-03222214043D

 27 26  0     1  0  0  0  0  0999 V2000
   -3.1282   -3.6529    1.1862 H   0  0  0  0  0  0  0  0  0  0  0  0
   -3.0978   -2.6980    0.6544 C   0  0  0  0  0  0  0  0  0  0  0  0
   -3.8360   -2.0236    1.0957 H   0  0  0  0  0  0  0  0  0  0  0  0
   -3.3541   -2.8684   -0.3943 H   0  0  0  0  0  0  0  0  0  0  0  0
   -1.7132   -2.0829    0.7522 C   0  0  0  0  0  0  0  0  0  0  0  0
   -0.8206   -2.6813    1.3386 O   0  0  0  0  0  0  0  0  0  0  0  0
   -1.4819   -0.8529    0.1805 N   0  0  0  0  0  0  0  0  0  0  0  0
   -2.2560   -0.3930   -0.2998 H   0  0  0  0  0  0  0  0  0  0  0  0
   -0.2032   -0.1336    0.1510 C   0  0  1  0  0  0  0  0  0  0  0  0
    0.3667   -0.5160    1.0026 H   0  0  0  0  0  0  0  0  0  0  0  0
    0.6447   -0.5359   -1.0859 C   0  0  0  0  0  0  0  0  0  0  0  0
    1.5649   -1.0091   -0.7295 H   0  0  0  0  0  0  0  0  0  0  0  0
    0.0923   -1.3050   -1.6361 H   0  0  0  0  0  0  0  0  0  0  0  0
    1.0449    0.5430   -2.1120 C   0  0  0  0  0  0  0  0  0  0  0  0
    1.8584    1.1353   -1.6822 H   0  0  0  0  0  0  0  0  0  0  0  0
    1.4355    0.0498   -3.0063 H   0  0  0  0  0  0  0  0  0  0  0  0
   -0.0684    1.5007   -2.5385 C   0  0  0  0  0  0  0  0  0  0  0  0
   -1.1605    0.9949   -2.9004 O   0  5  0  0  0  0  0  0  0  0  0  0
    0.2154    2.7226   -2.5886 O   0  0  0  0  0  0  0  0  0  0  0  0
   -0.3574    1.3656    0.5073 C   0  0  0  0  0  0  0  0  0  0  0  0
   -1.4655    1.8906    0.4606 O   0  0  0  0  0  0  0  0  0  0  0  0
    0.5535    1.9341    1.3829 N   0  0  0  0  0  0  0  0  0  0  0  0
    1.4820    1.5282    1.3658 H   0  0  0  0  0  0  0  0  0  0  0  0
    0.4239    3.3100    1.8441 C   0  0  0  0  0  0  0  0  0  0  0  0
   -0.4785    3.4277    2.4527 H   0  0  0  0  0  0  0  0  0  0  0  0
    1.2892    3.5846    2.4542 H   0  0  0  0  0  0  0  0  0  0  0  0
    0.3679    3.9948    0.9911 H   0  0  0  0  0  0  0  0  0  0  0  0
  1  2  1  0  0  0  0
  2  3  1  0  0  0  0
  2  4  1  0  0  0  0
  2  5  1  0  0  0  0
  5  6  2  0  0  0  0
  5  7  1  0  0  0  0
  7  8  1  0  0  0  0
  7  9  1  0  0  0  0
  9 10  1  0  0  0  0
  9 11  1  0  0  0  0
  9 20  1  0  0  0  0
 11 12  1  0  0  0  0
 11 13  1  0  0  0  0
 11 14  1  0  0  0  0
 14 15  1  0  0  0  0
 14 16  1  0  0  0  0
 14 17  1  0  0  0  0
 17 18  1  0  0  0  0
 17 19  2  0  0  0  0
 20 21  2  0  0  0  0
 20 22  1  0  0  0  0
 22 23  1  0  0  0  0
 22 24  1  0  0  0  0
 24 25  1  0  0  0  0
 24 26  1  0  0  0  0
 24 27  1  0  0  0  0
M  CHG  1  18  -1
M  END
$$$$

  -OEChem-03222214043D

 27 26  0     1  0  0  0  0  0999 V2000
   -3.1368   -3.5539    1.4617 H   0  0  0  0  0  0  0  0  0  0  0  0
   -3.1103   -2.6287    0.8796 C   0  0  0  0  0  0  0  0  0  0  0  0
   -3.7944   -1.9068    1.3326 H   0  0  0  0  0  0  0  0  0  0  0  0
   -3.4425   -2.8423   -0.1394 H   0  0  0  0  0  0  0  0  0  0  0  0
   -1.7019   -2.0617    0.8540 C   0  0  0  0  0  0  0  0  0  0  0  0
   -0.7898   -2.6746    1.3924 O   0  0  0  0  0  0  0  0  0  0  0  0
   -1.4698   -0.8590    0.2263 N   0  0  0  0  0  0  0  0  0  0  0  0
   -2.2740   -0.3418   -0.1299 H   0  0  0  0  0  0  0  0  0  0  0  0
   -0.1874   -0.1431    0.1791 C   0  0  1  0  0  0  0  0  0  0  0  0
    0.3804   -0.4774    1.0524 H   0  0  0  0  0  0  0  0  0  0  0  0
    0.6719   -0.5951   -1.0375 C   0  0  0  0  0  0  0  0  0  0  0  0
    1.5727   -1.0796   -0.6480 H   0  0  0  0  0  0  0  0  0  0  0  0
    0.1038   -1.3761   -1.5537 H   0  0  0  0  0  0  0  0  0  0  0  0
    1.1241    0.3918   -2.1391 C   0  0  0  0  0  0  0  0  0  0  0  0
    2.0998    0.7880   -1.8417 H   0  0  0  0  0  0  0  0  0  0  0  0
    1.2793   -0.1700   -3.0647 H   0  0  0  0  0  0  0  0  0  0  0  0
    0.2271    1.5860   -2.4531 C   0  0  0  0  0  0  0  0  0  0  0  0
   -0.8450    1.3635   -3.0661 O   0  5  0  0  0  0  0  0  0  0  0  0
    0.6580    2.7221   -2.1326 O   0  0  0  0  0  0  0  0  0  0  0  0
   -0.3948    1.3648    0.4702 C   0  0  0  0  0  0  0  0  0  0  0  0
   -1.5337    1.8244    0.4082 O   0  0  0  0  0  0  0  0  0  0  0  0
    0.4788    2.0013    1.3362 N   0  0  0  0  0  0  0  0  0  0  0  0
    1.4358    1.6735    1.2713 H   0  0  0  0  0  0  0  0  0  0  0  0
    0.2902    3.4006    1.6955 C   0  0  0  0  0  0  0  0  0  0  0  0
   -0.6270    3.5283    2.2792 H   0  0  0  0  0  0  0  0  0  0  0  0
    1.1335    3.7504    2.2977 H   0  0  0  0  0  0  0  0  0  0  0  0
    0.2262    4.0196    0.7940 H   0  0  0  0  0  0  0  0  0  0  0  0
  1  2  1  0  0  0  0
  2  3  1  0  0  0  0
  2  4  1  0  0  0  0
  2  5  1  0  0  0  0
  5  6  2  0  0  0  0
  5  7  1  0  0  0  0
  7  8  1  0  0  0  0
  7  9  1  0  0  0  0
  9 10  1  0  0  0  0
  9 11  1  0  0  0  0
  9 20  1  0  0  0  0
 11 12  1  0  0  0  0
 11 13  1  0  0  0  0
 11 14  1  0  0  0  0
 14 15  1  0  0  0  0
 14 16  1  0  0  0  0
 14 17  1  0  0  0  0
 17 18  1  0  0  0  0
 17 19  2  0  0  0  0
 20 21  2  0  0  0  0
 20 22  1  0  0  0  0
 22 23  1  0  0  0  0
 22 24  1  0  0  0  0
 24 25  1  0  0  0  0
 24 26  1  0  0  0  0
 24 27  1  0  0  0  0
M  CHG  1  18  -1
M  END
$$$$

  -OEChem-03222214043D

 27 26  0     1  0  0  0  0  0999 V2000
   -3.4331   -3.4257    1.1255 H   0  0  0  0  0  0  0  0  0  0  0  0
   -3.3042   -2.4851    0.5832 C   0  0  0  0  0  0  0  0  0  0  0  0
   -3.9667   -1.7327    1.0184 H   0  0  0  0  0  0  0  0  0  0  0  0
   -3.5798   -2.6394   -0.4631 H   0  0  0  0  0  0  0  0  0  0  0  0
   -1.8622   -2.0179    0.6724 C   0  0  0  0  0  0  0  0  0  0  0  0
   -1.0385   -2.6959    1.2711 O   0  0  0  0  0  0  0  0  0  0  0  0
   -1.5035   -0.8265    0.0840 N   0  0  0  0  0  0  0  0  0  0  0  0
   -2.2508   -0.2362   -0.2828 H   0  0  0  0  0  0  0  0  0  0  0  0
   -0.1942   -0.1684    0.2111 C   0  0  1  0  0  0  0  0  0  0  0  0
    0.2568   -0.5241    1.1425 H   0  0  0  0  0  0  0  0  0  0  0  0
    0.7742   -0.6442   -0.9159 C   0  0  0  0  0  0  0  0  0  0  0  0
    1.5925   -1.1806   -0.4255 H   0  0  0  0  0  0  0  0  0  0  0  0
    0.2322   -1.3960   -1.4990 H   0  0  0  0  0  0  0  0  0  0  0  0
    1.4276    0.2980   -1.9622 C   0  0  0  0  0  0  0  0  0  0  0  0
    2.4842    0.3974   -1.6954 H   0  0  0  0  0  0  0  0  0  0  0  0
    1.4018   -0.2055   -2.9333 H   0  0  0  0  0  0  0  0  0  0  0  0
    0.8905    1.7119   -2.1583 C   0  0  0  0  0  0  0  0  0  0  0  0
   -0.0019    1.8937   -3.0203 O   0  5  0  0  0  0  0  0  0  0  0  0
    1.4371    2.6175   -1.4775 O   0  0  0  0  0  0  0  0  0  0  0  0
   -0.4259    1.3422    0.4795 C   0  0  0  0  0  0  0  0  0  0  0  0
   -1.5453    1.8070    0.2585 O   0  0  0  0  0  0  0  0  0  0  0  0
    0.3242    1.9665    1.4614 N   0  0  0  0  0  0  0  0  0  0  0  0
    1.3023    1.6976    1.4341 H   0  0  0  0  0  0  0  0  0  0  0  0
    0.0612    3.3523    1.8261 C   0  0  0  0  0  0  0  0  0  0  0  0
   -0.9336    3.4524    2.2718 H   0  0  0  0  0  0  0  0  0  0  0  0
    0.8011    3.6947    2.5552 H   0  0  0  0  0  0  0  0  0  0  0  0
    0.1203    3.9965    0.9420 H   0  0  0  0  0  0  0  0  0  0  0  0
  1  2  1  0  0  0  0
  2  3  1  0  0  0  0
  2  4  1  0  0  0  0
  2  5  1  0  0  0  0
  5  6  2  0  0  0  0
  5  7  1  0  0  0  0
  7  8  1  0  0  0  0
  7  9  1  0  0  0  0
  9 10  1  0  0  0  0
  9 11  1  0  0  0  0
  9 20  1  0  0  0  0
 11 12  1  0  0  0  0
 11 13  1  0  0  0  0
 11 14  1  0  0  0  0
 14 15  1  0  0  0  0
 14 16  1  0  0  0  0
 14 17  1  0  0  0  0
 17 18  1  0  0  0  0
 17 19  2  0  0  0  0
 20 21  2  0  0  0  0
 20 22  1  0  0  0  0
 22 23  1  0  0  0  0
 22 24  1  0  0  0  0
 24 25  1  0  0  0  0
 24 26  1  0  0  0  0
 24 27  1  0  0  0  0
M  CHG  1  18  -1
M  END
$$$$

  -OEChem-03222214043D

 27 26  0     1  0  0  0  0  0999 V2000
   -3.1282   -3.6331    1.0519 H   0  0  0  0  0  0  0  0  0  0  0  0
   -3.0886   -2.6413    0.5933 C   0  0  0  0  0  0  0  0  0  0  0  0
   -3.7000   -1.9546    1.1841 H   0  0  0  0  0  0  0  0  0  0  0  0
   -3.4984   -2.7021   -0.4180 H   0  0  0  0  0  0  0  0  0  0  0  0
   -1.6560   -2.1413    0.5399 C   0  0  0  0  0  0  0  0  0  0  0  0
   -0.7471   -2.8545    0.9410 O   0  0  0  0  0  0  0  0  0  0  0  0
   -1.4022   -0.8811    0.0488 N   0  0  0  0  0  0  0  0  0  0  0  0
   -2.2049   -0.2728   -0.1182 H   0  0  0  0  0  0  0  0  0  0  0  0
   -0.1062   -0.1868    0.1222 C   0  0  1  0  0  0  0  0  0  0  0  0
    0.4684   -0.6138    0.9501 H   0  0  0  0  0  0  0  0  0  0  0  0
    0.7226   -0.4728   -1.1713 C   0  0  0  0  0  0  0  0  0  0  0  0
    1.6140   -1.0130   -0.8368 H   0  0  0  0  0  0  0  0  0  0  0  0
    0.1524   -1.1882   -1.7733 H   0  0  0  0  0  0  0  0  0  0  0  0
    1.2328    0.6084   -2.1657 C   0  0  0  0  0  0  0  0  0  0  0  0
    2.3195    0.5058   -2.2417 H   0  0  0  0  0  0  0  0  0  0  0  0
    0.8299    0.3636   -3.1532 H   0  0  0  0  0  0  0  0  0  0  0  0
    0.9404    2.0828   -1.9121 C   0  0  0  0  0  0  0  0  0  0  0  0
    1.6419    2.6327   -1.0222 O   0  5  0  0  0  0  0  0  0  0  0  0
    0.0985    2.6695   -2.6316 O   0  0  0  0  0  0  0  0  0  0  0  0
   -0.4111    1.2693    0.5751 C   0  0  0  0  0  0  0  0  0  0  0  0
   -1.5750    1.6716    0.4945 O   0  0  0  0  0  0  0  0  0  0  0  0
    0.3839    1.8410    1.5525 N   0  0  0  0  0  0  0  0  0  0  0  0
    1.3656    1.7888    1.2840 H   0  0  0  0  0  0  0  0  0  0  0  0
   -0.0034    3.0951    2.1844 C   0  0  0  0  0  0  0  0  0  0  0  0
   -0.9378    2.9745    2.7417 H   0  0  0  0  0  0  0  0  0  0  0  0
    0.7744    3.4176    2.8823 H   0  0  0  0  0  0  0  0  0  0  0  0
   -0.1388    3.8763    1.4287 H   0  0  0  0  0  0  0  0  0  0  0  0
  1  2  1  0  0  0  0
  2  3  1  0  0  0  0
  2  4  1  0  0  0  0
  2  5  1  0  0  0  0
  5  6  2  0  0  0  0
  5  7  1  0  0  0  0
  7  8  1  0  0  0  0
  7  9  1  0  0  0  0
  9 10  1  0  0  0  0
  9 11  1  0  0  0  0
  9 20  1  0  0  0  0
 11 12  1  0  0  0  0
 11 13  1  0  0  0  0
 11 14  1  0  0  0  0
 14 15  1  0  0  0  0
 14 16  1  0  0  0  0
 14 17  1  0  0  0  0
 17 18  1  0  0  0  0
 17 19  2  0  0  0  0
 20 21  2  0  0  0  0
 20 22  1  0  0  0  0
 22 23  1  0  0  0  0
 22 24  1  0  0  0  0
 24 25  1  0  0  0  0
 24 26  1  0  0  0  0
 24 27  1  0  0  0  0
M  CHG  1  18  -1
M  END
$$$$

  -OEChem-03222214043D

 27 26  0     1  0  0  0  0  0999 V2000
   -2.9676   -3.6914    1.1556 H   0  0  0  0  0  0  0  0  0  0  0  0
   -2.9536   -2.7268    0.6408 C   0  0  0  0  0  0  0  0  0  0  0  0
   -3.5906   -2.0264    1.1870 H   0  0  0  0  0  0  0  0  0  0  0  0
   -3.3522   -2.8578   -0.3683 H   0  0  0  0  0  0  0  0  0  0  0  0
   -1.5357   -2.1882    0.5692 C   0  0  0  0  0  0  0  0  0  0  0  0
   -0.6060   -2.8689    0.9783 O   0  0  0  0  0  0  0  0  0  0  0  0
   -1.3195   -0.9316    0.0513 N   0  0  0  0  0  0  0  0  0  0  0  0
   -2.1406   -0.3474   -0.1122 H   0  0  0  0  0  0  0  0  0  0  0  0
   -0.0460   -0.1955    0.1243 C   0  0  1  0  0  0  0  0  0  0  0  0
    0.5533   -0.5843    0.9538 H   0  0  0  0  0  0  0  0  0  0  0  0
    0.7700   -0.4454   -1.1855 C   0  0  0  0  0  0  0  0  0  0  0  0
    1.6908   -0.9349   -0.8526 H   0  0  0  0  0  0  0  0  0  0  0  0
    0.2367   -1.1903   -1.7851 H   0  0  0  0  0  0  0  0  0  0  0  0
    1.2328    0.6642   -2.1718 C   0  0  0  0  0  0  0  0  0  0  0  0
    2.2505    0.4317   -2.4984 H   0  0  0  0  0  0  0  0  0  0  0  0
    0.5934    0.5967   -3.0575 H   0  0  0  0  0  0  0  0  0  0  0  0
    1.2092    2.1205   -1.7163 C   0  0  0  0  0  0  0  0  0  0  0  0
    1.9535    2.3975   -0.7369 O   0  5  0  0  0  0  0  0  0  0  0  0
    0.5320    2.9546   -2.3609 O   0  0  0  0  0  0  0  0  0  0  0  0
   -0.4393    1.2521    0.5424 C   0  0  0  0  0  0  0  0  0  0  0  0
   -1.6138    1.6070    0.4005 O   0  0  0  0  0  0  0  0  0  0  0  0
    0.3013    1.8878    1.5212 N   0  0  0  0  0  0  0  0  0  0  0  0
    1.2826    1.9225    1.2290 H   0  0  0  0  0  0  0  0  0  0  0  0
   -0.1802    3.1148    2.1408 C   0  0  0  0  0  0  0  0  0  0  0  0
   -1.1121    2.9320    2.6853 H   0  0  0  0  0  0  0  0  0  0  0  0
    0.5638    3.4919    2.8482 H   0  0  0  0  0  0  0  0  0  0  0  0
   -0.3574    3.8827    1.3802 H   0  0  0  0  0  0  0  0  0  0  0  0
  1  2  1  0  0  0  0
  2  3  1  0  0  0  0
  2  4  1  0  0  0  0
  2  5  1  0  0  0  0
  5  6  2  0  0  0  0
  5  7  1  0  0  0  0
  7  8  1  0  0  0  0
  7  9  1  0  0  0  0
  9 10  1  0  0  0  0
  9 11  1  0  0  0  0
  9 20  1  0  0  0  0
 11 12  1  0  0  0  0
 11 13  1  0  0  0  0
 11 14  1  0  0  0  0
 14 15  1  0  0  0  0
 14 16  1  0  0  0  0
 14 17  1  0  0  0  0
 17 18  1  0  0  0  0
 17 19  2  0  0  0  0
 20 21  2  0  0  0  0
 20 22  1  0  0  0  0
 22 23  1  0  0  0  0
 22 24  1  0  0  0  0
 24 25  1  0  0  0  0
 24 26  1  0  0  0  0
 24 27  1  0  0  0  0
M  CHG  1  18  -1
M  END
$$$$

  -OEChem-03222214043D

 27 26  0     1  0  0  0  0  0999 V2000
   -3.2013   -3.4887    1.3179 H   0  0  0  0  0  0  0  0  0  0  0  0
   -3.1299   -2.5332    0.7912 C   0  0  0  0  0  0  0  0  0  0  0  0
   -3.7011   -1.7826    1.3431 H   0  0  0  0  0  0  0  0  0  0  0  0
   -3.5603   -2.6459   -0.2068 H   0  0  0  0  0  0  0  0  0  0  0  0
   -1.6790   -2.1002    0.6807 C   0  0  0  0  0  0  0  0  0  0  0  0
   -0.7940   -2.8301    1.1028 O   0  0  0  0  0  0  0  0  0  0  0  0
   -1.3834   -0.8826    0.1115 N   0  0  0  0  0  0  0  0  0  0  0  0
   -2.1639   -0.2495   -0.0675 H   0  0  0  0  0  0  0  0  0  0  0  0
   -0.0596   -0.2381    0.1366 C   0  0  1  0  0  0  0  0  0  0  0  0
    0.5416   -0.6422    0.9576 H   0  0  0  0  0  0  0  0  0  0  0  0
    0.6863   -0.5582   -1.1975 C   0  0  0  0  0  0  0  0  0  0  0  0
    1.5862   -1.1038   -0.8963 H   0  0  0  0  0  0  0  0  0  0  0  0
    0.0839   -1.2646   -1.7775 H   0  0  0  0  0  0  0  0  0  0  0  0
    1.1764    0.5331   -2.1870 C   0  0  0  0  0  0  0  0  0  0  0  0
    2.0233    0.1366   -2.7541 H   0  0  0  0  0  0  0  0  0  0  0  0
    0.3657    0.7171   -2.8986 H   0  0  0  0  0  0  0  0  0  0  0  0
    1.5813    1.8868   -1.6017 C   0  0  0  0  0  0  0  0  0  0  0  0
    2.3507    1.8547   -0.6024 O   0  5  0  0  0  0  0  0  0  0  0  0
    1.1860    2.9345   -2.1635 O   0  0  0  0  0  0  0  0  0  0  0  0
   -0.3535    1.2455    0.5052 C   0  0  0  0  0  0  0  0  0  0  0  0
   -1.4880    1.6942    0.3127 O   0  0  0  0  0  0  0  0  0  0  0  0
    0.4364    1.8729    1.4491 N   0  0  0  0  0  0  0  0  0  0  0  0
    1.4252    1.7606    1.1961 H   0  0  0  0  0  0  0  0  0  0  0  0
    0.0886    3.1934    1.9542 C   0  0  0  0  0  0  0  0  0  0  0  0
   -0.8717    3.1662    2.4788 H   0  0  0  0  0  0  0  0  0  0  0  0
    0.8544    3.5374    2.6552 H   0  0  0  0  0  0  0  0  0  0  0  0
    0.0234    3.9119    1.1303 H   0  0  0  0  0  0  0  0  0  0  0  0
  1  2  1  0  0  0  0
  2  3  1  0  0  0  0
  2  4  1  0  0  0  0
  2  5  1  0  0  0  0
  5  6  2  0  0  0  0
  5  7  1  0  0  0  0
  7  8  1  0  0  0  0
  7  9  1  0  0  0  0
  9 10  1  0  0  0  0
  9 11  1  0  0  0  0
  9 20  1  0  0  0  0
 11 12  1  0  0  0  0
 11 13  1  0  0  0  0
 11 14  1  0  0  0  0
 14 15  1  0  0  0  0
 14 16  1  0  0  0  0
 14 17  1  0  0  0  0
 17 18  1  0  0  0  0
 17 19  2  0  0  0  0
 20 21  2  0  0  0  0
 20 22  1  0  0  0  0
 22 23  1  0  0  0  0
 22 24  1  0  0  0  0
 24 25  1  0  0  0  0
 24 26  1  0  0  0  0
 24 27  1  0  0  0  0
M  CHG  1  18  -1
M  END
$$$$

  -OEChem-03222214043D

 27 26  0     1  0  0  0  0  0999 V2000
   -3.2656   -3.4712    1.2706 H   0  0  0  0  0  0  0  0  0  0  0  0
   -3.1642   -2.5410    0.7049 C   0  0  0  0  0  0  0  0  0  0  0  0
   -3.7659   -1.7675    1.1888 H   0  0  0  0  0  0  0  0  0  0  0  0
   -3.5376   -2.7007   -0.3096 H   0  0  0  0  0  0  0  0  0  0  0  0
   -1.7090   -2.1100    0.6573 C   0  0  0  0  0  0  0  0  0  0  0  0
   -0.8479   -2.8307    1.1397 O   0  0  0  0  0  0  0  0  0  0  0  0
   -1.3840   -0.9056    0.0754 N   0  0  0  0  0  0  0  0  0  0  0  0
   -2.1537   -0.2789   -0.1608 H   0  0  0  0  0  0  0  0  0  0  0  0
   -0.0608   -0.2634    0.1450 C   0  0  1  0  0  0  0  0  0  0  0  0
    0.5103   -0.6567    0.9924 H   0  0  0  0  0  0  0  0  0  0  0  0
    0.7380   -0.5784   -1.1553 C   0  0  0  0  0  0  0  0  0  0  0  0
    1.6269   -1.1344   -0.8398 H   0  0  0  0  0  0  0  0  0  0  0  0
    0.1504   -1.2625   -1.7756 H   0  0  0  0  0  0  0  0  0  0  0  0
    1.2373    0.5603   -2.0798 C   0  0  0  0  0  0  0  0  0  0  0  0
    1.9469    0.1427   -2.7992 H   0  0  0  0  0  0  0  0  0  0  0  0
    0.3792    0.9413   -2.6417 H   0  0  0  0  0  0  0  0  0  0  0  0
    1.9053    1.7478   -1.3752 C   0  0  0  0  0  0  0  0  0  0  0  0
    2.5568    1.5031   -0.3227 O   0  5  0  0  0  0  0  0  0  0  0  0
    1.7911    2.8845   -1.8895 O   0  0  0  0  0  0  0  0  0  0  0  0
   -0.3550    1.2292    0.4668 C   0  0  0  0  0  0  0  0  0  0  0  0
   -1.4563    1.7010    0.1690 O   0  0  0  0  0  0  0  0  0  0  0  0
    0.3958    1.8763    1.4287 N   0  0  0  0  0  0  0  0  0  0  0  0
    1.3942    1.6782    1.2865 H   0  0  0  0  0  0  0  0  0  0  0  0
    0.0928    3.2468    1.8140 C   0  0  0  0  0  0  0  0  0  0  0  0
   -0.9042    3.3114    2.2611 H   0  0  0  0  0  0  0  0  0  0  0  0
    0.8238    3.5976    2.5482 H   0  0  0  0  0  0  0  0  0  0  0  0
    0.1346    3.9056    0.9403 H   0  0  0  0  0  0  0  0  0  0  0  0
  1  2  1  0  0  0  0
  2  3  1  0  0  0  0
  2  4  1  0  0  0  0
  2  5  1  0  0  0  0
  5  6  2  0  0  0  0
  5  7  1  0  0  0  0
  7  8  1  0  0  0  0
  7  9  1  0  0  0  0
  9 10  1  0  0  0  0
  9 11  1  0  0  0  0
  9 20  1  0  0  0  0
 11 12  1  0  0  0  0
 11 13  1  0  0  0  0
 11 14  1  0  0  0  0
 14 15  1  0  0  0  0
 14 16  1  0  0  0  0
 14 17  1  0  0  0  0
 17 18  1  0  0  0  0
 17 19  2  0  0  0  0
 20 21  2  0  0  0  0
 20 22  1  0  0  0  0
 22 23  1  0  0  0  0
 22 24  1  0  0  0  0
 24 25  1  0  0  0  0
 24 26  1  0  0  0  0
 24 27  1  0  0  0  0
M  CHG  1  18  -1
M  END
$$$$

  -OEChem-03222214043D

 27 26  0     1  0  0  0  0  0999 V2000
   -3.2629   -3.4927    1.2752 H   0  0  0  0  0  0  0  0  0  0  0  0
   -3.1624   -2.5633    0.7079 C   0  0  0  0  0  0  0  0  0  0  0  0
   -3.7715   -1.7914    1.1851 H   0  0  0  0  0  0  0  0  0  0  0  0
   -3.5276   -2.7278   -0.3087 H   0  0  0  0  0  0  0  0  0  0  0  0
   -1.7092   -2.1248    0.6688 C   0  0  0  0  0  0  0  0  0  0  0  0
   -0.8500   -2.8306    1.1752 O   0  0  0  0  0  0  0  0  0  0  0  0
   -1.3859   -0.9290    0.0685 N   0  0  0  0  0  0  0  0  0  0  0  0
   -2.1569   -0.3166   -0.1969 H   0  0  0  0  0  0  0  0  0  0  0  0
   -0.0671   -0.2783    0.1321 C   0  0  1  0  0  0  0  0  0  0  0  0
    0.5017   -0.6608    0.9859 H   0  0  0  0  0  0  0  0  0  0  0  0
    0.7506   -0.5895   -1.1526 C   0  0  0  0  0  0  0  0  0  0  0  0
    1.6408   -1.1518   -0.8516 H   0  0  0  0  0  0  0  0  0  0  0  0
    0.1626   -1.2561   -1.7911 H   0  0  0  0  0  0  0  0  0  0  0  0
    1.2130    0.5965   -2.0313 C   0  0  0  0  0  0  0  0  0  0  0  0
    1.7510    0.1992   -2.8965 H   0  0  0  0  0  0  0  0  0  0  0  0
    0.3308    1.1275   -2.4014 H   0  0  0  0  0  0  0  0  0  0  0  0
    2.1326    1.6034   -1.3202 C   0  0  0  0  0  0  0  0  0  0  0  0
    2.6490    1.2704   -0.2179 O   0  5  0  0  0  0  0  0  0  0  0  0
    2.3147    2.7099   -1.8794 O   0  0  0  0  0  0  0  0  0  0  0  0
   -0.3406    1.2211    0.4265 C   0  0  0  0  0  0  0  0  0  0  0  0
   -1.4243    1.7099    0.0959 O   0  0  0  0  0  0  0  0  0  0  0  0
    0.4173    1.8769    1.3761 N   0  0  0  0  0  0  0  0  0  0  0  0
    1.4099    1.6252    1.2809 H   0  0  0  0  0  0  0  0  0  0  0  0
    0.1566    3.2674    1.7170 C   0  0  0  0  0  0  0  0  0  0  0  0
   -0.8445    3.3787    2.1453 H   0  0  0  0  0  0  0  0  0  0  0  0
    0.8873    3.6138    2.4536 H   0  0  0  0  0  0  0  0  0  0  0  0
    0.2348    3.8992    0.8259 H   0  0  0  0  0  0  0  0  0  0  0  0
  1  2  1  0  0  0  0
  2  3  1  0  0  0  0
  2  4  1  0  0  0  0
  2  5  1  0  0  0  0
  5  6  2  0  0  0  0
  5  7  1  0  0  0  0
  7  8  1  0  0  0  0
  7  9  1  0  0  0  0
  9 10  1  0  0  0  0
  9 11  1  0  0  0  0
  9 20  1  0  0  0  0
 11 12  1  0  0  0  0
 11 13  1  0  0  0  0
 11 14  1  0  0  0  0
 14 15  1  0  0  0  0
 14 16  1  0  0  0  0
 14 17  1  0  0  0  0
 17 18  1  0  0  0  0
 17 19  2  0  0  0  0
 20 21  2  0  0  0  0
 20 22  1  0  0  0  0
 22 23  1  0  0  0  0
 22 24  1  0  0  0  0
 24 25  1  0  0  0  0
 24 26  1  0  0  0  0
 24 27  1  0  0  0  0
M  CHG  1  18  -1
M  END
$$$$

  -OEChem-03222214043D

 27 26  0     1  0  0  0  0  0999 V2000
   -3.2405   -3.5150    1.2900 H   0  0  0  0  0  0  0  0  0  0  0  0
   -3.1507   -2.5914    0.7115 C   0  0  0  0  0  0  0  0  0  0  0  0
   -3.7702   -1.8217    1.1786 H   0  0  0  0  0  0  0  0  0  0  0  0
   -3.5124   -2.7730   -0.3036 H   0  0  0  0  0  0  0  0  0  0  0  0
   -1.7030   -2.1352    0.6691 C   0  0  0  0  0  0  0  0  0  0  0  0
   -0.8343   -2.8309    1.1729 O   0  0  0  0  0  0  0  0  0  0  0  0
   -1.3962   -0.9361    0.0661 N   0  0  0  0  0  0  0  0  0  0  0  0
   -2.1752   -0.3355   -0.2004 H   0  0  0  0  0  0  0  0  0  0  0  0
   -0.0826   -0.2740    0.1116 C   0  0  1  0  0  0  0  0  0  0  0  0
    0.4899   -0.6559    0.9635 H   0  0  0  0  0  0  0  0  0  0  0  0
    0.7444   -0.5854   -1.1640 C   0  0  0  0  0  0  0  0  0  0  0  0
    1.6390   -1.1470   -0.8739 H   0  0  0  0  0  0  0  0  0  0  0  0
    0.1549   -1.2490   -1.8045 H   0  0  0  0  0  0  0  0  0  0  0  0
    1.1720    0.6237   -2.0259 C   0  0  0  0  0  0  0  0  0  0  0  0
    1.5087    0.2460   -2.9956 H   0  0  0  0  0  0  0  0  0  0  0  0
    0.3156    1.2786   -2.2098 H   0  0  0  0  0  0  0  0  0  0  0  0
    2.3269    1.4396   -1.4189 C   0  0  0  0  0  0  0  0  0  0  0  0
    2.6745    1.2109   -0.2273 O   0  5  0  0  0  0  0  0  0  0  0  0
    2.8472    2.3141   -2.1507 O   0  0  0  0  0  0  0  0  0  0  0  0
   -0.3280    1.2281    0.4096 C   0  0  0  0  0  0  0  0  0  0  0  0
   -1.4080    1.7334    0.0935 O   0  0  0  0  0  0  0  0  0  0  0  0
    0.4563    1.8737    1.3441 N   0  0  0  0  0  0  0  0  0  0  0  0
    1.4435    1.6032    1.2373 H   0  0  0  0  0  0  0  0  0  0  0  0
    0.2179    3.2627    1.7057 C   0  0  0  0  0  0  0  0  0  0  0  0
   -0.7757    3.3808    2.1494 H   0  0  0  0  0  0  0  0  0  0  0  0
    0.9629    3.5902    2.4368 H   0  0  0  0  0  0  0  0  0  0  0  0
    0.2917    3.9050    0.8220 H   0  0  0  0  0  0  0  0  0  0  0  0
  1  2  1  0  0  0  0
  2  3  1  0  0  0  0
  2  4  1  0  0  0  0
  2  5  1  0  0  0  0
  5  6  2  0  0  0  0
  5  7  1  0  0  0  0
  7  8  1  0  0  0  0
  7  9  1  0  0  0  0
  9 10  1  0  0  0  0
  9 11  1  0  0  0  0
  9 20  1  0  0  0  0
 11 12  1  0  0  0  0
 11 13  1  0  0  0  0
 11 14  1  0  0  0  0
 14 15  1  0  0  0  0
 14 16  1  0  0  0  0
 14 17  1  0  0  0  0
 17 18  1  0  0  0  0
 17 19  2  0  0  0  0
 20 21  2  0  0  0  0
 20 22  1  0  0  0  0
 22 23  1  0  0  0  0
 22 24  1  0  0  0  0
 24 25  1  0  0  0  0
 24 26  1  0  0  0  0
 24 27  1  0  0  0  0
M  CHG  1  18  -1
M  END
$$$$

  -OEChem-03222214043D

 27 26  0     1  0  0  0  0  0999 V2000
   -3.2020   -3.5511    1.2755 H   0  0  0  0  0  0  0  0  0  0  0  0
   -3.1350   -2.6135    0.7166 C   0  0  0  0  0  0  0  0  0  0  0  0
   -3.7524   -1.8616    1.2146 H   0  0  0  0  0  0  0  0  0  0  0  0
   -3.5170   -2.7761   -0.2943 H   0  0  0  0  0  0  0  0  0  0  0  0
   -1.6937   -2.1398    0.6538 C   0  0  0  0  0  0  0  0  0  0  0  0
   -0.8091   -2.8287    1.1388 O   0  0  0  0  0  0  0  0  0  0  0  0
   -1.4112   -0.9313    0.0574 N   0  0  0  0  0  0  0  0  0  0  0  0
   -2.2016   -0.3408   -0.1965 H   0  0  0  0  0  0  0  0  0  0  0  0
   -0.1044   -0.2558    0.0811 C   0  0  1  0  0  0  0  0  0  0  0  0
    0.4718   -0.6405    0.9291 H   0  0  0  0  0  0  0  0  0  0  0  0
    0.7347   -0.5657   -1.1846 C   0  0  0  0  0  0  0  0  0  0  0  0
    1.6339   -1.1189   -0.8922 H   0  0  0  0  0  0  0  0  0  0  0  0
    0.1518   -1.2384   -1.8215 H   0  0  0  0  0  0  0  0  0  0  0  0
    1.1381    0.6489   -2.0498 C   0  0  0  0  0  0  0  0  0  0  0  0
    1.2544    0.3046   -3.0818 H   0  0  0  0  0  0  0  0  0  0  0  0
    0.3663    1.4221   -2.0611 H   0  0  0  0  0  0  0  0  0  0  0  0
    2.4835    1.2333   -1.5957 C   0  0  0  0  0  0  0  0  0  0  0  0
    2.6938    1.3224   -0.3546 O   0  5  0  0  0  0  0  0  0  0  0  0
    3.2880    1.6077   -2.4820 O   0  0  0  0  0  0  0  0  0  0  0  0
   -0.3252    1.2449    0.3984 C   0  0  0  0  0  0  0  0  0  0  0  0
   -1.4148    1.7569    0.1308 O   0  0  0  0  0  0  0  0  0  0  0  0
    0.4928    1.8708    1.3172 N   0  0  0  0  0  0  0  0  0  0  0  0
    1.4772    1.6158    1.1564 H   0  0  0  0  0  0  0  0  0  0  0  0
    0.2581    3.2454    1.7320 C   0  0  0  0  0  0  0  0  0  0  0  0
   -0.7131    3.3379    2.2282 H   0  0  0  0  0  0  0  0  0  0  0  0
    1.0354    3.5596    2.4346 H   0  0  0  0  0  0  0  0  0  0  0  0
    0.2805    3.9152    0.8662 H   0  0  0  0  0  0  0  0  0  0  0  0
  1  2  1  0  0  0  0
  2  3  1  0  0  0  0
  2  4  1  0  0  0  0
  2  5  1  0  0  0  0
  5  6  2  0  0  0  0
  5  7  1  0  0  0  0
  7  8  1  0  0  0  0
  7  9  1  0  0  0  0
  9 10  1  0  0  0  0
  9 11  1  0  0  0  0
  9 20  1  0  0  0  0
 11 12  1  0  0  0  0
 11 13  1  0  0  0  0
 11 14  1  0  0  0  0
 14 15  1  0  0  0  0
 14 16  1  0  0  0  0
 14 17  1  0  0  0  0
 17 18  1  0  0  0  0
 17 19  2  0  0  0  0
 20 21  2  0  0  0  0
 20 22  1  0  0  0  0
 22 23  1  0  0  0  0
 22 24  1  0  0  0  0
 24 25  1  0  0  0  0
 24 26  1  0  0  0  0
 24 27  1  0  0  0  0
M  CHG  1  18  -1
M  END
$$$$

  -OEChem-03222214043D

 27 26  0     1  0  0  0  0  0999 V2000
   -3.1733   -3.5990    1.2651 H   0  0  0  0  0  0  0  0  0  0  0  0
   -3.1335   -2.6625    0.7020 C   0  0  0  0  0  0  0  0  0  0  0  0
   -3.7734   -1.9274    1.1964 H   0  0  0  0  0  0  0  0  0  0  0  0
   -3.5098   -2.8412   -0.3082 H   0  0  0  0  0  0  0  0  0  0  0  0
   -1.7064   -2.1476    0.6370 C   0  0  0  0  0  0  0  0  0  0  0  0
   -0.8011   -2.8168    1.1109 O   0  0  0  0  0  0  0  0  0  0  0  0
   -1.4594   -0.9256    0.0510 N   0  0  0  0  0  0  0  0  0  0  0  0
   -2.2660   -0.3583   -0.2024 H   0  0  0  0  0  0  0  0  0  0  0  0
   -0.1652   -0.2262    0.0453 C   0  0  1  0  0  0  0  0  0  0  0  0
    0.4004   -0.6124    0.8997 H   0  0  0  0  0  0  0  0  0  0  0  0
    0.7222   -0.5426   -1.1797 C   0  0  0  0  0  0  0  0  0  0  0  0
    1.6289   -1.0588   -0.8438 H   0  0  0  0  0  0  0  0  0  0  0  0
    0.1820   -1.2550   -1.8113 H   0  0  0  0  0  0  0  0  0  0  0  0
    1.0992    0.6692   -2.0646 C   0  0  0  0  0  0  0  0  0  0  0  0
    1.0203    0.3626   -3.1121 H   0  0  0  0  0  0  0  0  0  0  0  0
    0.4377    1.5294   -1.9499 H   0  0  0  0  0  0  0  0  0  0  0  0
    2.5530    1.0584   -1.7969 C   0  0  0  0  0  0  0  0  0  0  0  0
    2.8212    1.3784   -0.6054 O   0  5  0  0  0  0  0  0  0  0  0  0
    3.3780    1.0438   -2.7417 O   0  0  0  0  0  0  0  0  0  0  0  0
   -0.3325    1.2728    0.3834 C   0  0  0  0  0  0  0  0  0  0  0  0
   -1.4219    1.8093    0.1746 O   0  0  0  0  0  0  0  0  0  0  0  0
    0.5438    1.8605    1.2746 N   0  0  0  0  0  0  0  0  0  0  0  0
    1.5147    1.5852    1.0798 H   0  0  0  0  0  0  0  0  0  0  0  0
    0.3554    3.2279    1.7339 C   0  0  0  0  0  0  0  0  0  0  0  0
   -0.5939    3.3261    2.2699 H   0  0  0  0  0  0  0  0  0  0  0  0
    1.1654    3.5073    2.4139 H   0  0  0  0  0  0  0  0  0  0  0  0
    0.3585    3.9198    0.8855 H   0  0  0  0  0  0  0  0  0  0  0  0
  1  2  1  0  0  0  0
  2  3  1  0  0  0  0
  2  4  1  0  0  0  0
  2  5  1  0  0  0  0
  5  6  2  0  0  0  0
  5  7  1  0  0  0  0
  7  8  1  0  0  0  0
  7  9  1  0  0  0  0
  9 10  1  0  0  0  0
  9 11  1  0  0  0  0
  9 20  1  0  0  0  0
 11 12  1  0  0  0  0
 11 13  1  0  0  0  0
 11 14  1  0  0  0  0
 14 15  1  0  0  0  0
 14 16  1  0  0  0  0
 14 17  1  0  0  0  0
 17 18  1  0  0  0  0
 17 19  2  0  0  0  0
 20 21  2  0  0  0  0
 20 22  1  0  0  0  0
 22 23  1  0  0  0  0
 22 24  1  0  0  0  0
 24 25  1  0  0  0  0
 24 26  1  0  0  0  0
 24 27  1  0  0  0  0
M  CHG  1  18  -1
M  END
$$$$

  -OEChem-03222214043D

 27 26  0     1  0  0  0  0  0999 V2000
   -3.1711   -3.6310    1.1901 H   0  0  0  0  0  0  0  0  0  0  0  0
   -3.1232   -2.6858    0.6421 C   0  0  0  0  0  0  0  0  0  0  0  0
   -3.7993   -1.9697    1.1158 H   0  0  0  0  0  0  0  0  0  0  0  0
   -3.4493   -2.8574   -0.3868 H   0  0  0  0  0  0  0  0  0  0  0  0
   -1.7049   -2.1429    0.6504 C   0  0  0  0  0  0  0  0  0  0  0  0
   -0.8120   -2.7890    1.1767 O   0  0  0  0  0  0  0  0  0  0  0  0
   -1.4535   -0.9141    0.0805 N   0  0  0  0  0  0  0  0  0  0  0  0
   -2.2537   -0.3724   -0.2395 H   0  0  0  0  0  0  0  0  0  0  0  0
   -0.1615   -0.2113    0.0851 C   0  0  1  0  0  0  0  0  0  0  0  0
    0.4165   -0.6110    0.9248 H   0  0  0  0  0  0  0  0  0  0  0  0
    0.6876   -0.5212   -1.1717 C   0  0  0  0  0  0  0  0  0  0  0  0
    1.5980   -1.0351   -0.8429 H   0  0  0  0  0  0  0  0  0  0  0  0
    0.1442   -1.2420   -1.7907 H   0  0  0  0  0  0  0  0  0  0  0  0
    1.0729    0.6762   -2.0793 C   0  0  0  0  0  0  0  0  0  0  0  0
    0.6830    0.4887   -3.0844 H   0  0  0  0  0  0  0  0  0  0  0  0
    0.6538    1.6312   -1.7635 H   0  0  0  0  0  0  0  0  0  0  0  0
    2.5917    0.8082   -2.1586 C   0  0  0  0  0  0  0  0  0  0  0  0
    3.1674    1.1537   -1.0929 O   0  5  0  0  0  0  0  0  0  0  0  0
    3.1711    0.5624   -3.2444 O   0  0  0  0  0  0  0  0  0  0  0  0
   -0.3405    1.2806    0.4401 C   0  0  0  0  0  0  0  0  0  0  0  0
   -1.4064    1.8400    0.1840 O   0  0  0  0  0  0  0  0  0  0  0  0
    0.5248    1.8694    1.3428 N   0  0  0  0  0  0  0  0  0  0  0  0
    1.4734    1.4954    1.3044 H   0  0  0  0  0  0  0  0  0  0  0  0
    0.3819    3.2591    1.7507 C   0  0  0  0  0  0  0  0  0  0  0  0
   -0.5823    3.4180    2.2443 H   0  0  0  0  0  0  0  0  0  0  0  0
    1.1763    3.5253    2.4541 H   0  0  0  0  0  0  0  0  0  0  0  0
    0.4496    3.9214    0.8815 H   0  0  0  0  0  0  0  0  0  0  0  0
  1  2  1  0  0  0  0
  2  3  1  0  0  0  0
  2  4  1  0  0  0  0
  2  5  1  0  0  0  0
  5  6  2  0  0  0  0
  5  7  1  0  0  0  0
  7  8  1  0  0  0  0
  7  9  1  0  0  0  0
  9 10  1  0  0  0  0
  9 11  1  0  0  0  0
  9 20  1  0  0  0  0
 11 12  1  0  0  0  0
 11 13  1  0  0  0  0
 11 14  1  0  0  0  0
 14 15  1  0  0  0  0
 14 16  1  0  0  0  0
 14 17  1  0  0  0  0
 17 18  1  0  0  0  0
 17 19  2  0  0  0  0
 20 21  2  0  0  0  0
 20 22  1  0  0  0  0
 22 23  1  0  0  0  0
 22 24  1  0  0  0  0
 24 25  1  0  0  0  0
 24 26  1  0  0  0  0
 24 27  1  0  0  0  0
M  CHG  1  18  -1
M  END
$$$$

  -OEChem-03222214043D

 27 26  0     1  0  0  0  0  0999 V2000
   -3.1850   -3.6211    1.1466 H   0  0  0  0  0  0  0  0  0  0  0  0
   -3.1201   -2.6749    0.6021 C   0  0  0  0  0  0  0  0  0  0  0  0
   -3.8166   -1.9617    1.0500 H   0  0  0  0  0  0  0  0  0  0  0  0
   -3.4052   -2.8463   -0.4388 H   0  0  0  0  0  0  0  0  0  0  0  0
   -1.7055   -2.1268    0.6653 C   0  0  0  0  0  0  0  0  0  0  0  0
   -0.8353   -2.7577    1.2457 O   0  0  0  0  0  0  0  0  0  0  0  0
   -1.4332   -0.9026    0.0955 N   0  0  0  0  0  0  0  0  0  0  0  0
   -2.2152   -0.3738   -0.2854 H   0  0  0  0  0  0  0  0  0  0  0  0
   -0.1334   -0.2151    0.1156 C   0  0  1  0  0  0  0  0  0  0  0  0
    0.4536   -0.6252    0.9437 H   0  0  0  0  0  0  0  0  0  0  0  0
    0.6709   -0.5178   -1.1757 C   0  0  0  0  0  0  0  0  0  0  0  0
    1.5858   -1.0309   -0.8590 H   0  0  0  0  0  0  0  0  0  0  0  0
    0.1211   -1.2353   -1.7934 H   0  0  0  0  0  0  0  0  0  0  0  0
    1.0676    0.6796   -2.0778 C   0  0  0  0  0  0  0  0  0  0  0  0
    0.4111    0.7063   -2.9526 H   0  0  0  0  0  0  0  0  0  0  0  0
    0.9708    1.6434   -1.5776 H   0  0  0  0  0  0  0  0  0  0  0  0
    2.5255    0.5646   -2.5194 C   0  0  0  0  0  0  0  0  0  0  0  0
    3.3981    0.8316   -1.6537 O   0  5  0  0  0  0  0  0  0  0  0  0
    2.7677    0.1992   -3.6955 O   0  0  0  0  0  0  0  0  0  0  0  0
   -0.3323    1.2753    0.4674 C   0  0  0  0  0  0  0  0  0  0  0  0
   -1.3747    1.8476    0.1534 O   0  0  0  0  0  0  0  0  0  0  0  0
    0.5079    1.8758    1.3867 N   0  0  0  0  0  0  0  0  0  0  0  0
    1.4291    1.4512    1.4682 H   0  0  0  0  0  0  0  0  0  0  0  0
    0.3723    3.2737    1.7691 C   0  0  0  0  0  0  0  0  0  0  0  0
   -0.6056    3.4538    2.2272 H   0  0  0  0  0  0  0  0  0  0  0  0
    1.1464    3.5397    2.4948 H   0  0  0  0  0  0  0  0  0  0  0  0
    0.4788    3.9216    0.8930 H   0  0  0  0  0  0  0  0  0  0  0  0
  1  2  1  0  0  0  0
  2  3  1  0  0  0  0
  2  4  1  0  0  0  0
  2  5  1  0  0  0  0
  5  6  2  0  0  0  0
  5  7  1  0  0  0  0
  7  8  1  0  0  0  0
  7  9  1  0  0  0  0
  9 10  1  0  0  0  0
  9 11  1  0  0  0  0
  9 20  1  0  0  0  0
 11 12  1  0  0  0  0
 11 13  1  0  0  0  0
 11 14  1  0  0  0  0
 14 15  1  0  0  0  0
 14 16  1  0  0  0  0
 14 17  1  0  0  0  0
 17 18  1  0  0  0  0
 17 19  2  0  0  0  0
 20 21  2  0  0  0  0
 20 22  1  0  0  0  0
 22 23  1  0  0  0  0
 22 24  1  0  0  0  0
 24 25  1  0  0  0  0
 24 26  1  0  0  0  0
 24 27  1  0  0  0  0
M  CHG  1  18  -1
M  END
$$$$

  -OEChem-03222214043D

 27 26  0     1  0  0  0  0  0999 V2000
   -3.1855   -3.6458    1.0591 H   0  0  0  0  0  0  0  0  0  0  0  0
   -3.1224   -2.6748    0.5601 C   0  0  0  0  0  0  0  0  0  0  0  0
   -3.8417   -1.9927    1.0202 H   0  0  0  0  0  0  0  0  0  0  0  0
   -3.3778   -2.8037   -0.4947 H   0  0  0  0  0  0  0  0  0  0  0  0
   -1.7191   -2.1091    0.6858 C   0  0  0  0  0  0  0  0  0  0  0  0
   -0.8717   -2.7198    1.3199 O   0  0  0  0  0  0  0  0  0  0  0  0
   -1.4295   -0.8927    0.1084 N   0  0  0  0  0  0  0  0  0  0  0  0
   -2.1925   -0.3820   -0.3311 H   0  0  0  0  0  0  0  0  0  0  0  0
   -0.1229   -0.2192    0.1357 C   0  0  1  0  0  0  0  0  0  0  0  0
    0.4656   -0.6334    0.9605 H   0  0  0  0  0  0  0  0  0  0  0  0
    0.6576   -0.5251   -1.1688 C   0  0  0  0  0  0  0  0  0  0  0  0
    1.5763   -1.0406   -0.8675 H   0  0  0  0  0  0  0  0  0  0  0  0
    0.0965   -1.2313   -1.7897 H   0  0  0  0  0  0  0  0  0  0  0  0
    1.0531    0.6807   -2.0511 C   0  0  0  0  0  0  0  0  0  0  0  0
    0.2414    0.9169   -2.7455 H   0  0  0  0  0  0  0  0  0  0  0  0
    1.2477    1.5736   -1.4537 H   0  0  0  0  0  0  0  0  0  0  0  0
    2.3444    0.3871   -2.8133 C   0  0  0  0  0  0  0  0  0  0  0  0
    3.4241    0.5483   -2.1895 O   0  5  0  0  0  0  0  0  0  0  0  0
    2.2526   -0.0240   -3.9959 O   0  0  0  0  0  0  0  0  0  0  0  0
   -0.3152    1.2760    0.4741 C   0  0  0  0  0  0  0  0  0  0  0  0
   -1.3371    1.8642    0.1263 O   0  0  0  0  0  0  0  0  0  0  0  0
    0.5178    1.8802    1.3982 N   0  0  0  0  0  0  0  0  0  0  0  0
    1.4131    1.4229    1.5473 H   0  0  0  0  0  0  0  0  0  0  0  0
    0.3995    3.2858    1.7582 C   0  0  0  0  0  0  0  0  0  0  0  0
   -0.5887    3.4926    2.1816 H   0  0  0  0  0  0  0  0  0  0  0  0
    1.1551    3.5462    2.5051 H   0  0  0  0  0  0  0  0  0  0  0  0
    0.5478    3.9190    0.8775 H   0  0  0  0  0  0  0  0  0  0  0  0
  1  2  1  0  0  0  0
  2  3  1  0  0  0  0
  2  4  1  0  0  0  0
  2  5  1  0  0  0  0
  5  6  2  0  0  0  0
  5  7  1  0  0  0  0
  7  8  1  0  0  0  0
  7  9  1  0  0  0  0
  9 10  1  0  0  0  0
  9 11  1  0  0  0  0
  9 20  1  0  0  0  0
 11 12  1  0  0  0  0
 11 13  1  0  0  0  0
 11 14  1  0  0  0  0
 14 15  1  0  0  0  0
 14 16  1  0  0  0  0
 14 17  1  0  0  0  0
 17 18  1  0  0  0  0
 17 19  2  0  0  0  0
 20 21  2  0  0  0  0
 20 22  1  0  0  0  0
 22 23  1  0  0  0  0
 22 24  1  0  0  0  0
 24 25  1  0  0  0  0
 24 26  1  0  0  0  0
 24 27  1  0  0  0  0
M  CHG  1  18  -1
M  END
$$$$

  -OEChem-03222214043D

 27 26  0     1  0  0  0  0  0999 V2000
   -3.1932   -3.6193    1.1721 H   0  0  0  0  0  0  0  0  0  0  0  0
   -3.1108   -2.6872    0.6066 C   0  0  0  0  0  0  0  0  0  0  0  0
   -3.8490   -1.9767    0.9867 H   0  0  0  0  0  0  0  0  0  0  0  0
   -3.3232   -2.8934   -0.4455 H   0  0  0  0  0  0  0  0  0  0  0  0
   -1.7145   -2.1079    0.7467 C   0  0  0  0  0  0  0  0  0  0  0  0
   -0.8817   -2.6844    1.4305 O   0  0  0  0  0  0  0  0  0  0  0  0
   -1.4180   -0.9117    0.1319 N   0  0  0  0  0  0  0  0  0  0  0  0
   -2.1694   -0.4287   -0.3561 H   0  0  0  0  0  0  0  0  0  0  0  0
   -0.1123   -0.2373    0.1530 C   0  0  1  0  0  0  0  0  0  0  0  0
    0.4724   -0.6276    0.9916 H   0  0  0  0  0  0  0  0  0  0  0  0
    0.6712   -0.5721   -1.1423 C   0  0  0  0  0  0  0  0  0  0  0  0
    1.5892   -1.0812   -0.8302 H   0  0  0  0  0  0  0  0  0  0  0  0
    0.1077   -1.2848   -1.7538 H   0  0  0  0  0  0  0  0  0  0  0  0
    1.0591    0.6322   -2.0328 C   0  0  0  0  0  0  0  0  0  0  0  0
    0.1614    1.0191   -2.5243 H   0  0  0  0  0  0  0  0  0  0  0  0
    1.4810    1.4271   -1.4127 H   0  0  0  0  0  0  0  0  0  0  0  0
    2.1218    0.3135   -3.0945 C   0  0  0  0  0  0  0  0  0  0  0  0
    2.6817   -0.8123   -3.0891 O   0  5  0  0  0  0  0  0  0  0  0  0
    2.3909    1.2351   -3.9035 O   0  0  0  0  0  0  0  0  0  0  0  0
   -0.3122    1.2688    0.4383 C   0  0  0  0  0  0  0  0  0  0  0  0
   -1.3297    1.8437    0.0585 O   0  0  0  0  0  0  0  0  0  0  0  0
    0.5062    1.9079    1.3526 N   0  0  0  0  0  0  0  0  0  0  0  0
    1.3820    1.4434    1.5717 H   0  0  0  0  0  0  0  0  0  0  0  0
    0.3711    3.3204    1.6797 C   0  0  0  0  0  0  0  0  0  0  0  0
   -0.6197    3.5243    2.0983 H   0  0  0  0  0  0  0  0  0  0  0  0
    1.1233    3.6081    2.4201 H   0  0  0  0  0  0  0  0  0  0  0  0
    0.5112    3.9350    0.7845 H   0  0  0  0  0  0  0  0  0  0  0  0
  1  2  1  0  0  0  0
  2  3  1  0  0  0  0
  2  4  1  0  0  0  0
  2  5  1  0  0  0  0
  5  6  2  0  0  0  0
  5  7  1  0  0  0  0
  7  8  1  0  0  0  0
  7  9  1  0  0  0  0
  9 10  1  0  0  0  0
  9 11  1  0  0  0  0
  9 20  1  0  0  0  0
 11 12  1  0  0  0  0
 11 13  1  0  0  0  0
 11 14  1  0  0  0  0
 14 15  1  0  0  0  0
 14 16  1  0  0  0  0
 14 17  1  0  0  0  0
 17 18  1  0  0  0  0
 17 19  2  0  0  0  0
 20 21  2  0  0  0  0
 20 22  1  0  0  0  0
 22 23  1  0  0  0  0
 22 24  1  0  0  0  0
 24 25  1  0  0  0  0
 24 26  1  0  0  0  0
 24 27  1  0  0  0  0
M  CHG  1  18  -1
M  END
$$$$

  -OEChem-03222214043D

 27 26  0     1  0  0  0  0  0999 V2000
   -3.0947   -3.6784    1.1885 H   0  0  0  0  0  0  0  0  0  0  0  0
   -3.0447   -2.7365    0.6353 C   0  0  0  0  0  0  0  0  0  0  0  0
   -3.7972   -2.0516    1.0339 H   0  0  0  0  0  0  0  0  0  0  0  0
   -3.2643   -2.9337   -0.4170 H   0  0  0  0  0  0  0  0  0  0  0  0
   -1.6627   -2.1220    0.7683 C   0  0  0  0  0  0  0  0  0  0  0  0
   -0.8169   -2.6704    1.4594 O   0  0  0  0  0  0  0  0  0  0  0  0
   -1.3906   -0.9283    0.1375 N   0  0  0  0  0  0  0  0  0  0  0  0
   -2.1479   -0.4724   -0.3677 H   0  0  0  0  0  0  0  0  0  0  0  0
   -0.0980   -0.2291    0.1552 C   0  0  1  0  0  0  0  0  0  0  0  0
    0.4987   -0.5924    0.9974 H   0  0  0  0  0  0  0  0  0  0  0  0
    0.6930   -0.5522   -1.1357 C   0  0  0  0  0  0  0  0  0  0  0  0
    1.4619   -1.2954   -0.8998 H   0  0  0  0  0  0  0  0  0  0  0  0
    0.0170   -1.0114   -1.8655 H   0  0  0  0  0  0  0  0  0  0  0  0
    1.3573    0.6569   -1.8187 C   0  0  0  0  0  0  0  0  0  0  0  0
    0.6002    1.3914   -2.1092 H   0  0  0  0  0  0  0  0  0  0  0  0
    2.0548    1.1420   -1.1292 H   0  0  0  0  0  0  0  0  0  0  0  0
    2.1088    0.2199   -3.0758 C   0  0  0  0  0  0  0  0  0  0  0  0
    1.4399   -0.0122   -4.1130 O   0  5  0  0  0  0  0  0  0  0  0  0
    3.3556    0.0962   -2.9834 O   0  0  0  0  0  0  0  0  0  0  0  0
   -0.3268    1.2772    0.4196 C   0  0  0  0  0  0  0  0  0  0  0  0
   -1.3483    1.8331    0.0231 O   0  0  0  0  0  0  0  0  0  0  0  0
    0.4765    1.9418    1.3291 N   0  0  0  0  0  0  0  0  0  0  0  0
    1.3593    1.4941    1.5552 H   0  0  0  0  0  0  0  0  0  0  0  0
    0.3228    3.3580    1.6305 C   0  0  0  0  0  0  0  0  0  0  0  0
   -0.6806    3.5627    2.0176 H   0  0  0  0  0  0  0  0  0  0  0  0
    1.0516    3.6608    2.3881 H   0  0  0  0  0  0  0  0  0  0  0  0
    0.4851    3.9597    0.7304 H   0  0  0  0  0  0  0  0  0  0  0  0
  1  2  1  0  0  0  0
  2  3  1  0  0  0  0
  2  4  1  0  0  0  0
  2  5  1  0  0  0  0
  5  6  2  0  0  0  0
  5  7  1  0  0  0  0
  7  8  1  0  0  0  0
  7  9  1  0  0  0  0
  9 10  1  0  0  0  0
  9 11  1  0  0  0  0
  9 20  1  0  0  0  0
 11 12  1  0  0  0  0
 11 13  1  0  0  0  0
 11 14  1  0  0  0  0
 14 15  1  0  0  0  0
 14 16  1  0  0  0  0
 14 17  1  0  0  0  0
 17 18  1  0  0  0  0
 17 19  2  0  0  0  0
 20 21  2  0  0  0  0
 20 22  1  0  0  0  0
 22 23  1  0  0  0  0
 22 24  1  0  0  0  0
 24 25  1  0  0  0  0
 24 26  1  0  0  0  0
 24 27  1  0  0  0  0
M  CHG  1  18  -1
M  END
$$$$

  -OEChem-03222214043D

 27 26  0     1  0  0  0  0  0999 V2000
   -3.2565   -3.5924    1.0521 H   0  0  0  0  0  0  0  0  0  0  0  0
   -3.1672   -2.6342    0.5330 C   0  0  0  0  0  0  0  0  0  0  0  0
   -3.9064   -1.9405    0.9410 H   0  0  0  0  0  0  0  0  0  0  0  0
   -3.3717   -2.7888   -0.5295 H   0  0  0  0  0  0  0  0  0  0  0  0
   -1.7702   -2.0668    0.7112 C   0  0  0  0  0  0  0  0  0  0  0  0
   -0.9554   -2.6594    1.4039 O   0  0  0  0  0  0  0  0  0  0  0  0
   -1.4472   -0.8683    0.1146 N   0  0  0  0  0  0  0  0  0  0  0  0
   -2.1742   -0.3857   -0.4100 H   0  0  0  0  0  0  0  0  0  0  0  0
   -0.1268   -0.2242    0.1515 C   0  0  1  0  0  0  0  0  0  0  0  0
    0.4452   -0.6322    0.9901 H   0  0  0  0  0  0  0  0  0  0  0  0
    0.6632   -0.5664   -1.1372 C   0  0  0  0  0  0  0  0  0  0  0  0
    1.3906   -1.3539   -0.9154 H   0  0  0  0  0  0  0  0  0  0  0  0
   -0.0417   -0.9832   -1.8650 H   0  0  0  0  0  0  0  0  0  0  0  0
    1.3918    0.6135   -1.8161 C   0  0  0  0  0  0  0  0  0  0  0  0
    0.7308    1.4803   -1.8975 H   0  0  0  0  0  0  0  0  0  0  0  0
    2.2574    0.9051   -1.2137 H   0  0  0  0  0  0  0  0  0  0  0  0
    1.8315    0.2734   -3.2429 C   0  0  0  0  0  0  0  0  0  0  0  0
    3.0613    0.3429   -3.4894 O   0  5  0  0  0  0  0  0  0  0  0  0
    0.9548   -0.0761   -4.0723 O   0  0  0  0  0  0  0  0  0  0  0  0
   -0.2844    1.2829    0.4579 C   0  0  0  0  0  0  0  0  0  0  0  0
   -1.2803    1.8973    0.0845 O   0  0  0  0  0  0  0  0  0  0  0  0
    0.5500    1.8825    1.3846 N   0  0  0  0  0  0  0  0  0  0  0  0
    1.4075    1.3856    1.6046 H   0  0  0  0  0  0  0  0  0  0  0  0
    0.4541    3.2913    1.7392 C   0  0  0  0  0  0  0  0  0  0  0  0
   -0.5269    3.5119    2.1721 H   0  0  0  0  0  0  0  0  0  0  0  0
    1.2209    3.5456    2.4768 H   0  0  0  0  0  0  0  0  0  0  0  0
    0.6007    3.9188    0.8541 H   0  0  0  0  0  0  0  0  0  0  0  0
  1  2  1  0  0  0  0
  2  3  1  0  0  0  0
  2  4  1  0  0  0  0
  2  5  1  0  0  0  0
  5  6  2  0  0  0  0
  5  7  1  0  0  0  0
  7  8  1  0  0  0  0
  7  9  1  0  0  0  0
  9 10  1  0  0  0  0
  9 11  1  0  0  0  0
  9 20  1  0  0  0  0
 11 12  1  0  0  0  0
 11 13  1  0  0  0  0
 11 14  1  0  0  0  0
 14 15  1  0  0  0  0
 14 16  1  0  0  0  0
 14 17  1  0  0  0  0
 17 18  1  0  0  0  0
 17 19  2  0  0  0  0
 20 21  2  0  0  0  0
 20 22  1  0  0  0  0
 22 23  1  0  0  0  0
 22 24  1  0  0  0  0
 24 25  1  0  0  0  0
 24 26  1  0  0  0  0
 24 27  1  0  0  0  0
M  CHG  1  18  -1
M  END
$$$$

  -OEChem-03222214043D

 27 26  0     1  0  0  0  0  0999 V2000
   -3.2490   -3.5919    1.0531 H   0  0  0  0  0  0  0  0  0  0  0  0
   -3.1668   -2.6287    0.5420 C   0  0  0  0  0  0  0  0  0  0  0  0
   -3.9081   -1.9422    0.9584 H   0  0  0  0  0  0  0  0  0  0  0  0
   -3.3745   -2.7752   -0.5211 H   0  0  0  0  0  0  0  0  0  0  0  0
   -1.7724   -2.0547    0.7205 C   0  0  0  0  0  0  0  0  0  0  0  0
   -0.9538   -2.6448    1.4112 O   0  0  0  0  0  0  0  0  0  0  0  0
   -1.4556   -0.8530    0.1271 N   0  0  0  0  0  0  0  0  0  0  0  0
   -2.1804   -0.3813   -0.4108 H   0  0  0  0  0  0  0  0  0  0  0  0
   -0.1365   -0.2058    0.1577 C   0  0  1  0  0  0  0  0  0  0  0  0
    0.4346   -0.6123    0.9974 H   0  0  0  0  0  0  0  0  0  0  0  0
    0.6566   -0.5654   -1.1270 C   0  0  0  0  0  0  0  0  0  0  0  0
    1.3782   -1.3553   -0.8958 H   0  0  0  0  0  0  0  0  0  0  0  0
   -0.0563   -0.9977   -1.8374 H   0  0  0  0  0  0  0  0  0  0  0  0
    1.3968    0.5890   -1.8467 C   0  0  0  0  0  0  0  0  0  0  0  0
    0.8640    1.5351   -1.7355 H   0  0  0  0  0  0  0  0  0  0  0  0
    2.3887    0.7150   -1.4026 H   0  0  0  0  0  0  0  0  0  0  0  0
    1.5125    0.3635   -3.3583 C   0  0  0  0  0  0  0  0  0  0  0  0
    2.6714    0.3698   -3.8428 O   0  5  0  0  0  0  0  0  0  0  0  0
    0.4626    0.1690   -4.0208 O   0  0  0  0  0  0  0  0  0  0  0  0
   -0.2924    1.2999    0.4713 C   0  0  0  0  0  0  0  0  0  0  0  0
   -1.2923    1.9163    0.1137 O   0  0  0  0  0  0  0  0  0  0  0  0
    0.5493    1.8953    1.3945 N   0  0  0  0  0  0  0  0  0  0  0  0
    1.4061    1.3957    1.6092 H   0  0  0  0  0  0  0  0  0  0  0  0
    0.4588    3.3038    1.7522 C   0  0  0  0  0  0  0  0  0  0  0  0
   -0.5185    3.5257    2.1931 H   0  0  0  0  0  0  0  0  0  0  0  0
    1.2320    3.5558    2.4838 H   0  0  0  0  0  0  0  0  0  0  0  0
    0.5994    3.9326    0.8669 H   0  0  0  0  0  0  0  0  0  0  0  0
  1  2  1  0  0  0  0
  2  3  1  0  0  0  0
  2  4  1  0  0  0  0
  2  5  1  0  0  0  0
  5  6  2  0  0  0  0
  5  7  1  0  0  0  0
  7  8  1  0  0  0  0
  7  9  1  0  0  0  0
  9 10  1  0  0  0  0
  9 11  1  0  0  0  0
  9 20  1  0  0  0  0
 11 12  1  0  0  0  0
 11 13  1  0  0  0  0
 11 14  1  0  0  0  0
 14 15  1  0  0  0  0
 14 16  1  0  0  0  0
 14 17  1  0  0  0  0
 17 18  1  0  0  0  0
 17 19  2  0  0  0  0
 20 21  2  0  0  0  0
 20 22  1  0  0  0  0
 22 23  1  0  0  0  0
 22 24  1  0  0  0  0
 24 25  1  0  0  0  0
 24 26  1  0  0  0  0
 24 27  1  0  0  0  0
M  CHG  1  18  -1
M  END
$$$$

  -OEChem-03222214043D

 27 26  0     1  0  0  0  0  0999 V2000
   -3.2083   -3.5786    1.1346 H   0  0  0  0  0  0  0  0  0  0  0  0
   -3.1262   -2.6374    0.5842 C   0  0  0  0  0  0  0  0  0  0  0  0
   -3.8590   -1.9304    0.9809 H   0  0  0  0  0  0  0  0  0  0  0  0
   -3.3463   -2.8250   -0.4699 H   0  0  0  0  0  0  0  0  0  0  0  0
   -1.7266   -2.0663    0.7242 C   0  0  0  0  0  0  0  0  0  0  0  0
   -0.8892   -2.6600    1.3889 O   0  0  0  0  0  0  0  0  0  0  0  0
   -1.4262   -0.8615    0.1290 N   0  0  0  0  0  0  0  0  0  0  0  0
   -2.1747   -0.3666   -0.3533 H   0  0  0  0  0  0  0  0  0  0  0  0
   -0.1136   -0.2007    0.1525 C   0  0  1  0  0  0  0  0  0  0  0  0
    0.4682   -0.5971    0.9897 H   0  0  0  0  0  0  0  0  0  0  0  0
    0.6739   -0.5507   -1.1405 C   0  0  0  0  0  0  0  0  0  0  0  0
    1.3973   -1.3397   -0.9111 H   0  0  0  0  0  0  0  0  0  0  0  0
   -0.0406   -0.9903   -1.8458 H   0  0  0  0  0  0  0  0  0  0  0  0
    1.4117    0.5908   -1.8889 C   0  0  0  0  0  0  0  0  0  0  0  0
    1.0888    1.5784   -1.5571 H   0  0  0  0  0  0  0  0  0  0  0  0
    2.4833    0.5176   -1.6840 H   0  0  0  0  0  0  0  0  0  0  0  0
    1.1844    0.5228   -3.4028 C   0  0  0  0  0  0  0  0  0  0  0  0
    1.5550   -0.5236   -3.9922 O   0  5  0  0  0  0  0  0  0  0  0  0
    0.6820    1.5227   -3.9714 O   0  0  0  0  0  0  0  0  0  0  0  0
   -0.3080    1.3000    0.4687 C   0  0  0  0  0  0  0  0  0  0  0  0
   -1.3412    1.8785    0.1437 O   0  0  0  0  0  0  0  0  0  0  0  0
    0.5210    1.9145    1.3909 N   0  0  0  0  0  0  0  0  0  0  0  0
    1.3989    1.4466    1.5906 H   0  0  0  0  0  0  0  0  0  0  0  0
    0.3730    3.3104    1.7779 C   0  0  0  0  0  0  0  0  0  0  0  0
   -0.5974    3.4737    2.2579 H   0  0  0  0  0  0  0  0  0  0  0  0
    1.1591    3.5896    2.4855 H   0  0  0  0  0  0  0  0  0  0  0  0
    0.4485    3.9607    0.9001 H   0  0  0  0  0  0  0  0  0  0  0  0
  1  2  1  0  0  0  0
  2  3  1  0  0  0  0
  2  4  1  0  0  0  0
  2  5  1  0  0  0  0
  5  6  2  0  0  0  0
  5  7  1  0  0  0  0
  7  8  1  0  0  0  0
  7  9  1  0  0  0  0
  9 10  1  0  0  0  0
  9 11  1  0  0  0  0
  9 20  1  0  0  0  0
 11 12  1  0  0  0  0
 11 13  1  0  0  0  0
 11 14  1  0  0  0  0
 14 15  1  0  0  0  0
 14 16  1  0  0  0  0
 14 17  1  0  0  0  0
 17 18  1  0  0  0  0
 17 19  2  0  0  0  0
 20 21  2  0  0  0  0
 20 22  1  0  0  0  0
 22 23  1  0  0  0  0
 22 24  1  0  0  0  0
 24 25  1  0  0  0  0
 24 26  1  0  0  0  0
 24 27  1  0  0  0  0
M  CHG  1  18  -1
M  END
$$$$

  -OEChem-03222214043D

 27 26  0     1  0  0  0  0  0999 V2000
   -3.2142   -3.5696    1.1722 H   0  0  0  0  0  0  0  0  0  0  0  0
   -3.1286   -2.6322    0.6157 C   0  0  0  0  0  0  0  0  0  0  0  0
   -3.8526   -1.9168    1.0137 H   0  0  0  0  0  0  0  0  0  0  0  0
   -3.3583   -2.8238   -0.4356 H   0  0  0  0  0  0  0  0  0  0  0  0
   -1.7235   -2.0710    0.7409 C   0  0  0  0  0  0  0  0  0  0  0  0
   -0.8822   -2.6701    1.3961 O   0  0  0  0  0  0  0  0  0  0  0  0
   -1.4203   -0.8711    0.1380 N   0  0  0  0  0  0  0  0  0  0  0  0
   -2.1710   -0.3697   -0.3347 H   0  0  0  0  0  0  0  0  0  0  0  0
   -0.1066   -0.2129    0.1559 C   0  0  1  0  0  0  0  0  0  0  0  0
    0.4801   -0.6044    0.9918 H   0  0  0  0  0  0  0  0  0  0  0  0
    0.6675   -0.5643   -1.1441 C   0  0  0  0  0  0  0  0  0  0  0  0
    1.4027   -1.3369   -0.8979 H   0  0  0  0  0  0  0  0  0  0  0  0
   -0.0368   -1.0309   -1.8417 H   0  0  0  0  0  0  0  0  0  0  0  0
    1.4043    0.5764   -1.8974 C   0  0  0  0  0  0  0  0  0  0  0  0
    1.3491    1.5293   -1.3696 H   0  0  0  0  0  0  0  0  0  0  0  0
    2.4650    0.3160   -1.9521 H   0  0  0  0  0  0  0  0  0  0  0  0
    0.9055    0.7750   -3.3334 C   0  0  0  0  0  0  0  0  0  0  0  0
    0.9071   -0.2249   -4.0955 O   0  5  0  0  0  0  0  0  0  0  0  0
    0.5967    1.9395   -3.6854 O   0  0  0  0  0  0  0  0  0  0  0  0
   -0.3121    1.2895    0.4631 C   0  0  0  0  0  0  0  0  0  0  0  0
   -1.3609    1.8504    0.1582 O   0  0  0  0  0  0  0  0  0  0  0  0
    0.5135    1.9130    1.3827 N   0  0  0  0  0  0  0  0  0  0  0  0
    1.4057    1.4644    1.5601 H   0  0  0  0  0  0  0  0  0  0  0  0
    0.3518    3.3089    1.7650 C   0  0  0  0  0  0  0  0  0  0  0  0
   -0.6159    3.4625    2.2536 H   0  0  0  0  0  0  0  0  0  0  0  0
    1.1412    3.6012    2.4637 H   0  0  0  0  0  0  0  0  0  0  0  0
    0.4108    3.9562    0.8837 H   0  0  0  0  0  0  0  0  0  0  0  0
  1  2  1  0  0  0  0
  2  3  1  0  0  0  0
  2  4  1  0  0  0  0
  2  5  1  0  0  0  0
  5  6  2  0  0  0  0
  5  7  1  0  0  0  0
  7  8  1  0  0  0  0
  7  9  1  0  0  0  0
  9 10  1  0  0  0  0
  9 11  1  0  0  0  0
  9 20  1  0  0  0  0
 11 12  1  0  0  0  0
 11 13  1  0  0  0  0
 11 14  1  0  0  0  0
 14 15  1  0  0  0  0
 14 16  1  0  0  0  0
 14 17  1  0  0  0  0
 17 18  1  0  0  0  0
 17 19  2  0  0  0  0
 20 21  2  0  0  0  0
 20 22  1  0  0  0  0
 22 23  1  0  0  0  0
 22 24  1  0  0  0  0
 24 25  1  0  0  0  0
 24 26  1  0  0  0  0
 24 27  1  0  0  0  0
M  CHG  1  18  -1
M  END
$$$$

  -OEChem-03222214043D

 27 26  0     1  0  0  0  0  0999 V2000
   -3.2133   -3.5763    1.2027 H   0  0  0  0  0  0  0  0  0  0  0  0
   -3.1306   -2.6391    0.6455 C   0  0  0  0  0  0  0  0  0  0  0  0
   -3.8434   -1.9195    1.0557 H   0  0  0  0  0  0  0  0  0  0  0  0
   -3.3788   -2.8282   -0.4021 H   0  0  0  0  0  0  0  0  0  0  0  0
   -1.7203   -2.0865    0.7501 C   0  0  0  0  0  0  0  0  0  0  0  0
   -0.8739   -2.6908    1.3941 O   0  0  0  0  0  0  0  0  0  0  0  0
   -1.4158   -0.8910    0.1396 N   0  0  0  0  0  0  0  0  0  0  0  0
   -2.1683   -0.3842   -0.3251 H   0  0  0  0  0  0  0  0  0  0  0  0
   -0.1033   -0.2312    0.1573 C   0  0  1  0  0  0  0  0  0  0  0  0
    0.4856   -0.6173    0.9943 H   0  0  0  0  0  0  0  0  0  0  0  0
    0.6632   -0.5791   -1.1456 C   0  0  0  0  0  0  0  0  0  0  0  0
    1.4153   -1.3302   -0.8844 H   0  0  0  0  0  0  0  0  0  0  0  0
   -0.0217   -1.0705   -1.8445 H   0  0  0  0  0  0  0  0  0  0  0  0
    1.3885    0.5769   -1.8816 C   0  0  0  0  0  0  0  0  0  0  0  0
    1.5904    1.4198   -1.2175 H   0  0  0  0  0  0  0  0  0  0  0  0
    2.3643    0.1985   -2.1987 H   0  0  0  0  0  0  0  0  0  0  0  0
    0.6854    1.0640   -3.1546 C   0  0  0  0  0  0  0  0  0  0  0  0
    0.2694    0.2062   -3.9742 O   0  5  0  0  0  0  0  0  0  0  0  0
    0.6615    2.3040   -3.3471 O   0  0  0  0  0  0  0  0  0  0  0  0
   -0.3157    1.2737    0.4528 C   0  0  0  0  0  0  0  0  0  0  0  0
   -1.3766    1.8190    0.1611 O   0  0  0  0  0  0  0  0  0  0  0  0
    0.5042    1.9070    1.3710 N   0  0  0  0  0  0  0  0  0  0  0  0
    1.4072    1.4749    1.5332 H   0  0  0  0  0  0  0  0  0  0  0  0
    0.3380    3.3088    1.7298 C   0  0  0  0  0  0  0  0  0  0  0  0
   -0.6245    3.4655    2.2276 H   0  0  0  0  0  0  0  0  0  0  0  0
    1.1342    3.6185    2.4131 H   0  0  0  0  0  0  0  0  0  0  0  0
    0.3819    3.9403    0.8361 H   0  0  0  0  0  0  0  0  0  0  0  0
  1  2  1  0  0  0  0
  2  3  1  0  0  0  0
  2  4  1  0  0  0  0
  2  5  1  0  0  0  0
  5  6  2  0  0  0  0
  5  7  1  0  0  0  0
  7  8  1  0  0  0  0
  7  9  1  0  0  0  0
  9 10  1  0  0  0  0
  9 11  1  0  0  0  0
  9 20  1  0  0  0  0
 11 12  1  0  0  0  0
 11 13  1  0  0  0  0
 11 14  1  0  0  0  0
 14 15  1  0  0  0  0
 14 16  1  0  0  0  0
 14 17  1  0  0  0  0
 17 18  1  0  0  0  0
 17 19  2  0  0  0  0
 20 21  2  0  0  0  0
 20 22  1  0  0  0  0
 22 23  1  0  0  0  0
 22 24  1  0  0  0  0
 24 25  1  0  0  0  0
 24 26  1  0  0  0  0
 24 27  1  0  0  0  0
M  CHG  1  18  -1
M  END
$$$$

  -OEChem-03222214043D

 27 26  0     1  0  0  0  0  0999 V2000
   -3.2104   -3.5898    1.2176 H   0  0  0  0  0  0  0  0  0  0  0  0
   -3.1281   -2.6567    0.6537 C   0  0  0  0  0  0  0  0  0  0  0  0
   -3.8423   -1.9349    1.0577 H   0  0  0  0  0  0  0  0  0  0  0  0
   -3.3745   -2.8531   -0.3929 H   0  0  0  0  0  0  0  0  0  0  0  0
   -1.7186   -2.1015    0.7549 C   0  0  0  0  0  0  0  0  0  0  0  0
   -0.8678   -2.7077    1.3918 O   0  0  0  0  0  0  0  0  0  0  0  0
   -1.4187   -0.9061    0.1429 N   0  0  0  0  0  0  0  0  0  0  0  0
   -2.1732   -0.4021   -0.3226 H   0  0  0  0  0  0  0  0  0  0  0  0
   -0.1106   -0.2394    0.1578 C   0  0  1  0  0  0  0  0  0  0  0  0
    0.4770   -0.6220    0.9973 H   0  0  0  0  0  0  0  0  0  0  0  0
    0.6638   -0.5825   -1.1395 C   0  0  0  0  0  0  0  0  0  0  0  0
    1.4270   -1.3199   -0.8721 H   0  0  0  0  0  0  0  0  0  0  0  0
   -0.0053   -1.0813   -1.8484 H   0  0  0  0  0  0  0  0  0  0  0  0
    1.3735    0.5899   -1.8561 C   0  0  0  0  0  0  0  0  0  0  0  0
    1.7771    1.3006   -1.1301 H   0  0  0  0  0  0  0  0  0  0  0  0
    2.2293    0.1729   -2.3943 H   0  0  0  0  0  0  0  0  0  0  0  0
    0.5261    1.3237   -2.9027 C   0  0  0  0  0  0  0  0  0  0  0  0
   -0.2303    0.6513   -3.6481 O   0  5  0  0  0  0  0  0  0  0  0  0
    0.7293    2.5574   -3.0160 O   0  0  0  0  0  0  0  0  0  0  0  0
   -0.3220    1.2666    0.4502 C   0  0  0  0  0  0  0  0  0  0  0  0
   -1.3947    1.8020    0.1856 O   0  0  0  0  0  0  0  0  0  0  0  0
    0.5021    1.8994    1.3649 N   0  0  0  0  0  0  0  0  0  0  0  0
    1.4161    1.4800    1.4943 H   0  0  0  0  0  0  0  0  0  0  0  0
    0.3455    3.3082    1.6996 C   0  0  0  0  0  0  0  0  0  0  0  0
   -0.6230    3.4838    2.1788 H   0  0  0  0  0  0  0  0  0  0  0  0
    1.1335    3.6198    2.3912 H   0  0  0  0  0  0  0  0  0  0  0  0
    0.4114    3.9241    0.7964 H   0  0  0  0  0  0  0  0  0  0  0  0
  1  2  1  0  0  0  0
  2  3  1  0  0  0  0
  2  4  1  0  0  0  0
  2  5  1  0  0  0  0
  5  6  2  0  0  0  0
  5  7  1  0  0  0  0
  7  8  1  0  0  0  0
  7  9  1  0  0  0  0
  9 10  1  0  0  0  0
  9 11  1  0  0  0  0
  9 20  1  0  0  0  0
 11 12  1  0  0  0  0
 11 13  1  0  0  0  0
 11 14  1  0  0  0  0
 14 15  1  0  0  0  0
 14 16  1  0  0  0  0
 14 17  1  0  0  0  0
 17 18  1  0  0  0  0
 17 19  2  0  0  0  0
 20 21  2  0  0  0  0
 20 22  1  0  0  0  0
 22 23  1  0  0  0  0
 22 24  1  0  0  0  0
 24 25  1  0  0  0  0
 24 26  1  0  0  0  0
 24 27  1  0  0  0  0
M  CHG  1  18  -1
M  END
$$$$

  -OEChem-03222214043D

 27 26  0     1  0  0  0  0  0999 V2000
   -3.2075   -3.5807    1.2416 H   0  0  0  0  0  0  0  0  0  0  0  0
   -3.1308   -2.6489    0.6749 C   0  0  0  0  0  0  0  0  0  0  0  0
   -3.8285   -1.9206    1.0961 H   0  0  0  0  0  0  0  0  0  0  0  0
   -3.4054   -2.8435   -0.3650 H   0  0  0  0  0  0  0  0  0  0  0  0
   -1.7141   -2.1065    0.7406 C   0  0  0  0  0  0  0  0  0  0  0  0
   -0.8490   -2.7294    1.3412 O   0  0  0  0  0  0  0  0  0  0  0  0
   -1.4238   -0.9054    0.1355 N   0  0  0  0  0  0  0  0  0  0  0  0
   -2.1914   -0.3820   -0.2857 H   0  0  0  0  0  0  0  0  0  0  0  0
   -0.1196   -0.2307    0.1456 C   0  0  1  0  0  0  0  0  0  0  0  0
    0.4627   -0.6102    0.9900 H   0  0  0  0  0  0  0  0  0  0  0  0
    0.6768   -0.5808   -1.1363 C   0  0  0  0  0  0  0  0  0  0  0  0
    1.4355   -1.3201   -0.8624 H   0  0  0  0  0  0  0  0  0  0  0  0
    0.0100   -1.0702   -1.8545 H   0  0  0  0  0  0  0  0  0  0  0  0
    1.3838    0.5836   -1.8602 C   0  0  0  0  0  0  0  0  0  0  0  0
    1.9612    1.1676   -1.1374 H   0  0  0  0  0  0  0  0  0  0  0  0
    2.0960    0.1548   -2.5708 H   0  0  0  0  0  0  0  0  0  0  0  0
    0.4616    1.5109   -2.6574 C   0  0  0  0  0  0  0  0  0  0  0  0
   -0.4063    0.9906   -3.4022 O   0  5  0  0  0  0  0  0  0  0  0  0
    0.7069    2.7404   -2.5878 O   0  0  0  0  0  0  0  0  0  0  0  0
   -0.3284    1.2742    0.4491 C   0  0  0  0  0  0  0  0  0  0  0  0
   -1.4287    1.7852    0.2560 O   0  0  0  0  0  0  0  0  0  0  0  0
    0.5062    1.8985    1.3605 N   0  0  0  0  0  0  0  0  0  0  0  0
    1.4403    1.5099    1.4254 H   0  0  0  0  0  0  0  0  0  0  0  0
    0.3348    3.3006    1.7165 C   0  0  0  0  0  0  0  0  0  0  0  0
   -0.6201    3.4527    2.2297 H   0  0  0  0  0  0  0  0  0  0  0  0
    1.1397    3.6195    2.3850 H   0  0  0  0  0  0  0  0  0  0  0  0
    0.3587    3.9279    0.8189 H   0  0  0  0  0  0  0  0  0  0  0  0
  1  2  1  0  0  0  0
  2  3  1  0  0  0  0
  2  4  1  0  0  0  0
  2  5  1  0  0  0  0
  5  6  2  0  0  0  0
  5  7  1  0  0  0  0
  7  8  1  0  0  0  0
  7  9  1  0  0  0  0
  9 10  1  0  0  0  0
  9 11  1  0  0  0  0
  9 20  1  0  0  0  0
 11 12  1  0  0  0  0
 11 13  1  0  0  0  0
 11 14  1  0  0  0  0
 14 15  1  0  0  0  0
 14 16  1  0  0  0  0
 14 17  1  0  0  0  0
 17 18  1  0  0  0  0
 17 19  2  0  0  0  0
 20 21  2  0  0  0  0
 20 22  1  0  0  0  0
 22 23  1  0  0  0  0
 22 24  1  0  0  0  0
 24 25  1  0  0  0  0
 24 26  1  0  0  0  0
 24 27  1  0  0  0  0
M  CHG  1  18  -1
M  END
$$$$

  -OEChem-03222214043D

 27 26  0     1  0  0  0  0  0999 V2000
   -3.1827   -3.5815    1.2763 H   0  0  0  0  0  0  0  0  0  0  0  0
   -3.1239   -2.6448    0.7154 C   0  0  0  0  0  0  0  0  0  0  0  0
   -3.7956   -1.9150    1.1747 H   0  0  0  0  0  0  0  0  0  0  0  0
   -3.4462   -2.8269   -0.3130 H   0  0  0  0  0  0  0  0  0  0  0  0
   -1.7011   -2.1146    0.7230 C   0  0  0  0  0  0  0  0  0  0  0  0
   -0.8129   -2.7605    1.2624 O   0  0  0  0  0  0  0  0  0  0  0  0
   -1.4306   -0.9010    0.1339 N   0  0  0  0  0  0  0  0  0  0  0  0
   -2.2168   -0.3507   -0.2124 H   0  0  0  0  0  0  0  0  0  0  0  0
   -0.1312   -0.2163    0.1381 C   0  0  1  0  0  0  0  0  0  0  0  0
    0.4513   -0.5967    0.9823 H   0  0  0  0  0  0  0  0  0  0  0  0
    0.6813   -0.5688   -1.1360 C   0  0  0  0  0  0  0  0  0  0  0  0
    1.4266   -1.3223   -0.8637 H   0  0  0  0  0  0  0  0  0  0  0  0
    0.0025   -1.0426   -1.8533 H   0  0  0  0  0  0  0  0  0  0  0  0
    1.3981    0.5666   -1.8955 C   0  0  0  0  0  0  0  0  0  0  0  0
    2.1482    1.0064   -1.2311 H   0  0  0  0  0  0  0  0  0  0  0  0
    1.9322    0.1281   -2.7432 H   0  0  0  0  0  0  0  0  0  0  0  0
    0.5064    1.6830   -2.4400 C   0  0  0  0  0  0  0  0  0  0  0  0
   -0.4320    1.3612   -3.2092 O   0  5  0  0  0  0  0  0  0  0  0  0
    0.8284    2.8604   -2.1439 O   0  0  0  0  0  0  0  0  0  0  0  0
   -0.3501    1.2818    0.4704 C   0  0  0  0  0  0  0  0  0  0  0  0
   -1.4748    1.7626    0.3443 O   0  0  0  0  0  0  0  0  0  0  0  0
    0.4930    1.8953    1.3810 N   0  0  0  0  0  0  0  0  0  0  0  0
    1.4447    1.5461    1.3716 H   0  0  0  0  0  0  0  0  0  0  0  0
    0.3070    3.2908    1.7559 C   0  0  0  0  0  0  0  0  0  0  0  0
   -0.6407    3.4242    2.2873 H   0  0  0  0  0  0  0  0  0  0  0  0
    1.1186    3.6140    2.4138 H   0  0  0  0  0  0  0  0  0  0  0  0
    0.3068    3.9278    0.8646 H   0  0  0  0  0  0  0  0  0  0  0  0
  1  2  1  0  0  0  0
  2  3  1  0  0  0  0
  2  4  1  0  0  0  0
  2  5  1  0  0  0  0
  5  6  2  0  0  0  0
  5  7  1  0  0  0  0
  7  8  1  0  0  0  0
  7  9  1  0  0  0  0
  9 10  1  0  0  0  0
  9 11  1  0  0  0  0
  9 20  1  0  0  0  0
 11 12  1  0  0  0  0
 11 13  1  0  0  0  0
 11 14  1  0  0  0  0
 14 15  1  0  0  0  0
 14 16  1  0  0  0  0
 14 17  1  0  0  0  0
 17 18  1  0  0  0  0
 17 19  2  0  0  0  0
 20 21  2  0  0  0  0
 20 22  1  0  0  0  0
 22 23  1  0  0  0  0
 22 24  1  0  0  0  0
 24 25  1  0  0  0  0
 24 26  1  0  0  0  0
 24 27  1  0  0  0  0
M  CHG  1  18  -1
M  END
$$$$

  -OEChem-03222214043D

 27 26  0     1  0  0  0  0  0999 V2000
   -3.1708   -3.5517    1.3462 H   0  0  0  0  0  0  0  0  0  0  0  0
   -3.1190   -2.6155    0.7838 C   0  0  0  0  0  0  0  0  0  0  0  0
   -3.7601   -1.8756    1.2697 H   0  0  0  0  0  0  0  0  0  0  0  0
   -3.4849   -2.7914   -0.2308 H   0  0  0  0  0  0  0  0  0  0  0  0
   -1.6890   -2.1074    0.7350 C   0  0  0  0  0  0  0  0  0  0  0  0
   -0.7886   -2.7720    1.2291 O   0  0  0  0  0  0  0  0  0  0  0  0
   -1.4263   -0.8926    0.1447 N   0  0  0  0  0  0  0  0  0  0  0  0
   -2.2223   -0.3177   -0.1336 H   0  0  0  0  0  0  0  0  0  0  0  0
   -0.1272   -0.2047    0.1467 C   0  0  1  0  0  0  0  0  0  0  0  0
    0.4571   -0.5752    0.9941 H   0  0  0  0  0  0  0  0  0  0  0  0
    0.6889   -0.5746   -1.1251 C   0  0  0  0  0  0  0  0  0  0  0  0
    1.4107   -1.3498   -0.8500 H   0  0  0  0  0  0  0  0  0  0  0  0
   -0.0114   -1.0363   -1.8296 H   0  0  0  0  0  0  0  0  0  0  0  0
    1.4329    0.5048   -1.9446 C   0  0  0  0  0  0  0  0  0  0  0  0
    2.3431    0.7649   -1.3956 H   0  0  0  0  0  0  0  0  0  0  0  0
    1.7484    0.0576   -2.8916 H   0  0  0  0  0  0  0  0  0  0  0  0
    0.6960    1.8034   -2.2635 C   0  0  0  0  0  0  0  0  0  0  0  0
   -0.2547    1.7514   -3.0799 O   0  5  0  0  0  0  0  0  0  0  0  0
    1.1394    2.8526   -1.7323 O   0  0  0  0  0  0  0  0  0  0  0  0
   -0.3744    1.2896    0.4825 C   0  0  0  0  0  0  0  0  0  0  0  0
   -1.5167    1.7366    0.3741 O   0  0  0  0  0  0  0  0  0  0  0  0
    0.4575    1.9142    1.3959 N   0  0  0  0  0  0  0  0  0  0  0  0
    1.4295    1.6371    1.3104 H   0  0  0  0  0  0  0  0  0  0  0  0
    0.2176    3.2938    1.7980 C   0  0  0  0  0  0  0  0  0  0  0  0
   -0.7303    3.3788    2.3391 H   0  0  0  0  0  0  0  0  0  0  0  0
    1.0211    3.6381    2.4554 H   0  0  0  0  0  0  0  0  0  0  0  0
    0.1841    3.9465    0.9189 H   0  0  0  0  0  0  0  0  0  0  0  0
  1  2  1  0  0  0  0
  2  3  1  0  0  0  0
  2  4  1  0  0  0  0
  2  5  1  0  0  0  0
  5  6  2  0  0  0  0
  5  7  1  0  0  0  0
  7  8  1  0  0  0  0
  7  9  1  0  0  0  0
  9 10  1  0  0  0  0
  9 11  1  0  0  0  0
  9 20  1  0  0  0  0
 11 12  1  0  0  0  0
 11 13  1  0  0  0  0
 11 14  1  0  0  0  0
 14 15  1  0  0  0  0
 14 16  1  0  0  0  0
 14 17  1  0  0  0  0
 17 18  1  0  0  0  0
 17 19  2  0  0  0  0
 20 21  2  0  0  0  0
 20 22  1  0  0  0  0
 22 23  1  0  0  0  0
 22 24  1  0  0  0  0
 24 25  1  0  0  0  0
 24 26  1  0  0  0  0
 24 27  1  0  0  0  0
M  CHG  1  18  -1
M  END
$$$$

  -OEChem-03222214043D

 27 26  0     1  0  0  0  0  0999 V2000
   -3.3176   -3.4621    1.2073 H   0  0  0  0  0  0  0  0  0  0  0  0
   -3.2093   -2.5225    0.6587 C   0  0  0  0  0  0  0  0  0  0  0  0
   -3.8508   -1.7675    1.1203 H   0  0  0  0  0  0  0  0  0  0  0  0
   -3.5292   -2.6772   -0.3749 H   0  0  0  0  0  0  0  0  0  0  0  0
   -1.7639   -2.0586    0.6874 C   0  0  0  0  0  0  0  0  0  0  0  0
   -0.9177   -2.7365    1.2537 O   0  0  0  0  0  0  0  0  0  0  0  0
   -1.4274   -0.8698    0.0819 N   0  0  0  0  0  0  0  0  0  0  0  0
   -2.1912   -0.2693   -0.2315 H   0  0  0  0  0  0  0  0  0  0  0  0
   -0.1196   -0.2037    0.1901 C   0  0  1  0  0  0  0  0  0  0  0  0
    0.3838   -0.5465    1.0993 H   0  0  0  0  0  0  0  0  0  0  0  0
    0.7917   -0.6282   -1.0019 C   0  0  0  0  0  0  0  0  0  0  0  0
    1.4486   -1.4295   -0.6495 H   0  0  0  0  0  0  0  0  0  0  0  0
    0.1272   -1.0811   -1.7455 H   0  0  0  0  0  0  0  0  0  0  0  0
    1.6548    0.3692   -1.8176 C   0  0  0  0  0  0  0  0  0  0  0  0
    2.6384    0.4056   -1.3394 H   0  0  0  0  0  0  0  0  0  0  0  0
    1.8099   -0.0532   -2.8149 H   0  0  0  0  0  0  0  0  0  0  0  0
    1.1951    1.8131   -1.9881 C   0  0  0  0  0  0  0  0  0  0  0  0
    0.3901    2.0773   -2.9117 O   0  5  0  0  0  0  0  0  0  0  0  0
    1.7057    2.6571   -1.2072 O   0  0  0  0  0  0  0  0  0  0  0  0
   -0.4135    1.3013    0.4482 C   0  0  0  0  0  0  0  0  0  0  0  0
   -1.5468    1.7261    0.2099 O   0  0  0  0  0  0  0  0  0  0  0  0
    0.3129    1.9649    1.4215 N   0  0  0  0  0  0  0  0  0  0  0  0
    1.3107    1.7989    1.3191 H   0  0  0  0  0  0  0  0  0  0  0  0
   -0.0444    3.3210    1.8171 C   0  0  0  0  0  0  0  0  0  0  0  0
   -1.0361    3.3403    2.2801 H   0  0  0  0  0  0  0  0  0  0  0  0
    0.6808    3.7022    2.5416 H   0  0  0  0  0  0  0  0  0  0  0  0
   -0.0458    3.9840    0.9453 H   0  0  0  0  0  0  0  0  0  0  0  0
  1  2  1  0  0  0  0
  2  3  1  0  0  0  0
  2  4  1  0  0  0  0
  2  5  1  0  0  0  0
  5  6  2  0  0  0  0
  5  7  1  0  0  0  0
  7  8  1  0  0  0  0
  7  9  1  0  0  0  0
  9 10  1  0  0  0  0
  9 11  1  0  0  0  0
  9 20  1  0  0  0  0
 11 12  1  0  0  0  0
 11 13  1  0  0  0  0
 11 14  1  0  0  0  0
 14 15  1  0  0  0  0
 14 16  1  0  0  0  0
 14 17  1  0  0  0  0
 17 18  1  0  0  0  0
 17 19  2  0  0  0  0
 20 21  2  0  0  0  0
 20 22  1  0  0  0  0
 22 23  1  0  0  0  0
 22 24  1  0  0  0  0
 24 25  1  0  0  0  0
 24 26  1  0  0  0  0
 24 27  1  0  0  0  0
M  CHG  1  18  -1
M  END
$$$$

  -OEChem-03222214043D

 27 26  0     1  0  0  0  0  0999 V2000
   -3.2310   -3.5105    1.1311 H   0  0  0  0  0  0  0  0  0  0  0  0
   -3.1430   -2.5488    0.6183 C   0  0  0  0  0  0  0  0  0  0  0  0
   -3.7504   -1.8097    1.1470 H   0  0  0  0  0  0  0  0  0  0  0  0
   -3.5208   -2.6556   -0.4016 H   0  0  0  0  0  0  0  0  0  0  0  0
   -1.6930   -2.0989    0.5875 C   0  0  0  0  0  0  0  0  0  0  0  0
   -0.8233   -2.8168    1.0602 O   0  0  0  0  0  0  0  0  0  0  0  0
   -1.3792   -0.8776    0.0367 N   0  0  0  0  0  0  0  0  0  0  0  0
   -2.1555   -0.2503   -0.1798 H   0  0  0  0  0  0  0  0  0  0  0  0
   -0.0670   -0.2173    0.1459 C   0  0  1  0  0  0  0  0  0  0  0  0
    0.4812   -0.6039    1.0108 H   0  0  0  0  0  0  0  0  0  0  0  0
    0.7834   -0.5449   -1.1226 C   0  0  0  0  0  0  0  0  0  0  0  0
    1.4483   -1.3736   -0.8598 H   0  0  0  0  0  0  0  0  0  0  0  0
    0.0817   -0.9435   -1.8632 H   0  0  0  0  0  0  0  0  0  0  0  0
    1.6246    0.4955   -1.9156 C   0  0  0  0  0  0  0  0  0  0  0  0
    2.6760    0.2976   -1.6854 H   0  0  0  0  0  0  0  0  0  0  0  0
    1.5001    0.2889   -2.9831 H   0  0  0  0  0  0  0  0  0  0  0  0
    1.4141    1.9896   -1.7019 C   0  0  0  0  0  0  0  0  0  0  0  0
    2.0220    2.4940   -0.7203 O   0  5  0  0  0  0  0  0  0  0  0  0
    0.7027    2.6258   -2.5131 O   0  0  0  0  0  0  0  0  0  0  0  0
   -0.4032    1.2643    0.4947 C   0  0  0  0  0  0  0  0  0  0  0  0
   -1.5529    1.6705    0.2962 O   0  0  0  0  0  0  0  0  0  0  0  0
    0.3231    1.8948    1.4885 N   0  0  0  0  0  0  0  0  0  0  0  0
    1.3135    1.9015    1.2294 H   0  0  0  0  0  0  0  0  0  0  0  0
   -0.1421    3.1468    2.0707 C   0  0  0  0  0  0  0  0  0  0  0  0
   -1.1001    3.0034    2.5804 H   0  0  0  0  0  0  0  0  0  0  0  0
    0.5852    3.5112    2.8018 H   0  0  0  0  0  0  0  0  0  0  0  0
   -0.2635    3.9078    1.2924 H   0  0  0  0  0  0  0  0  0  0  0  0
  1  2  1  0  0  0  0
  2  3  1  0  0  0  0
  2  4  1  0  0  0  0
  2  5  1  0  0  0  0
  5  6  2  0  0  0  0
  5  7  1  0  0  0  0
  7  8  1  0  0  0  0
  7  9  1  0  0  0  0
  9 10  1  0  0  0  0
  9 11  1  0  0  0  0
  9 20  1  0  0  0  0
 11 12  1  0  0  0  0
 11 13  1  0  0  0  0
 11 14  1  0  0  0  0
 14 15  1  0  0  0  0
 14 16  1  0  0  0  0
 14 17  1  0  0  0  0
 17 18  1  0  0  0  0
 17 19  2  0  0  0  0
 20 21  2  0  0  0  0
 20 22  1  0  0  0  0
 22 23  1  0  0  0  0
 22 24  1  0  0  0  0
 24 25  1  0  0  0  0
 24 26  1  0  0  0  0
 24 27  1  0  0  0  0
M  CHG  1  18  -1
M  END
$$$$

  -OEChem-03222214043D

 27 26  0     1  0  0  0  0  0999 V2000
   -2.9586   -3.7103    1.1023 H   0  0  0  0  0  0  0  0  0  0  0  0
   -2.9494   -2.7143    0.6512 C   0  0  0  0  0  0  0  0  0  0  0  0
   -3.5364   -2.0377    1.2776 H   0  0  0  0  0  0  0  0  0  0  0  0
   -3.4077   -2.7698   -0.3394 H   0  0  0  0  0  0  0  0  0  0  0  0
   -1.5249   -2.2026    0.5326 C   0  0  0  0  0  0  0  0  0  0  0  0
   -0.5918   -2.9152    0.8733 O   0  0  0  0  0  0  0  0  0  0  0  0
   -1.3068   -0.9327    0.0500 N   0  0  0  0  0  0  0  0  0  0  0  0
   -2.1225   -0.3269   -0.0527 H   0  0  0  0  0  0  0  0  0  0  0  0
   -0.0166   -0.2234    0.1033 C   0  0  1  0  0  0  0  0  0  0  0  0
    0.6315   -0.6434    0.8792 H   0  0  0  0  0  0  0  0  0  0  0  0
    0.7028   -0.4014   -1.2728 C   0  0  0  0  0  0  0  0  0  0  0  0
    1.4367   -1.2010   -1.1312 H   0  0  0  0  0  0  0  0  0  0  0  0
   -0.0398   -0.7958   -1.9744 H   0  0  0  0  0  0  0  0  0  0  0  0
    1.4214    0.7396   -2.0515 C   0  0  0  0  0  0  0  0  0  0  0  0
    2.4584    0.4305   -2.2117 H   0  0  0  0  0  0  0  0  0  0  0  0
    0.9608    0.8075   -3.0419 H   0  0  0  0  0  0  0  0  0  0  0  0
    1.4632    2.1488   -1.4705 C   0  0  0  0  0  0  0  0  0  0  0  0
    2.2003    2.3027   -0.4595 O   0  5  0  0  0  0  0  0  0  0  0  0
    0.8140    3.0624   -2.0295 O   0  0  0  0  0  0  0  0  0  0  0  0
   -0.4052    1.2076    0.5876 C   0  0  0  0  0  0  0  0  0  0  0  0
   -1.5760    1.5831    0.4623 O   0  0  0  0  0  0  0  0  0  0  0  0
    0.3551    1.8144    1.5698 N   0  0  0  0  0  0  0  0  0  0  0  0
    1.3379    1.8411    1.2727 H   0  0  0  0  0  0  0  0  0  0  0  0
   -0.1033    3.0337    2.2211 C   0  0  0  0  0  0  0  0  0  0  0  0
   -1.0312    2.8513    2.7724 H   0  0  0  0  0  0  0  0  0  0  0  0
    0.6535    3.3863    2.9277 H   0  0  0  0  0  0  0  0  0  0  0  0
   -0.2788    3.8198    1.4789 H   0  0  0  0  0  0  0  0  0  0  0  0
  1  2  1  0  0  0  0
  2  3  1  0  0  0  0
  2  4  1  0  0  0  0
  2  5  1  0  0  0  0
  5  6  2  0  0  0  0
  5  7  1  0  0  0  0
  7  8  1  0  0  0  0
  7  9  1  0  0  0  0
  9 10  1  0  0  0  0
  9 11  1  0  0  0  0
  9 20  1  0  0  0  0
 11 12  1  0  0  0  0
 11 13  1  0  0  0  0
 11 14  1  0  0  0  0
 14 15  1  0  0  0  0
 14 16  1  0  0  0  0
 14 17  1  0  0  0  0
 17 18  1  0  0  0  0
 17 19  2  0  0  0  0
 20 21  2  0  0  0  0
 20 22  1  0  0  0  0
 22 23  1  0  0  0  0
 22 24  1  0  0  0  0
 24 25  1  0  0  0  0
 24 26  1  0  0  0  0
 24 27  1  0  0  0  0
M  CHG  1  18  -1
M  END
$$$$

  -OEChem-03222214043D

 27 26  0     1  0  0  0  0  0999 V2000
   -3.2508   -3.4267    1.3805 H   0  0  0  0  0  0  0  0  0  0  0  0
   -3.1497   -2.4965    0.8147 C   0  0  0  0  0  0  0  0  0  0  0  0
   -3.7328   -1.7167    1.3112 H   0  0  0  0  0  0  0  0  0  0  0  0
   -3.5449   -2.6498   -0.1926 H   0  0  0  0  0  0  0  0  0  0  0  0
   -1.6909   -2.0822    0.7393 C   0  0  0  0  0  0  0  0  0  0  0  0
   -0.8289   -2.8052    1.2168 O   0  0  0  0  0  0  0  0  0  0  0  0
   -1.3624   -0.8884    0.1388 N   0  0  0  0  0  0  0  0  0  0  0  0
   -2.1289   -0.2537   -0.0889 H   0  0  0  0  0  0  0  0  0  0  0  0
   -0.0318   -0.2577    0.1895 C   0  0  1  0  0  0  0  0  0  0  0  0
    0.5659   -0.6335    1.0263 H   0  0  0  0  0  0  0  0  0  0  0  0
    0.7064   -0.5949   -1.1454 C   0  0  0  0  0  0  0  0  0  0  0  0
    1.4035   -1.4017   -0.8981 H   0  0  0  0  0  0  0  0  0  0  0  0
   -0.0221   -1.0256   -1.8405 H   0  0  0  0  0  0  0  0  0  0  0  0
    1.5138    0.4459   -1.9733 C   0  0  0  0  0  0  0  0  0  0  0  0
    2.4253   -0.0313   -2.3441 H   0  0  0  0  0  0  0  0  0  0  0  0
    0.9110    0.6977   -2.8513 H   0  0  0  0  0  0  0  0  0  0  0  0
    1.9069    1.7655   -1.3117 C   0  0  0  0  0  0  0  0  0  0  0  0
    1.5911    2.8450   -1.8632 O   0  5  0  0  0  0  0  0  0  0  0  0
    2.5526    1.6736   -0.2327 O   0  0  0  0  0  0  0  0  0  0  0  0
   -0.3623    1.2352    0.4970 C   0  0  0  0  0  0  0  0  0  0  0  0
   -1.4754    1.6821    0.1994 O   0  0  0  0  0  0  0  0  0  0  0  0
    0.3709    1.9137    1.4515 N   0  0  0  0  0  0  0  0  0  0  0  0
    1.3759    1.7586    1.2994 H   0  0  0  0  0  0  0  0  0  0  0  0
    0.0170    3.2712    1.8412 C   0  0  0  0  0  0  0  0  0  0  0  0
   -0.9805    3.2969    2.2909 H   0  0  0  0  0  0  0  0  0  0  0  0
    0.7357    3.6476    2.5749 H   0  0  0  0  0  0  0  0  0  0  0  0
    0.0314    3.9337    0.9692 H   0  0  0  0  0  0  0  0  0  0  0  0
  1  2  1  0  0  0  0
  2  3  1  0  0  0  0
  2  4  1  0  0  0  0
  2  5  1  0  0  0  0
  5  6  2  0  0  0  0
  5  7  1  0  0  0  0
  7  8  1  0  0  0  0
  7  9  1  0  0  0  0
  9 10  1  0  0  0  0
  9 11  1  0  0  0  0
  9 20  1  0  0  0  0
 11 12  1  0  0  0  0
 11 13  1  0  0  0  0
 11 14  1  0  0  0  0
 14 15  1  0  0  0  0
 14 16  1  0  0  0  0
 14 17  1  0  0  0  0
 17 18  1  0  0  0  0
 17 19  2  0  0  0  0
 20 21  2  0  0  0  0
 20 22  1  0  0  0  0
 22 23  1  0  0  0  0
 22 24  1  0  0  0  0
 24 25  1  0  0  0  0
 24 26  1  0  0  0  0
 24 27  1  0  0  0  0
M  CHG  1  18  -1
M  END
$$$$

  -OEChem-03222214043D

 27 26  0     1  0  0  0  0  0999 V2000
   -3.2945   -3.4450    1.2723 H   0  0  0  0  0  0  0  0  0  0  0  0
   -3.1772   -2.5105    0.7168 C   0  0  0  0  0  0  0  0  0  0  0  0
   -3.7706   -1.7331    1.2048 H   0  0  0  0  0  0  0  0  0  0  0  0
   -3.5474   -2.6551   -0.3010 H   0  0  0  0  0  0  0  0  0  0  0  0
   -1.7160   -2.0995    0.6809 C   0  0  0  0  0  0  0  0  0  0  0  0
   -0.8697   -2.8282    1.1766 O   0  0  0  0  0  0  0  0  0  0  0  0
   -1.3696   -0.9038    0.0941 N   0  0  0  0  0  0  0  0  0  0  0  0
   -2.1288   -0.2702   -0.1576 H   0  0  0  0  0  0  0  0  0  0  0  0
   -0.0400   -0.2765    0.1808 C   0  0  1  0  0  0  0  0  0  0  0  0
    0.5403   -0.6639    1.0248 H   0  0  0  0  0  0  0  0  0  0  0  0
    0.7296   -0.5834   -1.1397 C   0  0  0  0  0  0  0  0  0  0  0  0
    1.4334   -1.3856   -0.8959 H   0  0  0  0  0  0  0  0  0  0  0  0
    0.0273   -0.9989   -1.8695 H   0  0  0  0  0  0  0  0  0  0  0  0
    1.5381    0.5106   -1.8884 C   0  0  0  0  0  0  0  0  0  0  0  0
    2.3326    0.0271   -2.4636 H   0  0  0  0  0  0  0  0  0  0  0  0
    0.8619    0.9896   -2.6032 H   0  0  0  0  0  0  0  0  0  0  0  0
    2.1630    1.6206   -1.0384 C   0  0  0  0  0  0  0  0  0  0  0  0
    2.6905    1.2766    0.0539 O   0  5  0  0  0  0  0  0  0  0  0  0
    2.1268    2.7969   -1.4680 O   0  0  0  0  0  0  0  0  0  0  0  0
   -0.3571    1.2169    0.4860 C   0  0  0  0  0  0  0  0  0  0  0  0
   -1.4343    1.6959    0.1178 O   0  0  0  0  0  0  0  0  0  0  0  0
    0.3597    1.8857    1.4591 N   0  0  0  0  0  0  0  0  0  0  0  0
    1.3580    1.6427    1.4083 H   0  0  0  0  0  0  0  0  0  0  0  0
    0.0744    3.2762    1.7798 C   0  0  0  0  0  0  0  0  0  0  0  0
   -0.9444    3.3827    2.1656 H   0  0  0  0  0  0  0  0  0  0  0  0
    0.7714    3.6331    2.5435 H   0  0  0  0  0  0  0  0  0  0  0  0
    0.1851    3.9027    0.8885 H   0  0  0  0  0  0  0  0  0  0  0  0
  1  2  1  0  0  0  0
  2  3  1  0  0  0  0
  2  4  1  0  0  0  0
  2  5  1  0  0  0  0
  5  6  2  0  0  0  0
  5  7  1  0  0  0  0
  7  8  1  0  0  0  0
  7  9  1  0  0  0  0
  9 10  1  0  0  0  0
  9 11  1  0  0  0  0
  9 20  1  0  0  0  0
 11 12  1  0  0  0  0
 11 13  1  0  0  0  0
 11 14  1  0  0  0  0
 14 15  1  0  0  0  0
 14 16  1  0  0  0  0
 14 17  1  0  0  0  0
 17 18  1  0  0  0  0
 17 19  2  0  0  0  0
 20 21  2  0  0  0  0
 20 22  1  0  0  0  0
 22 23  1  0  0  0  0
 22 24  1  0  0  0  0
 24 25  1  0  0  0  0
 24 26  1  0  0  0  0
 24 27  1  0  0  0  0
M  CHG  1  18  -1
M  END
$$$$

  -OEChem-03222214043D

 27 26  0     1  0  0  0  0  0999 V2000
   -3.2855   -3.4835    1.2493 H   0  0  0  0  0  0  0  0  0  0  0  0
   -3.1665   -2.5591    0.6776 C   0  0  0  0  0  0  0  0  0  0  0  0
   -3.7838   -1.7808    1.1332 H   0  0  0  0  0  0  0  0  0  0  0  0
   -3.5066   -2.7300   -0.3466 H   0  0  0  0  0  0  0  0  0  0  0  0
   -1.7110   -2.1270    0.6721 C   0  0  0  0  0  0  0  0  0  0  0  0
   -0.8668   -2.8381    1.1953 O   0  0  0  0  0  0  0  0  0  0  0  0
   -1.3699   -0.9331    0.0779 N   0  0  0  0  0  0  0  0  0  0  0  0
   -2.1324   -0.3179   -0.2047 H   0  0  0  0  0  0  0  0  0  0  0  0
   -0.0496   -0.2883    0.1695 C   0  0  1  0  0  0  0  0  0  0  0  0
    0.5249   -0.6691    1.0208 H   0  0  0  0  0  0  0  0  0  0  0  0
    0.7491   -0.5803   -1.1324 C   0  0  0  0  0  0  0  0  0  0  0  0
    1.4685   -1.3701   -0.8930 H   0  0  0  0  0  0  0  0  0  0  0  0
    0.0674   -0.9921   -1.8834 H   0  0  0  0  0  0  0  0  0  0  0  0
    1.5262    0.5707   -1.8200 C   0  0  0  0  0  0  0  0  0  0  0  0
    2.1913    0.1416   -2.5743 H   0  0  0  0  0  0  0  0  0  0  0  0
    0.8020    1.2065   -2.3385 H   0  0  0  0  0  0  0  0  0  0  0  0
    2.3608    1.4675   -0.8947 C   0  0  0  0  0  0  0  0  0  0  0  0
    2.7372    0.9934    0.2114 O   0  5  0  0  0  0  0  0  0  0  0  0
    2.6052    2.6338   -1.2819 O   0  0  0  0  0  0  0  0  0  0  0  0
   -0.3514    1.2080    0.4565 C   0  0  0  0  0  0  0  0  0  0  0  0
   -1.4057    1.7034    0.0492 O   0  0  0  0  0  0  0  0  0  0  0  0
    0.3678    1.8801    1.4248 N   0  0  0  0  0  0  0  0  0  0  0  0
    1.3512    1.5772    1.4373 H   0  0  0  0  0  0  0  0  0  0  0  0
    0.1383    3.2912    1.6939 C   0  0  0  0  0  0  0  0  0  0  0  0
   -0.8869    3.4573    2.0398 H   0  0  0  0  0  0  0  0  0  0  0  0
    0.8251    3.6388    2.4712 H   0  0  0  0  0  0  0  0  0  0  0  0
    0.3095    3.8832    0.7887 H   0  0  0  0  0  0  0  0  0  0  0  0
  1  2  1  0  0  0  0
  2  3  1  0  0  0  0
  2  4  1  0  0  0  0
  2  5  1  0  0  0  0
  5  6  2  0  0  0  0
  5  7  1  0  0  0  0
  7  8  1  0  0  0  0
  7  9  1  0  0  0  0
  9 10  1  0  0  0  0
  9 11  1  0  0  0  0
  9 20  1  0  0  0  0
 11 12  1  0  0  0  0
 11 13  1  0  0  0  0
 11 14  1  0  0  0  0
 14 15  1  0  0  0  0
 14 16  1  0  0  0  0
 14 17  1  0  0  0  0
 17 18  1  0  0  0  0
 17 19  2  0  0  0  0
 20 21  2  0  0  0  0
 20 22  1  0  0  0  0
 22 23  1  0  0  0  0
 22 24  1  0  0  0  0
 24 25  1  0  0  0  0
 24 26  1  0  0  0  0
 24 27  1  0  0  0  0
M  CHG  1  18  -1
M  END
$$$$

  -OEChem-03222214043D

 27 26  0     1  0  0  0  0  0999 V2000
   -3.2588   -3.5271    1.2439 H   0  0  0  0  0  0  0  0  0  0  0  0
   -3.1573   -2.5899    0.6897 C   0  0  0  0  0  0  0  0  0  0  0  0
   -3.7764   -1.8278    1.1698 H   0  0  0  0  0  0  0  0  0  0  0  0
   -3.5103   -2.7439   -0.3329 H   0  0  0  0  0  0  0  0  0  0  0  0
   -1.7062   -2.1428    0.6736 C   0  0  0  0  0  0  0  0  0  0  0  0
   -0.8533   -2.8421    1.1980 O   0  0  0  0  0  0  0  0  0  0  0  0
   -1.3802   -0.9485    0.0714 N   0  0  0  0  0  0  0  0  0  0  0  0
   -2.1503   -0.3469   -0.2177 H   0  0  0  0  0  0  0  0  0  0  0  0
   -0.0657   -0.2905    0.1463 C   0  0  1  0  0  0  0  0  0  0  0  0
    0.5101   -0.6679    0.9987 H   0  0  0  0  0  0  0  0  0  0  0  0
    0.7481   -0.5811   -1.1429 C   0  0  0  0  0  0  0  0  0  0  0  0
    1.4773   -1.3651   -0.9133 H   0  0  0  0  0  0  0  0  0  0  0  0
    0.0712   -0.9876   -1.9008 H   0  0  0  0  0  0  0  0  0  0  0  0
    1.4913    0.6076   -1.7979 C   0  0  0  0  0  0  0  0  0  0  0  0
    1.9956    0.2419   -2.6968 H   0  0  0  0  0  0  0  0  0  0  0  0
    0.7595    1.3574   -2.1128 H   0  0  0  0  0  0  0  0  0  0  0  0
    2.5446    1.2924   -0.9111 C   0  0  0  0  0  0  0  0  0  0  0  0
    2.7495    0.8457    0.2502 O   0  5  0  0  0  0  0  0  0  0  0  0
    3.1201    2.2967   -1.3912 O   0  0  0  0  0  0  0  0  0  0  0  0
   -0.3387    1.2090    0.4290 C   0  0  0  0  0  0  0  0  0  0  0  0
   -1.3854    1.7223    0.0262 O   0  0  0  0  0  0  0  0  0  0  0  0
    0.4067    1.8729    1.3822 N   0  0  0  0  0  0  0  0  0  0  0  0
    1.3782    1.5326    1.4078 H   0  0  0  0  0  0  0  0  0  0  0  0
    0.2124    3.2881    1.6556 C   0  0  0  0  0  0  0  0  0  0  0  0
   -0.8007    3.4740    2.0256 H   0  0  0  0  0  0  0  0  0  0  0  0
    0.9241    3.6215    2.4165 H   0  0  0  0  0  0  0  0  0  0  0  0
    0.3734    3.8772    0.7468 H   0  0  0  0  0  0  0  0  0  0  0  0
  1  2  1  0  0  0  0
  2  3  1  0  0  0  0
  2  4  1  0  0  0  0
  2  5  1  0  0  0  0
  5  6  2  0  0  0  0
  5  7  1  0  0  0  0
  7  8  1  0  0  0  0
  7  9  1  0  0  0  0
  9 10  1  0  0  0  0
  9 11  1  0  0  0  0
  9 20  1  0  0  0  0
 11 12  1  0  0  0  0
 11 13  1  0  0  0  0
 11 14  1  0  0  0  0
 14 15  1  0  0  0  0
 14 16  1  0  0  0  0
 14 17  1  0  0  0  0
 17 18  1  0  0  0  0
 17 19  2  0  0  0  0
 20 21  2  0  0  0  0
 20 22  1  0  0  0  0
 22 23  1  0  0  0  0
 22 24  1  0  0  0  0
 24 25  1  0  0  0  0
 24 26  1  0  0  0  0
 24 27  1  0  0  0  0
M  CHG  1  18  -1
M  END
$$$$

  -OEChem-03222214043D

 27 26  0     1  0  0  0  0  0999 V2000
   -3.2287   -3.5297    1.2721 H   0  0  0  0  0  0  0  0  0  0  0  0
   -3.1350   -2.6075    0.6920 C   0  0  0  0  0  0  0  0  0  0  0  0
   -3.7633   -1.8387    1.1486 H   0  0  0  0  0  0  0  0  0  0  0  0
   -3.4825   -2.7937   -0.3271 H   0  0  0  0  0  0  0  0  0  0  0  0
   -1.6886   -2.1459    0.6675 C   0  0  0  0  0  0  0  0  0  0  0  0
   -0.8244   -2.8388    1.1817 O   0  0  0  0  0  0  0  0  0  0  0  0
   -1.3801   -0.9449    0.0692 N   0  0  0  0  0  0  0  0  0  0  0  0
   -2.1586   -0.3511   -0.2126 H   0  0  0  0  0  0  0  0  0  0  0  0
   -0.0687   -0.2790    0.1253 C   0  0  1  0  0  0  0  0  0  0  0  0
    0.5170   -0.6592    0.9696 H   0  0  0  0  0  0  0  0  0  0  0  0
    0.7393   -0.5683   -1.1669 C   0  0  0  0  0  0  0  0  0  0  0  0
    1.4699   -1.3567   -0.9568 H   0  0  0  0  0  0  0  0  0  0  0  0
    0.0501   -0.9655   -1.9188 H   0  0  0  0  0  0  0  0  0  0  0  0
    1.4608    0.6335   -1.8186 C   0  0  0  0  0  0  0  0  0  0  0  0
    1.7609    0.3367   -2.8279 H   0  0  0  0  0  0  0  0  0  0  0  0
    0.7828    1.4845   -1.9236 H   0  0  0  0  0  0  0  0  0  0  0  0
    2.7257    1.0694   -1.0621 C   0  0  0  0  0  0  0  0  0  0  0  0
    2.7662    0.9078    0.1878 O   0  5  0  0  0  0  0  0  0  0  0  0
    3.6380    1.6040   -1.7358 O   0  0  0  0  0  0  0  0  0  0  0  0
   -0.3288    1.2192    0.4243 C   0  0  0  0  0  0  0  0  0  0  0  0
   -1.3828    1.7390    0.0501 O   0  0  0  0  0  0  0  0  0  0  0  0
    0.4384    1.8730    1.3664 N   0  0  0  0  0  0  0  0  0  0  0  0
    1.4139    1.5413    1.3562 H   0  0  0  0  0  0  0  0  0  0  0  0
    0.2311    3.2753    1.6919 C   0  0  0  0  0  0  0  0  0  0  0  0
   -0.7788    3.4352    2.0824 H   0  0  0  0  0  0  0  0  0  0  0  0
    0.9489    3.5907    2.4548 H   0  0  0  0  0  0  0  0  0  0  0  0
    0.3709    3.8981    0.8025 H   0  0  0  0  0  0  0  0  0  0  0  0
  1  2  1  0  0  0  0
  2  3  1  0  0  0  0
  2  4  1  0  0  0  0
  2  5  1  0  0  0  0
  5  6  2  0  0  0  0
  5  7  1  0  0  0  0
  7  8  1  0  0  0  0
  7  9  1  0  0  0  0
  9 10  1  0  0  0  0
  9 11  1  0  0  0  0
  9 20  1  0  0  0  0
 11 12  1  0  0  0  0
 11 13  1  0  0  0  0
 11 14  1  0  0  0  0
 14 15  1  0  0  0  0
 14 16  1  0  0  0  0
 14 17  1  0  0  0  0
 17 18  1  0  0  0  0
 17 19  2  0  0  0  0
 20 21  2  0  0  0  0
 20 22  1  0  0  0  0
 22 23  1  0  0  0  0
 22 24  1  0  0  0  0
 24 25  1  0  0  0  0
 24 26  1  0  0  0  0
 24 27  1  0  0  0  0
M  CHG  1  18  -1
M  END
$$$$

  -OEChem-03222214043D

 27 26  0     1  0  0  0  0  0999 V2000
   -3.1809   -3.5828    1.2398 H   0  0  0  0  0  0  0  0  0  0  0  0
   -3.1185   -2.6408    0.6880 C   0  0  0  0  0  0  0  0  0  0  0  0
   -3.7485   -1.8987    1.1847 H   0  0  0  0  0  0  0  0  0  0  0  0
   -3.4887   -2.8009   -0.3276 H   0  0  0  0  0  0  0  0  0  0  0  0
   -1.6817   -2.1518    0.6429 C   0  0  0  0  0  0  0  0  0  0  0  0
   -0.7959   -2.8332    1.1351 O   0  0  0  0  0  0  0  0  0  0  0  0
   -1.4066   -0.9379    0.0538 N   0  0  0  0  0  0  0  0  0  0  0  0
   -2.2010   -0.3581   -0.2108 H   0  0  0  0  0  0  0  0  0  0  0  0
   -0.1055   -0.2519    0.0833 C   0  0  1  0  0  0  0  0  0  0  0  0
    0.4771   -0.6325    0.9293 H   0  0  0  0  0  0  0  0  0  0  0  0
    0.7364   -0.5521   -1.1816 C   0  0  0  0  0  0  0  0  0  0  0  0
    1.4778   -1.3250   -0.9505 H   0  0  0  0  0  0  0  0  0  0  0  0
    0.0662   -0.9758   -1.9360 H   0  0  0  0  0  0  0  0  0  0  0  0
    1.4288    0.6645   -1.8361 C   0  0  0  0  0  0  0  0  0  0  0  0
    1.5549    0.4480   -2.9013 H   0  0  0  0  0  0  0  0  0  0  0  0
    0.8382    1.5808   -1.7772 H   0  0  0  0  0  0  0  0  0  0  0  0
    2.8200    0.8715   -1.2318 C   0  0  0  0  0  0  0  0  0  0  0  0
    2.8689    1.0506    0.0161 O   0  5  0  0  0  0  0  0  0  0  0  0
    3.8153    0.8713   -1.9948 O   0  0  0  0  0  0  0  0  0  0  0  0
   -0.3309    1.2436    0.4070 C   0  0  0  0  0  0  0  0  0  0  0  0
   -1.3988    1.7750    0.0960 O   0  0  0  0  0  0  0  0  0  0  0  0
    0.4856    1.8649    1.3303 N   0  0  0  0  0  0  0  0  0  0  0  0
    1.4618    1.5433    1.2530 H   0  0  0  0  0  0  0  0  0  0  0  0
    0.2926    3.2548    1.7124 C   0  0  0  0  0  0  0  0  0  0  0  0
   -0.6897    3.3937    2.1749 H   0  0  0  0  0  0  0  0  0  0  0  0
    1.0590    3.5523    2.4343 H   0  0  0  0  0  0  0  0  0  0  0  0
    0.3682    3.9063    0.8359 H   0  0  0  0  0  0  0  0  0  0  0  0
  1  2  1  0  0  0  0
  2  3  1  0  0  0  0
  2  4  1  0  0  0  0
  2  5  1  0  0  0  0
  5  6  2  0  0  0  0
  5  7  1  0  0  0  0
  7  8  1  0  0  0  0
  7  9  1  0  0  0  0
  9 10  1  0  0  0  0
  9 11  1  0  0  0  0
  9 20  1  0  0  0  0
 11 12  1  0  0  0  0
 11 13  1  0  0  0  0
 11 14  1  0  0  0  0
 14 15  1  0  0  0  0
 14 16  1  0  0  0  0
 14 17  1  0  0  0  0
 17 18  1  0  0  0  0
 17 19  2  0  0  0  0
 20 21  2  0  0  0  0
 20 22  1  0  0  0  0
 22 23  1  0  0  0  0
 22 24  1  0  0  0  0
 24 25  1  0  0  0  0
 24 26  1  0  0  0  0
 24 27  1  0  0  0  0
M  CHG  1  18  -1
M  END
$$$$

  -OEChem-03222214043D

 27 26  0     1  0  0  0  0  0999 V2000
   -3.1575   -3.6377    1.2030 H   0  0  0  0  0  0  0  0  0  0  0  0
   -3.1208   -2.6874    0.6630 C   0  0  0  0  0  0  0  0  0  0  0  0
   -3.7726   -1.9699    1.1677 H   0  0  0  0  0  0  0  0  0  0  0  0
   -3.4845   -2.8453   -0.3553 H   0  0  0  0  0  0  0  0  0  0  0  0
   -1.6983   -2.1580    0.6260 C   0  0  0  0  0  0  0  0  0  0  0  0
   -0.7958   -2.8183    1.1160 O   0  0  0  0  0  0  0  0  0  0  0  0
   -1.4550   -0.9310    0.0491 N   0  0  0  0  0  0  0  0  0  0  0  0
   -2.2634   -0.3768   -0.2256 H   0  0  0  0  0  0  0  0  0  0  0  0
   -0.1665   -0.2216    0.0549 C   0  0  1  0  0  0  0  0  0  0  0  0
    0.4024   -0.6033    0.9098 H   0  0  0  0  0  0  0  0  0  0  0  0
    0.7247   -0.5403   -1.1671 C   0  0  0  0  0  0  0  0  0  0  0  0
    1.4789   -1.2837   -0.8837 H   0  0  0  0  0  0  0  0  0  0  0  0
    0.0916   -1.0162   -1.9226 H   0  0  0  0  0  0  0  0  0  0  0  0
    1.3962    0.6788   -1.8464 C   0  0  0  0  0  0  0  0  0  0  0  0
    1.3367    0.5353   -2.9295 H   0  0  0  0  0  0  0  0  0  0  0  0
    0.9197    1.6389   -1.6473 H   0  0  0  0  0  0  0  0  0  0  0  0
    2.8710    0.7206   -1.4639 C   0  0  0  0  0  0  0  0  0  0  0  0
    3.0943    0.9879   -0.2513 O   0  5  0  0  0  0  0  0  0  0  0  0
    3.7503    0.5028   -2.3314 O   0  0  0  0  0  0  0  0  0  0  0  0
   -0.3436    1.2714    0.3993 C   0  0  0  0  0  0  0  0  0  0  0  0
   -1.4077    1.8319    0.1355 O   0  0  0  0  0  0  0  0  0  0  0  0
    0.5279    1.8527    1.3004 N   0  0  0  0  0  0  0  0  0  0  0  0
    1.4870    1.4946    1.2099 H   0  0  0  0  0  0  0  0  0  0  0  0
    0.3896    3.2407    1.7131 C   0  0  0  0  0  0  0  0  0  0  0  0
   -0.5707    3.3995    2.2139 H   0  0  0  0  0  0  0  0  0  0  0  0
    1.1898    3.5030    2.4115 H   0  0  0  0  0  0  0  0  0  0  0  0
    0.4522    3.9056    0.8457 H   0  0  0  0  0  0  0  0  0  0  0  0
  1  2  1  0  0  0  0
  2  3  1  0  0  0  0
  2  4  1  0  0  0  0
  2  5  1  0  0  0  0
  5  6  2  0  0  0  0
  5  7  1  0  0  0  0
  7  8  1  0  0  0  0
  7  9  1  0  0  0  0
  9 10  1  0  0  0  0
  9 11  1  0  0  0  0
  9 20  1  0  0  0  0
 11 12  1  0  0  0  0
 11 13  1  0  0  0  0
 11 14  1  0  0  0  0
 14 15  1  0  0  0  0
 14 16  1  0  0  0  0
 14 17  1  0  0  0  0
 17 18  1  0  0  0  0
 17 19  2  0  0  0  0
 20 21  2  0  0  0  0
 20 22  1  0  0  0  0
 22 23  1  0  0  0  0
 22 24  1  0  0  0  0
 24 25  1  0  0  0  0
 24 26  1  0  0  0  0
 24 27  1  0  0  0  0
M  CHG  1  18  -1
M  END
$$$$

  -OEChem-03222214043D

 27 26  0     1  0  0  0  0  0999 V2000
   -3.1776   -3.6243    1.1417 H   0  0  0  0  0  0  0  0  0  0  0  0
   -3.1119   -2.6735    0.6056 C   0  0  0  0  0  0  0  0  0  0  0  0
   -3.8011   -1.9611    1.0655 H   0  0  0  0  0  0  0  0  0  0  0  0
   -3.4058   -2.8338   -0.4346 H   0  0  0  0  0  0  0  0  0  0  0  0
   -1.6939   -2.1334    0.6625 C   0  0  0  0  0  0  0  0  0  0  0  0
   -0.8253   -2.7714    1.2364 O   0  0  0  0  0  0  0  0  0  0  0  0
   -1.4170   -0.9136    0.0857 N   0  0  0  0  0  0  0  0  0  0  0  0
   -2.2018   -0.3733   -0.2730 H   0  0  0  0  0  0  0  0  0  0  0  0
   -0.1176   -0.2249    0.1160 C   0  0  1  0  0  0  0  0  0  0  0  0
    0.4708   -0.6196    0.9512 H   0  0  0  0  0  0  0  0  0  0  0  0
    0.7011   -0.5234   -1.1657 C   0  0  0  0  0  0  0  0  0  0  0  0
    1.4389   -1.2966   -0.9228 H   0  0  0  0  0  0  0  0  0  0  0  0
    0.0294   -0.9672   -1.9077 H   0  0  0  0  0  0  0  0  0  0  0  0
    1.4048    0.6727   -1.8606 C   0  0  0  0  0  0  0  0  0  0  0  0
    1.0289    0.7538   -2.8848 H   0  0  0  0  0  0  0  0  0  0  0  0
    1.2201    1.6362   -1.3868 H   0  0  0  0  0  0  0  0  0  0  0  0
    2.9138    0.4513   -1.9033 C   0  0  0  0  0  0  0  0  0  0  0  0
    3.5220    0.6093   -0.8131 O   0  5  0  0  0  0  0  0  0  0  0  0
    3.4519    0.1251   -2.9892 O   0  0  0  0  0  0  0  0  0  0  0  0
   -0.3359    1.2651    0.4537 C   0  0  0  0  0  0  0  0  0  0  0  0
   -1.3735    1.8303    0.1103 O   0  0  0  0  0  0  0  0  0  0  0  0
    0.4889    1.8743    1.3808 N   0  0  0  0  0  0  0  0  0  0  0  0
    1.4187    1.4621    1.4556 H   0  0  0  0  0  0  0  0  0  0  0  0
    0.3421    3.2739    1.7512 C   0  0  0  0  0  0  0  0  0  0  0  0
   -0.6454    3.4542    2.1881 H   0  0  0  0  0  0  0  0  0  0  0  0
    1.1007    3.5462    2.4910 H   0  0  0  0  0  0  0  0  0  0  0  0
    0.4649    3.9166    0.8735 H   0  0  0  0  0  0  0  0  0  0  0  0
  1  2  1  0  0  0  0
  2  3  1  0  0  0  0
  2  4  1  0  0  0  0
  2  5  1  0  0  0  0
  5  6  2  0  0  0  0
  5  7  1  0  0  0  0
  7  8  1  0  0  0  0
  7  9  1  0  0  0  0
  9 10  1  0  0  0  0
  9 11  1  0  0  0  0
  9 20  1  0  0  0  0
 11 12  1  0  0  0  0
 11 13  1  0  0  0  0
 11 14  1  0  0  0  0
 14 15  1  0  0  0  0
 14 16  1  0  0  0  0
 14 17  1  0  0  0  0
 17 18  1  0  0  0  0
 17 19  2  0  0  0  0
 20 21  2  0  0  0  0
 20 22  1  0  0  0  0
 22 23  1  0  0  0  0
 22 24  1  0  0  0  0
 24 25  1  0  0  0  0
 24 26  1  0  0  0  0
 24 27  1  0  0  0  0
M  CHG  1  18  -1
M  END
$$$$

  -OEChem-03222214043D

 27 26  0     1  0  0  0  0  0999 V2000
   -3.1963   -3.6139    1.1029 H   0  0  0  0  0  0  0  0  0  0  0  0
   -3.1179   -2.6610    0.5720 C   0  0  0  0  0  0  0  0  0  0  0  0
   -3.8233   -1.9521    1.0128 H   0  0  0  0  0  0  0  0  0  0  0  0
   -3.3796   -2.8198   -0.4772 H   0  0  0  0  0  0  0  0  0  0  0  0
   -1.7039   -2.1169    0.6748 C   0  0  0  0  0  0  0  0  0  0  0  0
   -0.8581   -2.7410    1.2968 O   0  0  0  0  0  0  0  0  0  0  0  0
   -1.4035   -0.9047    0.0937 N   0  0  0  0  0  0  0  0  0  0  0  0
   -2.1687   -0.3715   -0.3148 H   0  0  0  0  0  0  0  0  0  0  0  0
   -0.0947   -0.2355    0.1396 C   0  0  1  0  0  0  0  0  0  0  0  0
    0.4961   -0.6397    0.9681 H   0  0  0  0  0  0  0  0  0  0  0  0
    0.6903   -0.5244   -1.1659 C   0  0  0  0  0  0  0  0  0  0  0  0
    1.4281   -1.2997   -0.9306 H   0  0  0  0  0  0  0  0  0  0  0  0
    0.0147   -0.9585   -1.9103 H   0  0  0  0  0  0  0  0  0  0  0  0
    1.4058    0.6717   -1.8431 C   0  0  0  0  0  0  0  0  0  0  0  0
    0.8275    1.0031   -2.7107 H   0  0  0  0  0  0  0  0  0  0  0  0
    1.5102    1.5291   -1.1771 H   0  0  0  0  0  0  0  0  0  0  0  0
    2.8211    0.2867   -2.2688 C   0  0  0  0  0  0  0  0  0  0  0  0
    3.7073    0.3233   -1.3775 O   0  5  0  0  0  0  0  0  0  0  0  0
    3.0129   -0.0579   -3.4605 O   0  0  0  0  0  0  0  0  0  0  0  0
   -0.3197    1.2575    0.4667 C   0  0  0  0  0  0  0  0  0  0  0  0
   -1.3357    1.8326    0.0800 O   0  0  0  0  0  0  0  0  0  0  0  0
    0.4837    1.8774    1.4062 N   0  0  0  0  0  0  0  0  0  0  0  0
    1.3853    1.4346    1.5686 H   0  0  0  0  0  0  0  0  0  0  0  0
    0.3420    3.2841    1.7522 C   0  0  0  0  0  0  0  0  0  0  0  0
   -0.6512    3.4782    2.1699 H   0  0  0  0  0  0  0  0  0  0  0  0
    1.0907    3.5633    2.4996 H   0  0  0  0  0  0  0  0  0  0  0  0
    0.4836    3.9119    0.8663 H   0  0  0  0  0  0  0  0  0  0  0  0
  1  2  1  0  0  0  0
  2  3  1  0  0  0  0
  2  4  1  0  0  0  0
  2  5  1  0  0  0  0
  5  6  2  0  0  0  0
  5  7  1  0  0  0  0
  7  8  1  0  0  0  0
  7  9  1  0  0  0  0
  9 10  1  0  0  0  0
  9 11  1  0  0  0  0
  9 20  1  0  0  0  0
 11 12  1  0  0  0  0
 11 13  1  0  0  0  0
 11 14  1  0  0  0  0
 14 15  1  0  0  0  0
 14 16  1  0  0  0  0
 14 17  1  0  0  0  0
 17 18  1  0  0  0  0
 17 19  2  0  0  0  0
 20 21  2  0  0  0  0
 20 22  1  0  0  0  0
 22 23  1  0  0  0  0
 22 24  1  0  0  0  0
 24 25  1  0  0  0  0
 24 26  1  0  0  0  0
 24 27  1  0  0  0  0
M  CHG  1  18  -1
M  END
$$$$

  -OEChem-03222214043D

 27 26  0     1  0  0  0  0  0999 V2000
   -3.2063   -3.6306    1.0349 H   0  0  0  0  0  0  0  0  0  0  0  0
   -3.1282   -2.6560    0.5450 C   0  0  0  0  0  0  0  0  0  0  0  0
   -3.8433   -1.9701    1.0057 H   0  0  0  0  0  0  0  0  0  0  0  0
   -3.3763   -2.7730   -0.5129 H   0  0  0  0  0  0  0  0  0  0  0  0
   -1.7197   -2.1069    0.6872 C   0  0  0  0  0  0  0  0  0  0  0  0
   -0.8932   -2.7175    1.3480 O   0  0  0  0  0  0  0  0  0  0  0  0
   -1.4027   -0.9021    0.0999 N   0  0  0  0  0  0  0  0  0  0  0  0
   -2.1506   -0.3835   -0.3562 H   0  0  0  0  0  0  0  0  0  0  0  0
   -0.0881   -0.2460    0.1506 C   0  0  1  0  0  0  0  0  0  0  0  0
    0.5012   -0.6544    0.9774 H   0  0  0  0  0  0  0  0  0  0  0  0
    0.6819   -0.5350   -1.1627 C   0  0  0  0  0  0  0  0  0  0  0  0
    1.4243   -1.3088   -0.9381 H   0  0  0  0  0  0  0  0  0  0  0  0
    0.0034   -0.9579   -1.9111 H   0  0  0  0  0  0  0  0  0  0  0  0
    1.3956    0.6696   -1.8138 C   0  0  0  0  0  0  0  0  0  0  0  0
    0.7088    1.1990   -2.4808 H   0  0  0  0  0  0  0  0  0  0  0  0
    1.7385    1.3793   -1.0572 H   0  0  0  0  0  0  0  0  0  0  0  0
    2.6369    0.2150   -2.5804 C   0  0  0  0  0  0  0  0  0  0  0  0
    3.7404    0.2964   -1.9841 O   0  5  0  0  0  0  0  0  0  0  0  0
    2.4777   -0.2479   -3.7366 O   0  0  0  0  0  0  0  0  0  0  0  0
   -0.3005    1.2530    0.4657 C   0  0  0  0  0  0  0  0  0  0  0  0
   -1.3025    1.8390    0.0606 O   0  0  0  0  0  0  0  0  0  0  0  0
    0.4998    1.8758    1.4067 N   0  0  0  0  0  0  0  0  0  0  0  0
    1.3829    1.4154    1.6097 H   0  0  0  0  0  0  0  0  0  0  0  0
    0.3689    3.2872    1.7390 C   0  0  0  0  0  0  0  0  0  0  0  0
   -0.6289    3.4969    2.1376 H   0  0  0  0  0  0  0  0  0  0  0  0
    1.1072    3.5645    2.4971 H   0  0  0  0  0  0  0  0  0  0  0  0
    0.5333    3.9053    0.8505 H   0  0  0  0  0  0  0  0  0  0  0  0
  1  2  1  0  0  0  0
  2  3  1  0  0  0  0
  2  4  1  0  0  0  0
  2  5  1  0  0  0  0
  5  6  2  0  0  0  0
  5  7  1  0  0  0  0
  7  8  1  0  0  0  0
  7  9  1  0  0  0  0
  9 10  1  0  0  0  0
  9 11  1  0  0  0  0
  9 20  1  0  0  0  0
 11 12  1  0  0  0  0
 11 13  1  0  0  0  0
 11 14  1  0  0  0  0
 14 15  1  0  0  0  0
 14 16  1  0  0  0  0
 14 17  1  0  0  0  0
 17 18  1  0  0  0  0
 17 19  2  0  0  0  0
 20 21  2  0  0  0  0
 20 22  1  0  0  0  0
 22 23  1  0  0  0  0
 22 24  1  0  0  0  0
 24 25  1  0  0  0  0
 24 26  1  0  0  0  0
 24 27  1  0  0  0  0
M  CHG  1  18  -1
M  END
$$$$

  -OEChem-03222214043D

 27 26  0     1  0  0  0  0  0999 V2000
   -3.1124   -3.6498    1.2306 H   0  0  0  0  0  0  0  0  0  0  0  0
   -3.0507   -2.7189    0.6599 C   0  0  0  0  0  0  0  0  0  0  0  0
   -3.7908   -2.0157    1.0499 H   0  0  0  0  0  0  0  0  0  0  0  0
   -3.2784   -2.9321   -0.3876 H   0  0  0  0  0  0  0  0  0  0  0  0
   -1.6590   -2.1226    0.7750 C   0  0  0  0  0  0  0  0  0  0  0  0
   -0.8137   -2.6795    1.4595 O   0  0  0  0  0  0  0  0  0  0  0  0
   -1.3783   -0.9342    0.1381 N   0  0  0  0  0  0  0  0  0  0  0  0
   -2.1392   -0.4609   -0.3453 H   0  0  0  0  0  0  0  0  0  0  0  0
   -0.0827   -0.2405    0.1582 C   0  0  1  0  0  0  0  0  0  0  0  0
    0.5176   -0.6007    0.9993 H   0  0  0  0  0  0  0  0  0  0  0  0
    0.6969   -0.5582   -1.1412 C   0  0  0  0  0  0  0  0  0  0  0  0
    1.4653   -1.3005   -0.8992 H   0  0  0  0  0  0  0  0  0  0  0  0
    0.0267   -1.0196   -1.8745 H   0  0  0  0  0  0  0  0  0  0  0  0
    1.3657    0.6515   -1.8210 C   0  0  0  0  0  0  0  0  0  0  0  0
    0.6096    1.2777   -2.3042 H   0  0  0  0  0  0  0  0  0  0  0  0
    1.8886    1.2636   -1.0806 H   0  0  0  0  0  0  0  0  0  0  0  0
    2.3910    0.1900   -2.8557 C   0  0  0  0  0  0  0  0  0  0  0  0
    1.9782   -0.0994   -4.0056 O   0  5  0  0  0  0  0  0  0  0  0  0
    3.5862    0.1015   -2.4782 O   0  0  0  0  0  0  0  0  0  0  0  0
   -0.3251    1.2652    0.4129 C   0  0  0  0  0  0  0  0  0  0  0  0
   -1.3425    1.8131   -0.0059 O   0  0  0  0  0  0  0  0  0  0  0  0
    0.4658    1.9411    1.3247 N   0  0  0  0  0  0  0  0  0  0  0  0
    1.3514    1.5014    1.5575 H   0  0  0  0  0  0  0  0  0  0  0  0
    0.3038    3.3596    1.6095 C   0  0  0  0  0  0  0  0  0  0  0  0
   -0.7098    3.5667    1.9677 H   0  0  0  0  0  0  0  0  0  0  0  0
    1.0117    3.6700    2.3836 H   0  0  0  0  0  0  0  0  0  0  0  0
    0.4897    3.9533    0.7086 H   0  0  0  0  0  0  0  0  0  0  0  0
  1  2  1  0  0  0  0
  2  3  1  0  0  0  0
  2  4  1  0  0  0  0
  2  5  1  0  0  0  0
  5  6  2  0  0  0  0
  5  7  1  0  0  0  0
  7  8  1  0  0  0  0
  7  9  1  0  0  0  0
  9 10  1  0  0  0  0
  9 11  1  0  0  0  0
  9 20  1  0  0  0  0
 11 12  1  0  0  0  0
 11 13  1  0  0  0  0
 11 14  1  0  0  0  0
 14 15  1  0  0  0  0
 14 16  1  0  0  0  0
 14 17  1  0  0  0  0
 17 18  1  0  0  0  0
 17 19  2  0  0  0  0
 20 21  2  0  0  0  0
 20 22  1  0  0  0  0
 22 23  1  0  0  0  0
 22 24  1  0  0  0  0
 24 25  1  0  0  0  0
 24 26  1  0  0  0  0
 24 27  1  0  0  0  0
M  CHG  1  18  -1
M  END
$$$$

  -OEChem-03222214043D

 27 26  0     1  0  0  0  0  0999 V2000
   -3.1235   -3.6577    1.1888 H   0  0  0  0  0  0  0  0  0  0  0  0
   -3.0587   -2.7172    0.6345 C   0  0  0  0  0  0  0  0  0  0  0  0
   -3.8046   -2.0224    1.0284 H   0  0  0  0  0  0  0  0  0  0  0  0
   -3.2755   -2.9136   -0.4186 H   0  0  0  0  0  0  0  0  0  0  0  0
   -1.6699   -2.1192    0.7728 C   0  0  0  0  0  0  0  0  0  0  0  0
   -0.8371   -2.6715    1.4762 O   0  0  0  0  0  0  0  0  0  0  0  0
   -1.3765   -0.9357    0.1327 N   0  0  0  0  0  0  0  0  0  0  0  0
   -2.1261   -0.4687   -0.3739 H   0  0  0  0  0  0  0  0  0  0  0  0
   -0.0776   -0.2494    0.1625 C   0  0  1  0  0  0  0  0  0  0  0  0
    0.5180   -0.6102    1.0067 H   0  0  0  0  0  0  0  0  0  0  0  0
    0.7043   -0.5702   -1.1307 C   0  0  0  0  0  0  0  0  0  0  0  0
    1.2651   -1.4996   -0.9865 H   0  0  0  0  0  0  0  0  0  0  0  0
   -0.0104   -0.7440   -1.9429 H   0  0  0  0  0  0  0  0  0  0  0  0
    1.6652    0.5422   -1.5911 C   0  0  0  0  0  0  0  0  0  0  0  0
    1.1124    1.4631   -1.7974 H   0  0  0  0  0  0  0  0  0  0  0  0
    2.3936    0.7518   -0.8019 H   0  0  0  0  0  0  0  0  0  0  0  0
    2.3974    0.1413   -2.8723 C   0  0  0  0  0  0  0  0  0  0  0  0
    1.7348    0.0808   -3.9374 O   0  5  0  0  0  0  0  0  0  0  0  0
    3.6245   -0.1093   -2.7759 O   0  0  0  0  0  0  0  0  0  0  0  0
   -0.3107    1.2591    0.4070 C   0  0  0  0  0  0  0  0  0  0  0  0
   -1.3227    1.8111   -0.0187 O   0  0  0  0  0  0  0  0  0  0  0  0
    0.4762    1.9343    1.3228 N   0  0  0  0  0  0  0  0  0  0  0  0
    1.3558    1.4906    1.5692 H   0  0  0  0  0  0  0  0  0  0  0  0
    0.3088    3.3504    1.6157 C   0  0  0  0  0  0  0  0  0  0  0  0
   -0.6873    3.5413    2.0276 H   0  0  0  0  0  0  0  0  0  0  0  0
    1.0527    3.6723    2.3503 H   0  0  0  0  0  0  0  0  0  0  0  0
    0.4370    3.9464    0.7064 H   0  0  0  0  0  0  0  0  0  0  0  0
  1  2  1  0  0  0  0
  2  3  1  0  0  0  0
  2  4  1  0  0  0  0
  2  5  1  0  0  0  0
  5  6  2  0  0  0  0
  5  7  1  0  0  0  0
  7  8  1  0  0  0  0
  7  9  1  0  0  0  0
  9 10  1  0  0  0  0
  9 11  1  0  0  0  0
  9 20  1  0  0  0  0
 11 12  1  0  0  0  0
 11 13  1  0  0  0  0
 11 14  1  0  0  0  0
 14 15  1  0  0  0  0
 14 16  1  0  0  0  0
 14 17  1  0  0  0  0
 17 18  1  0  0  0  0
 17 19  2  0  0  0  0
 20 21  2  0  0  0  0
 20 22  1  0  0  0  0
 22 23  1  0  0  0  0
 22 24  1  0  0  0  0
 24 25  1  0  0  0  0
 24 26  1  0  0  0  0
 24 27  1  0  0  0  0
M  CHG  1  18  -1
M  END
$$$$

  -OEChem-03222214043D

 27 26  0     1  0  0  0  0  0999 V2000
   -3.3408   -3.5232    1.0761 H   0  0  0  0  0  0  0  0  0  0  0  0
   -3.2166   -2.5792    0.5381 C   0  0  0  0  0  0  0  0  0  0  0  0
   -3.9311   -1.8516    0.9313 H   0  0  0  0  0  0  0  0  0  0  0  0
   -3.4257   -2.7478   -0.5214 H   0  0  0  0  0  0  0  0  0  0  0  0
   -1.8001   -2.0586    0.7073 C   0  0  0  0  0  0  0  0  0  0  0  0
   -1.0033   -2.6756    1.3992 O   0  0  0  0  0  0  0  0  0  0  0  0
   -1.4413   -0.8701    0.1111 N   0  0  0  0  0  0  0  0  0  0  0  0
   -2.1598   -0.3511   -0.3896 H   0  0  0  0  0  0  0  0  0  0  0  0
   -0.1053   -0.2602    0.1631 C   0  0  1  0  0  0  0  0  0  0  0  0
    0.4678   -0.6830    0.9936 H   0  0  0  0  0  0  0  0  0  0  0  0
    0.6574   -0.5862   -1.1434 C   0  0  0  0  0  0  0  0  0  0  0  0
    1.1455   -1.5615   -1.0478 H   0  0  0  0  0  0  0  0  0  0  0  0
   -0.0853   -0.6736   -1.9444 H   0  0  0  0  0  0  0  0  0  0  0  0
    1.6947    0.4685   -1.5994 C   0  0  0  0  0  0  0  0  0  0  0  0
    1.2664    1.4719   -1.5409 H   0  0  0  0  0  0  0  0  0  0  0  0
    2.5622    0.4340   -0.9346 H   0  0  0  0  0  0  0  0  0  0  0  0
    2.1642    0.2983   -3.0508 C   0  0  0  0  0  0  0  0  0  0  0  0
    2.9286    1.1918   -3.4914 O   0  5  0  0  0  0  0  0  0  0  0  0
    1.8067   -0.7168   -3.7009 O   0  0  0  0  0  0  0  0  0  0  0  0
   -0.2610    1.2475    0.4652 C   0  0  0  0  0  0  0  0  0  0  0  0
   -1.2379    1.8688    0.0534 O   0  0  0  0  0  0  0  0  0  0  0  0
    0.5585    1.8476    1.4043 N   0  0  0  0  0  0  0  0  0  0  0  0
    1.4107    1.3476    1.6375 H   0  0  0  0  0  0  0  0  0  0  0  0
    0.4793    3.2653    1.7267 C   0  0  0  0  0  0  0  0  0  0  0  0
   -0.5079    3.5122    2.1303 H   0  0  0  0  0  0  0  0  0  0  0  0
    1.2322    3.5225    2.4776 H   0  0  0  0  0  0  0  0  0  0  0  0
    0.6589    3.8714    0.8326 H   0  0  0  0  0  0  0  0  0  0  0  0
  1  2  1  0  0  0  0
  2  3  1  0  0  0  0
  2  4  1  0  0  0  0
  2  5  1  0  0  0  0
  5  6  2  0  0  0  0
  5  7  1  0  0  0  0
  7  8  1  0  0  0  0
  7  9  1  0  0  0  0
  9 10  1  0  0  0  0
  9 11  1  0  0  0  0
  9 20  1  0  0  0  0
 11 12  1  0  0  0  0
 11 13  1  0  0  0  0
 11 14  1  0  0  0  0
 14 15  1  0  0  0  0
 14 16  1  0  0  0  0
 14 17  1  0  0  0  0
 17 18  1  0  0  0  0
 17 19  2  0  0  0  0
 20 21  2  0  0  0  0
 20 22  1  0  0  0  0
 22 23  1  0  0  0  0
 22 24  1  0  0  0  0
 24 25  1  0  0  0  0
 24 26  1  0  0  0  0
 24 27  1  0  0  0  0
M  CHG  1  18  -1
M  END
$$$$

  -OEChem-03222214043D

 27 26  0     1  0  0  0  0  0999 V2000
   -3.2210   -3.5743    1.1496 H   0  0  0  0  0  0  0  0  0  0  0  0
   -3.1229   -2.6420    0.5867 C   0  0  0  0  0  0  0  0  0  0  0  0
   -3.8503   -1.9209    0.9675 H   0  0  0  0  0  0  0  0  0  0  0  0
   -3.3367   -2.8421   -0.4663 H   0  0  0  0  0  0  0  0  0  0  0  0
   -1.7174   -2.0857    0.7304 C   0  0  0  0  0  0  0  0  0  0  0  0
   -0.8932   -2.6803    1.4098 O   0  0  0  0  0  0  0  0  0  0  0  0
   -1.3978   -0.8919    0.1231 N   0  0  0  0  0  0  0  0  0  0  0  0
   -2.1401   -0.3857   -0.3566 H   0  0  0  0  0  0  0  0  0  0  0  0
   -0.0817   -0.2396    0.1669 C   0  0  1  0  0  0  0  0  0  0  0  0
    0.5045   -0.6323    1.0029 H   0  0  0  0  0  0  0  0  0  0  0  0
    0.6904   -0.5649   -1.1358 C   0  0  0  0  0  0  0  0  0  0  0  0
    1.1976   -1.5294   -1.0297 H   0  0  0  0  0  0  0  0  0  0  0  0
   -0.0569   -0.6857   -1.9285 H   0  0  0  0  0  0  0  0  0  0  0  0
    1.7040    0.4938   -1.6369 C   0  0  0  0  0  0  0  0  0  0  0  0
    1.3951    1.5041   -1.3627 H   0  0  0  0  0  0  0  0  0  0  0  0
    2.6771    0.3088   -1.1740 H   0  0  0  0  0  0  0  0  0  0  0  0
    1.8515    0.4751   -3.1625 C   0  0  0  0  0  0  0  0  0  0  0  0
    2.0153   -0.6399   -3.7192 O   0  5  0  0  0  0  0  0  0  0  0  0
    1.8597    1.5793   -3.7602 O   0  0  0  0  0  0  0  0  0  0  0  0
   -0.2967    1.2637    0.4566 C   0  0  0  0  0  0  0  0  0  0  0  0
   -1.3117    1.8350    0.0658 O   0  0  0  0  0  0  0  0  0  0  0  0
    0.5006    1.9012    1.3906 N   0  0  0  0  0  0  0  0  0  0  0  0
    1.3793    1.4448    1.6132 H   0  0  0  0  0  0  0  0  0  0  0  0
    0.3520    3.3120    1.7188 C   0  0  0  0  0  0  0  0  0  0  0  0
   -0.6436    3.5072    2.1303 H   0  0  0  0  0  0  0  0  0  0  0  0
    1.0964    3.6044    2.4652 H   0  0  0  0  0  0  0  0  0  0  0  0
    0.4937    3.9291    0.8255 H   0  0  0  0  0  0  0  0  0  0  0  0
  1  2  1  0  0  0  0
  2  3  1  0  0  0  0
  2  4  1  0  0  0  0
  2  5  1  0  0  0  0
  5  6  2  0  0  0  0
  5  7  1  0  0  0  0
  7  8  1  0  0  0  0
  7  9  1  0  0  0  0
  9 10  1  0  0  0  0
  9 11  1  0  0  0  0
  9 20  1  0  0  0  0
 11 12  1  0  0  0  0
 11 13  1  0  0  0  0
 11 14  1  0  0  0  0
 14 15  1  0  0  0  0
 14 16  1  0  0  0  0
 14 17  1  0  0  0  0
 17 18  1  0  0  0  0
 17 19  2  0  0  0  0
 20 21  2  0  0  0  0
 20 22  1  0  0  0  0
 22 23  1  0  0  0  0
 22 24  1  0  0  0  0
 24 25  1  0  0  0  0
 24 26  1  0  0  0  0
 24 27  1  0  0  0  0
M  CHG  1  18  -1
M  END
$$$$

  -OEChem-03222214043D

 27 26  0     1  0  0  0  0  0999 V2000
   -3.2280   -3.5593    1.1780 H   0  0  0  0  0  0  0  0  0  0  0  0
   -3.1281   -2.6308    0.6092 C   0  0  0  0  0  0  0  0  0  0  0  0
   -3.8454   -1.9017    0.9941 H   0  0  0  0  0  0  0  0  0  0  0  0
   -3.3548   -2.8346   -0.4404 H   0  0  0  0  0  0  0  0  0  0  0  0
   -1.7165   -2.0856    0.7350 C   0  0  0  0  0  0  0  0  0  0  0  0
   -0.8856   -2.6919    1.3961 O   0  0  0  0  0  0  0  0  0  0  0  0
   -1.3951   -0.8926    0.1273 N   0  0  0  0  0  0  0  0  0  0  0  0
   -2.1414   -0.3729   -0.3322 H   0  0  0  0  0  0  0  0  0  0  0  0
   -0.0769   -0.2441    0.1682 C   0  0  1  0  0  0  0  0  0  0  0  0
    0.5122   -0.6365    1.0023 H   0  0  0  0  0  0  0  0  0  0  0  0
    0.6858   -0.5697   -1.1408 C   0  0  0  0  0  0  0  0  0  0  0  0
    1.1897   -1.5356   -1.0337 H   0  0  0  0  0  0  0  0  0  0  0  0
   -0.0690   -0.6974   -1.9252 H   0  0  0  0  0  0  0  0  0  0  0  0
    1.7059    0.4800   -1.6558 C   0  0  0  0  0  0  0  0  0  0  0  0
    1.5956    1.4403   -1.1506 H   0  0  0  0  0  0  0  0  0  0  0  0
    2.7158    0.1218   -1.4375 H   0  0  0  0  0  0  0  0  0  0  0  0
    1.5898    0.7319   -3.1631 C   0  0  0  0  0  0  0  0  0  0  0  0
    1.6136   -0.2677   -3.9248 O   0  5  0  0  0  0  0  0  0  0  0  0
    1.5455    1.9250   -3.5513 O   0  0  0  0  0  0  0  0  0  0  0  0
   -0.3007    1.2591    0.4594 C   0  0  0  0  0  0  0  0  0  0  0  0
   -1.3299    1.8187    0.0891 O   0  0  0  0  0  0  0  0  0  0  0  0
    0.4947    1.8990    1.3938 N   0  0  0  0  0  0  0  0  0  0  0  0
    1.3834    1.4542    1.5988 H   0  0  0  0  0  0  0  0  0  0  0  0
    0.3415    3.3104    1.7183 C   0  0  0  0  0  0  0  0  0  0  0  0
   -0.6593    3.5073    2.1164 H   0  0  0  0  0  0  0  0  0  0  0  0
    1.0762    3.6033    2.4742 H   0  0  0  0  0  0  0  0  0  0  0  0
    0.4956    3.9262    0.8261 H   0  0  0  0  0  0  0  0  0  0  0  0
  1  2  1  0  0  0  0
  2  3  1  0  0  0  0
  2  4  1  0  0  0  0
  2  5  1  0  0  0  0
  5  6  2  0  0  0  0
  5  7  1  0  0  0  0
  7  8  1  0  0  0  0
  7  9  1  0  0  0  0
  9 10  1  0  0  0  0
  9 11  1  0  0  0  0
  9 20  1  0  0  0  0
 11 12  1  0  0  0  0
 11 13  1  0  0  0  0
 11 14  1  0  0  0  0
 14 15  1  0  0  0  0
 14 16  1  0  0  0  0
 14 17  1  0  0  0  0
 17 18  1  0  0  0  0
 17 19  2  0  0  0  0
 20 21  2  0  0  0  0
 20 22  1  0  0  0  0
 22 23  1  0  0  0  0
 22 24  1  0  0  0  0
 24 25  1  0  0  0  0
 24 26  1  0  0  0  0
 24 27  1  0  0  0  0
M  CHG  1  18  -1
M  END
$$$$

  -OEChem-03222214043D

 27 26  0     1  0  0  0  0  0999 V2000
   -3.2406   -3.5462    1.2211 H   0  0  0  0  0  0  0  0  0  0  0  0
   -3.1392   -2.6174    0.6531 C   0  0  0  0  0  0  0  0  0  0  0  0
   -3.8302   -1.8759    1.0617 H   0  0  0  0  0  0  0  0  0  0  0  0
   -3.4009   -2.8111   -0.3903 H   0  0  0  0  0  0  0  0  0  0  0  0
   -1.7144   -2.0996    0.7396 C   0  0  0  0  0  0  0  0  0  0  0  0
   -0.8763   -2.7226    1.3758 O   0  0  0  0  0  0  0  0  0  0  0  0
   -1.3893   -0.9114    0.1254 N   0  0  0  0  0  0  0  0  0  0  0  0
   -2.1413   -0.3723   -0.3026 H   0  0  0  0  0  0  0  0  0  0  0  0
   -0.0694   -0.2666    0.1619 C   0  0  1  0  0  0  0  0  0  0  0  0
    0.5248   -0.6564    0.9935 H   0  0  0  0  0  0  0  0  0  0  0  0
    0.6822   -0.5821   -1.1545 C   0  0  0  0  0  0  0  0  0  0  0  0
    1.1998   -1.5392   -1.0357 H   0  0  0  0  0  0  0  0  0  0  0  0
   -0.0658   -0.7298   -1.9413 H   0  0  0  0  0  0  0  0  0  0  0  0
    1.6987    0.4782   -1.6544 C   0  0  0  0  0  0  0  0  0  0  0  0
    1.8128    1.3018   -0.9478 H   0  0  0  0  0  0  0  0  0  0  0  0
    2.6782   -0.0032   -1.7231 H   0  0  0  0  0  0  0  0  0  0  0  0
    1.3734    1.0444   -3.0403 C   0  0  0  0  0  0  0  0  0  0  0  0
    1.1934    0.2310   -3.9815 O   0  5  0  0  0  0  0  0  0  0  0  0
    1.3894    2.2932   -3.1674 O   0  0  0  0  0  0  0  0  0  0  0  0
   -0.3031    1.2382    0.4456 C   0  0  0  0  0  0  0  0  0  0  0  0
   -1.3523    1.7775    0.1007 O   0  0  0  0  0  0  0  0  0  0  0  0
    0.4875    1.8880    1.3776 N   0  0  0  0  0  0  0  0  0  0  0  0
    1.3925    1.4660    1.5561 H   0  0  0  0  0  0  0  0  0  0  0  0
    0.3219    3.3019    1.6849 C   0  0  0  0  0  0  0  0  0  0  0  0
   -0.6732    3.4917    2.1000 H   0  0  0  0  0  0  0  0  0  0  0  0
    1.0673    3.6153    2.4217 H   0  0  0  0  0  0  0  0  0  0  0  0
    0.4504    3.9062    0.7807 H   0  0  0  0  0  0  0  0  0  0  0  0
  1  2  1  0  0  0  0
  2  3  1  0  0  0  0
  2  4  1  0  0  0  0
  2  5  1  0  0  0  0
  5  6  2  0  0  0  0
  5  7  1  0  0  0  0
  7  8  1  0  0  0  0
  7  9  1  0  0  0  0
  9 10  1  0  0  0  0
  9 11  1  0  0  0  0
  9 20  1  0  0  0  0
 11 12  1  0  0  0  0
 11 13  1  0  0  0  0
 11 14  1  0  0  0  0
 14 15  1  0  0  0  0
 14 16  1  0  0  0  0
 14 17  1  0  0  0  0
 17 18  1  0  0  0  0
 17 19  2  0  0  0  0
 20 21  2  0  0  0  0
 20 22  1  0  0  0  0
 22 23  1  0  0  0  0
 22 24  1  0  0  0  0
 24 25  1  0  0  0  0
 24 26  1  0  0  0  0
 24 27  1  0  0  0  0
M  CHG  1  18  -1
M  END
$$$$

  -OEChem-03222214043D

 27 26  0     1  0  0  0  0  0999 V2000
   -3.2451   -3.5407    1.2651 H   0  0  0  0  0  0  0  0  0  0  0  0
   -3.1456   -2.6166    0.6893 C   0  0  0  0  0  0  0  0  0  0  0  0
   -3.8177   -1.8644    1.1096 H   0  0  0  0  0  0  0  0  0  0  0  0
   -3.4341   -2.8126   -0.3465 H   0  0  0  0  0  0  0  0  0  0  0  0
   -1.7132   -2.1159    0.7392 C   0  0  0  0  0  0  0  0  0  0  0  0
   -0.8647   -2.7536    1.3469 O   0  0  0  0  0  0  0  0  0  0  0  0
   -1.3905   -0.9305    0.1189 N   0  0  0  0  0  0  0  0  0  0  0  0
   -2.1499   -0.3723   -0.2705 H   0  0  0  0  0  0  0  0  0  0  0  0
   -0.0707   -0.2861    0.1504 C   0  0  1  0  0  0  0  0  0  0  0  0
    0.5258   -0.6717    0.9821 H   0  0  0  0  0  0  0  0  0  0  0  0
    0.6801   -0.5911   -1.1665 C   0  0  0  0  0  0  0  0  0  0  0  0
    1.2167   -1.5357   -1.0336 H   0  0  0  0  0  0  0  0  0  0  0  0
   -0.0516   -0.7569   -1.9648 H   0  0  0  0  0  0  0  0  0  0  0  0
    1.6855    0.4887   -1.6351 C   0  0  0  0  0  0  0  0  0  0  0  0
    1.9997    1.1274   -0.8062 H   0  0  0  0  0  0  0  0  0  0  0  0
    2.5852   -0.0288   -1.9800 H   0  0  0  0  0  0  0  0  0  0  0  0
    1.2037    1.3425   -2.8112 C   0  0  0  0  0  0  0  0  0  0  0  0
    0.8170    0.7562   -3.8532 O   0  5  0  0  0  0  0  0  0  0  0  0
    1.3162    2.5868   -2.6881 O   0  0  0  0  0  0  0  0  0  0  0  0
   -0.3073    1.2207    0.4281 C   0  0  0  0  0  0  0  0  0  0  0  0
   -1.3784    1.7393    0.1185 O   0  0  0  0  0  0  0  0  0  0  0  0
    0.4843    1.8752    1.3557 N   0  0  0  0  0  0  0  0  0  0  0  0
    1.4079    1.4784    1.4907 H   0  0  0  0  0  0  0  0  0  0  0  0
    0.3136    3.2930    1.6418 C   0  0  0  0  0  0  0  0  0  0  0  0
   -0.6771    3.4838    2.0669 H   0  0  0  0  0  0  0  0  0  0  0  0
    1.0667    3.6233    2.3631 H   0  0  0  0  0  0  0  0  0  0  0  0
    0.4262    3.8827    0.7257 H   0  0  0  0  0  0  0  0  0  0  0  0
  1  2  1  0  0  0  0
  2  3  1  0  0  0  0
  2  4  1  0  0  0  0
  2  5  1  0  0  0  0
  5  6  2  0  0  0  0
  5  7  1  0  0  0  0
  7  8  1  0  0  0  0
  7  9  1  0  0  0  0
  9 10  1  0  0  0  0
  9 11  1  0  0  0  0
  9 20  1  0  0  0  0
 11 12  1  0  0  0  0
 11 13  1  0  0  0  0
 11 14  1  0  0  0  0
 14 15  1  0  0  0  0
 14 16  1  0  0  0  0
 14 17  1  0  0  0  0
 17 18  1  0  0  0  0
 17 19  2  0  0  0  0
 20 21  2  0  0  0  0
 20 22  1  0  0  0  0
 22 23  1  0  0  0  0
 22 24  1  0  0  0  0
 24 25  1  0  0  0  0
 24 26  1  0  0  0  0
 24 27  1  0  0  0  0
M  CHG  1  18  -1
M  END
$$$$

  -OEChem-03222214043D

 27 26  0     1  0  0  0  0  0999 V2000
   -3.2410   -3.5423    1.2874 H   0  0  0  0  0  0  0  0  0  0  0  0
   -3.1465   -2.6191    0.7091 C   0  0  0  0  0  0  0  0  0  0  0  0
   -3.8052   -1.8619    1.1419 H   0  0  0  0  0  0  0  0  0  0  0  0
   -3.4558   -2.8137   -0.3210 H   0  0  0  0  0  0  0  0  0  0  0  0
   -1.7099   -2.1284    0.7307 C   0  0  0  0  0  0  0  0  0  0  0  0
   -0.8503   -2.7829    1.3041 O   0  0  0  0  0  0  0  0  0  0  0  0
   -1.3942   -0.9401    0.1131 N   0  0  0  0  0  0  0  0  0  0  0  0
   -2.1617   -0.3652   -0.2354 H   0  0  0  0  0  0  0  0  0  0  0  0
   -0.0763   -0.2917    0.1406 C   0  0  1  0  0  0  0  0  0  0  0  0
    0.5189   -0.6758    0.9741 H   0  0  0  0  0  0  0  0  0  0  0  0
    0.6846   -0.5929   -1.1701 C   0  0  0  0  0  0  0  0  0  0  0  0
    1.2299   -1.5314   -1.0306 H   0  0  0  0  0  0  0  0  0  0  0  0
   -0.0348   -0.7612   -1.9791 H   0  0  0  0  0  0  0  0  0  0  0  0
    1.6809    0.4969   -1.6220 C   0  0  0  0  0  0  0  0  0  0  0  0
    2.1601    0.9555   -0.7525 H   0  0  0  0  0  0  0  0  0  0  0  0
    2.4724    0.0046   -2.1939 H   0  0  0  0  0  0  0  0  0  0  0  0
    1.0938    1.5753   -2.5351 C   0  0  0  0  0  0  0  0  0  0  0  0
    0.5288    1.2149   -3.5973 O   0  5  0  0  0  0  0  0  0  0  0  0
    1.2982    2.7670   -2.1964 O   0  0  0  0  0  0  0  0  0  0  0  0
   -0.3143    1.2149    0.4245 C   0  0  0  0  0  0  0  0  0  0  0  0
   -1.4088    1.7119    0.1617 O   0  0  0  0  0  0  0  0  0  0  0  0
    0.4816    1.8680    1.3493 N   0  0  0  0  0  0  0  0  0  0  0  0
    1.4234    1.4998    1.4266 H   0  0  0  0  0  0  0  0  0  0  0  0
    0.3069    3.2891    1.6186 C   0  0  0  0  0  0  0  0  0  0  0  0
   -0.6807    3.4821    2.0497 H   0  0  0  0  0  0  0  0  0  0  0  0
    1.0651    3.6323    2.3283 H   0  0  0  0  0  0  0  0  0  0  0  0
    0.4090    3.8670    0.6934 H   0  0  0  0  0  0  0  0  0  0  0  0
  1  2  1  0  0  0  0
  2  3  1  0  0  0  0
  2  4  1  0  0  0  0
  2  5  1  0  0  0  0
  5  6  2  0  0  0  0
  5  7  1  0  0  0  0
  7  8  1  0  0  0  0
  7  9  1  0  0  0  0
  9 10  1  0  0  0  0
  9 11  1  0  0  0  0
  9 20  1  0  0  0  0
 11 12  1  0  0  0  0
 11 13  1  0  0  0  0
 11 14  1  0  0  0  0
 14 15  1  0  0  0  0
 14 16  1  0  0  0  0
 14 17  1  0  0  0  0
 17 18  1  0  0  0  0
 17 19  2  0  0  0  0
 20 21  2  0  0  0  0
 20 22  1  0  0  0  0
 22 23  1  0  0  0  0
 22 24  1  0  0  0  0
 24 25  1  0  0  0  0
 24 26  1  0  0  0  0
 24 27  1  0  0  0  0
M  CHG  1  18  -1
M  END
$$$$

  -OEChem-03222214043D

 27 26  0     1  0  0  0  0  0999 V2000
   -3.2224   -3.5311    1.3159 H   0  0  0  0  0  0  0  0  0  0  0  0
   -3.1382   -2.6118    0.7300 C   0  0  0  0  0  0  0  0  0  0  0  0
   -3.7823   -1.8493    1.1751 H   0  0  0  0  0  0  0  0  0  0  0  0
   -3.4752   -2.8106   -0.2905 H   0  0  0  0  0  0  0  0  0  0  0  0
   -1.6992   -2.1276    0.7136 C   0  0  0  0  0  0  0  0  0  0  0  0
   -0.8265   -2.7936    1.2528 O   0  0  0  0  0  0  0  0  0  0  0  0
   -1.3971   -0.9305    0.1062 N   0  0  0  0  0  0  0  0  0  0  0  0
   -2.1735   -0.3465   -0.2058 H   0  0  0  0  0  0  0  0  0  0  0  0
   -0.0836   -0.2723    0.1322 C   0  0  1  0  0  0  0  0  0  0  0  0
    0.5081   -0.6535    0.9698 H   0  0  0  0  0  0  0  0  0  0  0  0
    0.6935   -0.5874   -1.1682 C   0  0  0  0  0  0  0  0  0  0  0  0
    1.2331   -1.5275   -1.0180 H   0  0  0  0  0  0  0  0  0  0  0  0
   -0.0248   -0.7563   -1.9780 H   0  0  0  0  0  0  0  0  0  0  0  0
    1.6926    0.4839   -1.6532 C   0  0  0  0  0  0  0  0  0  0  0  0
    2.3306    0.7832   -0.8162 H   0  0  0  0  0  0  0  0  0  0  0  0
    2.3415    0.0225   -2.4030 H   0  0  0  0  0  0  0  0  0  0  0  0
    1.0794    1.7268   -2.2993 C   0  0  0  0  0  0  0  0  0  0  0  0
    0.3702    1.5746   -3.3234 O   0  5  0  0  0  0  0  0  0  0  0  0
    1.3954    2.8337   -1.7968 O   0  0  0  0  0  0  0  0  0  0  0  0
   -0.3289    1.2298    0.4334 C   0  0  0  0  0  0  0  0  0  0  0  0
   -1.4437    1.7068    0.2190 O   0  0  0  0  0  0  0  0  0  0  0  0
    0.4730    1.8724    1.3599 N   0  0  0  0  0  0  0  0  0  0  0  0
    1.4336    1.5468    1.3644 H   0  0  0  0  0  0  0  0  0  0  0  0
    0.2682    3.2808    1.6719 C   0  0  0  0  0  0  0  0  0  0  0  0
   -0.7113    3.4356    2.1355 H   0  0  0  0  0  0  0  0  0  0  0  0
    1.0372    3.6255    2.3690 H   0  0  0  0  0  0  0  0  0  0  0  0
    0.3289    3.8856    0.7605 H   0  0  0  0  0  0  0  0  0  0  0  0
  1  2  1  0  0  0  0
  2  3  1  0  0  0  0
  2  4  1  0  0  0  0
  2  5  1  0  0  0  0
  5  6  2  0  0  0  0
  5  7  1  0  0  0  0
  7  8  1  0  0  0  0
  7  9  1  0  0  0  0
  9 10  1  0  0  0  0
  9 11  1  0  0  0  0
  9 20  1  0  0  0  0
 11 12  1  0  0  0  0
 11 13  1  0  0  0  0
 11 14  1  0  0  0  0
 14 15  1  0  0  0  0
 14 16  1  0  0  0  0
 14 17  1  0  0  0  0
 17 18  1  0  0  0  0
 17 19  2  0  0  0  0
 20 21  2  0  0  0  0
 20 22  1  0  0  0  0
 22 23  1  0  0  0  0
 22 24  1  0  0  0  0
 24 25  1  0  0  0  0
 24 26  1  0  0  0  0
 24 27  1  0  0  0  0
M  CHG  1  18  -1
M  END
$$$$

  -OEChem-03222214043D

 27 26  0     1  0  0  0  0  0999 V2000
   -3.1946   -3.5144    1.3344 H   0  0  0  0  0  0  0  0  0  0  0  0
   -3.1229   -2.5849    0.7631 C   0  0  0  0  0  0  0  0  0  0  0  0
   -3.7404   -1.8241    1.2472 H   0  0  0  0  0  0  0  0  0  0  0  0
   -3.5009   -2.7598   -0.2472 H   0  0  0  0  0  0  0  0  0  0  0  0
   -1.6806   -2.1156    0.6999 C   0  0  0  0  0  0  0  0  0  0  0  0
   -0.7951   -2.8007    1.1922 O   0  0  0  0  0  0  0  0  0  0  0  0
   -1.3902   -0.9112    0.1015 N   0  0  0  0  0  0  0  0  0  0  0  0
   -2.1741   -0.3090   -0.1529 H   0  0  0  0  0  0  0  0  0  0  0  0
   -0.0781   -0.2490    0.1272 C   0  0  1  0  0  0  0  0  0  0  0  0
    0.5134   -0.6273    0.9664 H   0  0  0  0  0  0  0  0  0  0  0  0
    0.7014   -0.5848   -1.1706 C   0  0  0  0  0  0  0  0  0  0  0  0
    1.2160   -1.5388   -1.0197 H   0  0  0  0  0  0  0  0  0  0  0  0
   -0.0323   -0.7398   -1.9692 H   0  0  0  0  0  0  0  0  0  0  0  0
    1.7171    0.4417   -1.7182 C   0  0  0  0  0  0  0  0  0  0  0  0
    2.5097    0.5629   -0.9736 H   0  0  0  0  0  0  0  0  0  0  0  0
    2.1795    0.0144   -2.6126 H   0  0  0  0  0  0  0  0  0  0  0  0
    1.1898    1.8242   -2.0948 C   0  0  0  0  0  0  0  0  0  0  0  0
    0.4090    1.9137   -3.0720 O   0  5  0  0  0  0  0  0  0  0  0  0
    1.6261    2.7936   -1.4243 O   0  0  0  0  0  0  0  0  0  0  0  0
   -0.3434    1.2481    0.4459 C   0  0  0  0  0  0  0  0  0  0  0  0
   -1.4780    1.6974    0.2717 O   0  0  0  0  0  0  0  0  0  0  0  0
    0.4554    1.8879    1.3773 N   0  0  0  0  0  0  0  0  0  0  0  0
    1.4389    1.6582    1.2712 H   0  0  0  0  0  0  0  0  0  0  0  0
    0.1733    3.2594    1.7801 C   0  0  0  0  0  0  0  0  0  0  0  0
   -0.7900    3.3197    2.2964 H   0  0  0  0  0  0  0  0  0  0  0  0
    0.9514    3.6172    2.4605 H   0  0  0  0  0  0  0  0  0  0  0  0
    0.1489    3.9169    0.9043 H   0  0  0  0  0  0  0  0  0  0  0  0
  1  2  1  0  0  0  0
  2  3  1  0  0  0  0
  2  4  1  0  0  0  0
  2  5  1  0  0  0  0
  5  6  2  0  0  0  0
  5  7  1  0  0  0  0
  7  8  1  0  0  0  0
  7  9  1  0  0  0  0
  9 10  1  0  0  0  0
  9 11  1  0  0  0  0
  9 20  1  0  0  0  0
 11 12  1  0  0  0  0
 11 13  1  0  0  0  0
 11 14  1  0  0  0  0
 14 15  1  0  0  0  0
 14 16  1  0  0  0  0
 14 17  1  0  0  0  0
 17 18  1  0  0  0  0
 17 19  2  0  0  0  0
 20 21  2  0  0  0  0
 20 22  1  0  0  0  0
 22 23  1  0  0  0  0
 22 24  1  0  0  0  0
 24 25  1  0  0  0  0
 24 26  1  0  0  0  0
 24 27  1  0  0  0  0
M  CHG  1  18  -1
M  END
$$$$

  -OEChem-03222214043D

 27 26  0     1  0  0  0  0  0999 V2000
   -3.2296   -3.4628    1.3090 H   0  0  0  0  0  0  0  0  0  0  0  0
   -3.1400   -2.5292    0.7467 C   0  0  0  0  0  0  0  0  0  0  0  0
   -3.7430   -1.7617    1.2383 H   0  0  0  0  0  0  0  0  0  0  0  0
   -3.5211   -2.6869   -0.2654 H   0  0  0  0  0  0  0  0  0  0  0  0
   -1.6889   -2.0864    0.6882 C   0  0  0  0  0  0  0  0  0  0  0  0
   -0.8184   -2.7877    1.1841 O   0  0  0  0  0  0  0  0  0  0  0  0
   -1.3741   -0.8913    0.0835 N   0  0  0  0  0  0  0  0  0  0  0  0
   -2.1479   -0.2708   -0.1585 H   0  0  0  0  0  0  0  0  0  0  0  0
   -0.0552   -0.2409    0.1397 C   0  0  1  0  0  0  0  0  0  0  0  0
    0.5185   -0.6077    0.9964 H   0  0  0  0  0  0  0  0  0  0  0  0
    0.7427   -0.5979   -1.1456 C   0  0  0  0  0  0  0  0  0  0  0  0
    1.2165   -1.5720   -0.9906 H   0  0  0  0  0  0  0  0  0  0  0  0
    0.0057   -0.7270   -1.9457 H   0  0  0  0  0  0  0  0  0  0  0  0
    1.8000    0.3719   -1.7282 C   0  0  0  0  0  0  0  0  0  0  0  0
    2.6981    0.2813   -1.1093 H   0  0  0  0  0  0  0  0  0  0  0  0
    2.0687    0.0152   -2.7269 H   0  0  0  0  0  0  0  0  0  0  0  0
    1.4730    1.8565   -1.8426 C   0  0  0  0  0  0  0  0  0  0  0  0
    0.7533    2.2414   -2.7932 O   0  5  0  0  0  0  0  0  0  0  0  0
    1.9871    2.6057   -0.9719 O   0  0  0  0  0  0  0  0  0  0  0  0
   -0.3555    1.2587    0.4355 C   0  0  0  0  0  0  0  0  0  0  0  0
   -1.4984    1.6804    0.2338 O   0  0  0  0  0  0  0  0  0  0  0  0
    0.4017    1.9194    1.3865 N   0  0  0  0  0  0  0  0  0  0  0  0
    1.3940    1.8519    1.1573 H   0  0  0  0  0  0  0  0  0  0  0  0
   -0.0045    3.2291    1.8795 C   0  0  0  0  0  0  0  0  0  0  0  0
   -0.9675    3.1670    2.3962 H   0  0  0  0  0  0  0  0  0  0  0  0
    0.7400    3.6097    2.5847 H   0  0  0  0  0  0  0  0  0  0  0  0
   -0.0910    3.9388    1.0496 H   0  0  0  0  0  0  0  0  0  0  0  0
  1  2  1  0  0  0  0
  2  3  1  0  0  0  0
  2  4  1  0  0  0  0
  2  5  1  0  0  0  0
  5  6  2  0  0  0  0
  5  7  1  0  0  0  0
  7  8  1  0  0  0  0
  7  9  1  0  0  0  0
  9 10  1  0  0  0  0
  9 11  1  0  0  0  0
  9 20  1  0  0  0  0
 11 12  1  0  0  0  0
 11 13  1  0  0  0  0
 11 14  1  0  0  0  0
 14 15  1  0  0  0  0
 14 16  1  0  0  0  0
 14 17  1  0  0  0  0
 17 18  1  0  0  0  0
 17 19  2  0  0  0  0
 20 21  2  0  0  0  0
 20 22  1  0  0  0  0
 22 23  1  0  0  0  0
 22 24  1  0  0  0  0
 24 25  1  0  0  0  0
 24 26  1  0  0  0  0
 24 27  1  0  0  0  0
M  CHG  1  18  -1
M  END
$$$$

  -OEChem-03222214043D

 27 26  0     1  0  0  0  0  0999 V2000
   -3.1620   -3.5418    1.1802 H   0  0  0  0  0  0  0  0  0  0  0  0
   -3.0879   -2.5819    0.6616 C   0  0  0  0  0  0  0  0  0  0  0  0
   -3.6890   -1.8435    1.1982 H   0  0  0  0  0  0  0  0  0  0  0  0
   -3.4831   -2.6952   -0.3508 H   0  0  0  0  0  0  0  0  0  0  0  0
   -1.6409   -2.1254    0.6019 C   0  0  0  0  0  0  0  0  0  0  0  0
   -0.7576   -2.8466    1.0428 O   0  0  0  0  0  0  0  0  0  0  0  0
   -1.3448   -0.8983    0.0543 N   0  0  0  0  0  0  0  0  0  0  0  0
   -2.1278   -0.2696   -0.1315 H   0  0  0  0  0  0  0  0  0  0  0  0
   -0.0295   -0.2393    0.1284 C   0  0  1  0  0  0  0  0  0  0  0  0
    0.5696   -0.6399    0.9522 H   0  0  0  0  0  0  0  0  0  0  0  0
    0.7326   -0.5143   -1.2014 C   0  0  0  0  0  0  0  0  0  0  0  0
    1.1964   -1.5027   -1.1258 H   0  0  0  0  0  0  0  0  0  0  0  0
   -0.0359   -0.5865   -1.9783 H   0  0  0  0  0  0  0  0  0  0  0  0
    1.7807    0.4694   -1.7886 C   0  0  0  0  0  0  0  0  0  0  0  0
    2.7557    0.1663   -1.3954 H   0  0  0  0  0  0  0  0  0  0  0  0
    1.8223    0.3149   -2.8710 H   0  0  0  0  0  0  0  0  0  0  0  0
    1.6562    1.9665   -1.5341 C   0  0  0  0  0  0  0  0  0  0  0  0
    2.2627    2.4071   -0.5216 O   0  5  0  0  0  0  0  0  0  0  0  0
    0.9777    2.6607   -2.3250 O   0  0  0  0  0  0  0  0  0  0  0  0
   -0.3683    1.2364    0.5042 C   0  0  0  0  0  0  0  0  0  0  0  0
   -1.5182    1.6474    0.3149 O   0  0  0  0  0  0  0  0  0  0  0  0
    0.3761    1.8696    1.4827 N   0  0  0  0  0  0  0  0  0  0  0  0
    1.3661    1.8694    1.2128 H   0  0  0  0  0  0  0  0  0  0  0  0
   -0.0721    3.1279    2.0638 C   0  0  0  0  0  0  0  0  0  0  0  0
   -1.0302    2.9979    2.5767 H   0  0  0  0  0  0  0  0  0  0  0  0
    0.6628    3.4842    2.7915 H   0  0  0  0  0  0  0  0  0  0  0  0
   -0.1862    3.8887    1.2844 H   0  0  0  0  0  0  0  0  0  0  0  0
  1  2  1  0  0  0  0
  2  3  1  0  0  0  0
  2  4  1  0  0  0  0
  2  5  1  0  0  0  0
  5  6  2  0  0  0  0
  5  7  1  0  0  0  0
  7  8  1  0  0  0  0
  7  9  1  0  0  0  0
  9 10  1  0  0  0  0
  9 11  1  0  0  0  0
  9 20  1  0  0  0  0
 11 12  1  0  0  0  0
 11 13  1  0  0  0  0
 11 14  1  0  0  0  0
 14 15  1  0  0  0  0
 14 16  1  0  0  0  0
 14 17  1  0  0  0  0
 17 18  1  0  0  0  0
 17 19  2  0  0  0  0
 20 21  2  0  0  0  0
 20 22  1  0  0  0  0
 22 23  1  0  0  0  0
 22 24  1  0  0  0  0
 24 25  1  0  0  0  0
 24 26  1  0  0  0  0
 24 27  1  0  0  0  0
M  CHG  1  18  -1
M  END
$$$$

  -OEChem-03222214043D

 27 26  0     1  0  0  0  0  0999 V2000
   -2.9923   -3.6990    1.0827 H   0  0  0  0  0  0  0  0  0  0  0  0
   -2.9587   -2.7123    0.6127 C   0  0  0  0  0  0  0  0  0  0  0  0
   -3.5707   -2.0214    1.1980 H   0  0  0  0  0  0  0  0  0  0  0  0
   -3.3720   -2.7867   -0.3961 H   0  0  0  0  0  0  0  0  0  0  0  0
   -1.5280   -2.2071    0.5498 C   0  0  0  0  0  0  0  0  0  0  0  0
   -0.6165   -2.9116    0.9585 O   0  0  0  0  0  0  0  0  0  0  0  0
   -1.2804   -0.9528    0.0411 N   0  0  0  0  0  0  0  0  0  0  0  0
   -2.0874   -0.3488   -0.1226 H   0  0  0  0  0  0  0  0  0  0  0  0
    0.0085   -0.2458    0.1402 C   0  0  1  0  0  0  0  0  0  0  0  0
    0.6369   -0.6466    0.9418 H   0  0  0  0  0  0  0  0  0  0  0  0
    0.7497   -0.4308   -1.2182 C   0  0  0  0  0  0  0  0  0  0  0  0
    1.2485   -1.4047   -1.1921 H   0  0  0  0  0  0  0  0  0  0  0  0
   -0.0324   -0.5030   -1.9818 H   0  0  0  0  0  0  0  0  0  0  0  0
    1.7550    0.6075   -1.7939 C   0  0  0  0  0  0  0  0  0  0  0  0
    2.7578    0.1848   -1.6803 H   0  0  0  0  0  0  0  0  0  0  0  0
    1.5765    0.6918   -2.8702 H   0  0  0  0  0  0  0  0  0  0  0  0
    1.8143    2.0167   -1.2162 C   0  0  0  0  0  0  0  0  0  0  0  0
    1.2474    2.9511   -1.8272 O   0  5  0  0  0  0  0  0  0  0  0  0
    2.4419    2.1418   -0.1307 O   0  0  0  0  0  0  0  0  0  0  0  0
   -0.4140    1.1970    0.5610 C   0  0  0  0  0  0  0  0  0  0  0  0
   -1.5657    1.5785    0.3243 O   0  0  0  0  0  0  0  0  0  0  0  0
    0.2787    1.8473    1.5649 N   0  0  0  0  0  0  0  0  0  0  0  0
    1.2885    1.8179    1.3737 H   0  0  0  0  0  0  0  0  0  0  0  0
   -0.1920    3.1207    2.0915 C   0  0  0  0  0  0  0  0  0  0  0  0
   -1.1663    3.0019    2.5757 H   0  0  0  0  0  0  0  0  0  0  0  0
    0.5170    3.5024    2.8317 H   0  0  0  0  0  0  0  0  0  0  0  0
   -0.2820    3.8567    1.2855 H   0  0  0  0  0  0  0  0  0  0  0  0
  1  2  1  0  0  0  0
  2  3  1  0  0  0  0
  2  4  1  0  0  0  0
  2  5  1  0  0  0  0
  5  6  2  0  0  0  0
  5  7  1  0  0  0  0
  7  8  1  0  0  0  0
  7  9  1  0  0  0  0
  9 10  1  0  0  0  0
  9 11  1  0  0  0  0
  9 20  1  0  0  0  0
 11 12  1  0  0  0  0
 11 13  1  0  0  0  0
 11 14  1  0  0  0  0
 14 15  1  0  0  0  0
 14 16  1  0  0  0  0
 14 17  1  0  0  0  0
 17 18  1  0  0  0  0
 17 19  2  0  0  0  0
 20 21  2  0  0  0  0
 20 22  1  0  0  0  0
 22 23  1  0  0  0  0
 22 24  1  0  0  0  0
 24 25  1  0  0  0  0
 24 26  1  0  0  0  0
 24 27  1  0  0  0  0
M  CHG  1  18  -1
M  END
$$$$

  -OEChem-03222214043D

 27 26  0     1  0  0  0  0  0999 V2000
   -3.2068   -3.4526    1.4187 H   0  0  0  0  0  0  0  0  0  0  0  0
   -3.1207   -2.5171    0.8589 C   0  0  0  0  0  0  0  0  0  0  0  0
   -3.6876   -1.7412    1.3797 H   0  0  0  0  0  0  0  0  0  0  0  0
   -3.5457   -2.6607   -0.1375 H   0  0  0  0  0  0  0  0  0  0  0  0
   -1.6640   -2.1040    0.7447 C   0  0  0  0  0  0  0  0  0  0  0  0
   -0.7899   -2.8399    1.1780 O   0  0  0  0  0  0  0  0  0  0  0  0
   -1.3513   -0.8981    0.1597 N   0  0  0  0  0  0  0  0  0  0  0  0
   -2.1230   -0.2578   -0.0315 H   0  0  0  0  0  0  0  0  0  0  0  0
   -0.0181   -0.2713    0.1856 C   0  0  1  0  0  0  0  0  0  0  0  0
    0.6196   -0.6691    0.9817 H   0  0  0  0  0  0  0  0  0  0  0  0
    0.6447   -0.5539   -1.1961 C   0  0  0  0  0  0  0  0  0  0  0  0
    1.1042   -1.5448   -1.1280 H   0  0  0  0  0  0  0  0  0  0  0  0
   -0.1644   -0.6373   -1.9295 H   0  0  0  0  0  0  0  0  0  0  0  0
    1.6865    0.4010   -1.8489 C   0  0  0  0  0  0  0  0  0  0  0  0
    2.6004   -0.1706   -2.0351 H   0  0  0  0  0  0  0  0  0  0  0  0
    1.3000    0.6972   -2.8291 H   0  0  0  0  0  0  0  0  0  0  0  0
    2.0960    1.6726   -1.1116 C   0  0  0  0  0  0  0  0  0  0  0  0
    1.8137    2.7859   -1.6110 O   0  5  0  0  0  0  0  0  0  0  0  0
    2.6931    1.5105   -0.0137 O   0  0  0  0  0  0  0  0  0  0  0  0
   -0.3445    1.2141    0.5345 C   0  0  0  0  0  0  0  0  0  0  0  0
   -1.4535    1.6757    0.2434 O   0  0  0  0  0  0  0  0  0  0  0  0
    0.4059    1.8824    1.4827 N   0  0  0  0  0  0  0  0  0  0  0  0
    1.4084    1.6872    1.3586 H   0  0  0  0  0  0  0  0  0  0  0  0
    0.0904    3.2518    1.8611 C   0  0  0  0  0  0  0  0  0  0  0  0
   -0.9046    3.3086    2.3133 H   0  0  0  0  0  0  0  0  0  0  0  0
    0.8213    3.6142    2.5898 H   0  0  0  0  0  0  0  0  0  0  0  0
    0.1210    3.9060    0.9833 H   0  0  0  0  0  0  0  0  0  0  0  0
  1  2  1  0  0  0  0
  2  3  1  0  0  0  0
  2  4  1  0  0  0  0
  2  5  1  0  0  0  0
  5  6  2  0  0  0  0
  5  7  1  0  0  0  0
  7  8  1  0  0  0  0
  7  9  1  0  0  0  0
  9 10  1  0  0  0  0
  9 11  1  0  0  0  0
  9 20  1  0  0  0  0
 11 12  1  0  0  0  0
 11 13  1  0  0  0  0
 11 14  1  0  0  0  0
 14 15  1  0  0  0  0
 14 16  1  0  0  0  0
 14 17  1  0  0  0  0
 17 18  1  0  0  0  0
 17 19  2  0  0  0  0
 20 21  2  0  0  0  0
 20 22  1  0  0  0  0
 22 23  1  0  0  0  0
 22 24  1  0  0  0  0
 24 25  1  0  0  0  0
 24 26  1  0  0  0  0
 24 27  1  0  0  0  0
M  CHG  1  18  -1
M  END
$$$$

  -OEChem-03222214043D

 27 26  0     1  0  0  0  0  0999 V2000
   -3.4247   -3.3298    1.3134 H   0  0  0  0  0  0  0  0  0  0  0  0
   -3.2518   -2.4258    0.7230 C   0  0  0  0  0  0  0  0  0  0  0  0
   -3.8579   -1.6147    1.1344 H   0  0  0  0  0  0  0  0  0  0  0  0
   -3.5600   -2.6127   -0.3085 H   0  0  0  0  0  0  0  0  0  0  0  0
   -1.7826   -2.0440    0.7622 C   0  0  0  0  0  0  0  0  0  0  0  0
   -0.9881   -2.7538    1.3599 O   0  0  0  0  0  0  0  0  0  0  0  0
   -1.3715   -0.8971    0.1224 N   0  0  0  0  0  0  0  0  0  0  0  0
   -2.0981   -0.2706   -0.2245 H   0  0  0  0  0  0  0  0  0  0  0  0
   -0.0368   -0.2885    0.2533 C   0  0  1  0  0  0  0  0  0  0  0  0
    0.5023   -0.6340    1.1422 H   0  0  0  0  0  0  0  0  0  0  0  0
    0.7673   -0.6679   -1.0235 C   0  0  0  0  0  0  0  0  0  0  0  0
    1.2218   -1.6426   -0.8194 H   0  0  0  0  0  0  0  0  0  0  0  0
    0.0568   -0.8191   -1.8430 H   0  0  0  0  0  0  0  0  0  0  0  0
    1.8852    0.2532   -1.5904 C   0  0  0  0  0  0  0  0  0  0  0  0
    2.7228   -0.3691   -1.9175 H   0  0  0  0  0  0  0  0  0  0  0  0
    1.4823    0.7382   -2.4852 H   0  0  0  0  0  0  0  0  0  0  0  0
    2.4390    1.3607   -0.6917 C   0  0  0  0  0  0  0  0  0  0  0  0
    2.5392    2.5188   -1.1592 O   0  5  0  0  0  0  0  0  0  0  0  0
    2.7453    1.0406    0.4881 O   0  0  0  0  0  0  0  0  0  0  0  0
   -0.3535    1.2256    0.4369 C   0  0  0  0  0  0  0  0  0  0  0  0
   -1.3736    1.6993   -0.0738 O   0  0  0  0  0  0  0  0  0  0  0  0
    0.2981    1.9636    1.4054 N   0  0  0  0  0  0  0  0  0  0  0  0
    1.2790    1.6680    1.5045 H   0  0  0  0  0  0  0  0  0  0  0  0
    0.0544    3.3899    1.5589 C   0  0  0  0  0  0  0  0  0  0  0  0
   -0.9903    3.5771    1.8264 H   0  0  0  0  0  0  0  0  0  0  0  0
    0.6912    3.7933    2.3514 H   0  0  0  0  0  0  0  0  0  0  0  0
    0.2838    3.9172    0.6268 H   0  0  0  0  0  0  0  0  0  0  0  0
  1  2  1  0  0  0  0
  2  3  1  0  0  0  0
  2  4  1  0  0  0  0
  2  5  1  0  0  0  0
  5  6  2  0  0  0  0
  5  7  1  0  0  0  0
  7  8  1  0  0  0  0
  7  9  1  0  0  0  0
  9 10  1  0  0  0  0
  9 11  1  0  0  0  0
  9 20  1  0  0  0  0
 11 12  1  0  0  0  0
 11 13  1  0  0  0  0
 11 14  1  0  0  0  0
 14 15  1  0  0  0  0
 14 16  1  0  0  0  0
 14 17  1  0  0  0  0
 17 18  1  0  0  0  0
 17 19  2  0  0  0  0
 20 21  2  0  0  0  0
 20 22  1  0  0  0  0
 22 23  1  0  0  0  0
 22 24  1  0  0  0  0
 24 25  1  0  0  0  0
 24 26  1  0  0  0  0
 24 27  1  0  0  0  0
M  CHG  1  18  -1
M  END
$$$$

  -OEChem-03222214043D

 27 26  0     1  0  0  0  0  0999 V2000
   -3.3129   -3.4791    1.2139 H   0  0  0  0  0  0  0  0  0  0  0  0
   -3.1796   -2.5532    0.6479 C   0  0  0  0  0  0  0  0  0  0  0  0
   -3.8012   -1.7737    1.0957 H   0  0  0  0  0  0  0  0  0  0  0  0
   -3.5024   -2.7188   -0.3828 H   0  0  0  0  0  0  0  0  0  0  0  0
   -1.7222   -2.1280    0.6698 C   0  0  0  0  0  0  0  0  0  0  0  0
   -0.8925   -2.8425    1.2107 O   0  0  0  0  0  0  0  0  0  0  0  0
   -1.3646   -0.9373    0.0790 N   0  0  0  0  0  0  0  0  0  0  0  0
   -2.1193   -0.3229   -0.2247 H   0  0  0  0  0  0  0  0  0  0  0  0
   -0.0463   -0.2938    0.1997 C   0  0  1  0  0  0  0  0  0  0  0  0
    0.5212   -0.6777    1.0548 H   0  0  0  0  0  0  0  0  0  0  0  0
    0.7481   -0.5743   -1.1040 C   0  0  0  0  0  0  0  0  0  0  0  0
    1.2582   -1.5316   -0.9564 H   0  0  0  0  0  0  0  0  0  0  0  0
    0.0388   -0.7146   -1.9261 H   0  0  0  0  0  0  0  0  0  0  0  0
    1.8061    0.4484   -1.6004 C   0  0  0  0  0  0  0  0  0  0  0  0
    2.5521   -0.0842   -2.1967 H   0  0  0  0  0  0  0  0  0  0  0  0
    1.2961    1.1520   -2.2658 H   0  0  0  0  0  0  0  0  0  0  0  0
    2.5398    1.2782   -0.5394 C   0  0  0  0  0  0  0  0  0  0  0  0
    2.7558    0.7487    0.5830 O   0  5  0  0  0  0  0  0  0  0  0  0
    2.8568    2.4536   -0.8356 O   0  0  0  0  0  0  0  0  0  0  0  0
   -0.3546    1.2031    0.4724 C   0  0  0  0  0  0  0  0  0  0  0  0
   -1.3776    1.7083    0.0022 O   0  0  0  0  0  0  0  0  0  0  0  0
    0.3355    1.8856    1.4543 N   0  0  0  0  0  0  0  0  0  0  0  0
    1.2997    1.5400    1.5583 H   0  0  0  0  0  0  0  0  0  0  0  0
    0.1391    3.3099    1.6738 C   0  0  0  0  0  0  0  0  0  0  0  0
   -0.8962    3.5170    1.9620 H   0  0  0  0  0  0  0  0  0  0  0  0
    0.7967    3.6569    2.4762 H   0  0  0  0  0  0  0  0  0  0  0  0
    0.3752    3.8712    0.7637 H   0  0  0  0  0  0  0  0  0  0  0  0
  1  2  1  0  0  0  0
  2  3  1  0  0  0  0
  2  4  1  0  0  0  0
  2  5  1  0  0  0  0
  5  6  2  0  0  0  0
  5  7  1  0  0  0  0
  7  8  1  0  0  0  0
  7  9  1  0  0  0  0
  9 10  1  0  0  0  0
  9 11  1  0  0  0  0
  9 20  1  0  0  0  0
 11 12  1  0  0  0  0
 11 13  1  0  0  0  0
 11 14  1  0  0  0  0
 14 15  1  0  0  0  0
 14 16  1  0  0  0  0
 14 17  1  0  0  0  0
 17 18  1  0  0  0  0
 17 19  2  0  0  0  0
 20 21  2  0  0  0  0
 20 22  1  0  0  0  0
 22 23  1  0  0  0  0
 22 24  1  0  0  0  0
 24 25  1  0  0  0  0
 24 26  1  0  0  0  0
 24 27  1  0  0  0  0
M  CHG  1  18  -1
M  END
$$$$

  -OEChem-03222214043D

 27 26  0     1  0  0  0  0  0999 V2000
   -3.2928   -3.5138    1.2426 H   0  0  0  0  0  0  0  0  0  0  0  0
   -3.1696   -2.5990    0.6562 C   0  0  0  0  0  0  0  0  0  0  0  0
   -3.8081   -1.8202    1.0806 H   0  0  0  0  0  0  0  0  0  0  0  0
   -3.4803   -2.7939   -0.3731 H   0  0  0  0  0  0  0  0  0  0  0  0
   -1.7193   -2.1496    0.6805 C   0  0  0  0  0  0  0  0  0  0  0  0
   -0.8819   -2.8464    1.2316 O   0  0  0  0  0  0  0  0  0  0  0  0
   -1.3786   -0.9590    0.0791 N   0  0  0  0  0  0  0  0  0  0  0  0
   -2.1415   -0.3650   -0.2418 H   0  0  0  0  0  0  0  0  0  0  0  0
   -0.0678   -0.2976    0.1810 C   0  0  1  0  0  0  0  0  0  0  0  0
    0.4989   -0.6791    1.0378 H   0  0  0  0  0  0  0  0  0  0  0  0
    0.7420   -0.5741   -1.1104 C   0  0  0  0  0  0  0  0  0  0  0  0
    1.2752   -1.5189   -0.9639 H   0  0  0  0  0  0  0  0  0  0  0  0
    0.0439   -0.7226   -1.9402 H   0  0  0  0  0  0  0  0  0  0  0  0
    1.7679    0.4947   -1.5693 C   0  0  0  0  0  0  0  0  0  0  0  0
    2.3947    0.0551   -2.3502 H   0  0  0  0  0  0  0  0  0  0  0  0
    1.2121    1.3224   -2.0203 H   0  0  0  0  0  0  0  0  0  0  0  0
    2.6915    1.0906   -0.4951 C   0  0  0  0  0  0  0  0  0  0  0  0
    2.7432    0.5470    0.6396 O   0  5  0  0  0  0  0  0  0  0  0  0
    3.3125    2.1346   -0.8023 O   0  0  0  0  0  0  0  0  0  0  0  0
   -0.3429    1.2025    0.4464 C   0  0  0  0  0  0  0  0  0  0  0  0
   -1.3518    1.7298   -0.0273 O   0  0  0  0  0  0  0  0  0  0  0  0
    0.3791    1.8737    1.4124 N   0  0  0  0  0  0  0  0  0  0  0  0
    1.3215    1.4792    1.5424 H   0  0  0  0  0  0  0  0  0  0  0  0
    0.2341    3.3043    1.6278 C   0  0  0  0  0  0  0  0  0  0  0  0
   -0.7958    3.5510    1.9046 H   0  0  0  0  0  0  0  0  0  0  0  0
    0.8954    3.6279    2.4369 H   0  0  0  0  0  0  0  0  0  0  0  0
    0.5006    3.8543    0.7194 H   0  0  0  0  0  0  0  0  0  0  0  0
  1  2  1  0  0  0  0
  2  3  1  0  0  0  0
  2  4  1  0  0  0  0
  2  5  1  0  0  0  0
  5  6  2  0  0  0  0
  5  7  1  0  0  0  0
  7  8  1  0  0  0  0
  7  9  1  0  0  0  0
  9 10  1  0  0  0  0
  9 11  1  0  0  0  0
  9 20  1  0  0  0  0
 11 12  1  0  0  0  0
 11 13  1  0  0  0  0
 11 14  1  0  0  0  0
 14 15  1  0  0  0  0
 14 16  1  0  0  0  0
 14 17  1  0  0  0  0
 17 18  1  0  0  0  0
 17 19  2  0  0  0  0
 20 21  2  0  0  0  0
 20 22  1  0  0  0  0
 22 23  1  0  0  0  0
 22 24  1  0  0  0  0
 24 25  1  0  0  0  0
 24 26  1  0  0  0  0
 24 27  1  0  0  0  0
M  CHG  1  18  -1
M  END
$$$$

  -OEChem-03222214043D

 27 26  0     1  0  0  0  0  0999 V2000
   -3.2647   -3.5365    1.2403 H   0  0  0  0  0  0  0  0  0  0  0  0
   -3.1510   -2.6146    0.6630 C   0  0  0  0  0  0  0  0  0  0  0  0
   -3.7890   -1.8435    1.1021 H   0  0  0  0  0  0  0  0  0  0  0  0
   -3.4708   -2.7996   -0.3654 H   0  0  0  0  0  0  0  0  0  0  0  0
   -1.7028   -2.1583    0.6787 C   0  0  0  0  0  0  0  0  0  0  0  0
   -0.8584   -2.8526    1.2221 O   0  0  0  0  0  0  0  0  0  0  0  0
   -1.3726   -0.9643    0.0777 N   0  0  0  0  0  0  0  0  0  0  0  0
   -2.1409   -0.3741   -0.2367 H   0  0  0  0  0  0  0  0  0  0  0  0
   -0.0631   -0.2985    0.1662 C   0  0  1  0  0  0  0  0  0  0  0  0
    0.5132   -0.6827    1.0156 H   0  0  0  0  0  0  0  0  0  0  0  0
    0.7371   -0.5665   -1.1316 C   0  0  0  0  0  0  0  0  0  0  0  0
    1.2708   -1.5150   -1.0125 H   0  0  0  0  0  0  0  0  0  0  0  0
    0.0279   -0.6942   -1.9555 H   0  0  0  0  0  0  0  0  0  0  0  0
    1.7460    0.5214   -1.5754 C   0  0  0  0  0  0  0  0  0  0  0  0
    2.2030    0.1908   -2.5126 H   0  0  0  0  0  0  0  0  0  0  0  0
    1.2037    1.4469   -1.7882 H   0  0  0  0  0  0  0  0  0  0  0  0
    2.8783    0.8459   -0.5861 C   0  0  0  0  0  0  0  0  0  0  0  0
    2.7342    0.5666    0.6334 O   0  5  0  0  0  0  0  0  0  0  0  0
    3.8802    1.4316   -1.0596 O   0  0  0  0  0  0  0  0  0  0  0  0
   -0.3306    1.2019    0.4400 C   0  0  0  0  0  0  0  0  0  0  0  0
   -1.3418    1.7353   -0.0218 O   0  0  0  0  0  0  0  0  0  0  0  0
    0.4033    1.8719    1.3970 N   0  0  0  0  0  0  0  0  0  0  0  0
    1.3474    1.4758    1.5141 H   0  0  0  0  0  0  0  0  0  0  0  0
    0.2440    3.2956    1.6464 C   0  0  0  0  0  0  0  0  0  0  0  0
   -0.7812    3.5200    1.9574 H   0  0  0  0  0  0  0  0  0  0  0  0
    0.9229    3.6124    2.4435 H   0  0  0  0  0  0  0  0  0  0  0  0
    0.4753    3.8694    0.7432 H   0  0  0  0  0  0  0  0  0  0  0  0
  1  2  1  0  0  0  0
  2  3  1  0  0  0  0
  2  4  1  0  0  0  0
  2  5  1  0  0  0  0
  5  6  2  0  0  0  0
  5  7  1  0  0  0  0
  7  8  1  0  0  0  0
  7  9  1  0  0  0  0
  9 10  1  0  0  0  0
  9 11  1  0  0  0  0
  9 20  1  0  0  0  0
 11 12  1  0  0  0  0
 11 13  1  0  0  0  0
 11 14  1  0  0  0  0
 14 15  1  0  0  0  0
 14 16  1  0  0  0  0
 14 17  1  0  0  0  0
 17 18  1  0  0  0  0
 17 19  2  0  0  0  0
 20 21  2  0  0  0  0
 20 22  1  0  0  0  0
 22 23  1  0  0  0  0
 22 24  1  0  0  0  0
 24 25  1  0  0  0  0
 24 26  1  0  0  0  0
 24 27  1  0  0  0  0
M  CHG  1  18  -1
M  END
$$$$

  -OEChem-03222214043D

 27 26  0     1  0  0  0  0  0999 V2000
   -3.2023   -3.5721    1.2160 H   0  0  0  0  0  0  0  0  0  0  0  0
   -3.1161   -2.6307    0.6663 C   0  0  0  0  0  0  0  0  0  0  0  0
   -3.7503   -1.8824    1.1479 H   0  0  0  0  0  0  0  0  0  0  0  0
   -3.4627   -2.7865   -0.3582 H   0  0  0  0  0  0  0  0  0  0  0  0
   -1.6730   -2.1575    0.6577 C   0  0  0  0  0  0  0  0  0  0  0  0
   -0.8116   -2.8424    1.1859 O   0  0  0  0  0  0  0  0  0  0  0  0
   -1.3661   -0.9542    0.0624 N   0  0  0  0  0  0  0  0  0  0  0  0
   -2.1451   -0.3701   -0.2363 H   0  0  0  0  0  0  0  0  0  0  0  0
   -0.0599   -0.2798    0.1301 C   0  0  1  0  0  0  0  0  0  0  0  0
    0.5296   -0.6626    0.9710 H   0  0  0  0  0  0  0  0  0  0  0  0
    0.7390   -0.5487   -1.1678 C   0  0  0  0  0  0  0  0  0  0  0  0
    1.2759   -1.4978   -1.0671 H   0  0  0  0  0  0  0  0  0  0  0  0
    0.0236   -0.6670   -1.9875 H   0  0  0  0  0  0  0  0  0  0  0  0
    1.7253    0.5609   -1.5953 C   0  0  0  0  0  0  0  0  0  0  0  0
    2.0258    0.3674   -2.6295 H   0  0  0  0  0  0  0  0  0  0  0  0
    1.2527    1.5460   -1.5850 H   0  0  0  0  0  0  0  0  0  0  0  0
    2.9872    0.5769   -0.7246 C   0  0  0  0  0  0  0  0  0  0  0  0
    2.8361    0.7578    0.5131 O   0  5  0  0  0  0  0  0  0  0  0  0
    4.0961    0.4370   -1.2930 O   0  0  0  0  0  0  0  0  0  0  0  0
   -0.3245    1.2162    0.4264 C   0  0  0  0  0  0  0  0  0  0  0  0
   -1.3549    1.7485    0.0078 O   0  0  0  0  0  0  0  0  0  0  0  0
    0.4329    1.8725    1.3745 N   0  0  0  0  0  0  0  0  0  0  0  0
    1.3932    1.5014    1.4338 H   0  0  0  0  0  0  0  0  0  0  0  0
    0.2491    3.2819    1.6803 C   0  0  0  0  0  0  0  0  0  0  0  0
   -0.7609    3.4649    2.0605 H   0  0  0  0  0  0  0  0  0  0  0  0
    0.9669    3.5931    2.4450 H   0  0  0  0  0  0  0  0  0  0  0  0
    0.4080    3.8908    0.7848 H   0  0  0  0  0  0  0  0  0  0  0  0
  1  2  1  0  0  0  0
  2  3  1  0  0  0  0
  2  4  1  0  0  0  0
  2  5  1  0  0  0  0
  5  6  2  0  0  0  0
  5  7  1  0  0  0  0
  7  8  1  0  0  0  0
  7  9  1  0  0  0  0
  9 10  1  0  0  0  0
  9 11  1  0  0  0  0
  9 20  1  0  0  0  0
 11 12  1  0  0  0  0
 11 13  1  0  0  0  0
 11 14  1  0  0  0  0
 14 15  1  0  0  0  0
 14 16  1  0  0  0  0
 14 17  1  0  0  0  0
 17 18  1  0  0  0  0
 17 19  2  0  0  0  0
 20 21  2  0  0  0  0
 20 22  1  0  0  0  0
 22 23  1  0  0  0  0
 22 24  1  0  0  0  0
 24 25  1  0  0  0  0
 24 26  1  0  0  0  0
 24 27  1  0  0  0  0
M  CHG  1  18  -1
M  END
$$$$

  -OEChem-03222214043D

 27 26  0     1  0  0  0  0  0999 V2000
   -3.1657   -3.6240    1.2063 H   0  0  0  0  0  0  0  0  0  0  0  0
   -3.1109   -2.6819    0.6534 C   0  0  0  0  0  0  0  0  0  0  0  0
   -3.7648   -1.9515    1.1364 H   0  0  0  0  0  0  0  0  0  0  0  0
   -3.4583   -2.8518   -0.3686 H   0  0  0  0  0  0  0  0  0  0  0  0
   -1.6827   -2.1659    0.6342 C   0  0  0  0  0  0  0  0  0  0  0  0
   -0.7960   -2.8306    1.1456 O   0  0  0  0  0  0  0  0  0  0  0  0
   -1.4181   -0.9481    0.0470 N   0  0  0  0  0  0  0  0  0  0  0  0
   -2.2169   -0.3903   -0.2477 H   0  0  0  0  0  0  0  0  0  0  0  0
   -0.1259   -0.2456    0.0775 C   0  0  1  0  0  0  0  0  0  0  0  0
    0.4530   -0.6231    0.9282 H   0  0  0  0  0  0  0  0  0  0  0  0
    0.7339   -0.5534   -1.1688 C   0  0  0  0  0  0  0  0  0  0  0  0
    1.2963   -1.4807   -1.0127 H   0  0  0  0  0  0  0  0  0  0  0  0
    0.0516   -0.7297   -2.0061 H   0  0  0  0  0  0  0  0  0  0  0  0
    1.6834    0.5887   -1.5979 C   0  0  0  0  0  0  0  0  0  0  0  0
    1.8634    0.4901   -2.6727 H   0  0  0  0  0  0  0  0  0  0  0  0
    1.2713    1.5887   -1.4527 H   0  0  0  0  0  0  0  0  0  0  0  0
    3.0261    0.4445   -0.8887 C   0  0  0  0  0  0  0  0  0  0  0  0
    3.0088    0.7059    0.3454 O   0  5  0  0  0  0  0  0  0  0  0  0
    4.0410    0.1012   -1.5406 O   0  0  0  0  0  0  0  0  0  0  0  0
   -0.3336    1.2484    0.3987 C   0  0  0  0  0  0  0  0  0  0  0  0
   -1.3743    1.8105    0.0557 O   0  0  0  0  0  0  0  0  0  0  0  0
    0.5004    1.8507    1.3203 N   0  0  0  0  0  0  0  0  0  0  0  0
    1.4517    1.4530    1.3212 H   0  0  0  0  0  0  0  0  0  0  0  0
    0.3702    3.2526    1.6824 C   0  0  0  0  0  0  0  0  0  0  0  0
   -0.6143    3.4465    2.1196 H   0  0  0  0  0  0  0  0  0  0  0  0
    1.1334    3.5191    2.4197 H   0  0  0  0  0  0  0  0  0  0  0  0
    0.4993    3.8888    0.8010 H   0  0  0  0  0  0  0  0  0  0  0  0
  1  2  1  0  0  0  0
  2  3  1  0  0  0  0
  2  4  1  0  0  0  0
  2  5  1  0  0  0  0
  5  6  2  0  0  0  0
  5  7  1  0  0  0  0
  7  8  1  0  0  0  0
  7  9  1  0  0  0  0
  9 10  1  0  0  0  0
  9 11  1  0  0  0  0
  9 20  1  0  0  0  0
 11 12  1  0  0  0  0
 11 13  1  0  0  0  0
 11 14  1  0  0  0  0
 14 15  1  0  0  0  0
 14 16  1  0  0  0  0
 14 17  1  0  0  0  0
 17 18  1  0  0  0  0
 17 19  2  0  0  0  0
 20 21  2  0  0  0  0
 20 22  1  0  0  0  0
 22 23  1  0  0  0  0
 22 24  1  0  0  0  0
 24 25  1  0  0  0  0
 24 26  1  0  0  0  0
 24 27  1  0  0  0  0
M  CHG  1  18  -1
M  END
$$$$

  -OEChem-03222214043D

 27 26  0     1  0  0  0  0  0999 V2000
   -3.1754   -3.6344    1.1566 H   0  0  0  0  0  0  0  0  0  0  0  0
   -3.1101   -2.6910    0.6072 C   0  0  0  0  0  0  0  0  0  0  0  0
   -3.7968   -1.9712    1.0595 H   0  0  0  0  0  0  0  0  0  0  0  0
   -3.4075   -2.8654   -0.4298 H   0  0  0  0  0  0  0  0  0  0  0  0
   -1.6910   -2.1526    0.6535 C   0  0  0  0  0  0  0  0  0  0  0  0
   -0.8212   -2.7925    1.2223 O   0  0  0  0  0  0  0  0  0  0  0  0
   -1.4175   -0.9355    0.0693 N   0  0  0  0  0  0  0  0  0  0  0  0
   -2.2068   -0.3963   -0.2802 H   0  0  0  0  0  0  0  0  0  0  0  0
   -0.1238   -0.2363    0.1045 C   0  0  1  0  0  0  0  0  0  0  0  0
    0.4594   -0.6203    0.9490 H   0  0  0  0  0  0  0  0  0  0  0  0
    0.7179   -0.5414   -1.1552 C   0  0  0  0  0  0  0  0  0  0  0  0
    1.2651   -1.4798   -1.0102 H   0  0  0  0  0  0  0  0  0  0  0  0
    0.0211   -0.7084   -1.9827 H   0  0  0  0  0  0  0  0  0  0  0  0
    1.6815    0.5837   -1.6096 C   0  0  0  0  0  0  0  0  0  0  0  0
    1.6261    0.6556   -2.7000 H   0  0  0  0  0  0  0  0  0  0  0  0
    1.4368    1.5756   -1.2309 H   0  0  0  0  0  0  0  0  0  0  0  0
    3.1161    0.2312   -1.2402 C   0  0  0  0  0  0  0  0  0  0  0  0
    3.4013    0.3780   -0.0225 O   0  5  0  0  0  0  0  0  0  0  0  0
    3.9101   -0.1624   -2.1282 O   0  0  0  0  0  0  0  0  0  0  0  0
   -0.3355    1.2559    0.4263 C   0  0  0  0  0  0  0  0  0  0  0  0
   -1.3601    1.8297    0.0586 O   0  0  0  0  0  0  0  0  0  0  0  0
    0.4933    1.8593    1.3533 N   0  0  0  0  0  0  0  0  0  0  0  0
    1.4189    1.4291    1.4304 H   0  0  0  0  0  0  0  0  0  0  0  0
    0.3749    3.2659    1.7037 C   0  0  0  0  0  0  0  0  0  0  0  0
   -0.6169    3.4767    2.1161 H   0  0  0  0  0  0  0  0  0  0  0  0
    1.1240    3.5275    2.4569 H   0  0  0  0  0  0  0  0  0  0  0  0
    0.5339    3.8940    0.8213 H   0  0  0  0  0  0  0  0  0  0  0  0
  1  2  1  0  0  0  0
  2  3  1  0  0  0  0
  2  4  1  0  0  0  0
  2  5  1  0  0  0  0
  5  6  2  0  0  0  0
  5  7  1  0  0  0  0
  7  8  1  0  0  0  0
  7  9  1  0  0  0  0
  9 10  1  0  0  0  0
  9 11  1  0  0  0  0
  9 20  1  0  0  0  0
 11 12  1  0  0  0  0
 11 13  1  0  0  0  0
 11 14  1  0  0  0  0
 14 15  1  0  0  0  0
 14 16  1  0  0  0  0
 14 17  1  0  0  0  0
 17 18  1  0  0  0  0
 17 19  2  0  0  0  0
 20 21  2  0  0  0  0
 20 22  1  0  0  0  0
 22 23  1  0  0  0  0
 22 24  1  0  0  0  0
 24 25  1  0  0  0  0
 24 26  1  0  0  0  0
 24 27  1  0  0  0  0
M  CHG  1  18  -1
M  END
$$$$

  -OEChem-03222214043D

 27 26  0     1  0  0  0  0  0999 V2000
   -3.2069   -3.5996    1.1288 H   0  0  0  0  0  0  0  0  0  0  0  0
   -3.1104   -2.6656    0.5684 C   0  0  0  0  0  0  0  0  0  0  0  0
   -3.8174   -1.9371    0.9731 H   0  0  0  0  0  0  0  0  0  0  0  0
   -3.3548   -2.8564   -0.4796 H   0  0  0  0  0  0  0  0  0  0  0  0
   -1.6938   -2.1296    0.6791 C   0  0  0  0  0  0  0  0  0  0  0  0
   -0.8589   -2.7526    1.3157 O   0  0  0  0  0  0  0  0  0  0  0  0
   -1.3838   -0.9232    0.0910 N   0  0  0  0  0  0  0  0  0  0  0  0
   -2.1450   -0.3925   -0.3275 H   0  0  0  0  0  0  0  0  0  0  0  0
   -0.0775   -0.2497    0.1518 C   0  0  1  0  0  0  0  0  0  0  0  0
    0.5151   -0.6457    0.9833 H   0  0  0  0  0  0  0  0  0  0  0  0
    0.7096   -0.5309   -1.1503 C   0  0  0  0  0  0  0  0  0  0  0  0
    1.2344   -1.4859   -1.0347 H   0  0  0  0  0  0  0  0  0  0  0  0
   -0.0088   -0.6657   -1.9655 H   0  0  0  0  0  0  0  0  0  0  0  0
    1.7021    0.5680   -1.6097 C   0  0  0  0  0  0  0  0  0  0  0  0
    1.4087    0.9200   -2.6034 H   0  0  0  0  0  0  0  0  0  0  0  0
    1.7125    1.4410   -0.9572 H   0  0  0  0  0  0  0  0  0  0  0  0
    3.1266    0.0250   -1.6751 C   0  0  0  0  0  0  0  0  0  0  0  0
    3.7556   -0.0143   -0.5872 O   0  5  0  0  0  0  0  0  0  0  0  0
    3.5794   -0.3500   -2.7840 O   0  0  0  0  0  0  0  0  0  0  0  0
   -0.3165    1.2447    0.4587 C   0  0  0  0  0  0  0  0  0  0  0  0
   -1.3150    1.8178    0.0254 O   0  0  0  0  0  0  0  0  0  0  0  0
    0.4671    1.8771    1.4064 N   0  0  0  0  0  0  0  0  0  0  0  0
    1.3619    1.4296    1.5989 H   0  0  0  0  0  0  0  0  0  0  0  0
    0.3263    3.2897    1.7265 C   0  0  0  0  0  0  0  0  0  0  0  0
   -0.6861    3.5037    2.0840 H   0  0  0  0  0  0  0  0  0  0  0  0
    1.0348    3.5677    2.5124 H   0  0  0  0  0  0  0  0  0  0  0  0
    0.5280    3.9032    0.8426 H   0  0  0  0  0  0  0  0  0  0  0  0
  1  2  1  0  0  0  0
  2  3  1  0  0  0  0
  2  4  1  0  0  0  0
  2  5  1  0  0  0  0
  5  6  2  0  0  0  0
  5  7  1  0  0  0  0
  7  8  1  0  0  0  0
  7  9  1  0  0  0  0
  9 10  1  0  0  0  0
  9 11  1  0  0  0  0
  9 20  1  0  0  0  0
 11 12  1  0  0  0  0
 11 13  1  0  0  0  0
 11 14  1  0  0  0  0
 14 15  1  0  0  0  0
 14 16  1  0  0  0  0
 14 17  1  0  0  0  0
 17 18  1  0  0  0  0
 17 19  2  0  0  0  0
 20 21  2  0  0  0  0
 20 22  1  0  0  0  0
 22 23  1  0  0  0  0
 22 24  1  0  0  0  0
 24 25  1  0  0  0  0
 24 26  1  0  0  0  0
 24 27  1  0  0  0  0
M  CHG  1  18  -1
M  END
$$$$

  -OEChem-03222214043D

 27 26  0     1  0  0  0  0  0999 V2000
   -3.2252   -3.5964    1.0822 H   0  0  0  0  0  0  0  0  0  0  0  0
   -3.1216   -2.6506    0.5430 C   0  0  0  0  0  0  0  0  0  0  0  0
   -3.8387   -1.9325    0.9484 H   0  0  0  0  0  0  0  0  0  0  0  0
   -3.3451   -2.8213   -0.5131 H   0  0  0  0  0  0  0  0  0  0  0  0
   -1.7096   -2.1121    0.6912 C   0  0  0  0  0  0  0  0  0  0  0  0
   -0.8952   -2.7219    1.3666 O   0  0  0  0  0  0  0  0  0  0  0  0
   -1.3793   -0.9149    0.0961 N   0  0  0  0  0  0  0  0  0  0  0  0
   -2.1226   -0.3906   -0.3608 H   0  0  0  0  0  0  0  0  0  0  0  0
   -0.0641   -0.2611    0.1635 C   0  0  1  0  0  0  0  0  0  0  0  0
    0.5276   -0.6644    0.9915 H   0  0  0  0  0  0  0  0  0  0  0  0
    0.7014   -0.5376   -1.1515 C   0  0  0  0  0  0  0  0  0  0  0  0
    1.2276   -1.4915   -1.0325 H   0  0  0  0  0  0  0  0  0  0  0  0
   -0.0130   -0.6705   -1.9708 H   0  0  0  0  0  0  0  0  0  0  0  0
    1.7019    0.5583   -1.5890 C   0  0  0  0  0  0  0  0  0  0  0  0
    1.2694    1.1551   -2.3975 H   0  0  0  0  0  0  0  0  0  0  0  0
    1.9362    1.2395   -0.7690 H   0  0  0  0  0  0  0  0  0  0  0  0
    3.0277   -0.0516   -2.0395 C   0  0  0  0  0  0  0  0  0  0  0  0
    3.9181   -0.1857   -1.1629 O   0  5  0  0  0  0  0  0  0  0  0  0
    3.1417   -0.4007   -3.2398 O   0  0  0  0  0  0  0  0  0  0  0  0
   -0.2947    1.2389    0.4582 C   0  0  0  0  0  0  0  0  0  0  0  0
   -1.2809    1.8188    0.0071 O   0  0  0  0  0  0  0  0  0  0  0  0
    0.4802    1.8785    1.4088 N   0  0  0  0  0  0  0  0  0  0  0  0
    1.3561    1.4194    1.6472 H   0  0  0  0  0  0  0  0  0  0  0  0
    0.3352    3.2921    1.7231 C   0  0  0  0  0  0  0  0  0  0  0  0
   -0.6716    3.4997    2.0995 H   0  0  0  0  0  0  0  0  0  0  0  0
    1.0570    3.5812    2.4927 H   0  0  0  0  0  0  0  0  0  0  0  0
    0.5141    3.9021    0.8317 H   0  0  0  0  0  0  0  0  0  0  0  0
  1  2  1  0  0  0  0
  2  3  1  0  0  0  0
  2  4  1  0  0  0  0
  2  5  1  0  0  0  0
  5  6  2  0  0  0  0
  5  7  1  0  0  0  0
  7  8  1  0  0  0  0
  7  9  1  0  0  0  0
  9 10  1  0  0  0  0
  9 11  1  0  0  0  0
  9 20  1  0  0  0  0
 11 12  1  0  0  0  0
 11 13  1  0  0  0  0
 11 14  1  0  0  0  0
 14 15  1  0  0  0  0
 14 16  1  0  0  0  0
 14 17  1  0  0  0  0
 17 18  1  0  0  0  0
 17 19  2  0  0  0  0
 20 21  2  0  0  0  0
 20 22  1  0  0  0  0
 22 23  1  0  0  0  0
 22 24  1  0  0  0  0
 24 25  1  0  0  0  0
 24 26  1  0  0  0  0
 24 27  1  0  0  0  0
M  CHG  1  18  -1
M  END
$$$$

  -OEChem-03222214043D

 27 26  0     1  0  0  0  0  0999 V2000
   -3.1478   -3.6231    1.2414 H   0  0  0  0  0  0  0  0  0  0  0  0
   -3.0662   -2.6986    0.6633 C   0  0  0  0  0  0  0  0  0  0  0  0
   -3.8014   -1.9819    1.0373 H   0  0  0  0  0  0  0  0  0  0  0  0
   -3.2833   -2.9180   -0.3850 H   0  0  0  0  0  0  0  0  0  0  0  0
   -1.6680   -2.1208    0.7906 C   0  0  0  0  0  0  0  0  0  0  0  0
   -0.8405   -2.6808    1.4934 O   0  0  0  0  0  0  0  0  0  0  0  0
   -1.3631   -0.9441    0.1432 N   0  0  0  0  0  0  0  0  0  0  0  0
   -2.1137   -0.4623   -0.3476 H   0  0  0  0  0  0  0  0  0  0  0  0
   -0.0606   -0.2643    0.1768 C   0  0  1  0  0  0  0  0  0  0  0  0
    0.5423   -0.6239    1.0167 H   0  0  0  0  0  0  0  0  0  0  0  0
    0.7014   -0.5731   -1.1309 C   0  0  0  0  0  0  0  0  0  0  0  0
    1.2587   -1.5043   -0.9794 H   0  0  0  0  0  0  0  0  0  0  0  0
   -0.0083   -0.7516   -1.9458 H   0  0  0  0  0  0  0  0  0  0  0  0
    1.6678    0.5378   -1.5897 C   0  0  0  0  0  0  0  0  0  0  0  0
    1.1364    1.2656   -2.2102 H   0  0  0  0  0  0  0  0  0  0  0  0
    2.0771    1.0689   -0.7263 H   0  0  0  0  0  0  0  0  0  0  0  0
    2.8507   -0.0461   -2.3608 C   0  0  0  0  0  0  0  0  0  0  0  0
    2.6707   -0.3635   -3.5620 O   0  5  0  0  0  0  0  0  0  0  0  0
    3.9301   -0.1884   -1.7336 O   0  0  0  0  0  0  0  0  0  0  0  0
   -0.3092    1.2444    0.4082 C   0  0  0  0  0  0  0  0  0  0  0  0
   -1.3073    1.7901   -0.0585 O   0  0  0  0  0  0  0  0  0  0  0  0
    0.4610    1.9359    1.3259 N   0  0  0  0  0  0  0  0  0  0  0  0
    1.3409    1.4978    1.5844 H   0  0  0  0  0  0  0  0  0  0  0  0
    0.3046    3.3625    1.5695 C   0  0  0  0  0  0  0  0  0  0  0  0
   -0.7163    3.5879    1.8943 H   0  0  0  0  0  0  0  0  0  0  0  0
    0.9942    3.6866    2.3546 H   0  0  0  0  0  0  0  0  0  0  0  0
    0.5209    3.9307    0.6590 H   0  0  0  0  0  0  0  0  0  0  0  0
  1  2  1  0  0  0  0
  2  3  1  0  0  0  0
  2  4  1  0  0  0  0
  2  5  1  0  0  0  0
  5  6  2  0  0  0  0
  5  7  1  0  0  0  0
  7  8  1  0  0  0  0
  7  9  1  0  0  0  0
  9 10  1  0  0  0  0
  9 11  1  0  0  0  0
  9 20  1  0  0  0  0
 11 12  1  0  0  0  0
 11 13  1  0  0  0  0
 11 14  1  0  0  0  0
 14 15  1  0  0  0  0
 14 16  1  0  0  0  0
 14 17  1  0  0  0  0
 17 18  1  0  0  0  0
 17 19  2  0  0  0  0
 20 21  2  0  0  0  0
 20 22  1  0  0  0  0
 22 23  1  0  0  0  0
 22 24  1  0  0  0  0
 24 25  1  0  0  0  0
 24 26  1  0  0  0  0
 24 27  1  0  0  0  0
M  CHG  1  18  -1
M  END
$$$$

  -OEChem-03222214043D

 27 26  0     1  0  0  0  0  0999 V2000
   -3.1358   -3.6469    1.2105 H   0  0  0  0  0  0  0  0  0  0  0  0
   -3.0632   -2.7137    0.6450 C   0  0  0  0  0  0  0  0  0  0  0  0
   -3.8081   -2.0107    1.0258 H   0  0  0  0  0  0  0  0  0  0  0  0
   -3.2742   -2.9223   -0.4070 H   0  0  0  0  0  0  0  0  0  0  0  0
   -1.6726   -2.1206    0.7850 C   0  0  0  0  0  0  0  0  0  0  0  0
   -0.8454   -2.6722    1.4953 O   0  0  0  0  0  0  0  0  0  0  0  0
   -1.3725   -0.9421    0.1386 N   0  0  0  0  0  0  0  0  0  0  0  0
   -2.1207   -0.4706   -0.3656 H   0  0  0  0  0  0  0  0  0  0  0  0
   -0.0712   -0.2604    0.1702 C   0  0  1  0  0  0  0  0  0  0  0  0
    0.5275   -0.6208    1.0123 H   0  0  0  0  0  0  0  0  0  0  0  0
    0.6993   -0.5738   -1.1306 C   0  0  0  0  0  0  0  0  0  0  0  0
    1.2620   -1.5017   -0.9816 H   0  0  0  0  0  0  0  0  0  0  0  0
   -0.0090   -0.7500   -1.9475 H   0  0  0  0  0  0  0  0  0  0  0  0
    1.6597    0.5429   -1.5796 C   0  0  0  0  0  0  0  0  0  0  0  0
    1.0939    1.3840   -1.9915 H   0  0  0  0  0  0  0  0  0  0  0  0
    2.2335    0.9069   -0.7220 H   0  0  0  0  0  0  0  0  0  0  0  0
    2.6403    0.0319   -2.6348 C   0  0  0  0  0  0  0  0  0  0  0  0
    2.1968   -0.1994   -3.7866 O   0  5  0  0  0  0  0  0  0  0  0  0
    3.8330   -0.1357   -2.2774 O   0  0  0  0  0  0  0  0  0  0  0  0
   -0.3068    1.2497    0.4044 C   0  0  0  0  0  0  0  0  0  0  0  0
   -1.3084    1.8015   -0.0460 O   0  0  0  0  0  0  0  0  0  0  0  0
    0.4732    1.9329    1.3200 N   0  0  0  0  0  0  0  0  0  0  0  0
    1.3512    1.4899    1.5748 H   0  0  0  0  0  0  0  0  0  0  0  0
    0.3168    3.3563    1.5818 C   0  0  0  0  0  0  0  0  0  0  0  0
   -0.6877    3.5685    1.9621 H   0  0  0  0  0  0  0  0  0  0  0  0
    1.0444    3.6821    2.3310 H   0  0  0  0  0  0  0  0  0  0  0  0
    0.4784    3.9332    0.6654 H   0  0  0  0  0  0  0  0  0  0  0  0
  1  2  1  0  0  0  0
  2  3  1  0  0  0  0
  2  4  1  0  0  0  0
  2  5  1  0  0  0  0
  5  6  2  0  0  0  0
  5  7  1  0  0  0  0
  7  8  1  0  0  0  0
  7  9  1  0  0  0  0
  9 10  1  0  0  0  0
  9 11  1  0  0  0  0
  9 20  1  0  0  0  0
 11 12  1  0  0  0  0
 11 13  1  0  0  0  0
 11 14  1  0  0  0  0
 14 15  1  0  0  0  0
 14 16  1  0  0  0  0
 14 17  1  0  0  0  0
 17 18  1  0  0  0  0
 17 19  2  0  0  0  0
 20 21  2  0  0  0  0
 20 22  1  0  0  0  0
 22 23  1  0  0  0  0
 22 24  1  0  0  0  0
 24 25  1  0  0  0  0
 24 26  1  0  0  0  0
 24 27  1  0  0  0  0
M  CHG  1  18  -1
M  END
$$$$

  -OEChem-03222214043D

 27 26  0     1  0  0  0  0  0999 V2000
   -3.1486   -3.6494    1.1864 H   0  0  0  0  0  0  0  0  0  0  0  0
   -3.0721   -2.7118    0.6290 C   0  0  0  0  0  0  0  0  0  0  0  0
   -3.8181   -2.0108    1.0116 H   0  0  0  0  0  0  0  0  0  0  0  0
   -3.2783   -2.9112   -0.4257 H   0  0  0  0  0  0  0  0  0  0  0  0
   -1.6811   -2.1222    0.7799 C   0  0  0  0  0  0  0  0  0  0  0  0
   -0.8598   -2.6752    1.4961 O   0  0  0  0  0  0  0  0  0  0  0  0
   -1.3734   -0.9462    0.1329 N   0  0  0  0  0  0  0  0  0  0  0  0
   -2.1158   -0.4780   -0.3829 H   0  0  0  0  0  0  0  0  0  0  0  0
   -0.0721   -0.2657    0.1704 C   0  0  1  0  0  0  0  0  0  0  0  0
    0.5206   -0.6307    1.0147 H   0  0  0  0  0  0  0  0  0  0  0  0
    0.6992   -0.5836   -1.1246 C   0  0  0  0  0  0  0  0  0  0  0  0
    1.0424   -1.6230   -1.0917 H   0  0  0  0  0  0  0  0  0  0  0  0
    0.0167   -0.4879   -1.9764 H   0  0  0  0  0  0  0  0  0  0  0  0
    1.9040    0.3459   -1.3670 C   0  0  0  0  0  0  0  0  0  0  0  0
    1.5731    1.3845   -1.4519 H   0  0  0  0  0  0  0  0  0  0  0  0
    2.5949    0.2779   -0.5212 H   0  0  0  0  0  0  0  0  0  0  0  0
    2.6379   -0.0107   -2.6613 C   0  0  0  0  0  0  0  0  0  0  0  0
    2.0008    0.0567   -3.7416 O   0  5  0  0  0  0  0  0  0  0  0  0
    3.8467   -0.3366   -2.5620 O   0  0  0  0  0  0  0  0  0  0  0  0
   -0.2967    1.2457    0.3982 C   0  0  0  0  0  0  0  0  0  0  0  0
   -1.2952    1.8022   -0.0524 O   0  0  0  0  0  0  0  0  0  0  0  0
    0.4847    1.9247    1.3156 N   0  0  0  0  0  0  0  0  0  0  0  0
    1.3559    1.4747    1.5802 H   0  0  0  0  0  0  0  0  0  0  0  0
    0.3281    3.3462    1.5880 C   0  0  0  0  0  0  0  0  0  0  0  0
   -0.6731    3.5533    1.9792 H   0  0  0  0  0  0  0  0  0  0  0  0
    1.0621    3.6687    2.3322 H   0  0  0  0  0  0  0  0  0  0  0  0
    0.4797    3.9298    0.6742 H   0  0  0  0  0  0  0  0  0  0  0  0
  1  2  1  0  0  0  0
  2  3  1  0  0  0  0
  2  4  1  0  0  0  0
  2  5  1  0  0  0  0
  5  6  2  0  0  0  0
  5  7  1  0  0  0  0
  7  8  1  0  0  0  0
  7  9  1  0  0  0  0
  9 10  1  0  0  0  0
  9 11  1  0  0  0  0
  9 20  1  0  0  0  0
 11 12  1  0  0  0  0
 11 13  1  0  0  0  0
 11 14  1  0  0  0  0
 14 15  1  0  0  0  0
 14 16  1  0  0  0  0
 14 17  1  0  0  0  0
 17 18  1  0  0  0  0
 17 19  2  0  0  0  0
 20 21  2  0  0  0  0
 20 22  1  0  0  0  0
 22 23  1  0  0  0  0
 22 24  1  0  0  0  0
 24 25  1  0  0  0  0
 24 26  1  0  0  0  0
 24 27  1  0  0  0  0
M  CHG  1  18  -1
M  END
$$$$

  -OEChem-03222214043D

 27 26  0     1  0  0  0  0  0999 V2000
   -3.2369   -3.5859    1.1480 H   0  0  0  0  0  0  0  0  0  0  0  0
   -3.1312   -2.6536    0.5865 C   0  0  0  0  0  0  0  0  0  0  0  0
   -3.8588   -1.9300    0.9626 H   0  0  0  0  0  0  0  0  0  0  0  0
   -3.3379   -2.8520   -0.4682 H   0  0  0  0  0  0  0  0  0  0  0  0
   -1.7250   -2.1023    0.7416 C   0  0  0  0  0  0  0  0  0  0  0  0
   -0.9162   -2.6873    1.4468 O   0  0  0  0  0  0  0  0  0  0  0  0
   -1.3919   -0.9191    0.1204 N   0  0  0  0  0  0  0  0  0  0  0  0
   -2.1261   -0.4176   -0.3759 H   0  0  0  0  0  0  0  0  0  0  0  0
   -0.0739   -0.2718    0.1732 C   0  0  1  0  0  0  0  0  0  0  0  0
    0.5125   -0.6675    1.0077 H   0  0  0  0  0  0  0  0  0  0  0  0
    0.6872   -0.5761   -1.1342 C   0  0  0  0  0  0  0  0  0  0  0  0
    0.9891   -1.6289   -1.1437 H   0  0  0  0  0  0  0  0  0  0  0  0
   -0.0029   -0.4263   -1.9720 H   0  0  0  0  0  0  0  0  0  0  0  0
    1.9244    0.3157   -1.3821 C   0  0  0  0  0  0  0  0  0  0  0  0
    1.6923    1.3640   -1.1810 H   0  0  0  0  0  0  0  0  0  0  0  0
    2.7289    0.0128   -0.7064 H   0  0  0  0  0  0  0  0  0  0  0  0
    2.4214    0.2296   -2.8290 C   0  0  0  0  0  0  0  0  0  0  0  0
    2.4880   -0.9054   -3.3640 O   0  5  0  0  0  0  0  0  0  0  0  0
    2.7878    1.2991   -3.3757 O   0  0  0  0  0  0  0  0  0  0  0  0
   -0.2817    1.2367    0.4368 C   0  0  0  0  0  0  0  0  0  0  0  0
   -1.2729    1.8143   -0.0041 O   0  0  0  0  0  0  0  0  0  0  0  0
    0.5047    1.8860    1.3712 N   0  0  0  0  0  0  0  0  0  0  0  0
    1.3726    1.4221    1.6212 H   0  0  0  0  0  0  0  0  0  0  0  0
    0.3790    3.3096    1.6486 C   0  0  0  0  0  0  0  0  0  0  0  0
   -0.6189    3.5379    2.0365 H   0  0  0  0  0  0  0  0  0  0  0  0
    1.1172    3.6132    2.3966 H   0  0  0  0  0  0  0  0  0  0  0  0
    0.5472    3.8928    0.7373 H   0  0  0  0  0  0  0  0  0  0  0  0
  1  2  1  0  0  0  0
  2  3  1  0  0  0  0
  2  4  1  0  0  0  0
  2  5  1  0  0  0  0
  5  6  2  0  0  0  0
  5  7  1  0  0  0  0
  7  8  1  0  0  0  0
  7  9  1  0  0  0  0
  9 10  1  0  0  0  0
  9 11  1  0  0  0  0
  9 20  1  0  0  0  0
 11 12  1  0  0  0  0
 11 13  1  0  0  0  0
 11 14  1  0  0  0  0
 14 15  1  0  0  0  0
 14 16  1  0  0  0  0
 14 17  1  0  0  0  0
 17 18  1  0  0  0  0
 17 19  2  0  0  0  0
 20 21  2  0  0  0  0
 20 22  1  0  0  0  0
 22 23  1  0  0  0  0
 22 24  1  0  0  0  0
 24 25  1  0  0  0  0
 24 26  1  0  0  0  0
 24 27  1  0  0  0  0
M  CHG  1  18  -1
M  END
$$$$

  -OEChem-03222214043D

 27 26  0     1  0  0  0  0  0999 V2000
   -3.2400   -3.5664    1.1677 H   0  0  0  0  0  0  0  0  0  0  0  0
   -3.1291   -2.6415    0.5950 C   0  0  0  0  0  0  0  0  0  0  0  0
   -3.8514   -1.9089    0.9637 H   0  0  0  0  0  0  0  0  0  0  0  0
   -3.3388   -2.8512   -0.4570 H   0  0  0  0  0  0  0  0  0  0  0  0
   -1.7189   -2.0979    0.7409 C   0  0  0  0  0  0  0  0  0  0  0  0
   -0.9042   -2.6953    1.4291 O   0  0  0  0  0  0  0  0  0  0  0  0
   -1.3841   -0.9137    0.1229 N   0  0  0  0  0  0  0  0  0  0  0  0
   -2.1210   -0.4010   -0.3582 H   0  0  0  0  0  0  0  0  0  0  0  0
   -0.0654   -0.2679    0.1775 C   0  0  1  0  0  0  0  0  0  0  0  0
    0.5221   -0.6636    1.0112 H   0  0  0  0  0  0  0  0  0  0  0  0
    0.6887   -0.5765   -1.1334 C   0  0  0  0  0  0  0  0  0  0  0  0
    0.9762   -1.6327   -1.1565 H   0  0  0  0  0  0  0  0  0  0  0  0
   -0.0163   -0.4160   -1.9571 H   0  0  0  0  0  0  0  0  0  0  0  0
    1.9347    0.2995   -1.4084 C   0  0  0  0  0  0  0  0  0  0  0  0
    1.8253    1.2931   -0.9705 H   0  0  0  0  0  0  0  0  0  0  0  0
    2.8090   -0.1676   -0.9470 H   0  0  0  0  0  0  0  0  0  0  0  0
    2.1958    0.4914   -2.9060 C   0  0  0  0  0  0  0  0  0  0  0  0
    2.1491   -0.5235   -3.6456 O   0  5  0  0  0  0  0  0  0  0  0  0
    2.5022    1.6454   -3.2948 O   0  0  0  0  0  0  0  0  0  0  0  0
   -0.2829    1.2396    0.4448 C   0  0  0  0  0  0  0  0  0  0  0  0
   -1.2860    1.8075    0.0190 O   0  0  0  0  0  0  0  0  0  0  0  0
    0.4987    1.8908    1.3825 N   0  0  0  0  0  0  0  0  0  0  0  0
    1.3749    1.4373    1.6211 H   0  0  0  0  0  0  0  0  0  0  0  0
    0.3606    3.3120    1.6670 C   0  0  0  0  0  0  0  0  0  0  0  0
   -0.6472    3.5349    2.0319 H   0  0  0  0  0  0  0  0  0  0  0  0
    1.0790    3.6120    2.4355 H   0  0  0  0  0  0  0  0  0  0  0  0
    0.5496    3.9023    0.7643 H   0  0  0  0  0  0  0  0  0  0  0  0
  1  2  1  0  0  0  0
  2  3  1  0  0  0  0
  2  4  1  0  0  0  0
  2  5  1  0  0  0  0
  5  6  2  0  0  0  0
  5  7  1  0  0  0  0
  7  8  1  0  0  0  0
  7  9  1  0  0  0  0
  9 10  1  0  0  0  0
  9 11  1  0  0  0  0
  9 20  1  0  0  0  0
 11 12  1  0  0  0  0
 11 13  1  0  0  0  0
 11 14  1  0  0  0  0
 14 15  1  0  0  0  0
 14 16  1  0  0  0  0
 14 17  1  0  0  0  0
 17 18  1  0  0  0  0
 17 19  2  0  0  0  0
 20 21  2  0  0  0  0
 20 22  1  0  0  0  0
 22 23  1  0  0  0  0
 22 24  1  0  0  0  0
 24 25  1  0  0  0  0
 24 26  1  0  0  0  0
 24 27  1  0  0  0  0
M  CHG  1  18  -1
M  END
$$$$

  -OEChem-03222214043D

 27 26  0     1  0  0  0  0  0999 V2000
   -3.2521   -3.5511    1.2007 H   0  0  0  0  0  0  0  0  0  0  0  0
   -3.1401   -2.6276    0.6257 C   0  0  0  0  0  0  0  0  0  0  0  0
   -3.8419   -1.8838    1.0112 H   0  0  0  0  0  0  0  0  0  0  0  0
   -3.3779   -2.8332   -0.4211 H   0  0  0  0  0  0  0  0  0  0  0  0
   -1.7188   -2.1054    0.7389 C   0  0  0  0  0  0  0  0  0  0  0  0
   -0.8947   -2.7212    1.3992 O   0  0  0  0  0  0  0  0  0  0  0  0
   -1.3826   -0.9220    0.1207 N   0  0  0  0  0  0  0  0  0  0  0  0
   -2.1270   -0.3879   -0.3252 H   0  0  0  0  0  0  0  0  0  0  0  0
   -0.0620   -0.2798    0.1716 C   0  0  1  0  0  0  0  0  0  0  0  0
    0.5287   -0.6759    1.0027 H   0  0  0  0  0  0  0  0  0  0  0  0
    0.6856   -0.5807   -1.1447 C   0  0  0  0  0  0  0  0  0  0  0  0
    0.9752   -1.6361   -1.1680 H   0  0  0  0  0  0  0  0  0  0  0  0
   -0.0244   -0.4264   -1.9654 H   0  0  0  0  0  0  0  0  0  0  0  0
    1.9337    0.2952   -1.4187 C   0  0  0  0  0  0  0  0  0  0  0  0
    1.9772    1.1554   -0.7492 H   0  0  0  0  0  0  0  0  0  0  0  0
    2.8287   -0.3019   -1.2228 H   0  0  0  0  0  0  0  0  0  0  0  0
    1.9982    0.8112   -2.8590 C   0  0  0  0  0  0  0  0  0  0  0  0
    1.9036   -0.0294   -3.7880 O   0  5  0  0  0  0  0  0  0  0  0  0
    2.2044    2.0389   -3.0222 O   0  0  0  0  0  0  0  0  0  0  0  0
   -0.2851    1.2283    0.4407 C   0  0  0  0  0  0  0  0  0  0  0  0
   -1.3092    1.7814    0.0453 O   0  0  0  0  0  0  0  0  0  0  0  0
    0.4964    1.8815    1.3774 N   0  0  0  0  0  0  0  0  0  0  0  0
    1.3922    1.4481    1.5774 H   0  0  0  0  0  0  0  0  0  0  0  0
    0.3532    3.3042    1.6529 C   0  0  0  0  0  0  0  0  0  0  0  0
   -0.6539    3.5262    2.0198 H   0  0  0  0  0  0  0  0  0  0  0  0
    1.0728    3.6118    2.4171 H   0  0  0  0  0  0  0  0  0  0  0  0
    0.5372    3.8889    0.7455 H   0  0  0  0  0  0  0  0  0  0  0  0
  1  2  1  0  0  0  0
  2  3  1  0  0  0  0
  2  4  1  0  0  0  0
  2  5  1  0  0  0  0
  5  6  2  0  0  0  0
  5  7  1  0  0  0  0
  7  8  1  0  0  0  0
  7  9  1  0  0  0  0
  9 10  1  0  0  0  0
  9 11  1  0  0  0  0
  9 20  1  0  0  0  0
 11 12  1  0  0  0  0
 11 13  1  0  0  0  0
 11 14  1  0  0  0  0
 14 15  1  0  0  0  0
 14 16  1  0  0  0  0
 14 17  1  0  0  0  0
 17 18  1  0  0  0  0
 17 19  2  0  0  0  0
 20 21  2  0  0  0  0
 20 22  1  0  0  0  0
 22 23  1  0  0  0  0
 22 24  1  0  0  0  0
 24 25  1  0  0  0  0
 24 26  1  0  0  0  0
 24 27  1  0  0  0  0
M  CHG  1  18  -1
M  END
$$$$

  -OEChem-03222214043D

 27 26  0     1  0  0  0  0  0999 V2000
   -3.2628   -3.5355    1.2512 H   0  0  0  0  0  0  0  0  0  0  0  0
   -3.1521   -2.6131    0.6745 C   0  0  0  0  0  0  0  0  0  0  0  0
   -3.8230   -1.8557    1.0875 H   0  0  0  0  0  0  0  0  0  0  0  0
   -3.4325   -2.8096   -0.3634 H   0  0  0  0  0  0  0  0  0  0  0  0
   -1.7167   -2.1221    0.7361 C   0  0  0  0  0  0  0  0  0  0  0  0
   -0.8794   -2.7626    1.3553 O   0  0  0  0  0  0  0  0  0  0  0  0
   -1.3805   -0.9413    0.1134 N   0  0  0  0  0  0  0  0  0  0  0  0
   -2.1338   -0.3792   -0.2814 H   0  0  0  0  0  0  0  0  0  0  0  0
   -0.0571   -0.3046    0.1565 C   0  0  1  0  0  0  0  0  0  0  0  0
    0.5397   -0.7010    0.9832 H   0  0  0  0  0  0  0  0  0  0  0  0
    0.6813   -0.5864   -1.1677 C   0  0  0  0  0  0  0  0  0  0  0  0
    0.9842   -1.6381   -1.1864 H   0  0  0  0  0  0  0  0  0  0  0  0
   -0.0245   -0.4427   -1.9937 H   0  0  0  0  0  0  0  0  0  0  0  0
    1.9249    0.3018   -1.4146 C   0  0  0  0  0  0  0  0  0  0  0  0
    2.1337    0.9469   -0.5591 H   0  0  0  0  0  0  0  0  0  0  0  0
    2.7928   -0.3550   -1.5228 H   0  0  0  0  0  0  0  0  0  0  0  0
    1.8346    1.1503   -2.6844 C   0  0  0  0  0  0  0  0  0  0  0  0
    1.6621    0.5596   -3.7795 O   0  5  0  0  0  0  0  0  0  0  0  0
    2.0070    2.3871   -2.5551 O   0  0  0  0  0  0  0  0  0  0  0  0
   -0.2861    1.2049    0.4244 C   0  0  0  0  0  0  0  0  0  0  0  0
   -1.3353    1.7364    0.0643 O   0  0  0  0  0  0  0  0  0  0  0  0
    0.4948    1.8659    1.3562 N   0  0  0  0  0  0  0  0  0  0  0  0
    1.4116    1.4601    1.5128 H   0  0  0  0  0  0  0  0  0  0  0  0
    0.3408    3.2915    1.6115 C   0  0  0  0  0  0  0  0  0  0  0  0
   -0.6613    3.5086    1.9952 H   0  0  0  0  0  0  0  0  0  0  0  0
    1.0724    3.6201    2.3553 H   0  0  0  0  0  0  0  0  0  0  0  0
    0.4996    3.8629    0.6908 H   0  0  0  0  0  0  0  0  0  0  0  0
  1  2  1  0  0  0  0
  2  3  1  0  0  0  0
  2  4  1  0  0  0  0
  2  5  1  0  0  0  0
  5  6  2  0  0  0  0
  5  7  1  0  0  0  0
  7  8  1  0  0  0  0
  7  9  1  0  0  0  0
  9 10  1  0  0  0  0
  9 11  1  0  0  0  0
  9 20  1  0  0  0  0
 11 12  1  0  0  0  0
 11 13  1  0  0  0  0
 11 14  1  0  0  0  0
 14 15  1  0  0  0  0
 14 16  1  0  0  0  0
 14 17  1  0  0  0  0
 17 18  1  0  0  0  0
 17 19  2  0  0  0  0
 20 21  2  0  0  0  0
 20 22  1  0  0  0  0
 22 23  1  0  0  0  0
 22 24  1  0  0  0  0
 24 25  1  0  0  0  0
 24 26  1  0  0  0  0
 24 27  1  0  0  0  0
M  CHG  1  18  -1
M  END
$$$$

  -OEChem-03222214043D

 27 26  0     1  0  0  0  0  0999 V2000
   -3.2590   -3.5288    1.3023 H   0  0  0  0  0  0  0  0  0  0  0  0
   -3.1562   -2.6137    0.7125 C   0  0  0  0  0  0  0  0  0  0  0  0
   -3.8077   -1.8453    1.1360 H   0  0  0  0  0  0  0  0  0  0  0  0
   -3.4681   -2.8187   -0.3147 H   0  0  0  0  0  0  0  0  0  0  0  0
   -1.7148   -2.1368    0.7288 C   0  0  0  0  0  0  0  0  0  0  0  0
   -0.8632   -2.7948    1.3091 O   0  0  0  0  0  0  0  0  0  0  0  0
   -1.3859   -0.9555    0.1033 N   0  0  0  0  0  0  0  0  0  0  0  0
   -2.1475   -0.3739   -0.2454 H   0  0  0  0  0  0  0  0  0  0  0  0
   -0.0619   -0.3193    0.1378 C   0  0  1  0  0  0  0  0  0  0  0  0
    0.5379   -0.7146    0.9630 H   0  0  0  0  0  0  0  0  0  0  0  0
    0.6782   -0.5865   -1.1863 C   0  0  0  0  0  0  0  0  0  0  0  0
    0.9977   -1.6333   -1.1942 H   0  0  0  0  0  0  0  0  0  0  0  0
   -0.0148   -0.4547   -2.0249 H   0  0  0  0  0  0  0  0  0  0  0  0
    1.9125    0.3187   -1.3995 C   0  0  0  0  0  0  0  0  0  0  0  0
    2.2666    0.7283   -0.4499 H   0  0  0  0  0  0  0  0  0  0  0  0
    2.7217   -0.3076   -1.7864 H   0  0  0  0  0  0  0  0  0  0  0  0
    1.7029    1.4407   -2.4162 C   0  0  0  0  0  0  0  0  0  0  0  0
    1.4436    1.1279   -3.6043 O   0  5  0  0  0  0  0  0  0  0  0  0
    1.8699    2.6134   -1.9995 O   0  0  0  0  0  0  0  0  0  0  0  0
   -0.2905    1.1911    0.4081 C   0  0  0  0  0  0  0  0  0  0  0  0
   -1.3640    1.7033    0.0908 O   0  0  0  0  0  0  0  0  0  0  0  0
    0.4972    1.8514    1.3341 N   0  0  0  0  0  0  0  0  0  0  0  0
    1.4368    1.4785    1.4213 H   0  0  0  0  0  0  0  0  0  0  0  0
    0.3384    3.2796    1.5717 C   0  0  0  0  0  0  0  0  0  0  0  0
   -0.6592    3.4968    1.9666 H   0  0  0  0  0  0  0  0  0  0  0  0
    1.0788    3.6230    2.3000 H   0  0  0  0  0  0  0  0  0  0  0  0
    0.4817    3.8384    0.6405 H   0  0  0  0  0  0  0  0  0  0  0  0
  1  2  1  0  0  0  0
  2  3  1  0  0  0  0
  2  4  1  0  0  0  0
  2  5  1  0  0  0  0
  5  6  2  0  0  0  0
  5  7  1  0  0  0  0
  7  8  1  0  0  0  0
  7  9  1  0  0  0  0
  9 10  1  0  0  0  0
  9 11  1  0  0  0  0
  9 20  1  0  0  0  0
 11 12  1  0  0  0  0
 11 13  1  0  0  0  0
 11 14  1  0  0  0  0
 14 15  1  0  0  0  0
 14 16  1  0  0  0  0
 14 17  1  0  0  0  0
 17 18  1  0  0  0  0
 17 19  2  0  0  0  0
 20 21  2  0  0  0  0
 20 22  1  0  0  0  0
 22 23  1  0  0  0  0
 22 24  1  0  0  0  0
 24 25  1  0  0  0  0
 24 26  1  0  0  0  0
 24 27  1  0  0  0  0
M  CHG  1  18  -1
M  END
$$$$

  -OEChem-03222214043D

 27 26  0     1  0  0  0  0  0999 V2000
   -3.2497   -3.5095    1.3255 H   0  0  0  0  0  0  0  0  0  0  0  0
   -3.1514   -2.5920    0.7388 C   0  0  0  0  0  0  0  0  0  0  0  0
   -3.7788   -1.8175    1.1873 H   0  0  0  0  0  0  0  0  0  0  0  0
   -3.4972   -2.7850   -0.2798 H   0  0  0  0  0  0  0  0  0  0  0  0
   -1.7035   -2.1352    0.7139 C   0  0  0  0  0  0  0  0  0  0  0  0
   -0.8424   -2.8119    1.2578 O   0  0  0  0  0  0  0  0  0  0  0  0
   -1.3809   -0.9516    0.0901 N   0  0  0  0  0  0  0  0  0  0  0  0
   -2.1492   -0.3527   -0.2130 H   0  0  0  0  0  0  0  0  0  0  0  0
   -0.0582   -0.3119    0.1203 C   0  0  1  0  0  0  0  0  0  0  0  0
    0.5391   -0.7016    0.9500 H   0  0  0  0  0  0  0  0  0  0  0  0
    0.6927   -0.5919   -1.1962 C   0  0  0  0  0  0  0  0  0  0  0  0
    1.0172   -1.6370   -1.1857 H   0  0  0  0  0  0  0  0  0  0  0  0
    0.0086   -0.4722   -2.0437 H   0  0  0  0  0  0  0  0  0  0  0  0
    1.9244    0.3109   -1.4163 C   0  0  0  0  0  0  0  0  0  0  0  0
    2.4105    0.5160   -0.4578 H   0  0  0  0  0  0  0  0  0  0  0  0
    2.6434   -0.2468   -2.0233 H   0  0  0  0  0  0  0  0  0  0  0  0
    1.6477    1.6190   -2.1565 C   0  0  0  0  0  0  0  0  0  0  0  0
    1.2284    1.5618   -3.3379 O   0  5  0  0  0  0  0  0  0  0  0  0
    1.9224    2.6769   -1.5375 O   0  0  0  0  0  0  0  0  0  0  0  0
   -0.2957    1.1971    0.3960 C   0  0  0  0  0  0  0  0  0  0  0  0
   -1.3939    1.6850    0.1239 O   0  0  0  0  0  0  0  0  0  0  0  0
    0.4944    1.8554    1.3209 N   0  0  0  0  0  0  0  0  0  0  0  0
    1.4623    1.5491    1.3091 H   0  0  0  0  0  0  0  0  0  0  0  0
    0.2809    3.2674    1.6088 C   0  0  0  0  0  0  0  0  0  0  0  0
   -0.7086    3.4272    2.0487 H   0  0  0  0  0  0  0  0  0  0  0  0
    1.0342    3.6227    2.3177 H   0  0  0  0  0  0  0  0  0  0  0  0
    0.3613    3.8598    0.6909 H   0  0  0  0  0  0  0  0  0  0  0  0
  1  2  1  0  0  0  0
  2  3  1  0  0  0  0
  2  4  1  0  0  0  0
  2  5  1  0  0  0  0
  5  6  2  0  0  0  0
  5  7  1  0  0  0  0
  7  8  1  0  0  0  0
  7  9  1  0  0  0  0
  9 10  1  0  0  0  0
  9 11  1  0  0  0  0
  9 20  1  0  0  0  0
 11 12  1  0  0  0  0
 11 13  1  0  0  0  0
 11 14  1  0  0  0  0
 14 15  1  0  0  0  0
 14 16  1  0  0  0  0
 14 17  1  0  0  0  0
 17 18  1  0  0  0  0
 17 19  2  0  0  0  0
 20 21  2  0  0  0  0
 20 22  1  0  0  0  0
 22 23  1  0  0  0  0
 22 24  1  0  0  0  0
 24 25  1  0  0  0  0
 24 26  1  0  0  0  0
 24 27  1  0  0  0  0
M  CHG  1  18  -1
M  END
$$$$

  -OEChem-03222214043D

 27 26  0     1  0  0  0  0  0999 V2000
   -3.2360   -3.4666    1.3587 H   0  0  0  0  0  0  0  0  0  0  0  0
   -3.1393   -2.5546    0.7632 C   0  0  0  0  0  0  0  0  0  0  0  0
   -3.7498   -1.7702    1.2177 H   0  0  0  0  0  0  0  0  0  0  0  0
   -3.5063   -2.7507   -0.2473 H   0  0  0  0  0  0  0  0  0  0  0  0
   -1.6874   -2.1136    0.7075 C   0  0  0  0  0  0  0  0  0  0  0  0
   -0.8213   -2.8059    1.2229 O   0  0  0  0  0  0  0  0  0  0  0  0
   -1.3673   -0.9293    0.0841 N   0  0  0  0  0  0  0  0  0  0  0  0
   -2.1383   -0.3163   -0.1829 H   0  0  0  0  0  0  0  0  0  0  0  0
   -0.0436   -0.2898    0.1119 C   0  0  1  0  0  0  0  0  0  0  0  0
    0.5515   -0.6712    0.9474 H   0  0  0  0  0  0  0  0  0  0  0  0
    0.7096   -0.5994   -1.1999 C   0  0  0  0  0  0  0  0  0  0  0  0
    1.0160   -1.6497   -1.1747 H   0  0  0  0  0  0  0  0  0  0  0  0
    0.0212   -0.4799   -2.0438 H   0  0  0  0  0  0  0  0  0  0  0  0
    1.9534    0.2716   -1.4737 C   0  0  0  0  0  0  0  0  0  0  0  0
    2.5805    0.2832   -0.5768 H   0  0  0  0  0  0  0  0  0  0  0  0
    2.5341   -0.2133   -2.2637 H   0  0  0  0  0  0  0  0  0  0  0  0
    1.6942    1.7053   -1.9294 C   0  0  0  0  0  0  0  0  0  0  0  0
    1.1475    1.8936   -3.0418 O   0  5  0  0  0  0  0  0  0  0  0  0
    2.0913    2.6116   -1.1542 O   0  0  0  0  0  0  0  0  0  0  0  0
   -0.2991    1.2181    0.3912 C   0  0  0  0  0  0  0  0  0  0  0  0
   -1.4201    1.6779    0.1598 O   0  0  0  0  0  0  0  0  0  0  0  0
    0.4870    1.8791    1.3176 N   0  0  0  0  0  0  0  0  0  0  0  0
    1.4774    1.6994    1.1641 H   0  0  0  0  0  0  0  0  0  0  0  0
    0.1737    3.2445    1.7171 C   0  0  0  0  0  0  0  0  0  0  0  0
   -0.8023    3.2889    2.2108 H   0  0  0  0  0  0  0  0  0  0  0  0
    0.9304    3.6114    2.4164 H   0  0  0  0  0  0  0  0  0  0  0  0
    0.1607    3.9041    0.8427 H   0  0  0  0  0  0  0  0  0  0  0  0
  1  2  1  0  0  0  0
  2  3  1  0  0  0  0
  2  4  1  0  0  0  0
  2  5  1  0  0  0  0
  5  6  2  0  0  0  0
  5  7  1  0  0  0  0
  7  8  1  0  0  0  0
  7  9  1  0  0  0  0
  9 10  1  0  0  0  0
  9 11  1  0  0  0  0
  9 20  1  0  0  0  0
 11 12  1  0  0  0  0
 11 13  1  0  0  0  0
 11 14  1  0  0  0  0
 14 15  1  0  0  0  0
 14 16  1  0  0  0  0
 14 17  1  0  0  0  0
 17 18  1  0  0  0  0
 17 19  2  0  0  0  0
 20 21  2  0  0  0  0
 20 22  1  0  0  0  0
 22 23  1  0  0  0  0
 22 24  1  0  0  0  0
 24 25  1  0  0  0  0
 24 26  1  0  0  0  0
 24 27  1  0  0  0  0
M  CHG  1  18  -1
M  END
$$$$

  -OEChem-03222214043D

 27 26  0     1  0  0  0  0  0999 V2000
   -3.2196   -3.4363    1.3668 H   0  0  0  0  0  0  0  0  0  0  0  0
   -3.1257   -2.5116    0.7907 C   0  0  0  0  0  0  0  0  0  0  0  0
   -3.7101   -1.7291    1.2815 H   0  0  0  0  0  0  0  0  0  0  0  0
   -3.5252   -2.6779   -0.2127 H   0  0  0  0  0  0  0  0  0  0  0  0
   -1.6694   -2.0910    0.7031 C   0  0  0  0  0  0  0  0  0  0  0  0
   -0.8021   -2.7975    1.1963 O   0  0  0  0  0  0  0  0  0  0  0  0
   -1.3481   -0.9083    0.0774 N   0  0  0  0  0  0  0  0  0  0  0  0
   -2.1182   -0.2814   -0.1594 H   0  0  0  0  0  0  0  0  0  0  0  0
   -0.0217   -0.2722    0.1119 C   0  0  1  0  0  0  0  0  0  0  0  0
    0.5722   -0.6455    0.9518 H   0  0  0  0  0  0  0  0  0  0  0  0
    0.7283   -0.6011   -1.2014 C   0  0  0  0  0  0  0  0  0  0  0  0
    1.0037   -1.6601   -1.1803 H   0  0  0  0  0  0  0  0  0  0  0  0
    0.0285   -0.4625   -2.0326 H   0  0  0  0  0  0  0  0  0  0  0  0
    1.9905    0.2263   -1.5354 C   0  0  0  0  0  0  0  0  0  0  0  0
    2.7352    0.0325   -0.7573 H   0  0  0  0  0  0  0  0  0  0  0  0
    2.4031   -0.1571   -2.4732 H   0  0  0  0  0  0  0  0  0  0  0  0
    1.8408    1.7352   -1.6916 C   0  0  0  0  0  0  0  0  0  0  0  0
    1.2672    2.1835   -2.7108 O   0  5  0  0  0  0  0  0  0  0  0  0
    2.3223    2.4354   -0.7632 O   0  0  0  0  0  0  0  0  0  0  0  0
   -0.3067    1.2346    0.3886 C   0  0  0  0  0  0  0  0  0  0  0  0
   -1.4414    1.6685    0.1656 O   0  0  0  0  0  0  0  0  0  0  0  0
    0.4595    1.9089    1.3217 N   0  0  0  0  0  0  0  0  0  0  0  0
    1.4479    1.8717    1.0530 H   0  0  0  0  0  0  0  0  0  0  0  0
    0.0408    3.2083    1.8301 C   0  0  0  0  0  0  0  0  0  0  0  0
   -0.9149    3.1276    2.3577 H   0  0  0  0  0  0  0  0  0  0  0  0
    0.7889    3.5933    2.5292 H   0  0  0  0  0  0  0  0  0  0  0  0
   -0.0662    3.9237    1.0078 H   0  0  0  0  0  0  0  0  0  0  0  0
  1  2  1  0  0  0  0
  2  3  1  0  0  0  0
  2  4  1  0  0  0  0
  2  5  1  0  0  0  0
  5  6  2  0  0  0  0
  5  7  1  0  0  0  0
  7  8  1  0  0  0  0
  7  9  1  0  0  0  0
  9 10  1  0  0  0  0
  9 11  1  0  0  0  0
  9 20  1  0  0  0  0
 11 12  1  0  0  0  0
 11 13  1  0  0  0  0
 11 14  1  0  0  0  0
 14 15  1  0  0  0  0
 14 16  1  0  0  0  0
 14 17  1  0  0  0  0
 17 18  1  0  0  0  0
 17 19  2  0  0  0  0
 20 21  2  0  0  0  0
 20 22  1  0  0  0  0
 22 23  1  0  0  0  0
 22 24  1  0  0  0  0
 24 25  1  0  0  0  0
 24 26  1  0  0  0  0
 24 27  1  0  0  0  0
M  CHG  1  18  -1
M  END
$$$$

  -OEChem-03222214043D

 27 26  0     1  0  0  0  0  0999 V2000
   -3.1988   -3.4545    1.3455 H   0  0  0  0  0  0  0  0  0  0  0  0
   -3.1056   -2.5289    0.7711 C   0  0  0  0  0  0  0  0  0  0  0  0
   -3.6982   -1.7503    1.2583 H   0  0  0  0  0  0  0  0  0  0  0  0
   -3.4960   -2.6960   -0.2357 H   0  0  0  0  0  0  0  0  0  0  0  0
   -1.6510   -2.1003    0.6952 C   0  0  0  0  0  0  0  0  0  0  0  0
   -0.7817   -2.8121    1.1768 O   0  0  0  0  0  0  0  0  0  0  0  0
   -1.3339   -0.9064    0.0892 N   0  0  0  0  0  0  0  0  0  0  0  0
   -2.1068   -0.2793   -0.1381 H   0  0  0  0  0  0  0  0  0  0  0  0
   -0.0118   -0.2618    0.1425 C   0  0  1  0  0  0  0  0  0  0  0  0
    0.5883   -0.6400    0.9762 H   0  0  0  0  0  0  0  0  0  0  0  0
    0.7235   -0.5792   -1.1854 C   0  0  0  0  0  0  0  0  0  0  0  0
    0.9750   -1.6445   -1.1911 H   0  0  0  0  0  0  0  0  0  0  0  0
    0.0038   -0.4124   -1.9940 H   0  0  0  0  0  0  0  0  0  0  0  0
    1.9915    0.2205   -1.5748 C   0  0  0  0  0  0  0  0  0  0  0  0
    2.8205   -0.1706   -0.9772 H   0  0  0  0  0  0  0  0  0  0  0  0
    2.2239   -0.0035   -2.6202 H   0  0  0  0  0  0  0  0  0  0  0  0
    1.9889    1.7358   -1.4145 C   0  0  0  0  0  0  0  0  0  0  0  0
    1.4326    2.4344   -2.2920 O   0  5  0  0  0  0  0  0  0  0  0  0
    2.5445    2.1850   -0.3775 O   0  0  0  0  0  0  0  0  0  0  0  0
   -0.3296    1.2358    0.4399 C   0  0  0  0  0  0  0  0  0  0  0  0
   -1.4606    1.6635    0.1854 O   0  0  0  0  0  0  0  0  0  0  0  0
    0.4094    1.9153    1.3905 N   0  0  0  0  0  0  0  0  0  0  0  0
    1.4118    1.8524    1.1728 H   0  0  0  0  0  0  0  0  0  0  0  0
   -0.0108    3.2258    1.8669 C   0  0  0  0  0  0  0  0  0  0  0  0
   -0.9838    3.1625    2.3643 H   0  0  0  0  0  0  0  0  0  0  0  0
    0.7185    3.6126    2.5845 H   0  0  0  0  0  0  0  0  0  0  0  0
   -0.0829    3.9301    1.0315 H   0  0  0  0  0  0  0  0  0  0  0  0
  1  2  1  0  0  0  0
  2  3  1  0  0  0  0
  2  4  1  0  0  0  0
  2  5  1  0  0  0  0
  5  6  2  0  0  0  0
  5  7  1  0  0  0  0
  7  8  1  0  0  0  0
  7  9  1  0  0  0  0
  9 10  1  0  0  0  0
  9 11  1  0  0  0  0
  9 20  1  0  0  0  0
 11 12  1  0  0  0  0
 11 13  1  0  0  0  0
 11 14  1  0  0  0  0
 14 15  1  0  0  0  0
 14 16  1  0  0  0  0
 14 17  1  0  0  0  0
 17 18  1  0  0  0  0
 17 19  2  0  0  0  0
 20 21  2  0  0  0  0
 20 22  1  0  0  0  0
 22 23  1  0  0  0  0
 22 24  1  0  0  0  0
 24 25  1  0  0  0  0
 24 26  1  0  0  0  0
 24 27  1  0  0  0  0
M  CHG  1  18  -1
M  END
$$$$

  -OEChem-03222214043D

 27 26  0     1  0  0  0  0  0999 V2000
   -3.1222   -3.5628    1.2524 H   0  0  0  0  0  0  0  0  0  0  0  0
   -3.0489   -2.6070    0.7262 C   0  0  0  0  0  0  0  0  0  0  0  0
   -3.6476   -1.8642    1.2595 H   0  0  0  0  0  0  0  0  0  0  0  0
   -3.4486   -2.7281   -0.2837 H   0  0  0  0  0  0  0  0  0  0  0  0
   -1.6018   -2.1522    0.6580 C   0  0  0  0  0  0  0  0  0  0  0  0
   -0.7196   -2.8661    1.1115 O   0  0  0  0  0  0  0  0  0  0  0  0
   -1.3072   -0.9332    0.0913 N   0  0  0  0  0  0  0  0  0  0  0  0
   -2.0919   -0.3130   -0.1129 H   0  0  0  0  0  0  0  0  0  0  0  0
    0.0037   -0.2662    0.1635 C   0  0  1  0  0  0  0  0  0  0  0  0
    0.6257   -0.6596    0.9739 H   0  0  0  0  0  0  0  0  0  0  0  0
    0.7134   -0.5149   -1.1950 C   0  0  0  0  0  0  0  0  0  0  0  0
    0.9659   -1.5779   -1.2589 H   0  0  0  0  0  0  0  0  0  0  0  0
   -0.0331   -0.3157   -1.9715 H   0  0  0  0  0  0  0  0  0  0  0  0
    1.9663    0.3029   -1.6077 C   0  0  0  0  0  0  0  0  0  0  0  0
    2.8437   -0.2533   -1.2638 H   0  0  0  0  0  0  0  0  0  0  0  0
    2.0172    0.3212   -2.7004 H   0  0  0  0  0  0  0  0  0  0  0  0
    2.1274    1.7312   -1.1017 C   0  0  0  0  0  0  0  0  0  0  0  0
    1.6763    2.6727   -1.7927 O   0  5  0  0  0  0  0  0  0  0  0  0
    2.6891    1.8650    0.0178 O   0  0  0  0  0  0  0  0  0  0  0  0
   -0.3612    1.2107    0.5109 C   0  0  0  0  0  0  0  0  0  0  0  0
   -1.4857    1.6335    0.2206 O   0  0  0  0  0  0  0  0  0  0  0  0
    0.3476    1.8898    1.4838 N   0  0  0  0  0  0  0  0  0  0  0  0
    1.3607    1.7689    1.3515 H   0  0  0  0  0  0  0  0  0  0  0  0
   -0.0513    3.2243    1.9067 C   0  0  0  0  0  0  0  0  0  0  0  0
   -1.0441    3.2036    2.3669 H   0  0  0  0  0  0  0  0  0  0  0  0
    0.6614    3.6099    2.6412 H   0  0  0  0  0  0  0  0  0  0  0  0
   -0.0697    3.9060    1.0498 H   0  0  0  0  0  0  0  0  0  0  0  0
  1  2  1  0  0  0  0
  2  3  1  0  0  0  0
  2  4  1  0  0  0  0
  2  5  1  0  0  0  0
  5  6  2  0  0  0  0
  5  7  1  0  0  0  0
  7  8  1  0  0  0  0
  7  9  1  0  0  0  0
  9 10  1  0  0  0  0
  9 11  1  0  0  0  0
  9 20  1  0  0  0  0
 11 12  1  0  0  0  0
 11 13  1  0  0  0  0
 11 14  1  0  0  0  0
 14 15  1  0  0  0  0
 14 16  1  0  0  0  0
 14 17  1  0  0  0  0
 17 18  1  0  0  0  0
 17 19  2  0  0  0  0
 20 21  2  0  0  0  0
 20 22  1  0  0  0  0
 22 23  1  0  0  0  0
 22 24  1  0  0  0  0
 24 25  1  0  0  0  0
 24 26  1  0  0  0  0
 24 27  1  0  0  0  0
M  CHG  1  18  -1
M  END
$$$$

  -OEChem-03222214043D

 27 26  0     1  0  0  0  0  0999 V2000
   -3.1569   -3.5129    1.3671 H   0  0  0  0  0  0  0  0  0  0  0  0
   -3.0831   -2.5673    0.8229 C   0  0  0  0  0  0  0  0  0  0  0  0
   -3.6527   -1.8057    1.3614 H   0  0  0  0  0  0  0  0  0  0  0  0
   -3.5143   -2.6972   -0.1728 H   0  0  0  0  0  0  0  0  0  0  0  0
   -1.6308   -2.1399    0.7056 C   0  0  0  0  0  0  0  0  0  0  0  0
   -0.7472   -2.8792    1.1124 O   0  0  0  0  0  0  0  0  0  0  0  0
   -1.3337   -0.9184    0.1455 N   0  0  0  0  0  0  0  0  0  0  0  0
   -2.1135   -0.2829   -0.0267 H   0  0  0  0  0  0  0  0  0  0  0  0
   -0.0081   -0.2775    0.1775 C   0  0  1  0  0  0  0  0  0  0  0  0
    0.6464   -0.6963    0.9492 H   0  0  0  0  0  0  0  0  0  0  0  0
    0.6246   -0.5033   -1.2228 C   0  0  0  0  0  0  0  0  0  0  0  0
    0.8538   -1.5693   -1.3194 H   0  0  0  0  0  0  0  0  0  0  0  0
   -0.1583   -0.2788   -1.9553 H   0  0  0  0  0  0  0  0  0  0  0  0
    1.8734    0.2972   -1.6877 C   0  0  0  0  0  0  0  0  0  0  0  0
    2.7302   -0.3824   -1.6586 H   0  0  0  0  0  0  0  0  0  0  0  0
    1.7314    0.5744   -2.7367 H   0  0  0  0  0  0  0  0  0  0  0  0
    2.2823    1.5450   -0.9127 C   0  0  0  0  0  0  0  0  0  0  0  0
    2.0486    2.6703   -1.4101 O   0  5  0  0  0  0  0  0  0  0  0  0
    2.8004    1.3566    0.2199 O   0  0  0  0  0  0  0  0  0  0  0  0
   -0.3358    1.1986    0.5592 C   0  0  0  0  0  0  0  0  0  0  0  0
   -1.4389    1.6679    0.2596 O   0  0  0  0  0  0  0  0  0  0  0  0
    0.4123    1.8591    1.5143 N   0  0  0  0  0  0  0  0  0  0  0  0
    1.4131    1.6333    1.4320 H   0  0  0  0  0  0  0  0  0  0  0  0
    0.1159    3.2344    1.8862 C   0  0  0  0  0  0  0  0  0  0  0  0
   -0.8826    3.3087    2.3280 H   0  0  0  0  0  0  0  0  0  0  0  0
    0.8457    3.5865    2.6210 H   0  0  0  0  0  0  0  0  0  0  0  0
    0.1662    3.8856    1.0072 H   0  0  0  0  0  0  0  0  0  0  0  0
  1  2  1  0  0  0  0
  2  3  1  0  0  0  0
  2  4  1  0  0  0  0
  2  5  1  0  0  0  0
  5  6  2  0  0  0  0
  5  7  1  0  0  0  0
  7  8  1  0  0  0  0
  7  9  1  0  0  0  0
  9 10  1  0  0  0  0
  9 11  1  0  0  0  0
  9 20  1  0  0  0  0
 11 12  1  0  0  0  0
 11 13  1  0  0  0  0
 11 14  1  0  0  0  0
 14 15  1  0  0  0  0
 14 16  1  0  0  0  0
 14 17  1  0  0  0  0
 17 18  1  0  0  0  0
 17 19  2  0  0  0  0
 20 21  2  0  0  0  0
 20 22  1  0  0  0  0
 22 23  1  0  0  0  0
 22 24  1  0  0  0  0
 24 25  1  0  0  0  0
 24 26  1  0  0  0  0
 24 27  1  0  0  0  0
M  CHG  1  18  -1
M  END
$$$$

  -OEChem-03222214043D

 27 26  0     1  0  0  0  0  0999 V2000
   -3.3742   -3.3622    1.3730 H   0  0  0  0  0  0  0  0  0  0  0  0
   -3.2215   -2.4546    0.7825 C   0  0  0  0  0  0  0  0  0  0  0  0
   -3.8217   -1.6489    1.2127 H   0  0  0  0  0  0  0  0  0  0  0  0
   -3.5537   -2.6388   -0.2421 H   0  0  0  0  0  0  0  0  0  0  0  0
   -1.7538   -2.0652    0.7866 C   0  0  0  0  0  0  0  0  0  0  0  0
   -0.9402   -2.7800    1.3511 O   0  0  0  0  0  0  0  0  0  0  0  0
   -1.3673   -0.9075    0.1506 N   0  0  0  0  0  0  0  0  0  0  0  0
   -2.1075   -0.2833   -0.1699 H   0  0  0  0  0  0  0  0  0  0  0  0
   -0.0340   -0.2908    0.2489 C   0  0  1  0  0  0  0  0  0  0  0  0
    0.5380   -0.6567    1.1090 H   0  0  0  0  0  0  0  0  0  0  0  0
    0.7144   -0.6364   -1.0656 C   0  0  0  0  0  0  0  0  0  0  0  0
    0.9458   -1.7058   -1.0331 H   0  0  0  0  0  0  0  0  0  0  0  0
    0.0093   -0.4890   -1.8904 H   0  0  0  0  0  0  0  0  0  0  0  0
    2.0173    0.1138   -1.4664 C   0  0  0  0  0  0  0  0  0  0  0  0
    2.8133   -0.6256   -1.5926 H   0  0  0  0  0  0  0  0  0  0  0  0
    1.8527    0.5674   -2.4488 H   0  0  0  0  0  0  0  0  0  0  0  0
    2.5535    1.1993   -0.5334 C   0  0  0  0  0  0  0  0  0  0  0  0
    2.6818    2.3622   -0.9814 O   0  5  0  0  0  0  0  0  0  0  0  0
    2.7900    0.8666    0.6581 O   0  0  0  0  0  0  0  0  0  0  0  0
   -0.3360    1.2209    0.4617 C   0  0  0  0  0  0  0  0  0  0  0  0
   -1.3583    1.7077   -0.0312 O   0  0  0  0  0  0  0  0  0  0  0  0
    0.3456    1.9488    1.4166 N   0  0  0  0  0  0  0  0  0  0  0  0
    1.3150    1.6209    1.5303 H   0  0  0  0  0  0  0  0  0  0  0  0
    0.1385    3.3803    1.5712 C   0  0  0  0  0  0  0  0  0  0  0  0
   -0.8981    3.5932    1.8503 H   0  0  0  0  0  0  0  0  0  0  0  0
    0.7939    3.7684    2.3562 H   0  0  0  0  0  0  0  0  0  0  0  0
    0.3706    3.9005    0.6359 H   0  0  0  0  0  0  0  0  0  0  0  0
  1  2  1  0  0  0  0
  2  3  1  0  0  0  0
  2  4  1  0  0  0  0
  2  5  1  0  0  0  0
  5  6  2  0  0  0  0
  5  7  1  0  0  0  0
  7  8  1  0  0  0  0
  7  9  1  0  0  0  0
  9 10  1  0  0  0  0
  9 11  1  0  0  0  0
  9 20  1  0  0  0  0
 11 12  1  0  0  0  0
 11 13  1  0  0  0  0
 11 14  1  0  0  0  0
 14 15  1  0  0  0  0
 14 16  1  0  0  0  0
 14 17  1  0  0  0  0
 17 18  1  0  0  0  0
 17 19  2  0  0  0  0
 20 21  2  0  0  0  0
 20 22  1  0  0  0  0
 22 23  1  0  0  0  0
 22 24  1  0  0  0  0
 24 25  1  0  0  0  0
 24 26  1  0  0  0  0
 24 27  1  0  0  0  0
M  CHG  1  18  -1
M  END
$$$$

  -OEChem-03222214043D

 27 26  0     1  0  0  0  0  0999 V2000
   -3.3680   -3.4472    1.2246 H   0  0  0  0  0  0  0  0  0  0  0  0
   -3.2203   -2.5214    0.6616 C   0  0  0  0  0  0  0  0  0  0  0  0
   -3.8410   -1.7375    1.1030 H   0  0  0  0  0  0  0  0  0  0  0  0
   -3.5322   -2.6828   -0.3732 H   0  0  0  0  0  0  0  0  0  0  0  0
   -1.7595   -2.1085    0.7018 C   0  0  0  0  0  0  0  0  0  0  0  0
   -0.9455   -2.8251    1.2627 O   0  0  0  0  0  0  0  0  0  0  0  0
   -1.3829   -0.9284    0.1010 N   0  0  0  0  0  0  0  0  0  0  0  0
   -2.1281   -0.3165   -0.2290 H   0  0  0  0  0  0  0  0  0  0  0  0
   -0.0611   -0.2925    0.2243 C   0  0  1  0  0  0  0  0  0  0  0  0
    0.4959   -0.6854    1.0825 H   0  0  0  0  0  0  0  0  0  0  0  0
    0.7231   -0.5886   -1.0781 C   0  0  0  0  0  0  0  0  0  0  0  0
    0.9992   -1.6473   -1.0437 H   0  0  0  0  0  0  0  0  0  0  0  0
    0.0412   -0.4633   -1.9255 H   0  0  0  0  0  0  0  0  0  0  0  0
    2.0113    0.2181   -1.4095 C   0  0  0  0  0  0  0  0  0  0  0  0
    2.7584   -0.4759   -1.8045 H   0  0  0  0  0  0  0  0  0  0  0  0
    1.7619    0.9151   -2.2157 H   0  0  0  0  0  0  0  0  0  0  0  0
    2.6727    1.0317   -0.2912 C   0  0  0  0  0  0  0  0  0  0  0  0
    2.7560    0.5136    0.8526 O   0  5  0  0  0  0  0  0  0  0  0  0
    3.0548    2.1932   -0.5651 O   0  0  0  0  0  0  0  0  0  0  0  0
   -0.3353    1.2128    0.4758 C   0  0  0  0  0  0  0  0  0  0  0  0
   -1.3307    1.7381   -0.0292 O   0  0  0  0  0  0  0  0  0  0  0  0
    0.3614    1.8974    1.4514 N   0  0  0  0  0  0  0  0  0  0  0  0
    1.3001    1.5068    1.6148 H   0  0  0  0  0  0  0  0  0  0  0  0
    0.2169    3.3331    1.6322 C   0  0  0  0  0  0  0  0  0  0  0  0
   -0.8149    3.5878    1.8937 H   0  0  0  0  0  0  0  0  0  0  0  0
    0.8715    3.6743    2.4395 H   0  0  0  0  0  0  0  0  0  0  0  0
    0.4932    3.8613    0.7136 H   0  0  0  0  0  0  0  0  0  0  0  0
  1  2  1  0  0  0  0
  2  3  1  0  0  0  0
  2  4  1  0  0  0  0
  2  5  1  0  0  0  0
  5  6  2  0  0  0  0
  5  7  1  0  0  0  0
  7  8  1  0  0  0  0
  7  9  1  0  0  0  0
  9 10  1  0  0  0  0
  9 11  1  0  0  0  0
  9 20  1  0  0  0  0
 11 12  1  0  0  0  0
 11 13  1  0  0  0  0
 11 14  1  0  0  0  0
 14 15  1  0  0  0  0
 14 16  1  0  0  0  0
 14 17  1  0  0  0  0
 17 18  1  0  0  0  0
 17 19  2  0  0  0  0
 20 21  2  0  0  0  0
 20 22  1  0  0  0  0
 22 23  1  0  0  0  0
 22 24  1  0  0  0  0
 24 25  1  0  0  0  0
 24 26  1  0  0  0  0
 24 27  1  0  0  0  0
M  CHG  1  18  -1
M  END
$$$$

  -OEChem-03222214043D

 27 26  0     1  0  0  0  0  0999 V2000
   -3.3212   -3.5306    1.2008 H   0  0  0  0  0  0  0  0  0  0  0  0
   -3.1885   -2.6138    0.6196 C   0  0  0  0  0  0  0  0  0  0  0  0
   -3.8419   -1.8396    1.0297 H   0  0  0  0  0  0  0  0  0  0  0  0
   -3.4725   -2.8085   -0.4175 H   0  0  0  0  0  0  0  0  0  0  0  0
   -1.7419   -2.1559    0.6816 C   0  0  0  0  0  0  0  0  0  0  0  0
   -0.9165   -2.8486    1.2549 O   0  0  0  0  0  0  0  0  0  0  0  0
   -1.3927   -0.9660    0.0822 N   0  0  0  0  0  0  0  0  0  0  0  0
   -2.1514   -0.3829   -0.2661 H   0  0  0  0  0  0  0  0  0  0  0  0
   -0.0896   -0.2932    0.2067 C   0  0  1  0  0  0  0  0  0  0  0  0
    0.4539   -0.6844    1.0736 H   0  0  0  0  0  0  0  0  0  0  0  0
    0.7335   -0.5714   -1.0716 C   0  0  0  0  0  0  0  0  0  0  0  0
    1.0586   -1.6153   -1.0149 H   0  0  0  0  0  0  0  0  0  0  0  0
    0.0740   -0.4842   -1.9411 H   0  0  0  0  0  0  0  0  0  0  0  0
    1.9918    0.2970   -1.3545 C   0  0  0  0  0  0  0  0  0  0  0  0
    2.6783   -0.2896   -1.9712 H   0  0  0  0  0  0  0  0  0  0  0  0
    1.6633    1.1510   -1.9550 H   0  0  0  0  0  0  0  0  0  0  0  0
    2.7890    0.8681   -0.1718 C   0  0  0  0  0  0  0  0  0  0  0  0
    2.7007    0.3175    0.9553 O   0  5  0  0  0  0  0  0  0  0  0  0
    3.4504    1.9094   -0.3918 O   0  0  0  0  0  0  0  0  0  0  0  0
   -0.3445    1.2100    0.4577 C   0  0  0  0  0  0  0  0  0  0  0  0
   -1.3201    1.7558   -0.0606 O   0  0  0  0  0  0  0  0  0  0  0  0
    0.3707    1.8773    1.4311 N   0  0  0  0  0  0  0  0  0  0  0  0
    1.2807    1.4395    1.6336 H   0  0  0  0  0  0  0  0  0  0  0  0
    0.2739    3.3158    1.6162 C   0  0  0  0  0  0  0  0  0  0  0  0
   -0.7544    3.6063    1.8528 H   0  0  0  0  0  0  0  0  0  0  0  0
    0.9198    3.6287    2.4419 H   0  0  0  0  0  0  0  0  0  0  0  0
    0.5921    3.8381    0.7081 H   0  0  0  0  0  0  0  0  0  0  0  0
  1  2  1  0  0  0  0
  2  3  1  0  0  0  0
  2  4  1  0  0  0  0
  2  5  1  0  0  0  0
  5  6  2  0  0  0  0
  5  7  1  0  0  0  0
  7  8  1  0  0  0  0
  7  9  1  0  0  0  0
  9 10  1  0  0  0  0
  9 11  1  0  0  0  0
  9 20  1  0  0  0  0
 11 12  1  0  0  0  0
 11 13  1  0  0  0  0
 11 14  1  0  0  0  0
 14 15  1  0  0  0  0
 14 16  1  0  0  0  0
 14 17  1  0  0  0  0
 17 18  1  0  0  0  0
 17 19  2  0  0  0  0
 20 21  2  0  0  0  0
 20 22  1  0  0  0  0
 22 23  1  0  0  0  0
 22 24  1  0  0  0  0
 24 25  1  0  0  0  0
 24 26  1  0  0  0  0
 24 27  1  0  0  0  0
M  CHG  1  18  -1
M  END
$$$$

  -OEChem-03222214043D

 27 26  0     1  0  0  0  0  0999 V2000
   -3.3042   -3.5518    1.1920 H   0  0  0  0  0  0  0  0  0  0  0  0
   -3.1767   -2.6248    0.6262 C   0  0  0  0  0  0  0  0  0  0  0  0
   -3.8280   -1.8589    1.0545 H   0  0  0  0  0  0  0  0  0  0  0  0
   -3.4682   -2.8014   -0.4121 H   0  0  0  0  0  0  0  0  0  0  0  0
   -1.7298   -2.1671    0.6861 C   0  0  0  0  0  0  0  0  0  0  0  0
   -0.9045   -2.8574    1.2624 O   0  0  0  0  0  0  0  0  0  0  0  0
   -1.3811   -0.9789    0.0831 N   0  0  0  0  0  0  0  0  0  0  0  0
   -2.1396   -0.3992   -0.2712 H   0  0  0  0  0  0  0  0  0  0  0  0
   -0.0782   -0.3056    0.2046 C   0  0  1  0  0  0  0  0  0  0  0  0
    0.4701   -0.6991    1.0671 H   0  0  0  0  0  0  0  0  0  0  0  0
    0.7344   -0.5637   -1.0825 C   0  0  0  0  0  0  0  0  0  0  0  0
    1.0607   -1.6084   -1.0546 H   0  0  0  0  0  0  0  0  0  0  0  0
    0.0677   -0.4530   -1.9438 H   0  0  0  0  0  0  0  0  0  0  0  0
    1.9851    0.3169   -1.3514 C   0  0  0  0  0  0  0  0  0  0  0  0
    2.5359   -0.1354   -2.1813 H   0  0  0  0  0  0  0  0  0  0  0  0
    1.6294    1.2938   -1.6915 H   0  0  0  0  0  0  0  0  0  0  0  0
    2.9852    0.5892   -0.2133 C   0  0  0  0  0  0  0  0  0  0  0  0
    2.6623    0.3691    0.9821 O   0  5  0  0  0  0  0  0  0  0  0  0
    4.0822    1.0859   -0.5619 O   0  0  0  0  0  0  0  0  0  0  0  0
   -0.3353    1.1986    0.4515 C   0  0  0  0  0  0  0  0  0  0  0  0
   -1.3059    1.7452   -0.0757 O   0  0  0  0  0  0  0  0  0  0  0  0
    0.3757    1.8754    1.4201 N   0  0  0  0  0  0  0  0  0  0  0  0
    1.2847    1.4370    1.6291 H   0  0  0  0  0  0  0  0  0  0  0  0
    0.2553    3.3089    1.6284 C   0  0  0  0  0  0  0  0  0  0  0  0
   -0.7738    3.5749    1.8895 H   0  0  0  0  0  0  0  0  0  0  0  0
    0.9107    3.6226    2.4463 H   0  0  0  0  0  0  0  0  0  0  0  0
    0.5446    3.8514    0.7226 H   0  0  0  0  0  0  0  0  0  0  0  0
  1  2  1  0  0  0  0
  2  3  1  0  0  0  0
  2  4  1  0  0  0  0
  2  5  1  0  0  0  0
  5  6  2  0  0  0  0
  5  7  1  0  0  0  0
  7  8  1  0  0  0  0
  7  9  1  0  0  0  0
  9 10  1  0  0  0  0
  9 11  1  0  0  0  0
  9 20  1  0  0  0  0
 11 12  1  0  0  0  0
 11 13  1  0  0  0  0
 11 14  1  0  0  0  0
 14 15  1  0  0  0  0
 14 16  1  0  0  0  0
 14 17  1  0  0  0  0
 17 18  1  0  0  0  0
 17 19  2  0  0  0  0
 20 21  2  0  0  0  0
 20 22  1  0  0  0  0
 22 23  1  0  0  0  0
 22 24  1  0  0  0  0
 24 25  1  0  0  0  0
 24 26  1  0  0  0  0
 24 27  1  0  0  0  0
M  CHG  1  18  -1
M  END
$$$$

  -OEChem-03222214043D

 27 26  0     1  0  0  0  0  0999 V2000
   -3.2280   -3.5662    1.1882 H   0  0  0  0  0  0  0  0  0  0  0  0
   -3.1158   -2.6323    0.6305 C   0  0  0  0  0  0  0  0  0  0  0  0
   -3.7693   -1.8766    1.0732 H   0  0  0  0  0  0  0  0  0  0  0  0
   -3.4169   -2.8016   -0.4061 H   0  0  0  0  0  0  0  0  0  0  0  0
   -1.6730   -2.1612    0.6788 C   0  0  0  0  0  0  0  0  0  0  0  0
   -0.8362   -2.8424    1.2488 O   0  0  0  0  0  0  0  0  0  0  0  0
   -1.3391   -0.9666    0.0809 N   0  0  0  0  0  0  0  0  0  0  0  0
   -2.1033   -0.3863   -0.2602 H   0  0  0  0  0  0  0  0  0  0  0  0
   -0.0316   -0.2990    0.1780 C   0  0  1  0  0  0  0  0  0  0  0  0
    0.5569   -0.6921    1.0151 H   0  0  0  0  0  0  0  0  0  0  0  0
    0.7340   -0.5331   -1.1424 C   0  0  0  0  0  0  0  0  0  0  0  0
    1.0551   -1.5796   -1.1743 H   0  0  0  0  0  0  0  0  0  0  0  0
    0.0449   -0.3750   -1.9780 H   0  0  0  0  0  0  0  0  0  0  0  0
    1.9651    0.3692   -1.3793 C   0  0  0  0  0  0  0  0  0  0  0  0
    2.3961    0.1188   -2.3532 H   0  0  0  0  0  0  0  0  0  0  0  0
    1.6541    1.4165   -1.4266 H   0  0  0  0  0  0  0  0  0  0  0  0
    3.0515    0.2253   -0.3053 C   0  0  0  0  0  0  0  0  0  0  0  0
    2.8117    0.6745    0.8455 O   0  5  0  0  0  0  0  0  0  0  0  0
    4.1275   -0.3227   -0.6426 O   0  0  0  0  0  0  0  0  0  0  0  0
   -0.3117    1.2002    0.4508 C   0  0  0  0  0  0  0  0  0  0  0  0
   -1.3097    1.7314   -0.0415 O   0  0  0  0  0  0  0  0  0  0  0  0
    0.4022    1.8863    1.4109 N   0  0  0  0  0  0  0  0  0  0  0  0
    1.3468    1.5000    1.5576 H   0  0  0  0  0  0  0  0  0  0  0  0
    0.2165    3.3061    1.6632 C   0  0  0  0  0  0  0  0  0  0  0  0
   -0.8154    3.5120    1.9648 H   0  0  0  0  0  0  0  0  0  0  0  0
    0.8819    3.6312    2.4684 H   0  0  0  0  0  0  0  0  0  0  0  0
    0.4472    3.8864    0.7642 H   0  0  0  0  0  0  0  0  0  0  0  0
  1  2  1  0  0  0  0
  2  3  1  0  0  0  0
  2  4  1  0  0  0  0
  2  5  1  0  0  0  0
  5  6  2  0  0  0  0
  5  7  1  0  0  0  0
  7  8  1  0  0  0  0
  7  9  1  0  0  0  0
  9 10  1  0  0  0  0
  9 11  1  0  0  0  0
  9 20  1  0  0  0  0
 11 12  1  0  0  0  0
 11 13  1  0  0  0  0
 11 14  1  0  0  0  0
 14 15  1  0  0  0  0
 14 16  1  0  0  0  0
 14 17  1  0  0  0  0
 17 18  1  0  0  0  0
 17 19  2  0  0  0  0
 20 21  2  0  0  0  0
 20 22  1  0  0  0  0
 22 23  1  0  0  0  0
 22 24  1  0  0  0  0
 24 25  1  0  0  0  0
 24 26  1  0  0  0  0
 24 27  1  0  0  0  0
M  CHG  1  18  -1
M  END
$$$$

  -OEChem-03222214043D

 27 26  0     1  0  0  0  0  0999 V2000
   -3.1865   -3.6215    1.1908 H   0  0  0  0  0  0  0  0  0  0  0  0
   -3.1065   -2.6889    0.6254 C   0  0  0  0  0  0  0  0  0  0  0  0
   -3.7799   -1.9501    1.0670 H   0  0  0  0  0  0  0  0  0  0  0  0
   -3.4085   -2.8755   -0.4081 H   0  0  0  0  0  0  0  0  0  0  0  0
   -1.6786   -2.1737    0.6609 C   0  0  0  0  0  0  0  0  0  0  0  0
   -0.8167   -2.8299    1.2222 O   0  0  0  0  0  0  0  0  0  0  0  0
   -1.3892   -0.9672    0.0626 N   0  0  0  0  0  0  0  0  0  0  0  0
   -2.1748   -0.4164   -0.2768 H   0  0  0  0  0  0  0  0  0  0  0  0
   -0.0963   -0.2683    0.1189 C   0  0  1  0  0  0  0  0  0  0  0  0
    0.4845   -0.6515    0.9662 H   0  0  0  0  0  0  0  0  0  0  0  0
    0.7233   -0.5540   -1.1564 C   0  0  0  0  0  0  0  0  0  0  0  0
    1.0807   -1.5893   -1.1373 H   0  0  0  0  0  0  0  0  0  0  0  0
    0.0607   -0.4498   -2.0212 H   0  0  0  0  0  0  0  0  0  0  0  0
    1.9144    0.4061   -1.3612 C   0  0  0  0  0  0  0  0  0  0  0  0
    2.2780    0.2847   -2.3860 H   0  0  0  0  0  0  0  0  0  0  0  0
    1.6207    1.4535   -1.2592 H   0  0  0  0  0  0  0  0  0  0  0  0
    3.0647    0.0857   -0.4087 C   0  0  0  0  0  0  0  0  0  0  0  0
    2.9157    0.4715    0.7823 O   0  5  0  0  0  0  0  0  0  0  0  0
    4.0733   -0.5142   -0.8502 O   0  0  0  0  0  0  0  0  0  0  0  0
   -0.3181    1.2301    0.4091 C   0  0  0  0  0  0  0  0  0  0  0  0
   -1.3219    1.7984   -0.0222 O   0  0  0  0  0  0  0  0  0  0  0  0
    0.4784    1.8584    1.3449 N   0  0  0  0  0  0  0  0  0  0  0  0
    1.4048    1.4183    1.4567 H   0  0  0  0  0  0  0  0  0  0  0  0
    0.3655    3.2752    1.6491 C   0  0  0  0  0  0  0  0  0  0  0  0
   -0.6433    3.5139    2.0007 H   0  0  0  0  0  0  0  0  0  0  0  0
    1.0772    3.5447    2.4352 H   0  0  0  0  0  0  0  0  0  0  0  0
    0.5838    3.8750    0.7599 H   0  0  0  0  0  0  0  0  0  0  0  0
  1  2  1  0  0  0  0
  2  3  1  0  0  0  0
  2  4  1  0  0  0  0
  2  5  1  0  0  0  0
  5  6  2  0  0  0  0
  5  7  1  0  0  0  0
  7  8  1  0  0  0  0
  7  9  1  0  0  0  0
  9 10  1  0  0  0  0
  9 11  1  0  0  0  0
  9 20  1  0  0  0  0
 11 12  1  0  0  0  0
 11 13  1  0  0  0  0
 11 14  1  0  0  0  0
 14 15  1  0  0  0  0
 14 16  1  0  0  0  0
 14 17  1  0  0  0  0
 17 18  1  0  0  0  0
 17 19  2  0  0  0  0
 20 21  2  0  0  0  0
 20 22  1  0  0  0  0
 22 23  1  0  0  0  0
 22 24  1  0  0  0  0
 24 25  1  0  0  0  0
 24 26  1  0  0  0  0
 24 27  1  0  0  0  0
M  CHG  1  18  -1
M  END
$$$$

  -OEChem-03222214043D

 27 26  0     1  0  0  0  0  0999 V2000
   -3.1714   -3.6607    1.1567 H   0  0  0  0  0  0  0  0  0  0  0  0
   -3.1106   -2.7201    0.6023 C   0  0  0  0  0  0  0  0  0  0  0  0
   -3.7966   -1.9997    1.0547 H   0  0  0  0  0  0  0  0  0  0  0  0
   -3.4128   -2.9000   -0.4323 H   0  0  0  0  0  0  0  0  0  0  0  0
   -1.6924   -2.1785    0.6395 C   0  0  0  0  0  0  0  0  0  0  0  0
   -0.8187   -2.8202    1.1989 O   0  0  0  0  0  0  0  0  0  0  0  0
   -1.4280   -0.9604    0.0524 N   0  0  0  0  0  0  0  0  0  0  0  0
   -2.2233   -0.4307   -0.2965 H   0  0  0  0  0  0  0  0  0  0  0  0
   -0.1441   -0.2439    0.0877 C   0  0  1  0  0  0  0  0  0  0  0  0
    0.4303   -0.6254    0.9403 H   0  0  0  0  0  0  0  0  0  0  0  0
    0.7141   -0.5637   -1.1521 C   0  0  0  0  0  0  0  0  0  0  0  0
    1.0861   -1.5927   -1.0953 H   0  0  0  0  0  0  0  0  0  0  0  0
    0.0682   -0.4979   -2.0332 H   0  0  0  0  0  0  0  0  0  0  0  0
    1.8859    0.4220   -1.3590 C   0  0  0  0  0  0  0  0  0  0  0  0
    2.1237    0.4348   -2.4268 H   0  0  0  0  0  0  0  0  0  0  0  0
    1.6515    1.4539   -1.0944 H   0  0  0  0  0  0  0  0  0  0  0  0
    3.1285   -0.0537   -0.6223 C   0  0  0  0  0  0  0  0  0  0  0  0
    3.1245    0.1971    0.6132 O   0  5  0  0  0  0  0  0  0  0  0  0
    4.0558   -0.6231   -1.2461 O   0  0  0  0  0  0  0  0  0  0  0  0
   -0.3312    1.2508    0.3991 C   0  0  0  0  0  0  0  0  0  0  0  0
   -1.3322    1.8484    0.0062 O   0  0  0  0  0  0  0  0  0  0  0  0
    0.5151    1.8368    1.3215 N   0  0  0  0  0  0  0  0  0  0  0  0
    1.4198    1.3582    1.4254 H   0  0  0  0  0  0  0  0  0  0  0  0
    0.4538    3.2510    1.6523 C   0  0  0  0  0  0  0  0  0  0  0  0
   -0.5320    3.5095    2.0520 H   0  0  0  0  0  0  0  0  0  0  0  0
    1.2062    3.4898    2.4099 H   0  0  0  0  0  0  0  0  0  0  0  0
    0.6480    3.8597    0.7633 H   0  0  0  0  0  0  0  0  0  0  0  0
  1  2  1  0  0  0  0
  2  3  1  0  0  0  0
  2  4  1  0  0  0  0
  2  5  1  0  0  0  0
  5  6  2  0  0  0  0
  5  7  1  0  0  0  0
  7  8  1  0  0  0  0
  7  9  1  0  0  0  0
  9 10  1  0  0  0  0
  9 11  1  0  0  0  0
  9 20  1  0  0  0  0
 11 12  1  0  0  0  0
 11 13  1  0  0  0  0
 11 14  1  0  0  0  0
 14 15  1  0  0  0  0
 14 16  1  0  0  0  0
 14 17  1  0  0  0  0
 17 18  1  0  0  0  0
 17 19  2  0  0  0  0
 20 21  2  0  0  0  0
 20 22  1  0  0  0  0
 22 23  1  0  0  0  0
 22 24  1  0  0  0  0
 24 25  1  0  0  0  0
 24 26  1  0  0  0  0
 24 27  1  0  0  0  0
M  CHG  1  18  -1
M  END
$$$$

  -OEChem-03222214043D

 27 26  0     1  0  0  0  0  0999 V2000
   -3.2051   -3.6244    1.1127 H   0  0  0  0  0  0  0  0  0  0  0  0
   -3.1040   -2.6930    0.5489 C   0  0  0  0  0  0  0  0  0  0  0  0
   -3.8262   -1.9681    0.9325 H   0  0  0  0  0  0  0  0  0  0  0  0
   -3.3222   -2.8928   -0.5032 H   0  0  0  0  0  0  0  0  0  0  0  0
   -1.6949   -2.1441    0.6883 C   0  0  0  0  0  0  0  0  0  0  0  0
   -0.8712   -2.7561    1.3482 O   0  0  0  0  0  0  0  0  0  0  0  0
   -1.3835   -0.9415    0.0930 N   0  0  0  0  0  0  0  0  0  0  0  0
   -2.1427   -0.4240   -0.3441 H   0  0  0  0  0  0  0  0  0  0  0  0
   -0.0834   -0.2569    0.1583 C   0  0  1  0  0  0  0  0  0  0  0  0
    0.5071   -0.6515    0.9929 H   0  0  0  0  0  0  0  0  0  0  0  0
    0.7074   -0.5433   -1.1349 C   0  0  0  0  0  0  0  0  0  0  0  0
    1.0265   -1.5916   -1.1432 H   0  0  0  0  0  0  0  0  0  0  0  0
    0.0260   -0.4086   -1.9811 H   0  0  0  0  0  0  0  0  0  0  0  0
    1.9205    0.3872   -1.3716 C   0  0  0  0  0  0  0  0  0  0  0  0
    1.9289    0.6790   -2.4260 H   0  0  0  0  0  0  0  0  0  0  0  0
    1.8778    1.3130   -0.7978 H   0  0  0  0  0  0  0  0  0  0  0  0
    3.2321   -0.3296   -1.0746 C   0  0  0  0  0  0  0  0  0  0  0  0
    3.6029   -0.3089    0.1267 O   0  5  0  0  0  0  0  0  0  0  0  0
    3.8513   -0.8865   -2.0134 O   0  0  0  0  0  0  0  0  0  0  0  0
   -0.3091    1.2410    0.4471 C   0  0  0  0  0  0  0  0  0  0  0  0
   -1.2854    1.8253   -0.0201 O   0  0  0  0  0  0  0  0  0  0  0  0
    0.4763    1.8742    1.3924 N   0  0  0  0  0  0  0  0  0  0  0  0
    1.3563    1.4055    1.6102 H   0  0  0  0  0  0  0  0  0  0  0  0
    0.3634    3.2945    1.6862 C   0  0  0  0  0  0  0  0  0  0  0  0
   -0.6507    3.5391    2.0182 H   0  0  0  0  0  0  0  0  0  0  0  0
    1.0619    3.5688    2.4822 H   0  0  0  0  0  0  0  0  0  0  0  0
    0.5983    3.8874    0.7967 H   0  0  0  0  0  0  0  0  0  0  0  0
  1  2  1  0  0  0  0
  2  3  1  0  0  0  0
  2  4  1  0  0  0  0
  2  5  1  0  0  0  0
  5  6  2  0  0  0  0
  5  7  1  0  0  0  0
  7  8  1  0  0  0  0
  7  9  1  0  0  0  0
  9 10  1  0  0  0  0
  9 11  1  0  0  0  0
  9 20  1  0  0  0  0
 11 12  1  0  0  0  0
 11 13  1  0  0  0  0
 11 14  1  0  0  0  0
 14 15  1  0  0  0  0
 14 16  1  0  0  0  0
 14 17  1  0  0  0  0
 17 18  1  0  0  0  0
 17 19  2  0  0  0  0
 20 21  2  0  0  0  0
 20 22  1  0  0  0  0
 22 23  1  0  0  0  0
 22 24  1  0  0  0  0
 24 25  1  0  0  0  0
 24 26  1  0  0  0  0
 24 27  1  0  0  0  0
M  CHG  1  18  -1
M  END
$$$$

  -OEChem-03222214043D

 27 26  0     1  0  0  0  0  0999 V2000
   -3.2260   -3.6074    1.0825 H   0  0  0  0  0  0  0  0  0  0  0  0
   -3.1133   -2.6725    0.5262 C   0  0  0  0  0  0  0  0  0  0  0  0
   -3.8439   -1.9502    0.8984 H   0  0  0  0  0  0  0  0  0  0  0  0
   -3.3094   -2.8663   -0.5314 H   0  0  0  0  0  0  0  0  0  0  0  0
   -1.7078   -2.1243    0.6991 C   0  0  0  0  0  0  0  0  0  0  0  0
   -0.9082   -2.7219    1.4014 O   0  0  0  0  0  0  0  0  0  0  0  0
   -1.3719   -0.9311    0.0983 N   0  0  0  0  0  0  0  0  0  0  0  0
   -2.1087   -0.4192   -0.3818 H   0  0  0  0  0  0  0  0  0  0  0  0
   -0.0614   -0.2691    0.1786 C   0  0  1  0  0  0  0  0  0  0  0  0
    0.5278   -0.6724    1.0091 H   0  0  0  0  0  0  0  0  0  0  0  0
    0.7059   -0.5399   -1.1318 C   0  0  0  0  0  0  0  0  0  0  0  0
    1.0098   -1.5927   -1.1473 H   0  0  0  0  0  0  0  0  0  0  0  0
    0.0244   -0.3915   -1.9757 H   0  0  0  0  0  0  0  0  0  0  0  0
    1.9364    0.3696   -1.3607 C   0  0  0  0  0  0  0  0  0  0  0  0
    1.7961    0.9403   -2.2835 H   0  0  0  0  0  0  0  0  0  0  0  0
    2.0697    1.0934   -0.5556 H   0  0  0  0  0  0  0  0  0  0  0  0
    3.2228   -0.4444   -1.4727 C   0  0  0  0  0  0  0  0  0  0  0  0
    3.8810   -0.6039   -0.4143 O   0  5  0  0  0  0  0  0  0  0  0  0
    3.5378   -0.9111   -2.5947 O   0  0  0  0  0  0  0  0  0  0  0  0
   -0.2887    1.2336    0.4547 C   0  0  0  0  0  0  0  0  0  0  0  0
   -1.2499    1.8190   -0.0409 O   0  0  0  0  0  0  0  0  0  0  0  0
    0.4746    1.8819    1.4084 N   0  0  0  0  0  0  0  0  0  0  0  0
    1.3331    1.4095    1.6840 H   0  0  0  0  0  0  0  0  0  0  0  0
    0.3452    3.3031    1.6931 C   0  0  0  0  0  0  0  0  0  0  0  0
   -0.6698    3.5357    2.0306 H   0  0  0  0  0  0  0  0  0  0  0  0
    1.0452    3.5929    2.4821 H   0  0  0  0  0  0  0  0  0  0  0  0
    0.5656    3.8934    0.7980 H   0  0  0  0  0  0  0  0  0  0  0  0
  1  2  1  0  0  0  0
  2  3  1  0  0  0  0
  2  4  1  0  0  0  0
  2  5  1  0  0  0  0
  5  6  2  0  0  0  0
  5  7  1  0  0  0  0
  7  8  1  0  0  0  0
  7  9  1  0  0  0  0
  9 10  1  0  0  0  0
  9 11  1  0  0  0  0
  9 20  1  0  0  0  0
 11 12  1  0  0  0  0
 11 13  1  0  0  0  0
 11 14  1  0  0  0  0
 14 15  1  0  0  0  0
 14 16  1  0  0  0  0
 14 17  1  0  0  0  0
 17 18  1  0  0  0  0
 17 19  2  0  0  0  0
 20 21  2  0  0  0  0
 20 22  1  0  0  0  0
 22 23  1  0  0  0  0
 22 24  1  0  0  0  0
 24 25  1  0  0  0  0
 24 26  1  0  0  0  0
 24 27  1  0  0  0  0
M  CHG  1  18  -1
M  END
$$$$

  -OEChem-03222214043D

 27 26  0     1  0  0  0  0  0999 V2000
   -3.2583   -3.6039    1.0513 H   0  0  0  0  0  0  0  0  0  0  0  0
   -3.1385   -2.6642    0.5051 C   0  0  0  0  0  0  0  0  0  0  0  0
   -3.8720   -1.9440    0.8760 H   0  0  0  0  0  0  0  0  0  0  0  0
   -3.3234   -2.8477   -0.5562 H   0  0  0  0  0  0  0  0  0  0  0  0
   -1.7344   -2.1193    0.6972 C   0  0  0  0  0  0  0  0  0  0  0  0
   -0.9452   -2.7144    1.4143 O   0  0  0  0  0  0  0  0  0  0  0  0
   -1.3861   -0.9298    0.0967 N   0  0  0  0  0  0  0  0  0  0  0  0
   -2.1105   -0.4226   -0.4071 H   0  0  0  0  0  0  0  0  0  0  0  0
   -0.0686   -0.2836    0.1799 C   0  0  1  0  0  0  0  0  0  0  0  0
    0.5168   -0.6974    1.0075 H   0  0  0  0  0  0  0  0  0  0  0  0
    0.6920   -0.5414   -1.1356 C   0  0  0  0  0  0  0  0  0  0  0  0
    1.0015   -1.5926   -1.1447 H   0  0  0  0  0  0  0  0  0  0  0  0
    0.0209   -0.3945   -1.9882 H   0  0  0  0  0  0  0  0  0  0  0  0
    1.9260    0.3682   -1.3329 C   0  0  0  0  0  0  0  0  0  0  0  0
    1.6907    1.1660   -2.0431 H   0  0  0  0  0  0  0  0  0  0  0  0
    2.2062    0.8425   -0.3894 H   0  0  0  0  0  0  0  0  0  0  0  0
    3.1466   -0.4119   -1.8234 C   0  0  0  0  0  0  0  0  0  0  0  0
    4.1533   -0.4317   -1.0720 O   0  5  0  0  0  0  0  0  0  0  0  0
    3.0663   -0.9978   -2.9312 O   0  0  0  0  0  0  0  0  0  0  0  0
   -0.2759    1.2228    0.4566 C   0  0  0  0  0  0  0  0  0  0  0  0
   -1.2300    1.8207   -0.0372 O   0  0  0  0  0  0  0  0  0  0  0  0
    0.4936    1.8628    1.4113 N   0  0  0  0  0  0  0  0  0  0  0  0
    1.3440    1.3805    1.6914 H   0  0  0  0  0  0  0  0  0  0  0  0
    0.3887    3.2889    1.6829 C   0  0  0  0  0  0  0  0  0  0  0  0
   -0.6230    3.5435    2.0148 H   0  0  0  0  0  0  0  0  0  0  0  0
    1.0914    3.5727    2.4717 H   0  0  0  0  0  0  0  0  0  0  0  0
    0.6233    3.8668    0.7831 H   0  0  0  0  0  0  0  0  0  0  0  0
  1  2  1  0  0  0  0
  2  3  1  0  0  0  0
  2  4  1  0  0  0  0
  2  5  1  0  0  0  0
  5  6  2  0  0  0  0
  5  7  1  0  0  0  0
  7  8  1  0  0  0  0
  7  9  1  0  0  0  0
  9 10  1  0  0  0  0
  9 11  1  0  0  0  0
  9 20  1  0  0  0  0
 11 12  1  0  0  0  0
 11 13  1  0  0  0  0
 11 14  1  0  0  0  0
 14 15  1  0  0  0  0
 14 16  1  0  0  0  0
 14 17  1  0  0  0  0
 17 18  1  0  0  0  0
 17 19  2  0  0  0  0
 20 21  2  0  0  0  0
 20 22  1  0  0  0  0
 22 23  1  0  0  0  0
 22 24  1  0  0  0  0
 24 25  1  0  0  0  0
 24 26  1  0  0  0  0
 24 27  1  0  0  0  0
M  CHG  1  18  -1
M  END
$$$$

  -OEChem-03222214043D

 27 26  0     1  0  0  0  0  0999 V2000
   -3.1801   -3.6188    1.2354 H   0  0  0  0  0  0  0  0  0  0  0  0
   -3.0862   -2.7002    0.6496 C   0  0  0  0  0  0  0  0  0  0  0  0
   -3.8274   -1.9788    1.0024 H   0  0  0  0  0  0  0  0  0  0  0  0
   -3.2838   -2.9304   -0.4004 H   0  0  0  0  0  0  0  0  0  0  0  0
   -1.6896   -2.1228    0.7969 C   0  0  0  0  0  0  0  0  0  0  0  0
   -0.8775   -2.6744    1.5237 O   0  0  0  0  0  0  0  0  0  0  0  0
   -1.3713   -0.9539    0.1417 N   0  0  0  0  0  0  0  0  0  0  0  0
   -2.1104   -0.4833   -0.3762 H   0  0  0  0  0  0  0  0  0  0  0  0
   -0.0653   -0.2817    0.1790 C   0  0  1  0  0  0  0  0  0  0  0  0
    0.5337   -0.6500    1.0180 H   0  0  0  0  0  0  0  0  0  0  0  0
    0.6907   -0.5817   -1.1281 C   0  0  0  0  0  0  0  0  0  0  0  0
    1.0326   -1.6219   -1.0901 H   0  0  0  0  0  0  0  0  0  0  0  0
    0.0156   -0.4891   -1.9855 H   0  0  0  0  0  0  0  0  0  0  0  0
    1.8976    0.3499   -1.3573 C   0  0  0  0  0  0  0  0  0  0  0  0
    1.5761    1.2536   -1.8832 H   0  0  0  0  0  0  0  0  0  0  0  0
    2.3212    0.6534   -0.3954 H   0  0  0  0  0  0  0  0  0  0  0  0
    3.0037   -0.3421   -2.1550 C   0  0  0  0  0  0  0  0  0  0  0  0
    2.7395   -0.7125   -3.3256 O   0  5  0  0  0  0  0  0  0  0  0  0
    4.1154   -0.4896   -1.5888 O   0  0  0  0  0  0  0  0  0  0  0  0
   -0.2860    1.2325    0.3942 C   0  0  0  0  0  0  0  0  0  0  0  0
   -1.2657    1.7933   -0.0924 O   0  0  0  0  0  0  0  0  0  0  0  0
    0.4906    1.9201    1.3090 N   0  0  0  0  0  0  0  0  0  0  0  0
    1.3544    1.4656    1.5924 H   0  0  0  0  0  0  0  0  0  0  0  0
    0.3471    3.3480    1.5523 C   0  0  0  0  0  0  0  0  0  0  0  0
   -0.6545    3.5724    1.9328 H   0  0  0  0  0  0  0  0  0  0  0  0
    1.0798    3.6776    2.2947 H   0  0  0  0  0  0  0  0  0  0  0  0
    0.5104    3.9119    0.6282 H   0  0  0  0  0  0  0  0  0  0  0  0
  1  2  1  0  0  0  0
  2  3  1  0  0  0  0
  2  4  1  0  0  0  0
  2  5  1  0  0  0  0
  5  6  2  0  0  0  0
  5  7  1  0  0  0  0
  7  8  1  0  0  0  0
  7  9  1  0  0  0  0
  9 10  1  0  0  0  0
  9 11  1  0  0  0  0
  9 20  1  0  0  0  0
 11 12  1  0  0  0  0
 11 13  1  0  0  0  0
 11 14  1  0  0  0  0
 14 15  1  0  0  0  0
 14 16  1  0  0  0  0
 14 17  1  0  0  0  0
 17 18  1  0  0  0  0
 17 19  2  0  0  0  0
 20 21  2  0  0  0  0
 20 22  1  0  0  0  0
 22 23  1  0  0  0  0
 22 24  1  0  0  0  0
 24 25  1  0  0  0  0
 24 26  1  0  0  0  0
 24 27  1  0  0  0  0
M  CHG  1  18  -1
M  END
$$$$

  -OEChem-03222214043D

 27 26  0     1  0  0  0  0  0999 V2000
   -3.1690   -3.6315    1.2232 H   0  0  0  0  0  0  0  0  0  0  0  0
   -3.0817   -2.7091    0.6422 C   0  0  0  0  0  0  0  0  0  0  0  0
   -3.8248   -1.9932    1.0022 H   0  0  0  0  0  0  0  0  0  0  0  0
   -3.2824   -2.9344   -0.4082 H   0  0  0  0  0  0  0  0  0  0  0  0
   -1.6873   -2.1258    0.7873 C   0  0  0  0  0  0  0  0  0  0  0  0
   -0.8688   -2.6783    1.5066 O   0  0  0  0  0  0  0  0  0  0  0  0
   -1.3757   -0.9535    0.1352 N   0  0  0  0  0  0  0  0  0  0  0  0
   -2.1180   -0.4827   -0.3779 H   0  0  0  0  0  0  0  0  0  0  0  0
   -0.0720   -0.2773    0.1713 C   0  0  1  0  0  0  0  0  0  0  0  0
    0.5241   -0.6444    1.0125 H   0  0  0  0  0  0  0  0  0  0  0  0
    0.6923   -0.5839   -1.1292 C   0  0  0  0  0  0  0  0  0  0  0  0
    1.0405   -1.6218   -1.0918 H   0  0  0  0  0  0  0  0  0  0  0  0
    0.0179   -0.4923   -1.9876 H   0  0  0  0  0  0  0  0  0  0  0  0
    1.8941    0.3524   -1.3537 C   0  0  0  0  0  0  0  0  0  0  0  0
    1.5460    1.3438   -1.6580 H   0  0  0  0  0  0  0  0  0  0  0  0
    2.4534    0.4605   -0.4194 H   0  0  0  0  0  0  0  0  0  0  0  0
    2.8362   -0.1908   -2.4291 C   0  0  0  0  0  0  0  0  0  0  0  0
    2.3731   -0.3683   -3.5829 O   0  5  0  0  0  0  0  0  0  0  0  0
    4.0247   -0.4162   -2.0909 O   0  0  0  0  0  0  0  0  0  0  0  0
   -0.2905    1.2362    0.3924 C   0  0  0  0  0  0  0  0  0  0  0  0
   -1.2795    1.7966   -0.0748 O   0  0  0  0  0  0  0  0  0  0  0  0
    0.4912    1.9185    1.3070 N   0  0  0  0  0  0  0  0  0  0  0  0
    1.3597    1.4655    1.5767 H   0  0  0  0  0  0  0  0  0  0  0  0
    0.3473    3.3448    1.5606 C   0  0  0  0  0  0  0  0  0  0  0  0
   -0.6530    3.5667    1.9463 H   0  0  0  0  0  0  0  0  0  0  0  0
    1.0825    3.6697    2.3027 H   0  0  0  0  0  0  0  0  0  0  0  0
    0.5072    3.9152    0.6399 H   0  0  0  0  0  0  0  0  0  0  0  0
  1  2  1  0  0  0  0
  2  3  1  0  0  0  0
  2  4  1  0  0  0  0
  2  5  1  0  0  0  0
  5  6  2  0  0  0  0
  5  7  1  0  0  0  0
  7  8  1  0  0  0  0
  7  9  1  0  0  0  0
  9 10  1  0  0  0  0
  9 11  1  0  0  0  0
  9 20  1  0  0  0  0
 11 12  1  0  0  0  0
 11 13  1  0  0  0  0
 11 14  1  0  0  0  0
 14 15  1  0  0  0  0
 14 16  1  0  0  0  0
 14 17  1  0  0  0  0
 17 18  1  0  0  0  0
 17 19  2  0  0  0  0
 20 21  2  0  0  0  0
 20 22  1  0  0  0  0
 22 23  1  0  0  0  0
 22 24  1  0  0  0  0
 24 25  1  0  0  0  0
 24 26  1  0  0  0  0
 24 27  1  0  0  0  0
M  CHG  1  18  -1
M  END
$$$$
