default_name
  -OEChem-02102213163D

 27 26  0     1  0  0  0  0  0999 V2000
   -3.2406   -3.5400    1.2326 H   0  0  0  0  0  0  0  0  0  0  0  0
   -3.1436   -2.6190    0.6606 C   0  0  0  0  0  0  0  0  0  0  0  0
   -3.8786   -1.8920    0.9996 H   0  0  0  0  0  0  0  0  0  0  0  0
   -3.2846   -2.8280   -0.3984 H   0  0  0  0  0  0  0  0  0  0  0  0
   -1.7586   -2.0580    0.8686 C   0  0  0  0  0  0  0  0  0  0  0  0
   -0.9666   -2.6340    1.6026 O   0  0  0  0  0  0  0  0  0  0  0  0
   -1.4866   -0.9220    0.2366 N   0  0  0  0  0  0  0  0  0  0  0  0
   -2.2166   -0.4790   -0.2994 H   0  0  0  0  0  0  0  0  0  0  0  0
   -0.1956   -0.2250    0.2596 C   0  0  1  0  0  0  0  0  0  0  0  0
    0.5755   -0.9013   -0.1105 H   0  0  0  0  0  0  0  0  0  0  0  0
   -0.2553    0.9811   -0.6992 C   0  0  0  0  0  0  0  0  0  0  0  0
   -0.4703    0.6044   -1.7004 H   0  0  0  0  0  0  0  0  0  0  0  0
   -1.0696    1.6413   -0.3971 H   0  0  0  0  0  0  0  0  0  0  0  0
    1.0539    1.7865   -0.7521 C   0  0  0  0  0  0  0  0  0  0  0  0
    1.2916    2.1482    0.2512 H   0  0  0  0  0  0  0  0  0  0  0  0
    1.8570    1.1153   -1.0675 H   0  0  0  0  0  0  0  0  0  0  0  0
    0.9933    2.9877   -1.7073 C   0  0  0  0  0  0  0  0  0  0  0  0
   -0.0194    3.1208   -2.4307 O   0  5  0  0  0  0  0  0  0  0  0  0
    1.9641    3.7763   -1.6793 O   0  0  0  0  0  0  0  0  0  0  0  0
    0.1881    0.1678    1.7015 C   0  0  0  0  0  0  0  0  0  0  0  0
    1.3379    0.0002    2.1133 O   0  0  0  0  0  0  0  0  0  0  0  0
   -0.7666    0.7145    2.4656 N   0  0  0  0  0  0  0  0  0  0  0  0
   -1.6971    0.7705    2.0790 H   0  0  0  0  0  0  0  0  0  0  0  0
   -0.5716    1.1232    3.8542 C   0  0  0  0  0  0  0  0  0  0  0  0
    0.3083    1.7643    3.9293 H   0  0  0  0  0  0  0  0  0  0  0  0
   -1.4485    1.6640    4.2131 H   0  0  0  0  0  0  0  0  0  0  0  0
   -0.4137    0.2381    4.4736 H   0  0  0  0  0  0  0  0  0  0  0  0
  5  6  2  0  0  0  0
  5  7  1  0  0  0  0
  2  3  1  0  0  0  0
  2  4  1  0  0  0  0
  2  5  1  0  0  0  0
  1  2  1  0  0  0  0
 20 21  2  0  0  0  0
 20 22  1  0  0  0  0
 17 18  1  0  0  0  0
 17 19  2  0  0  0  0
 14 15  1  0  0  0  0
 14 16  1  0  0  0  0
 14 17  1  0  0  0  0
 11 12  1  0  0  0  0
 11 13  1  0  0  0  0
 11 14  1  0  0  0  0
  9 10  1  0  0  0  0
  9 11  1  0  0  0  0
  9 20  1  0  0  0  0
  7  8  1  0  0  0  0
  7  9  1  0  0  0  0
 24 25  1  0  0  0  0
 24 26  1  0  0  0  0
 24 27  1  0  0  0  0
 22 23  1  0  0  0  0
 22 24  1  0  0  0  0
M  CHG  1  18  -1
M  END
$$$$
default_name
  -OEChem-02102213163D

 27 26  0     1  0  0  0  0  0999 V2000
   -3.2406   -3.5400    1.2326 H   0  0  0  0  0  0  0  0  0  0  0  0
   -3.1436   -2.6190    0.6606 C   0  0  0  0  0  0  0  0  0  0  0  0
   -3.8786   -1.8920    0.9996 H   0  0  0  0  0  0  0  0  0  0  0  0
   -3.2846   -2.8280   -0.3984 H   0  0  0  0  0  0  0  0  0  0  0  0
   -1.7586   -2.0580    0.8686 C   0  0  0  0  0  0  0  0  0  0  0  0
   -0.9666   -2.6340    1.6026 O   0  0  0  0  0  0  0  0  0  0  0  0
   -1.4866   -0.9220    0.2366 N   0  0  0  0  0  0  0  0  0  0  0  0
   -2.2166   -0.4790   -0.2994 H   0  0  0  0  0  0  0  0  0  0  0  0
   -0.1956   -0.2250    0.2596 C   0  0  1  0  0  0  0  0  0  0  0  0
    0.5755   -0.9013   -0.1105 H   0  0  0  0  0  0  0  0  0  0  0  0
   -0.2553    0.9811   -0.6992 C   0  0  0  0  0  0  0  0  0  0  0  0
   -0.4703    0.6044   -1.7004 H   0  0  0  0  0  0  0  0  0  0  0  0
   -1.0696    1.6413   -0.3971 H   0  0  0  0  0  0  0  0  0  0  0  0
    1.0539    1.7865   -0.7521 C   0  0  0  0  0  0  0  0  0  0  0  0
    1.4331    1.9191    0.2641 H   0  0  0  0  0  0  0  0  0  0  0  0
    1.7909    1.2066   -1.3139 H   0  0  0  0  0  0  0  0  0  0  0  0
    0.8942    3.1686   -1.4027 C   0  0  0  0  0  0  0  0  0  0  0  0
   -0.2030    3.4520   -1.9339 O   0  5  0  0  0  0  0  0  0  0  0  0
    1.8787    3.9377   -1.3348 O   0  0  0  0  0  0  0  0  0  0  0  0
    0.1881    0.1678    1.7015 C   0  0  0  0  0  0  0  0  0  0  0  0
    1.3379    0.0002    2.1133 O   0  0  0  0  0  0  0  0  0  0  0  0
   -0.7666    0.7145    2.4656 N   0  0  0  0  0  0  0  0  0  0  0  0
   -1.6971    0.7705    2.0790 H   0  0  0  0  0  0  0  0  0  0  0  0
   -0.5716    1.1232    3.8542 C   0  0  0  0  0  0  0  0  0  0  0  0
    0.3083    1.7643    3.9293 H   0  0  0  0  0  0  0  0  0  0  0  0
   -1.4485    1.6640    4.2131 H   0  0  0  0  0  0  0  0  0  0  0  0
   -0.4137    0.2381    4.4736 H   0  0  0  0  0  0  0  0  0  0  0  0
  5  6  2  0  0  0  0
  5  7  1  0  0  0  0
  2  3  1  0  0  0  0
  2  4  1  0  0  0  0
  2  5  1  0  0  0  0
  1  2  1  0  0  0  0
 20 21  2  0  0  0  0
 20 22  1  0  0  0  0
 17 18  1  0  0  0  0
 17 19  2  0  0  0  0
 14 15  1  0  0  0  0
 14 16  1  0  0  0  0
 14 17  1  0  0  0  0
 11 12  1  0  0  0  0
 11 13  1  0  0  0  0
 11 14  1  0  0  0  0
  9 10  1  0  0  0  0
  9 11  1  0  0  0  0
  9 20  1  0  0  0  0
  7  8  1  0  0  0  0
  7  9  1  0  0  0  0
 24 25  1  0  0  0  0
 24 26  1  0  0  0  0
 24 27  1  0  0  0  0
 22 23  1  0  0  0  0
 22 24  1  0  0  0  0
M  CHG  1  18  -1
M  END
$$$$
default_name
  -OEChem-02102213163D

 27 26  0     1  0  0  0  0  0999 V2000
   -3.2406   -3.5400    1.2326 H   0  0  0  0  0  0  0  0  0  0  0  0
   -3.1436   -2.6190    0.6606 C   0  0  0  0  0  0  0  0  0  0  0  0
   -3.8786   -1.8920    0.9996 H   0  0  0  0  0  0  0  0  0  0  0  0
   -3.2846   -2.8280   -0.3984 H   0  0  0  0  0  0  0  0  0  0  0  0
   -1.7586   -2.0580    0.8686 C   0  0  0  0  0  0  0  0  0  0  0  0
   -0.9666   -2.6340    1.6026 O   0  0  0  0  0  0  0  0  0  0  0  0
   -1.4866   -0.9220    0.2366 N   0  0  0  0  0  0  0  0  0  0  0  0
   -2.2166   -0.4790   -0.2994 H   0  0  0  0  0  0  0  0  0  0  0  0
   -0.1956   -0.2250    0.2596 C   0  0  1  0  0  0  0  0  0  0  0  0
    0.5755   -0.9013   -0.1105 H   0  0  0  0  0  0  0  0  0  0  0  0
   -0.2553    0.9811   -0.6992 C   0  0  0  0  0  0  0  0  0  0  0  0
   -0.4703    0.6044   -1.7004 H   0  0  0  0  0  0  0  0  0  0  0  0
   -1.0696    1.6413   -0.3971 H   0  0  0  0  0  0  0  0  0  0  0  0
    1.0539    1.7865   -0.7521 C   0  0  0  0  0  0  0  0  0  0  0  0
    1.5694    1.6937    0.2068 H   0  0  0  0  0  0  0  0  0  0  0  0
    1.6944    1.3497   -1.5228 H   0  0  0  0  0  0  0  0  0  0  0  0
    0.8415    3.2772   -1.0551 C   0  0  0  0  0  0  0  0  0  0  0  0
   -0.3101    3.6640   -1.3562 O   0  5  0  0  0  0  0  0  0  0  0  0
    1.8444    4.0184   -0.9550 O   0  0  0  0  0  0  0  0  0  0  0  0
    0.1881    0.1678    1.7015 C   0  0  0  0  0  0  0  0  0  0  0  0
    1.3379    0.0002    2.1133 O   0  0  0  0  0  0  0  0  0  0  0  0
   -0.7666    0.7145    2.4656 N   0  0  0  0  0  0  0  0  0  0  0  0
   -1.6971    0.7705    2.0790 H   0  0  0  0  0  0  0  0  0  0  0  0
   -0.5716    1.1232    3.8542 C   0  0  0  0  0  0  0  0  0  0  0  0
    0.3083    1.7643    3.9293 H   0  0  0  0  0  0  0  0  0  0  0  0
   -1.4485    1.6640    4.2131 H   0  0  0  0  0  0  0  0  0  0  0  0
   -0.4137    0.2381    4.4736 H   0  0  0  0  0  0  0  0  0  0  0  0
  5  6  2  0  0  0  0
  5  7  1  0  0  0  0
  2  3  1  0  0  0  0
  2  4  1  0  0  0  0
  2  5  1  0  0  0  0
  1  2  1  0  0  0  0
 20 21  2  0  0  0  0
 20 22  1  0  0  0  0
 17 18  1  0  0  0  0
 17 19  2  0  0  0  0
 14 15  1  0  0  0  0
 14 16  1  0  0  0  0
 14 17  1  0  0  0  0
 11 12  1  0  0  0  0
 11 13  1  0  0  0  0
 11 14  1  0  0  0  0
  9 10  1  0  0  0  0
  9 11  1  0  0  0  0
  9 20  1  0  0  0  0
  7  8  1  0  0  0  0
  7  9  1  0  0  0  0
 24 25  1  0  0  0  0
 24 26  1  0  0  0  0
 24 27  1  0  0  0  0
 22 23  1  0  0  0  0
 22 24  1  0  0  0  0
M  CHG  1  18  -1
M  END
$$$$
default_name
  -OEChem-02102213163D

 27 26  0     1  0  0  0  0  0999 V2000
   -3.2406   -3.5400    1.2326 H   0  0  0  0  0  0  0  0  0  0  0  0
   -3.1436   -2.6190    0.6606 C   0  0  0  0  0  0  0  0  0  0  0  0
   -3.8786   -1.8920    0.9996 H   0  0  0  0  0  0  0  0  0  0  0  0
   -3.2846   -2.8280   -0.3984 H   0  0  0  0  0  0  0  0  0  0  0  0
   -1.7586   -2.0580    0.8686 C   0  0  0  0  0  0  0  0  0  0  0  0
   -0.9666   -2.6340    1.6026 O   0  0  0  0  0  0  0  0  0  0  0  0
   -1.4866   -0.9220    0.2366 N   0  0  0  0  0  0  0  0  0  0  0  0
   -2.2166   -0.4790   -0.2994 H   0  0  0  0  0  0  0  0  0  0  0  0
   -0.1956   -0.2250    0.2596 C   0  0  1  0  0  0  0  0  0  0  0  0
    0.5755   -0.9013   -0.1105 H   0  0  0  0  0  0  0  0  0  0  0  0
   -0.2553    0.9811   -0.6992 C   0  0  0  0  0  0  0  0  0  0  0  0
   -0.4703    0.6044   -1.7004 H   0  0  0  0  0  0  0  0  0  0  0  0
   -1.0696    1.6413   -0.3971 H   0  0  0  0  0  0  0  0  0  0  0  0
    1.0539    1.7865   -0.7521 C   0  0  0  0  0  0  0  0  0  0  0  0
    1.6914    1.4874    0.0834 H   0  0  0  0  0  0  0  0  0  0  0  0
    1.5742    1.5348   -1.6800 H   0  0  0  0  0  0  0  0  0  0  0  0
    0.8387    3.3059   -0.6883 C   0  0  0  0  0  0  0  0  0  0  0  0
   -0.3334    3.7424   -0.7369 O   0  5  0  0  0  0  0  0  0  0  0  0
    1.8635    4.0130   -0.5657 O   0  0  0  0  0  0  0  0  0  0  0  0
    0.1881    0.1678    1.7015 C   0  0  0  0  0  0  0  0  0  0  0  0
    1.3379    0.0002    2.1133 O   0  0  0  0  0  0  0  0  0  0  0  0
   -0.7666    0.7145    2.4656 N   0  0  0  0  0  0  0  0  0  0  0  0
   -1.6971    0.7705    2.0790 H   0  0  0  0  0  0  0  0  0  0  0  0
   -0.5716    1.1232    3.8542 C   0  0  0  0  0  0  0  0  0  0  0  0
    0.3083    1.7643    3.9293 H   0  0  0  0  0  0  0  0  0  0  0  0
   -1.4485    1.6640    4.2131 H   0  0  0  0  0  0  0  0  0  0  0  0
   -0.4137    0.2381    4.4736 H   0  0  0  0  0  0  0  0  0  0  0  0
  5  6  2  0  0  0  0
  5  7  1  0  0  0  0
  2  3  1  0  0  0  0
  2  4  1  0  0  0  0
  2  5  1  0  0  0  0
  1  2  1  0  0  0  0
 20 21  2  0  0  0  0
 20 22  1  0  0  0  0
 17 18  1  0  0  0  0
 17 19  2  0  0  0  0
 14 15  1  0  0  0  0
 14 16  1  0  0  0  0
 14 17  1  0  0  0  0
 11 12  1  0  0  0  0
 11 13  1  0  0  0  0
 11 14  1  0  0  0  0
  9 10  1  0  0  0  0
  9 11  1  0  0  0  0
  9 20  1  0  0  0  0
  7  8  1  0  0  0  0
  7  9  1  0  0  0  0
 24 25  1  0  0  0  0
 24 26  1  0  0  0  0
 24 27  1  0  0  0  0
 22 23  1  0  0  0  0
 22 24  1  0  0  0  0
M  CHG  1  18  -1
M  END
$$$$
default_name
  -OEChem-02102213163D

 27 26  0     1  0  0  0  0  0999 V2000
   -3.2406   -3.5400    1.2326 H   0  0  0  0  0  0  0  0  0  0  0  0
   -3.1436   -2.6190    0.6606 C   0  0  0  0  0  0  0  0  0  0  0  0
   -3.8786   -1.8920    0.9996 H   0  0  0  0  0  0  0  0  0  0  0  0
   -3.2846   -2.8280   -0.3984 H   0  0  0  0  0  0  0  0  0  0  0  0
   -1.7586   -2.0580    0.8686 C   0  0  0  0  0  0  0  0  0  0  0  0
   -0.9666   -2.6340    1.6026 O   0  0  0  0  0  0  0  0  0  0  0  0
   -1.4866   -0.9220    0.2366 N   0  0  0  0  0  0  0  0  0  0  0  0
   -2.2166   -0.4790   -0.2994 H   0  0  0  0  0  0  0  0  0  0  0  0
   -0.1956   -0.2250    0.2596 C   0  0  1  0  0  0  0  0  0  0  0  0
    0.5755   -0.9013   -0.1105 H   0  0  0  0  0  0  0  0  0  0  0  0
   -0.2553    0.9811   -0.6992 C   0  0  0  0  0  0  0  0  0  0  0  0
   -0.4703    0.6044   -1.7004 H   0  0  0  0  0  0  0  0  0  0  0  0
   -1.0696    1.6413   -0.3971 H   0  0  0  0  0  0  0  0  0  0  0  0
    1.0539    1.7865   -0.7521 C   0  0  0  0  0  0  0  0  0  0  0  0
    1.7906    1.3142   -0.0978 H   0  0  0  0  0  0  0  0  0  0  0  0
    1.4384    1.7493   -1.7748 H   0  0  0  0  0  0  0  0  0  0  0  0
    0.8859    3.2529   -0.3273 C   0  0  0  0  0  0  0  0  0  0  0  0
   -0.2712    3.6820   -0.1183 O   0  5  0  0  0  0  0  0  0  0  0  0
    1.9346    3.9219   -0.1934 O   0  0  0  0  0  0  0  0  0  0  0  0
    0.1881    0.1678    1.7015 C   0  0  0  0  0  0  0  0  0  0  0  0
    1.3379    0.0002    2.1133 O   0  0  0  0  0  0  0  0  0  0  0  0
   -0.7666    0.7145    2.4656 N   0  0  0  0  0  0  0  0  0  0  0  0
   -1.6971    0.7705    2.0790 H   0  0  0  0  0  0  0  0  0  0  0  0
   -0.5716    1.1232    3.8542 C   0  0  0  0  0  0  0  0  0  0  0  0
    0.3083    1.7643    3.9293 H   0  0  0  0  0  0  0  0  0  0  0  0
   -1.4485    1.6640    4.2131 H   0  0  0  0  0  0  0  0  0  0  0  0
   -0.4137    0.2381    4.4736 H   0  0  0  0  0  0  0  0  0  0  0  0
  5  6  2  0  0  0  0
  5  7  1  0  0  0  0
  2  3  1  0  0  0  0
  2  4  1  0  0  0  0
  2  5  1  0  0  0  0
  1  2  1  0  0  0  0
 20 21  2  0  0  0  0
 20 22  1  0  0  0  0
 17 18  1  0  0  0  0
 17 19  2  0  0  0  0
 14 15  1  0  0  0  0
 14 16  1  0  0  0  0
 14 17  1  0  0  0  0
 11 12  1  0  0  0  0
 11 13  1  0  0  0  0
 11 14  1  0  0  0  0
  9 10  1  0  0  0  0
  9 11  1  0  0  0  0
  9 20  1  0  0  0  0
  7  8  1  0  0  0  0
  7  9  1  0  0  0  0
 24 25  1  0  0  0  0
 24 26  1  0  0  0  0
 24 27  1  0  0  0  0
 22 23  1  0  0  0  0
 22 24  1  0  0  0  0
M  CHG  1  18  -1
M  END
$$$$
default_name
  -OEChem-02102213163D

 27 26  0     1  0  0  0  0  0999 V2000
   -3.2406   -3.5400    1.2326 H   0  0  0  0  0  0  0  0  0  0  0  0
   -3.1436   -2.6190    0.6606 C   0  0  0  0  0  0  0  0  0  0  0  0
   -3.8786   -1.8920    0.9996 H   0  0  0  0  0  0  0  0  0  0  0  0
   -3.2846   -2.8280   -0.3984 H   0  0  0  0  0  0  0  0  0  0  0  0
   -1.7586   -2.0580    0.8686 C   0  0  0  0  0  0  0  0  0  0  0  0
   -0.9666   -2.6340    1.6026 O   0  0  0  0  0  0  0  0  0  0  0  0
   -1.4866   -0.9220    0.2366 N   0  0  0  0  0  0  0  0  0  0  0  0
   -2.2166   -0.4790   -0.2994 H   0  0  0  0  0  0  0  0  0  0  0  0
   -0.1956   -0.2250    0.2596 C   0  0  1  0  0  0  0  0  0  0  0  0
    0.5755   -0.9013   -0.1105 H   0  0  0  0  0  0  0  0  0  0  0  0
   -0.2553    0.9811   -0.6992 C   0  0  0  0  0  0  0  0  0  0  0  0
   -0.4703    0.6044   -1.7004 H   0  0  0  0  0  0  0  0  0  0  0  0
   -1.0696    1.6413   -0.3971 H   0  0  0  0  0  0  0  0  0  0  0  0
    1.0539    1.7865   -0.7521 C   0  0  0  0  0  0  0  0  0  0  0  0
    1.8603    1.1860   -0.3244 H   0  0  0  0  0  0  0  0  0  0  0  0
    1.2963    1.9786   -1.8006 H   0  0  0  0  0  0  0  0  0  0  0  0
    0.9799    3.1217    0.0034 C   0  0  0  0  0  0  0  0  0  0  0  0
   -0.1278    3.4868    0.4575 O   0  5  0  0  0  0  0  0  0  0  0  0
    2.0529    3.7512    0.1365 O   0  0  0  0  0  0  0  0  0  0  0  0
    0.1881    0.1678    1.7015 C   0  0  0  0  0  0  0  0  0  0  0  0
    1.3379    0.0002    2.1133 O   0  0  0  0  0  0  0  0  0  0  0  0
   -0.7666    0.7145    2.4656 N   0  0  0  0  0  0  0  0  0  0  0  0
   -1.6971    0.7705    2.0790 H   0  0  0  0  0  0  0  0  0  0  0  0
   -0.5716    1.1232    3.8542 C   0  0  0  0  0  0  0  0  0  0  0  0
    0.3083    1.7643    3.9293 H   0  0  0  0  0  0  0  0  0  0  0  0
   -1.4485    1.6640    4.2131 H   0  0  0  0  0  0  0  0  0  0  0  0
   -0.4137    0.2381    4.4736 H   0  0  0  0  0  0  0  0  0  0  0  0
  5  6  2  0  0  0  0
  5  7  1  0  0  0  0
  2  3  1  0  0  0  0
  2  4  1  0  0  0  0
  2  5  1  0  0  0  0
  1  2  1  0  0  0  0
 20 21  2  0  0  0  0
 20 22  1  0  0  0  0
 17 18  1  0  0  0  0
 17 19  2  0  0  0  0
 14 15  1  0  0  0  0
 14 16  1  0  0  0  0
 14 17  1  0  0  0  0
 11 12  1  0  0  0  0
 11 13  1  0  0  0  0
 11 14  1  0  0  0  0
  9 10  1  0  0  0  0
  9 11  1  0  0  0  0
  9 20  1  0  0  0  0
  7  8  1  0  0  0  0
  7  9  1  0  0  0  0
 24 25  1  0  0  0  0
 24 26  1  0  0  0  0
 24 27  1  0  0  0  0
 22 23  1  0  0  0  0
 22 24  1  0  0  0  0
M  CHG  1  18  -1
M  END
$$$$
default_name
  -OEChem-02102213163D

 27 26  0     1  0  0  0  0  0999 V2000
   -3.2406   -3.5400    1.2326 H   0  0  0  0  0  0  0  0  0  0  0  0
   -3.1436   -2.6190    0.6606 C   0  0  0  0  0  0  0  0  0  0  0  0
   -3.8786   -1.8920    0.9996 H   0  0  0  0  0  0  0  0  0  0  0  0
   -3.2846   -2.8280   -0.3984 H   0  0  0  0  0  0  0  0  0  0  0  0
   -1.7586   -2.0580    0.8686 C   0  0  0  0  0  0  0  0  0  0  0  0
   -0.9666   -2.6340    1.6026 O   0  0  0  0  0  0  0  0  0  0  0  0
   -1.4866   -0.9220    0.2366 N   0  0  0  0  0  0  0  0  0  0  0  0
   -2.2166   -0.4790   -0.2994 H   0  0  0  0  0  0  0  0  0  0  0  0
   -0.1956   -0.2250    0.2596 C   0  0  1  0  0  0  0  0  0  0  0  0
    0.5755   -0.9013   -0.1105 H   0  0  0  0  0  0  0  0  0  0  0  0
   -0.2553    0.9811   -0.6992 C   0  0  0  0  0  0  0  0  0  0  0  0
   -0.4703    0.6044   -1.7004 H   0  0  0  0  0  0  0  0  0  0  0  0
   -1.0696    1.6413   -0.3971 H   0  0  0  0  0  0  0  0  0  0  0  0
    1.0539    1.7865   -0.7521 C   0  0  0  0  0  0  0  0  0  0  0  0
    1.8958    1.1114   -0.5810 H   0  0  0  0  0  0  0  0  0  0  0  0
    1.1576    2.2070   -1.7558 H   0  0  0  0  0  0  0  0  0  0  0  0
    1.1144    2.9213    0.2811 C   0  0  0  0  0  0  0  0  0  0  0  0
    0.0870    3.1701    0.9512 O   0  5  0  0  0  0  0  0  0  0  0  0
    2.2104    3.5126    0.4015 O   0  0  0  0  0  0  0  0  0  0  0  0
    0.1881    0.1678    1.7015 C   0  0  0  0  0  0  0  0  0  0  0  0
    1.3379    0.0002    2.1133 O   0  0  0  0  0  0  0  0  0  0  0  0
   -0.7666    0.7145    2.4656 N   0  0  0  0  0  0  0  0  0  0  0  0
   -1.6971    0.7705    2.0790 H   0  0  0  0  0  0  0  0  0  0  0  0
   -0.5716    1.1232    3.8542 C   0  0  0  0  0  0  0  0  0  0  0  0
    0.3083    1.7643    3.9293 H   0  0  0  0  0  0  0  0  0  0  0  0
   -1.4485    1.6640    4.2131 H   0  0  0  0  0  0  0  0  0  0  0  0
   -0.4137    0.2381    4.4736 H   0  0  0  0  0  0  0  0  0  0  0  0
  5  6  2  0  0  0  0
  5  7  1  0  0  0  0
  2  3  1  0  0  0  0
  2  4  1  0  0  0  0
  2  5  1  0  0  0  0
  1  2  1  0  0  0  0
 20 21  2  0  0  0  0
 20 22  1  0  0  0  0
 17 18  1  0  0  0  0
 17 19  2  0  0  0  0
 14 15  1  0  0  0  0
 14 16  1  0  0  0  0
 14 17  1  0  0  0  0
 11 12  1  0  0  0  0
 11 13  1  0  0  0  0
 11 14  1  0  0  0  0
  9 10  1  0  0  0  0
  9 11  1  0  0  0  0
  9 20  1  0  0  0  0
  7  8  1  0  0  0  0
  7  9  1  0  0  0  0
 24 25  1  0  0  0  0
 24 26  1  0  0  0  0
 24 27  1  0  0  0  0
 22 23  1  0  0  0  0
 22 24  1  0  0  0  0
M  CHG  1  18  -1
M  END
$$$$
default_name
  -OEChem-02102213163D

 27 26  0     1  0  0  0  0  0999 V2000
   -3.2406   -3.5400    1.2326 H   0  0  0  0  0  0  0  0  0  0  0  0
   -3.1436   -2.6190    0.6606 C   0  0  0  0  0  0  0  0  0  0  0  0
   -3.8786   -1.8920    0.9996 H   0  0  0  0  0  0  0  0  0  0  0  0
   -3.2846   -2.8280   -0.3984 H   0  0  0  0  0  0  0  0  0  0  0  0
   -1.7586   -2.0580    0.8686 C   0  0  0  0  0  0  0  0  0  0  0  0
   -0.9666   -2.6340    1.6026 O   0  0  0  0  0  0  0  0  0  0  0  0
   -1.4866   -0.9220    0.2366 N   0  0  0  0  0  0  0  0  0  0  0  0
   -2.2166   -0.4790   -0.2994 H   0  0  0  0  0  0  0  0  0  0  0  0
   -0.1956   -0.2250    0.2596 C   0  0  1  0  0  0  0  0  0  0  0  0
    0.5755   -0.9013   -0.1105 H   0  0  0  0  0  0  0  0  0  0  0  0
   -0.2553    0.9811   -0.6992 C   0  0  0  0  0  0  0  0  0  0  0  0
   -0.4703    0.6044   -1.7004 H   0  0  0  0  0  0  0  0  0  0  0  0
   -1.0696    1.6413   -0.3971 H   0  0  0  0  0  0  0  0  0  0  0  0
    1.0539    1.7865   -0.7521 C   0  0  0  0  0  0  0  0  0  0  0  0
    1.8947    1.0956   -0.8501 H   0  0  0  0  0  0  0  0  0  0  0  0
    1.0317    2.4190   -1.6434 H   0  0  0  0  0  0  0  0  0  0  0  0
    1.2802    2.6654    0.4870 C   0  0  0  0  0  0  0  0  0  0  0  0
    0.3585    2.7535    1.3292 O   0  5  0  0  0  0  0  0  0  0  0  0
    2.3964    3.2223    0.5835 O   0  0  0  0  0  0  0  0  0  0  0  0
    0.1881    0.1678    1.7015 C   0  0  0  0  0  0  0  0  0  0  0  0
    1.3379    0.0002    2.1133 O   0  0  0  0  0  0  0  0  0  0  0  0
   -0.7666    0.7145    2.4656 N   0  0  0  0  0  0  0  0  0  0  0  0
   -1.6971    0.7705    2.0790 H   0  0  0  0  0  0  0  0  0  0  0  0
   -0.5716    1.1232    3.8542 C   0  0  0  0  0  0  0  0  0  0  0  0
    0.3083    1.7643    3.9293 H   0  0  0  0  0  0  0  0  0  0  0  0
   -1.4485    1.6640    4.2131 H   0  0  0  0  0  0  0  0  0  0  0  0
   -0.4137    0.2381    4.4736 H   0  0  0  0  0  0  0  0  0  0  0  0
  5  6  2  0  0  0  0
  5  7  1  0  0  0  0
  2  3  1  0  0  0  0
  2  4  1  0  0  0  0
  2  5  1  0  0  0  0
  1  2  1  0  0  0  0
 20 21  2  0  0  0  0
 20 22  1  0  0  0  0
 17 18  1  0  0  0  0
 17 19  2  0  0  0  0
 14 15  1  0  0  0  0
 14 16  1  0  0  0  0
 14 17  1  0  0  0  0
 11 12  1  0  0  0  0
 11 13  1  0  0  0  0
 11 14  1  0  0  0  0
  9 10  1  0  0  0  0
  9 11  1  0  0  0  0
  9 20  1  0  0  0  0
  7  8  1  0  0  0  0
  7  9  1  0  0  0  0
 24 25  1  0  0  0  0
 24 26  1  0  0  0  0
 24 27  1  0  0  0  0
 22 23  1  0  0  0  0
 22 24  1  0  0  0  0
M  CHG  1  18  -1
M  END
$$$$
default_name
  -OEChem-02102213163D

 27 26  0     1  0  0  0  0  0999 V2000
   -3.2406   -3.5400    1.2326 H   0  0  0  0  0  0  0  0  0  0  0  0
   -3.1436   -2.6190    0.6606 C   0  0  0  0  0  0  0  0  0  0  0  0
   -3.8786   -1.8920    0.9996 H   0  0  0  0  0  0  0  0  0  0  0  0
   -3.2846   -2.8280   -0.3984 H   0  0  0  0  0  0  0  0  0  0  0  0
   -1.7586   -2.0580    0.8686 C   0  0  0  0  0  0  0  0  0  0  0  0
   -0.9666   -2.6340    1.6026 O   0  0  0  0  0  0  0  0  0  0  0  0
   -1.4866   -0.9220    0.2366 N   0  0  0  0  0  0  0  0  0  0  0  0
   -2.2166   -0.4790   -0.2994 H   0  0  0  0  0  0  0  0  0  0  0  0
   -0.1956   -0.2250    0.2596 C   0  0  1  0  0  0  0  0  0  0  0  0
    0.5755   -0.9013   -0.1105 H   0  0  0  0  0  0  0  0  0  0  0  0
   -0.2553    0.9811   -0.6992 C   0  0  0  0  0  0  0  0  0  0  0  0
   -0.4703    0.6044   -1.7004 H   0  0  0  0  0  0  0  0  0  0  0  0
   -1.0696    1.6413   -0.3971 H   0  0  0  0  0  0  0  0  0  0  0  0
    1.0539    1.7865   -0.7521 C   0  0  0  0  0  0  0  0  0  0  0  0
    1.8570    1.1396   -1.1133 H   0  0  0  0  0  0  0  0  0  0  0  0
    0.9272    2.6002   -1.4711 H   0  0  0  0  0  0  0  0  0  0  0  0
    1.4659    2.3713    0.6070 C   0  0  0  0  0  0  0  0  0  0  0  0
    0.6684    2.2654    1.5657 O   0  5  0  0  0  0  0  0  0  0  0  0
    2.5980    2.9001    0.6702 O   0  0  0  0  0  0  0  0  0  0  0  0
    0.1881    0.1678    1.7015 C   0  0  0  0  0  0  0  0  0  0  0  0
    1.3379    0.0002    2.1133 O   0  0  0  0  0  0  0  0  0  0  0  0
   -0.7666    0.7145    2.4656 N   0  0  0  0  0  0  0  0  0  0  0  0
   -1.6971    0.7705    2.0790 H   0  0  0  0  0  0  0  0  0  0  0  0
   -0.5716    1.1232    3.8542 C   0  0  0  0  0  0  0  0  0  0  0  0
    0.3083    1.7643    3.9293 H   0  0  0  0  0  0  0  0  0  0  0  0
   -1.4485    1.6640    4.2131 H   0  0  0  0  0  0  0  0  0  0  0  0
   -0.4137    0.2381    4.4736 H   0  0  0  0  0  0  0  0  0  0  0  0
  5  6  2  0  0  0  0
  5  7  1  0  0  0  0
  2  3  1  0  0  0  0
  2  4  1  0  0  0  0
  2  5  1  0  0  0  0
  1  2  1  0  0  0  0
 20 21  2  0  0  0  0
 20 22  1  0  0  0  0
 17 18  1  0  0  0  0
 17 19  2  0  0  0  0
 14 15  1  0  0  0  0
 14 16  1  0  0  0  0
 14 17  1  0  0  0  0
 11 12  1  0  0  0  0
 11 13  1  0  0  0  0
 11 14  1  0  0  0  0
  9 10  1  0  0  0  0
  9 11  1  0  0  0  0
  9 20  1  0  0  0  0
  7  8  1  0  0  0  0
  7  9  1  0  0  0  0
 24 25  1  0  0  0  0
 24 26  1  0  0  0  0
 24 27  1  0  0  0  0
 22 23  1  0  0  0  0
 22 24  1  0  0  0  0
M  CHG  1  18  -1
M  END
$$$$
default_name
  -OEChem-02102213163D

 27 26  0     1  0  0  0  0  0999 V2000
   -3.2406   -3.5400    1.2326 H   0  0  0  0  0  0  0  0  0  0  0  0
   -3.1436   -2.6190    0.6606 C   0  0  0  0  0  0  0  0  0  0  0  0
   -3.8786   -1.8920    0.9996 H   0  0  0  0  0  0  0  0  0  0  0  0
   -3.2846   -2.8280   -0.3984 H   0  0  0  0  0  0  0  0  0  0  0  0
   -1.7586   -2.0580    0.8686 C   0  0  0  0  0  0  0  0  0  0  0  0
   -0.9666   -2.6340    1.6026 O   0  0  0  0  0  0  0  0  0  0  0  0
   -1.4866   -0.9220    0.2366 N   0  0  0  0  0  0  0  0  0  0  0  0
   -2.2166   -0.4790   -0.2994 H   0  0  0  0  0  0  0  0  0  0  0  0
   -0.1956   -0.2250    0.2596 C   0  0  1  0  0  0  0  0  0  0  0  0
    0.5755   -0.9013   -0.1105 H   0  0  0  0  0  0  0  0  0  0  0  0
   -0.2553    0.9811   -0.6992 C   0  0  0  0  0  0  0  0  0  0  0  0
   -0.4703    0.6044   -1.7004 H   0  0  0  0  0  0  0  0  0  0  0  0
   -1.0696    1.6413   -0.3971 H   0  0  0  0  0  0  0  0  0  0  0  0
    1.0539    1.7865   -0.7521 C   0  0  0  0  0  0  0  0  0  0  0  0
    1.7852    1.2405   -1.3528 H   0  0  0  0  0  0  0  0  0  0  0  0
    0.8513    2.7381   -1.2506 H   0  0  0  0  0  0  0  0  0  0  0  0
    1.6590    2.0592    0.6330 C   0  0  0  0  0  0  0  0  0  0  0  0
    0.9953    1.7390    1.6447 O   0  5  0  0  0  0  0  0  0  0  0  0
    2.8017    2.5681    0.6556 O   0  0  0  0  0  0  0  0  0  0  0  0
    0.1881    0.1678    1.7015 C   0  0  0  0  0  0  0  0  0  0  0  0
    1.3379    0.0002    2.1133 O   0  0  0  0  0  0  0  0  0  0  0  0
   -0.7666    0.7145    2.4656 N   0  0  0  0  0  0  0  0  0  0  0  0
   -1.6971    0.7705    2.0790 H   0  0  0  0  0  0  0  0  0  0  0  0
   -0.5716    1.1232    3.8542 C   0  0  0  0  0  0  0  0  0  0  0  0
    0.3083    1.7643    3.9293 H   0  0  0  0  0  0  0  0  0  0  0  0
   -1.4485    1.6640    4.2131 H   0  0  0  0  0  0  0  0  0  0  0  0
   -0.4137    0.2381    4.4736 H   0  0  0  0  0  0  0  0  0  0  0  0
  5  6  2  0  0  0  0
  5  7  1  0  0  0  0
  2  3  1  0  0  0  0
  2  4  1  0  0  0  0
  2  5  1  0  0  0  0
  1  2  1  0  0  0  0
 20 21  2  0  0  0  0
 20 22  1  0  0  0  0
 17 18  1  0  0  0  0
 17 19  2  0  0  0  0
 14 15  1  0  0  0  0
 14 16  1  0  0  0  0
 14 17  1  0  0  0  0
 11 12  1  0  0  0  0
 11 13  1  0  0  0  0
 11 14  1  0  0  0  0
  9 10  1  0  0  0  0
  9 11  1  0  0  0  0
  9 20  1  0  0  0  0
  7  8  1  0  0  0  0
  7  9  1  0  0  0  0
 24 25  1  0  0  0  0
 24 26  1  0  0  0  0
 24 27  1  0  0  0  0
 22 23  1  0  0  0  0
 22 24  1  0  0  0  0
M  CHG  1  18  -1
M  END
$$$$
default_name
  -OEChem-02102213163D

 27 26  0     1  0  0  0  0  0999 V2000
   -3.2406   -3.5400    1.2326 H   0  0  0  0  0  0  0  0  0  0  0  0
   -3.1436   -2.6190    0.6606 C   0  0  0  0  0  0  0  0  0  0  0  0
   -3.8786   -1.8920    0.9996 H   0  0  0  0  0  0  0  0  0  0  0  0
   -3.2846   -2.8280   -0.3984 H   0  0  0  0  0  0  0  0  0  0  0  0
   -1.7586   -2.0580    0.8686 C   0  0  0  0  0  0  0  0  0  0  0  0
   -0.9666   -2.6340    1.6026 O   0  0  0  0  0  0  0  0  0  0  0  0
   -1.4866   -0.9220    0.2366 N   0  0  0  0  0  0  0  0  0  0  0  0
   -2.2166   -0.4790   -0.2994 H   0  0  0  0  0  0  0  0  0  0  0  0
   -0.1956   -0.2250    0.2596 C   0  0  1  0  0  0  0  0  0  0  0  0
    0.5755   -0.9013   -0.1105 H   0  0  0  0  0  0  0  0  0  0  0  0
   -0.2553    0.9811   -0.6992 C   0  0  0  0  0  0  0  0  0  0  0  0
   -0.4703    0.6044   -1.7004 H   0  0  0  0  0  0  0  0  0  0  0  0
   -1.0696    1.6413   -0.3971 H   0  0  0  0  0  0  0  0  0  0  0  0
    1.0539    1.7865   -0.7521 C   0  0  0  0  0  0  0  0  0  0  0  0
    1.6844    1.3913   -1.5522 H   0  0  0  0  0  0  0  0  0  0  0  0
    0.8091    2.8235   -0.9969 H   0  0  0  0  0  0  0  0  0  0  0  0
    1.8462    1.7503    0.5631 C   0  0  0  0  0  0  0  0  0  0  0  0
    1.3172    1.2103    1.5607 O   0  5  0  0  0  0  0  0  0  0  0  0
    2.9935    2.2487    0.5408 O   0  0  0  0  0  0  0  0  0  0  0  0
    0.1881    0.1678    1.7015 C   0  0  0  0  0  0  0  0  0  0  0  0
    1.3379    0.0002    2.1133 O   0  0  0  0  0  0  0  0  0  0  0  0
   -0.7666    0.7145    2.4656 N   0  0  0  0  0  0  0  0  0  0  0  0
   -1.6971    0.7705    2.0790 H   0  0  0  0  0  0  0  0  0  0  0  0
   -0.5716    1.1232    3.8542 C   0  0  0  0  0  0  0  0  0  0  0  0
    0.3083    1.7643    3.9293 H   0  0  0  0  0  0  0  0  0  0  0  0
   -1.4485    1.6640    4.2131 H   0  0  0  0  0  0  0  0  0  0  0  0
   -0.4137    0.2381    4.4736 H   0  0  0  0  0  0  0  0  0  0  0  0
  5  6  2  0  0  0  0
  5  7  1  0  0  0  0
  2  3  1  0  0  0  0
  2  4  1  0  0  0  0
  2  5  1  0  0  0  0
  1  2  1  0  0  0  0
 20 21  2  0  0  0  0
 20 22  1  0  0  0  0
 17 18  1  0  0  0  0
 17 19  2  0  0  0  0
 14 15  1  0  0  0  0
 14 16  1  0  0  0  0
 14 17  1  0  0  0  0
 11 12  1  0  0  0  0
 11 13  1  0  0  0  0
 11 14  1  0  0  0  0
  9 10  1  0  0  0  0
  9 11  1  0  0  0  0
  9 20  1  0  0  0  0
  7  8  1  0  0  0  0
  7  9  1  0  0  0  0
 24 25  1  0  0  0  0
 24 26  1  0  0  0  0
 24 27  1  0  0  0  0
 22 23  1  0  0  0  0
 22 24  1  0  0  0  0
M  CHG  1  18  -1
M  END
$$$$
default_name
  -OEChem-02102213163D

 27 26  0     1  0  0  0  0  0999 V2000
   -3.2406   -3.5400    1.2326 H   0  0  0  0  0  0  0  0  0  0  0  0
   -3.1436   -2.6190    0.6606 C   0  0  0  0  0  0  0  0  0  0  0  0
   -3.8786   -1.8920    0.9996 H   0  0  0  0  0  0  0  0  0  0  0  0
   -3.2846   -2.8280   -0.3984 H   0  0  0  0  0  0  0  0  0  0  0  0
   -1.7586   -2.0580    0.8686 C   0  0  0  0  0  0  0  0  0  0  0  0
   -0.9666   -2.6340    1.6026 O   0  0  0  0  0  0  0  0  0  0  0  0
   -1.4866   -0.9220    0.2366 N   0  0  0  0  0  0  0  0  0  0  0  0
   -2.2166   -0.4790   -0.2994 H   0  0  0  0  0  0  0  0  0  0  0  0
   -0.1956   -0.2250    0.2596 C   0  0  1  0  0  0  0  0  0  0  0  0
    0.5755   -0.9013   -0.1105 H   0  0  0  0  0  0  0  0  0  0  0  0
   -0.2553    0.9811   -0.6992 C   0  0  0  0  0  0  0  0  0  0  0  0
   -0.4703    0.6044   -1.7004 H   0  0  0  0  0  0  0  0  0  0  0  0
   -1.0696    1.6413   -0.3971 H   0  0  0  0  0  0  0  0  0  0  0  0
    1.0539    1.7865   -0.7521 C   0  0  0  0  0  0  0  0  0  0  0  0
    1.5613    1.5818   -1.6979 H   0  0  0  0  0  0  0  0  0  0  0  0
    0.8034    2.8504   -0.7273 H   0  0  0  0  0  0  0  0  0  0  0  0
    2.0149    1.4656    0.4022 C   0  0  0  0  0  0  0  0  0  0  0  0
    1.6120    0.7153    1.3194 O   0  5  0  0  0  0  0  0  0  0  0  0
    3.1604    1.9639    0.3335 O   0  0  0  0  0  0  0  0  0  0  0  0
    0.1881    0.1678    1.7015 C   0  0  0  0  0  0  0  0  0  0  0  0
    1.3379    0.0002    2.1133 O   0  0  0  0  0  0  0  0  0  0  0  0
   -0.7666    0.7145    2.4656 N   0  0  0  0  0  0  0  0  0  0  0  0
   -1.6971    0.7705    2.0790 H   0  0  0  0  0  0  0  0  0  0  0  0
   -0.5716    1.1232    3.8542 C   0  0  0  0  0  0  0  0  0  0  0  0
    0.3083    1.7643    3.9293 H   0  0  0  0  0  0  0  0  0  0  0  0
   -1.4485    1.6640    4.2131 H   0  0  0  0  0  0  0  0  0  0  0  0
   -0.4137    0.2381    4.4736 H   0  0  0  0  0  0  0  0  0  0  0  0
  5  6  2  0  0  0  0
  5  7  1  0  0  0  0
  2  3  1  0  0  0  0
  2  4  1  0  0  0  0
  2  5  1  0  0  0  0
  1  2  1  0  0  0  0
 20 21  2  0  0  0  0
 20 22  1  0  0  0  0
 17 18  1  0  0  0  0
 17 19  2  0  0  0  0
 14 15  1  0  0  0  0
 14 16  1  0  0  0  0
 14 17  1  0  0  0  0
 11 12  1  0  0  0  0
 11 13  1  0  0  0  0
 11 14  1  0  0  0  0
  9 10  1  0  0  0  0
  9 11  1  0  0  0  0
  9 20  1  0  0  0  0
  7  8  1  0  0  0  0
  7  9  1  0  0  0  0
 24 25  1  0  0  0  0
 24 26  1  0  0  0  0
 24 27  1  0  0  0  0
 22 23  1  0  0  0  0
 22 24  1  0  0  0  0
M  CHG  1  18  -1
M  END
$$$$
default_name
  -OEChem-02102213163D

 27 26  0     1  0  0  0  0  0999 V2000
   -3.2406   -3.5400    1.2326 H   0  0  0  0  0  0  0  0  0  0  0  0
   -3.1436   -2.6190    0.6606 C   0  0  0  0  0  0  0  0  0  0  0  0
   -3.8786   -1.8920    0.9996 H   0  0  0  0  0  0  0  0  0  0  0  0
   -3.2846   -2.8280   -0.3984 H   0  0  0  0  0  0  0  0  0  0  0  0
   -1.7586   -2.0580    0.8686 C   0  0  0  0  0  0  0  0  0  0  0  0
   -0.9666   -2.6340    1.6026 O   0  0  0  0  0  0  0  0  0  0  0  0
   -1.4866   -0.9220    0.2366 N   0  0  0  0  0  0  0  0  0  0  0  0
   -2.2166   -0.4790   -0.2994 H   0  0  0  0  0  0  0  0  0  0  0  0
   -0.1956   -0.2250    0.2596 C   0  0  1  0  0  0  0  0  0  0  0  0
    0.5755   -0.9013   -0.1105 H   0  0  0  0  0  0  0  0  0  0  0  0
   -0.2553    0.9811   -0.6992 C   0  0  0  0  0  0  0  0  0  0  0  0
   -0.4703    0.6044   -1.7004 H   0  0  0  0  0  0  0  0  0  0  0  0
   -1.0696    1.6413   -0.3971 H   0  0  0  0  0  0  0  0  0  0  0  0
    1.0539    1.7865   -0.7521 C   0  0  0  0  0  0  0  0  0  0  0  0
    1.4244    1.7990   -1.7799 H   0  0  0  0  0  0  0  0  0  0  0  0
    0.8347    2.8170   -0.4602 H   0  0  0  0  0  0  0  0  0  0  0  0
    2.1534    1.2245    0.1612 C   0  0  0  0  0  0  0  0  0  0  0  0
    1.8596    0.2876    0.9374 O   0  5  0  0  0  0  0  0  0  0  0  0
    3.2910    1.7329    0.0479 O   0  0  0  0  0  0  0  0  0  0  0  0
    0.1881    0.1678    1.7015 C   0  0  0  0  0  0  0  0  0  0  0  0
    1.3379    0.0002    2.1133 O   0  0  0  0  0  0  0  0  0  0  0  0
   -0.7666    0.7145    2.4656 N   0  0  0  0  0  0  0  0  0  0  0  0
   -1.6971    0.7705    2.0790 H   0  0  0  0  0  0  0  0  0  0  0  0
   -0.5716    1.1232    3.8542 C   0  0  0  0  0  0  0  0  0  0  0  0
    0.3083    1.7643    3.9293 H   0  0  0  0  0  0  0  0  0  0  0  0
   -1.4485    1.6640    4.2131 H   0  0  0  0  0  0  0  0  0  0  0  0
   -0.4137    0.2381    4.4736 H   0  0  0  0  0  0  0  0  0  0  0  0
  5  6  2  0  0  0  0
  5  7  1  0  0  0  0
  2  3  1  0  0  0  0
  2  4  1  0  0  0  0
  2  5  1  0  0  0  0
  1  2  1  0  0  0  0
 20 21  2  0  0  0  0
 20 22  1  0  0  0  0
 17 18  1  0  0  0  0
 17 19  2  0  0  0  0
 14 15  1  0  0  0  0
 14 16  1  0  0  0  0
 14 17  1  0  0  0  0
 11 12  1  0  0  0  0
 11 13  1  0  0  0  0
 11 14  1  0  0  0  0
  9 10  1  0  0  0  0
  9 11  1  0  0  0  0
  9 20  1  0  0  0  0
  7  8  1  0  0  0  0
  7  9  1  0  0  0  0
 24 25  1  0  0  0  0
 24 26  1  0  0  0  0
 24 27  1  0  0  0  0
 22 23  1  0  0  0  0
 22 24  1  0  0  0  0
M  CHG  1  18  -1
M  END
$$$$
default_name
  -OEChem-02102213163D

 27 26  0     1  0  0  0  0  0999 V2000
   -3.2406   -3.5400    1.2326 H   0  0  0  0  0  0  0  0  0  0  0  0
   -3.1436   -2.6190    0.6606 C   0  0  0  0  0  0  0  0  0  0  0  0
   -3.8786   -1.8920    0.9996 H   0  0  0  0  0  0  0  0  0  0  0  0
   -3.2846   -2.8280   -0.3984 H   0  0  0  0  0  0  0  0  0  0  0  0
   -1.7586   -2.0580    0.8686 C   0  0  0  0  0  0  0  0  0  0  0  0
   -0.9666   -2.6340    1.6026 O   0  0  0  0  0  0  0  0  0  0  0  0
   -1.4866   -0.9220    0.2366 N   0  0  0  0  0  0  0  0  0  0  0  0
   -2.2166   -0.4790   -0.2994 H   0  0  0  0  0  0  0  0  0  0  0  0
   -0.1956   -0.2250    0.2596 C   0  0  1  0  0  0  0  0  0  0  0  0
    0.5755   -0.9013   -0.1105 H   0  0  0  0  0  0  0  0  0  0  0  0
   -0.2553    0.9811   -0.6992 C   0  0  0  0  0  0  0  0  0  0  0  0
   -0.4703    0.6044   -1.7004 H   0  0  0  0  0  0  0  0  0  0  0  0
   -1.0696    1.6413   -0.3971 H   0  0  0  0  0  0  0  0  0  0  0  0
    1.0539    1.7865   -0.7521 C   0  0  0  0  0  0  0  0  0  0  0  0
    1.2829    2.0281   -1.7928 H   0  0  0  0  0  0  0  0  0  0  0  0
    0.9009    2.7257   -0.2138 H   0  0  0  0  0  0  0  0  0  0  0  0
    2.2524    1.0436   -0.1435 C   0  0  0  0  0  0  0  0  0  0  0  0
    2.0433   -0.0435    0.4405 O   0  5  0  0  0  0  0  0  0  0  0  0
    3.3763    1.5715   -0.2965 O   0  0  0  0  0  0  0  0  0  0  0  0
    0.1881    0.1678    1.7015 C   0  0  0  0  0  0  0  0  0  0  0  0
    1.3379    0.0002    2.1133 O   0  0  0  0  0  0  0  0  0  0  0  0
   -0.7666    0.7145    2.4656 N   0  0  0  0  0  0  0  0  0  0  0  0
   -1.6971    0.7705    2.0790 H   0  0  0  0  0  0  0  0  0  0  0  0
   -0.5716    1.1232    3.8542 C   0  0  0  0  0  0  0  0  0  0  0  0
    0.3083    1.7643    3.9293 H   0  0  0  0  0  0  0  0  0  0  0  0
   -1.4485    1.6640    4.2131 H   0  0  0  0  0  0  0  0  0  0  0  0
   -0.4137    0.2381    4.4736 H   0  0  0  0  0  0  0  0  0  0  0  0
  5  6  2  0  0  0  0
  5  7  1  0  0  0  0
  2  3  1  0  0  0  0
  2  4  1  0  0  0  0
  2  5  1  0  0  0  0
  1  2  1  0  0  0  0
 20 21  2  0  0  0  0
 20 22  1  0  0  0  0
 17 18  1  0  0  0  0
 17 19  2  0  0  0  0
 14 15  1  0  0  0  0
 14 16  1  0  0  0  0
 14 17  1  0  0  0  0
 11 12  1  0  0  0  0
 11 13  1  0  0  0  0
 11 14  1  0  0  0  0
  9 10  1  0  0  0  0
  9 11  1  0  0  0  0
  9 20  1  0  0  0  0
  7  8  1  0  0  0  0
  7  9  1  0  0  0  0
 24 25  1  0  0  0  0
 24 26  1  0  0  0  0
 24 27  1  0  0  0  0
 22 23  1  0  0  0  0
 22 24  1  0  0  0  0
M  CHG  1  18  -1
M  END
$$$$
default_name
  -OEChem-02102213163D

 27 26  0     1  0  0  0  0  0999 V2000
   -3.2406   -3.5400    1.2326 H   0  0  0  0  0  0  0  0  0  0  0  0
   -3.1436   -2.6190    0.6606 C   0  0  0  0  0  0  0  0  0  0  0  0
   -3.8786   -1.8920    0.9996 H   0  0  0  0  0  0  0  0  0  0  0  0
   -3.2846   -2.8280   -0.3984 H   0  0  0  0  0  0  0  0  0  0  0  0
   -1.7586   -2.0580    0.8686 C   0  0  0  0  0  0  0  0  0  0  0  0
   -0.9666   -2.6340    1.6026 O   0  0  0  0  0  0  0  0  0  0  0  0
   -1.4866   -0.9220    0.2366 N   0  0  0  0  0  0  0  0  0  0  0  0
   -2.2166   -0.4790   -0.2994 H   0  0  0  0  0  0  0  0  0  0  0  0
   -0.1956   -0.2250    0.2596 C   0  0  1  0  0  0  0  0  0  0  0  0
    0.5755   -0.9013   -0.1105 H   0  0  0  0  0  0  0  0  0  0  0  0
   -0.2553    0.9811   -0.6992 C   0  0  0  0  0  0  0  0  0  0  0  0
   -0.4703    0.6044   -1.7004 H   0  0  0  0  0  0  0  0  0  0  0  0
   -1.0696    1.6413   -0.3971 H   0  0  0  0  0  0  0  0  0  0  0  0
    1.0539    1.7865   -0.7521 C   0  0  0  0  0  0  0  0  0  0  0  0
    1.1466    2.2535   -1.7356 H   0  0  0  0  0  0  0  0  0  0  0  0
    0.9973    2.5826   -0.0049 H   0  0  0  0  0  0  0  0  0  0  0  0
    2.3052    0.9350   -0.4910 C   0  0  0  0  0  0  0  0  0  0  0  0
    2.1503   -0.2555   -0.1372 O   0  5  0  0  0  0  0  0  0  0  0  0
    3.4106    1.4908   -0.6763 O   0  0  0  0  0  0  0  0  0  0  0  0
    0.1881    0.1678    1.7015 C   0  0  0  0  0  0  0  0  0  0  0  0
    1.3379    0.0002    2.1133 O   0  0  0  0  0  0  0  0  0  0  0  0
   -0.7666    0.7145    2.4656 N   0  0  0  0  0  0  0  0  0  0  0  0
   -1.6971    0.7705    2.0790 H   0  0  0  0  0  0  0  0  0  0  0  0
   -0.5716    1.1232    3.8542 C   0  0  0  0  0  0  0  0  0  0  0  0
    0.3083    1.7643    3.9293 H   0  0  0  0  0  0  0  0  0  0  0  0
   -1.4485    1.6640    4.2131 H   0  0  0  0  0  0  0  0  0  0  0  0
   -0.4137    0.2381    4.4736 H   0  0  0  0  0  0  0  0  0  0  0  0
  5  6  2  0  0  0  0
  5  7  1  0  0  0  0
  2  3  1  0  0  0  0
  2  4  1  0  0  0  0
  2  5  1  0  0  0  0
  1  2  1  0  0  0  0
 20 21  2  0  0  0  0
 20 22  1  0  0  0  0
 17 18  1  0  0  0  0
 17 19  2  0  0  0  0
 14 15  1  0  0  0  0
 14 16  1  0  0  0  0
 14 17  1  0  0  0  0
 11 12  1  0  0  0  0
 11 13  1  0  0  0  0
 11 14  1  0  0  0  0
  9 10  1  0  0  0  0
  9 11  1  0  0  0  0
  9 20  1  0  0  0  0
  7  8  1  0  0  0  0
  7  9  1  0  0  0  0
 24 25  1  0  0  0  0
 24 26  1  0  0  0  0
 24 27  1  0  0  0  0
 22 23  1  0  0  0  0
 22 24  1  0  0  0  0
M  CHG  1  18  -1
M  END
$$$$
default_name
  -OEChem-02102213163D

 27 26  0     1  0  0  0  0  0999 V2000
   -3.2406   -3.5400    1.2326 H   0  0  0  0  0  0  0  0  0  0  0  0
   -3.1436   -2.6190    0.6606 C   0  0  0  0  0  0  0  0  0  0  0  0
   -3.8786   -1.8920    0.9996 H   0  0  0  0  0  0  0  0  0  0  0  0
   -3.2846   -2.8280   -0.3984 H   0  0  0  0  0  0  0  0  0  0  0  0
   -1.7586   -2.0580    0.8686 C   0  0  0  0  0  0  0  0  0  0  0  0
   -0.9666   -2.6340    1.6026 O   0  0  0  0  0  0  0  0  0  0  0  0
   -1.4866   -0.9220    0.2366 N   0  0  0  0  0  0  0  0  0  0  0  0
   -2.2166   -0.4790   -0.2994 H   0  0  0  0  0  0  0  0  0  0  0  0
   -0.1956   -0.2250    0.2596 C   0  0  1  0  0  0  0  0  0  0  0  0
    0.5755   -0.9013   -0.1105 H   0  0  0  0  0  0  0  0  0  0  0  0
   -0.2553    0.9811   -0.6992 C   0  0  0  0  0  0  0  0  0  0  0  0
   -0.4703    0.6044   -1.7004 H   0  0  0  0  0  0  0  0  0  0  0  0
   -1.0696    1.6413   -0.3971 H   0  0  0  0  0  0  0  0  0  0  0  0
    1.0539    1.7865   -0.7521 C   0  0  0  0  0  0  0  0  0  0  0  0
    1.0246    2.4598   -1.6121 H   0  0  0  0  0  0  0  0  0  0  0  0
    1.1175    2.3975    0.1523 H   0  0  0  0  0  0  0  0  0  0  0  0
    2.3080    0.9063   -0.8578 C   0  0  0  0  0  0  0  0  0  0  0  0
    2.1736   -0.3339   -0.7564 O   0  5  0  0  0  0  0  0  0  0  0  0
    3.3916    1.4962   -1.0657 O   0  0  0  0  0  0  0  0  0  0  0  0
    0.1881    0.1678    1.7015 C   0  0  0  0  0  0  0  0  0  0  0  0
    1.3379    0.0002    2.1133 O   0  0  0  0  0  0  0  0  0  0  0  0
   -0.7666    0.7145    2.4656 N   0  0  0  0  0  0  0  0  0  0  0  0
   -1.6971    0.7705    2.0790 H   0  0  0  0  0  0  0  0  0  0  0  0
   -0.5716    1.1232    3.8542 C   0  0  0  0  0  0  0  0  0  0  0  0
    0.3083    1.7643    3.9293 H   0  0  0  0  0  0  0  0  0  0  0  0
   -1.4485    1.6640    4.2131 H   0  0  0  0  0  0  0  0  0  0  0  0
   -0.4137    0.2381    4.4736 H   0  0  0  0  0  0  0  0  0  0  0  0
  5  6  2  0  0  0  0
  5  7  1  0  0  0  0
  2  3  1  0  0  0  0
  2  4  1  0  0  0  0
  2  5  1  0  0  0  0
  1  2  1  0  0  0  0
 20 21  2  0  0  0  0
 20 22  1  0  0  0  0
 17 18  1  0  0  0  0
 17 19  2  0  0  0  0
 14 15  1  0  0  0  0
 14 16  1  0  0  0  0
 14 17  1  0  0  0  0
 11 12  1  0  0  0  0
 11 13  1  0  0  0  0
 11 14  1  0  0  0  0
  9 10  1  0  0  0  0
  9 11  1  0  0  0  0
  9 20  1  0  0  0  0
  7  8  1  0  0  0  0
  7  9  1  0  0  0  0
 24 25  1  0  0  0  0
 24 26  1  0  0  0  0
 24 27  1  0  0  0  0
 22 23  1  0  0  0  0
 22 24  1  0  0  0  0
M  CHG  1  18  -1
M  END
$$$$
default_name
  -OEChem-02102213163D

 27 26  0     1  0  0  0  0  0999 V2000
   -3.2406   -3.5400    1.2326 H   0  0  0  0  0  0  0  0  0  0  0  0
   -3.1436   -2.6190    0.6606 C   0  0  0  0  0  0  0  0  0  0  0  0
   -3.8786   -1.8920    0.9996 H   0  0  0  0  0  0  0  0  0  0  0  0
   -3.2846   -2.8280   -0.3984 H   0  0  0  0  0  0  0  0  0  0  0  0
   -1.7586   -2.0580    0.8686 C   0  0  0  0  0  0  0  0  0  0  0  0
   -0.9666   -2.6340    1.6026 O   0  0  0  0  0  0  0  0  0  0  0  0
   -1.4866   -0.9220    0.2366 N   0  0  0  0  0  0  0  0  0  0  0  0
   -2.2166   -0.4790   -0.2994 H   0  0  0  0  0  0  0  0  0  0  0  0
   -0.1956   -0.2250    0.2596 C   0  0  1  0  0  0  0  0  0  0  0  0
    0.5755   -0.9013   -0.1105 H   0  0  0  0  0  0  0  0  0  0  0  0
   -0.2553    0.9811   -0.6992 C   0  0  0  0  0  0  0  0  0  0  0  0
   -0.4703    0.6044   -1.7004 H   0  0  0  0  0  0  0  0  0  0  0  0
   -1.0696    1.6413   -0.3971 H   0  0  0  0  0  0  0  0  0  0  0  0
    1.0539    1.7865   -0.7521 C   0  0  0  0  0  0  0  0  0  0  0  0
    0.9254    2.6330   -1.4310 H   0  0  0  0  0  0  0  0  0  0  0  0
    1.2533    2.1830    0.2470 H   0  0  0  0  0  0  0  0  0  0  0  0
    2.2608    0.9593   -1.2189 C   0  0  0  0  0  0  0  0  0  0  0  0
    2.1114   -0.2735   -1.3750 O   0  5  0  0  0  0  0  0  0  0  0  0
    3.3205    1.5874   -1.4379 O   0  0  0  0  0  0  0  0  0  0  0  0
    0.1881    0.1678    1.7015 C   0  0  0  0  0  0  0  0  0  0  0  0
    1.3379    0.0002    2.1133 O   0  0  0  0  0  0  0  0  0  0  0  0
   -0.7666    0.7145    2.4656 N   0  0  0  0  0  0  0  0  0  0  0  0
   -1.6971    0.7705    2.0790 H   0  0  0  0  0  0  0  0  0  0  0  0
   -0.5716    1.1232    3.8542 C   0  0  0  0  0  0  0  0  0  0  0  0
    0.3083    1.7643    3.9293 H   0  0  0  0  0  0  0  0  0  0  0  0
   -1.4485    1.6640    4.2131 H   0  0  0  0  0  0  0  0  0  0  0  0
   -0.4137    0.2381    4.4736 H   0  0  0  0  0  0  0  0  0  0  0  0
  5  6  2  0  0  0  0
  5  7  1  0  0  0  0
  2  3  1  0  0  0  0
  2  4  1  0  0  0  0
  2  5  1  0  0  0  0
  1  2  1  0  0  0  0
 20 21  2  0  0  0  0
 20 22  1  0  0  0  0
 17 18  1  0  0  0  0
 17 19  2  0  0  0  0
 14 15  1  0  0  0  0
 14 16  1  0  0  0  0
 14 17  1  0  0  0  0
 11 12  1  0  0  0  0
 11 13  1  0  0  0  0
 11 14  1  0  0  0  0
  9 10  1  0  0  0  0
  9 11  1  0  0  0  0
  9 20  1  0  0  0  0
  7  8  1  0  0  0  0
  7  9  1  0  0  0  0
 24 25  1  0  0  0  0
 24 26  1  0  0  0  0
 24 27  1  0  0  0  0
 22 23  1  0  0  0  0
 22 24  1  0  0  0  0
M  CHG  1  18  -1
M  END
$$$$
default_name
  -OEChem-02102213163D

 27 26  0     1  0  0  0  0  0999 V2000
   -3.2406   -3.5400    1.2326 H   0  0  0  0  0  0  0  0  0  0  0  0
   -3.1436   -2.6190    0.6606 C   0  0  0  0  0  0  0  0  0  0  0  0
   -3.8786   -1.8920    0.9996 H   0  0  0  0  0  0  0  0  0  0  0  0
   -3.2846   -2.8280   -0.3984 H   0  0  0  0  0  0  0  0  0  0  0  0
   -1.7586   -2.0580    0.8686 C   0  0  0  0  0  0  0  0  0  0  0  0
   -0.9666   -2.6340    1.6026 O   0  0  0  0  0  0  0  0  0  0  0  0
   -1.4866   -0.9220    0.2366 N   0  0  0  0  0  0  0  0  0  0  0  0
   -2.2166   -0.4790   -0.2994 H   0  0  0  0  0  0  0  0  0  0  0  0
   -0.1956   -0.2250    0.2596 C   0  0  1  0  0  0  0  0  0  0  0  0
    0.5755   -0.9013   -0.1105 H   0  0  0  0  0  0  0  0  0  0  0  0
   -0.2553    0.9811   -0.6992 C   0  0  0  0  0  0  0  0  0  0  0  0
   -0.4703    0.6044   -1.7004 H   0  0  0  0  0  0  0  0  0  0  0  0
   -1.0696    1.6413   -0.3971 H   0  0  0  0  0  0  0  0  0  0  0  0
    1.0539    1.7865   -0.7521 C   0  0  0  0  0  0  0  0  0  0  0  0
    0.8557    2.7613   -1.2043 H   0  0  0  0  0  0  0  0  0  0  0  0
    1.3954    1.9537    0.2729 H   0  0  0  0  0  0  0  0  0  0  0  0
    2.1668    1.0905   -1.5495 C   0  0  0  0  0  0  0  0  0  0  0  0
    1.9680   -0.0783   -1.9508 O   0  5  0  0  0  0  0  0  0  0  0  0
    3.2021    1.7581   -1.7678 O   0  0  0  0  0  0  0  0  0  0  0  0
    0.1881    0.1678    1.7015 C   0  0  0  0  0  0  0  0  0  0  0  0
    1.3379    0.0002    2.1133 O   0  0  0  0  0  0  0  0  0  0  0  0
   -0.7666    0.7145    2.4656 N   0  0  0  0  0  0  0  0  0  0  0  0
   -1.6971    0.7705    2.0790 H   0  0  0  0  0  0  0  0  0  0  0  0
   -0.5716    1.1232    3.8542 C   0  0  0  0  0  0  0  0  0  0  0  0
    0.3083    1.7643    3.9293 H   0  0  0  0  0  0  0  0  0  0  0  0
   -1.4485    1.6640    4.2131 H   0  0  0  0  0  0  0  0  0  0  0  0
   -0.4137    0.2381    4.4736 H   0  0  0  0  0  0  0  0  0  0  0  0
  5  6  2  0  0  0  0
  5  7  1  0  0  0  0
  2  3  1  0  0  0  0
  2  4  1  0  0  0  0
  2  5  1  0  0  0  0
  1  2  1  0  0  0  0
 20 21  2  0  0  0  0
 20 22  1  0  0  0  0
 17 18  1  0  0  0  0
 17 19  2  0  0  0  0
 14 15  1  0  0  0  0
 14 16  1  0  0  0  0
 14 17  1  0  0  0  0
 11 12  1  0  0  0  0
 11 13  1  0  0  0  0
 11 14  1  0  0  0  0
  9 10  1  0  0  0  0
  9 11  1  0  0  0  0
  9 20  1  0  0  0  0
  7  8  1  0  0  0  0
  7  9  1  0  0  0  0
 24 25  1  0  0  0  0
 24 26  1  0  0  0  0
 24 27  1  0  0  0  0
 22 23  1  0  0  0  0
 22 24  1  0  0  0  0
M  CHG  1  18  -1
M  END
$$$$
default_name
  -OEChem-02102213163D

 27 26  0     1  0  0  0  0  0999 V2000
   -3.2406   -3.5400    1.2326 H   0  0  0  0  0  0  0  0  0  0  0  0
   -3.1436   -2.6190    0.6606 C   0  0  0  0  0  0  0  0  0  0  0  0
   -3.8786   -1.8920    0.9996 H   0  0  0  0  0  0  0  0  0  0  0  0
   -3.2846   -2.8280   -0.3984 H   0  0  0  0  0  0  0  0  0  0  0  0
   -1.7586   -2.0580    0.8686 C   0  0  0  0  0  0  0  0  0  0  0  0
   -0.9666   -2.6340    1.6026 O   0  0  0  0  0  0  0  0  0  0  0  0
   -1.4866   -0.9220    0.2366 N   0  0  0  0  0  0  0  0  0  0  0  0
   -2.2166   -0.4790   -0.2994 H   0  0  0  0  0  0  0  0  0  0  0  0
   -0.1956   -0.2250    0.2596 C   0  0  1  0  0  0  0  0  0  0  0  0
    0.5755   -0.9013   -0.1105 H   0  0  0  0  0  0  0  0  0  0  0  0
   -0.2553    0.9811   -0.6992 C   0  0  0  0  0  0  0  0  0  0  0  0
   -0.4703    0.6044   -1.7004 H   0  0  0  0  0  0  0  0  0  0  0  0
   -1.0696    1.6413   -0.3971 H   0  0  0  0  0  0  0  0  0  0  0  0
    1.0539    1.7865   -0.7521 C   0  0  0  0  0  0  0  0  0  0  0  0
    0.8202    2.8358   -0.9477 H   0  0  0  0  0  0  0  0  0  0  0  0
    1.5341    1.7253    0.2281 H   0  0  0  0  0  0  0  0  0  0  0  0
    2.0323    1.2909   -1.8272 C   0  0  0  0  0  0  0  0  0  0  0  0
    1.7532    0.2384   -2.4445 O   0  5  0  0  0  0  0  0  0  0  0  0
    3.0446    1.9967   -2.0328 O   0  0  0  0  0  0  0  0  0  0  0  0
    0.1881    0.1678    1.7015 C   0  0  0  0  0  0  0  0  0  0  0  0
    1.3379    0.0002    2.1133 O   0  0  0  0  0  0  0  0  0  0  0  0
   -0.7666    0.7145    2.4656 N   0  0  0  0  0  0  0  0  0  0  0  0
   -1.6971    0.7705    2.0790 H   0  0  0  0  0  0  0  0  0  0  0  0
   -0.5716    1.1232    3.8542 C   0  0  0  0  0  0  0  0  0  0  0  0
    0.3083    1.7643    3.9293 H   0  0  0  0  0  0  0  0  0  0  0  0
   -1.4485    1.6640    4.2131 H   0  0  0  0  0  0  0  0  0  0  0  0
   -0.4137    0.2381    4.4736 H   0  0  0  0  0  0  0  0  0  0  0  0
  5  6  2  0  0  0  0
  5  7  1  0  0  0  0
  2  3  1  0  0  0  0
  2  4  1  0  0  0  0
  2  5  1  0  0  0  0
  1  2  1  0  0  0  0
 20 21  2  0  0  0  0
 20 22  1  0  0  0  0
 17 18  1  0  0  0  0
 17 19  2  0  0  0  0
 14 15  1  0  0  0  0
 14 16  1  0  0  0  0
 14 17  1  0  0  0  0
 11 12  1  0  0  0  0
 11 13  1  0  0  0  0
 11 14  1  0  0  0  0
  9 10  1  0  0  0  0
  9 11  1  0  0  0  0
  9 20  1  0  0  0  0
  7  8  1  0  0  0  0
  7  9  1  0  0  0  0
 24 25  1  0  0  0  0
 24 26  1  0  0  0  0
 24 27  1  0  0  0  0
 22 23  1  0  0  0  0
 22 24  1  0  0  0  0
M  CHG  1  18  -1
M  END
$$$$
default_name
  -OEChem-02102213163D

 27 26  0     1  0  0  0  0  0999 V2000
   -3.2406   -3.5400    1.2326 H   0  0  0  0  0  0  0  0  0  0  0  0
   -3.1436   -2.6190    0.6606 C   0  0  0  0  0  0  0  0  0  0  0  0
   -3.8786   -1.8920    0.9996 H   0  0  0  0  0  0  0  0  0  0  0  0
   -3.2846   -2.8280   -0.3984 H   0  0  0  0  0  0  0  0  0  0  0  0
   -1.7586   -2.0580    0.8686 C   0  0  0  0  0  0  0  0  0  0  0  0
   -0.9666   -2.6340    1.6026 O   0  0  0  0  0  0  0  0  0  0  0  0
   -1.4866   -0.9220    0.2366 N   0  0  0  0  0  0  0  0  0  0  0  0
   -2.2166   -0.4790   -0.2994 H   0  0  0  0  0  0  0  0  0  0  0  0
   -0.1956   -0.2250    0.2596 C   0  0  1  0  0  0  0  0  0  0  0  0
    0.5755   -0.9013   -0.1105 H   0  0  0  0  0  0  0  0  0  0  0  0
   -0.2553    0.9811   -0.6992 C   0  0  0  0  0  0  0  0  0  0  0  0
   -0.4703    0.6044   -1.7004 H   0  0  0  0  0  0  0  0  0  0  0  0
   -1.0696    1.6413   -0.3971 H   0  0  0  0  0  0  0  0  0  0  0  0
    1.0539    1.7865   -0.7521 C   0  0  0  0  0  0  0  0  0  0  0  0
    0.8213    2.8516   -0.6786 H   0  0  0  0  0  0  0  0  0  0  0  0
    1.6600    1.5133    0.1157 H   0  0  0  0  0  0  0  0  0  0  0  0
    1.8665    1.5468   -2.0331 C   0  0  0  0  0  0  0  0  0  0  0  0
    1.4817    0.6550   -2.8225 O   0  5  0  0  0  0  0  0  0  0  0  0
    2.8587    2.2869   -2.2148 O   0  0  0  0  0  0  0  0  0  0  0  0
    0.1881    0.1678    1.7015 C   0  0  0  0  0  0  0  0  0  0  0  0
    1.3379    0.0002    2.1133 O   0  0  0  0  0  0  0  0  0  0  0  0
   -0.7666    0.7145    2.4656 N   0  0  0  0  0  0  0  0  0  0  0  0
   -1.6971    0.7705    2.0790 H   0  0  0  0  0  0  0  0  0  0  0  0
   -0.5716    1.1232    3.8542 C   0  0  0  0  0  0  0  0  0  0  0  0
    0.3083    1.7643    3.9293 H   0  0  0  0  0  0  0  0  0  0  0  0
   -1.4485    1.6640    4.2131 H   0  0  0  0  0  0  0  0  0  0  0  0
   -0.4137    0.2381    4.4736 H   0  0  0  0  0  0  0  0  0  0  0  0
  5  6  2  0  0  0  0
  5  7  1  0  0  0  0
  2  3  1  0  0  0  0
  2  4  1  0  0  0  0
  2  5  1  0  0  0  0
  1  2  1  0  0  0  0
 20 21  2  0  0  0  0
 20 22  1  0  0  0  0
 17 18  1  0  0  0  0
 17 19  2  0  0  0  0
 14 15  1  0  0  0  0
 14 16  1  0  0  0  0
 14 17  1  0  0  0  0
 11 12  1  0  0  0  0
 11 13  1  0  0  0  0
 11 14  1  0  0  0  0
  9 10  1  0  0  0  0
  9 11  1  0  0  0  0
  9 20  1  0  0  0  0
  7  8  1  0  0  0  0
  7  9  1  0  0  0  0
 24 25  1  0  0  0  0
 24 26  1  0  0  0  0
 24 27  1  0  0  0  0
 22 23  1  0  0  0  0
 22 24  1  0  0  0  0
M  CHG  1  18  -1
M  END
$$$$
default_name
  -OEChem-02102213163D

 27 26  0     1  0  0  0  0  0999 V2000
   -3.2406   -3.5400    1.2326 H   0  0  0  0  0  0  0  0  0  0  0  0
   -3.1436   -2.6190    0.6606 C   0  0  0  0  0  0  0  0  0  0  0  0
   -3.8786   -1.8920    0.9996 H   0  0  0  0  0  0  0  0  0  0  0  0
   -3.2846   -2.8280   -0.3984 H   0  0  0  0  0  0  0  0  0  0  0  0
   -1.7586   -2.0580    0.8686 C   0  0  0  0  0  0  0  0  0  0  0  0
   -0.9666   -2.6340    1.6026 O   0  0  0  0  0  0  0  0  0  0  0  0
   -1.4866   -0.9220    0.2366 N   0  0  0  0  0  0  0  0  0  0  0  0
   -2.2166   -0.4790   -0.2994 H   0  0  0  0  0  0  0  0  0  0  0  0
   -0.1956   -0.2250    0.2596 C   0  0  1  0  0  0  0  0  0  0  0  0
    0.5755   -0.9013   -0.1105 H   0  0  0  0  0  0  0  0  0  0  0  0
   -0.2553    0.9811   -0.6992 C   0  0  0  0  0  0  0  0  0  0  0  0
   -0.4703    0.6044   -1.7004 H   0  0  0  0  0  0  0  0  0  0  0  0
   -1.0696    1.6413   -0.3971 H   0  0  0  0  0  0  0  0  0  0  0  0
    1.0539    1.7865   -0.7521 C   0  0  0  0  0  0  0  0  0  0  0  0
    0.8591    2.8076   -0.4154 H   0  0  0  0  0  0  0  0  0  0  0  0
    1.7645    1.3321   -0.0566 H   0  0  0  0  0  0  0  0  0  0  0  0
    1.6807    1.8409   -2.1532 C   0  0  0  0  0  0  0  0  0  0  0  0
    1.1719    1.1431   -3.0591 O   0  5  0  0  0  0  0  0  0  0  0  0
    2.6570    2.6091   -2.3015 O   0  0  0  0  0  0  0  0  0  0  0  0
    0.1881    0.1678    1.7015 C   0  0  0  0  0  0  0  0  0  0  0  0
    1.3379    0.0002    2.1133 O   0  0  0  0  0  0  0  0  0  0  0  0
   -0.7666    0.7145    2.4656 N   0  0  0  0  0  0  0  0  0  0  0  0
   -1.6971    0.7705    2.0790 H   0  0  0  0  0  0  0  0  0  0  0  0
   -0.5716    1.1232    3.8542 C   0  0  0  0  0  0  0  0  0  0  0  0
    0.3083    1.7643    3.9293 H   0  0  0  0  0  0  0  0  0  0  0  0
   -1.4485    1.6640    4.2131 H   0  0  0  0  0  0  0  0  0  0  0  0
   -0.4137    0.2381    4.4736 H   0  0  0  0  0  0  0  0  0  0  0  0
  5  6  2  0  0  0  0
  5  7  1  0  0  0  0
  2  3  1  0  0  0  0
  2  4  1  0  0  0  0
  2  5  1  0  0  0  0
  1  2  1  0  0  0  0
 20 21  2  0  0  0  0
 20 22  1  0  0  0  0
 17 18  1  0  0  0  0
 17 19  2  0  0  0  0
 14 15  1  0  0  0  0
 14 16  1  0  0  0  0
 14 17  1  0  0  0  0
 11 12  1  0  0  0  0
 11 13  1  0  0  0  0
 11 14  1  0  0  0  0
  9 10  1  0  0  0  0
  9 11  1  0  0  0  0
  9 20  1  0  0  0  0
  7  8  1  0  0  0  0
  7  9  1  0  0  0  0
 24 25  1  0  0  0  0
 24 26  1  0  0  0  0
 24 27  1  0  0  0  0
 22 23  1  0  0  0  0
 22 24  1  0  0  0  0
M  CHG  1  18  -1
M  END
$$$$
default_name
  -OEChem-02102213163D

 27 26  0     1  0  0  0  0  0999 V2000
   -3.2406   -3.5400    1.2326 H   0  0  0  0  0  0  0  0  0  0  0  0
   -3.1436   -2.6190    0.6606 C   0  0  0  0  0  0  0  0  0  0  0  0
   -3.8786   -1.8920    0.9996 H   0  0  0  0  0  0  0  0  0  0  0  0
   -3.2846   -2.8280   -0.3984 H   0  0  0  0  0  0  0  0  0  0  0  0
   -1.7586   -2.0580    0.8686 C   0  0  0  0  0  0  0  0  0  0  0  0
   -0.9666   -2.6340    1.6026 O   0  0  0  0  0  0  0  0  0  0  0  0
   -1.4866   -0.9220    0.2366 N   0  0  0  0  0  0  0  0  0  0  0  0
   -2.2166   -0.4790   -0.2994 H   0  0  0  0  0  0  0  0  0  0  0  0
   -0.1956   -0.2250    0.2596 C   0  0  1  0  0  0  0  0  0  0  0  0
    0.5755   -0.9013   -0.1105 H   0  0  0  0  0  0  0  0  0  0  0  0
   -0.2553    0.9811   -0.6992 C   0  0  0  0  0  0  0  0  0  0  0  0
   -0.4703    0.6044   -1.7004 H   0  0  0  0  0  0  0  0  0  0  0  0
   -1.0696    1.6413   -0.3971 H   0  0  0  0  0  0  0  0  0  0  0  0
    1.0539    1.7865   -0.7521 C   0  0  0  0  0  0  0  0  0  0  0  0
    0.9308    2.7067   -0.1759 H   0  0  0  0  0  0  0  0  0  0  0  0
    1.8405    1.1942   -0.2771 H   0  0  0  0  0  0  0  0  0  0  0  0
    1.4877    2.1530   -2.1791 C   0  0  0  0  0  0  0  0  0  0  0  0
    0.8449    1.6694   -3.1380 O   0  5  0  0  0  0  0  0  0  0  0  0
    2.4533    2.9411   -2.2870 O   0  0  0  0  0  0  0  0  0  0  0  0
    0.1881    0.1678    1.7015 C   0  0  0  0  0  0  0  0  0  0  0  0
    1.3379    0.0002    2.1133 O   0  0  0  0  0  0  0  0  0  0  0  0
   -0.7666    0.7145    2.4656 N   0  0  0  0  0  0  0  0  0  0  0  0
   -1.6971    0.7705    2.0790 H   0  0  0  0  0  0  0  0  0  0  0  0
   -0.5716    1.1232    3.8542 C   0  0  0  0  0  0  0  0  0  0  0  0
    0.3083    1.7643    3.9293 H   0  0  0  0  0  0  0  0  0  0  0  0
   -1.4485    1.6640    4.2131 H   0  0  0  0  0  0  0  0  0  0  0  0
   -0.4137    0.2381    4.4736 H   0  0  0  0  0  0  0  0  0  0  0  0
  5  6  2  0  0  0  0
  5  7  1  0  0  0  0
  2  3  1  0  0  0  0
  2  4  1  0  0  0  0
  2  5  1  0  0  0  0
  1  2  1  0  0  0  0
 20 21  2  0  0  0  0
 20 22  1  0  0  0  0
 17 18  1  0  0  0  0
 17 19  2  0  0  0  0
 14 15  1  0  0  0  0
 14 16  1  0  0  0  0
 14 17  1  0  0  0  0
 11 12  1  0  0  0  0
 11 13  1  0  0  0  0
 11 14  1  0  0  0  0
  9 10  1  0  0  0  0
  9 11  1  0  0  0  0
  9 20  1  0  0  0  0
  7  8  1  0  0  0  0
  7  9  1  0  0  0  0
 24 25  1  0  0  0  0
 24 26  1  0  0  0  0
 24 27  1  0  0  0  0
 22 23  1  0  0  0  0
 22 24  1  0  0  0  0
M  CHG  1  18  -1
M  END
$$$$
default_name
  -OEChem-02102213163D

 27 26  0     1  0  0  0  0  0999 V2000
   -3.2406   -3.5400    1.2326 H   0  0  0  0  0  0  0  0  0  0  0  0
   -3.1436   -2.6190    0.6606 C   0  0  0  0  0  0  0  0  0  0  0  0
   -3.8786   -1.8920    0.9996 H   0  0  0  0  0  0  0  0  0  0  0  0
   -3.2846   -2.8280   -0.3984 H   0  0  0  0  0  0  0  0  0  0  0  0
   -1.7586   -2.0580    0.8686 C   0  0  0  0  0  0  0  0  0  0  0  0
   -0.9666   -2.6340    1.6026 O   0  0  0  0  0  0  0  0  0  0  0  0
   -1.4866   -0.9220    0.2366 N   0  0  0  0  0  0  0  0  0  0  0  0
   -2.2166   -0.4790   -0.2994 H   0  0  0  0  0  0  0  0  0  0  0  0
   -0.1956   -0.2250    0.2596 C   0  0  1  0  0  0  0  0  0  0  0  0
    0.5755   -0.9013   -0.1105 H   0  0  0  0  0  0  0  0  0  0  0  0
   -0.2553    0.9811   -0.6992 C   0  0  0  0  0  0  0  0  0  0  0  0
   -0.4703    0.6044   -1.7004 H   0  0  0  0  0  0  0  0  0  0  0  0
   -1.0696    1.6413   -0.3971 H   0  0  0  0  0  0  0  0  0  0  0  0
    1.0539    1.7865   -0.7521 C   0  0  0  0  0  0  0  0  0  0  0  0
    1.0316    2.5559    0.0235 H   0  0  0  0  0  0  0  0  0  0  0  0
    1.8827    1.1089   -0.5308 H   0  0  0  0  0  0  0  0  0  0  0  0
    1.3004    2.4619   -2.1093 C   0  0  0  0  0  0  0  0  0  0  0  0
    0.5230    2.1981   -3.0540 O   0  5  0  0  0  0  0  0  0  0  0  0
    2.2615    3.2605   -2.1721 O   0  0  0  0  0  0  0  0  0  0  0  0
    0.1881    0.1678    1.7015 C   0  0  0  0  0  0  0  0  0  0  0  0
    1.3379    0.0002    2.1133 O   0  0  0  0  0  0  0  0  0  0  0  0
   -0.7666    0.7145    2.4656 N   0  0  0  0  0  0  0  0  0  0  0  0
   -1.6971    0.7705    2.0790 H   0  0  0  0  0  0  0  0  0  0  0  0
   -0.5716    1.1232    3.8542 C   0  0  0  0  0  0  0  0  0  0  0  0
    0.3083    1.7643    3.9293 H   0  0  0  0  0  0  0  0  0  0  0  0
   -1.4485    1.6640    4.2131 H   0  0  0  0  0  0  0  0  0  0  0  0
   -0.4137    0.2381    4.4736 H   0  0  0  0  0  0  0  0  0  0  0  0
  5  6  2  0  0  0  0
  5  7  1  0  0  0  0
  2  3  1  0  0  0  0
  2  4  1  0  0  0  0
  2  5  1  0  0  0  0
  1  2  1  0  0  0  0
 20 21  2  0  0  0  0
 20 22  1  0  0  0  0
 17 18  1  0  0  0  0
 17 19  2  0  0  0  0
 14 15  1  0  0  0  0
 14 16  1  0  0  0  0
 14 17  1  0  0  0  0
 11 12  1  0  0  0  0
 11 13  1  0  0  0  0
 11 14  1  0  0  0  0
  9 10  1  0  0  0  0
  9 11  1  0  0  0  0
  9 20  1  0  0  0  0
  7  8  1  0  0  0  0
  7  9  1  0  0  0  0
 24 25  1  0  0  0  0
 24 26  1  0  0  0  0
 24 27  1  0  0  0  0
 22 23  1  0  0  0  0
 22 24  1  0  0  0  0
M  CHG  1  18  -1
M  END
$$$$
default_name
  -OEChem-02102213163D

 27 26  0     1  0  0  0  0  0999 V2000
   -3.2406   -3.5400    1.2326 H   0  0  0  0  0  0  0  0  0  0  0  0
   -3.1436   -2.6190    0.6606 C   0  0  0  0  0  0  0  0  0  0  0  0
   -3.8786   -1.8920    0.9996 H   0  0  0  0  0  0  0  0  0  0  0  0
   -3.2846   -2.8280   -0.3984 H   0  0  0  0  0  0  0  0  0  0  0  0
   -1.7586   -2.0580    0.8686 C   0  0  0  0  0  0  0  0  0  0  0  0
   -0.9666   -2.6340    1.6026 O   0  0  0  0  0  0  0  0  0  0  0  0
   -1.4866   -0.9220    0.2366 N   0  0  0  0  0  0  0  0  0  0  0  0
   -2.2166   -0.4790   -0.2994 H   0  0  0  0  0  0  0  0  0  0  0  0
   -0.1956   -0.2250    0.2596 C   0  0  1  0  0  0  0  0  0  0  0  0
    0.5755   -0.9013   -0.1105 H   0  0  0  0  0  0  0  0  0  0  0  0
   -0.2553    0.9811   -0.6992 C   0  0  0  0  0  0  0  0  0  0  0  0
   -0.4703    0.6044   -1.7004 H   0  0  0  0  0  0  0  0  0  0  0  0
   -1.0696    1.6413   -0.3971 H   0  0  0  0  0  0  0  0  0  0  0  0
    1.0539    1.7865   -0.7521 C   0  0  0  0  0  0  0  0  0  0  0  0
    1.1547    2.3654    0.1691 H   0  0  0  0  0  0  0  0  0  0  0  0
    1.8884    1.0819   -0.8004 H   0  0  0  0  0  0  0  0  0  0  0  0
    1.1318    2.7466   -1.9484 C   0  0  0  0  0  0  0  0  0  0  0  0
    0.2282    2.6932   -2.8128 O   0  5  0  0  0  0  0  0  0  0  0  0
    2.0946    3.5454   -1.9649 O   0  0  0  0  0  0  0  0  0  0  0  0
    0.1881    0.1678    1.7015 C   0  0  0  0  0  0  0  0  0  0  0  0
    1.3379    0.0002    2.1133 O   0  0  0  0  0  0  0  0  0  0  0  0
   -0.7666    0.7145    2.4656 N   0  0  0  0  0  0  0  0  0  0  0  0
   -1.6971    0.7705    2.0790 H   0  0  0  0  0  0  0  0  0  0  0  0
   -0.5716    1.1232    3.8542 C   0  0  0  0  0  0  0  0  0  0  0  0
    0.3083    1.7643    3.9293 H   0  0  0  0  0  0  0  0  0  0  0  0
   -1.4485    1.6640    4.2131 H   0  0  0  0  0  0  0  0  0  0  0  0
   -0.4137    0.2381    4.4736 H   0  0  0  0  0  0  0  0  0  0  0  0
  5  6  2  0  0  0  0
  5  7  1  0  0  0  0
  2  3  1  0  0  0  0
  2  4  1  0  0  0  0
  2  5  1  0  0  0  0
  1  2  1  0  0  0  0
 20 21  2  0  0  0  0
 20 22  1  0  0  0  0
 17 18  1  0  0  0  0
 17 19  2  0  0  0  0
 14 15  1  0  0  0  0
 14 16  1  0  0  0  0
 14 17  1  0  0  0  0
 11 12  1  0  0  0  0
 11 13  1  0  0  0  0
 11 14  1  0  0  0  0
  9 10  1  0  0  0  0
  9 11  1  0  0  0  0
  9 20  1  0  0  0  0
  7  8  1  0  0  0  0
  7  9  1  0  0  0  0
 24 25  1  0  0  0  0
 24 26  1  0  0  0  0
 24 27  1  0  0  0  0
 22 23  1  0  0  0  0
 22 24  1  0  0  0  0
M  CHG  1  18  -1
M  END
$$$$
default_name
  -OEChem-02102213163D

 27 26  0     1  0  0  0  0  0999 V2000
   -3.2406   -3.5400    1.2326 H   0  0  0  0  0  0  0  0  0  0  0  0
   -3.1436   -2.6190    0.6606 C   0  0  0  0  0  0  0  0  0  0  0  0
   -3.8786   -1.8920    0.9996 H   0  0  0  0  0  0  0  0  0  0  0  0
   -3.2846   -2.8280   -0.3984 H   0  0  0  0  0  0  0  0  0  0  0  0
   -1.7586   -2.0580    0.8686 C   0  0  0  0  0  0  0  0  0  0  0  0
   -0.9666   -2.6340    1.6026 O   0  0  0  0  0  0  0  0  0  0  0  0
   -1.4866   -0.9220    0.2366 N   0  0  0  0  0  0  0  0  0  0  0  0
   -2.2166   -0.4790   -0.2994 H   0  0  0  0  0  0  0  0  0  0  0  0
   -0.1956   -0.2250    0.2596 C   0  0  1  0  0  0  0  0  0  0  0  0
    0.5755   -0.9013   -0.1105 H   0  0  0  0  0  0  0  0  0  0  0  0
   -0.2553    0.9811   -0.6992 C   0  0  0  0  0  0  0  0  0  0  0  0
   -0.7268    0.6508   -1.6261 H   0  0  0  0  0  0  0  0  0  0  0  0
   -0.8750    1.7625   -0.2568 H   0  0  0  0  0  0  0  0  0  0  0  0
    1.1274    1.5642   -1.0364 C   0  0  0  0  0  0  0  0  0  0  0  0
    1.6188    1.8760   -0.1116 H   0  0  0  0  0  0  0  0  0  0  0  0
    1.7318    0.7738   -1.4893 H   0  0  0  0  0  0  0  0  0  0  0  0
    1.0667    2.7655   -1.9914 C   0  0  0  0  0  0  0  0  0  0  0  0
   -0.0373    3.0657   -2.4990 O   0  5  0  0  0  0  0  0  0  0  0  0
    2.1363    3.3863   -2.1806 O   0  0  0  0  0  0  0  0  0  0  0  0
    0.1881    0.1678    1.7015 C   0  0  0  0  0  0  0  0  0  0  0  0
    1.3379    0.0002    2.1133 O   0  0  0  0  0  0  0  0  0  0  0  0
   -0.7666    0.7145    2.4656 N   0  0  0  0  0  0  0  0  0  0  0  0
   -1.6971    0.7705    2.0790 H   0  0  0  0  0  0  0  0  0  0  0  0
   -0.5716    1.1232    3.8542 C   0  0  0  0  0  0  0  0  0  0  0  0
    0.3083    1.7643    3.9293 H   0  0  0  0  0  0  0  0  0  0  0  0
   -1.4485    1.6640    4.2131 H   0  0  0  0  0  0  0  0  0  0  0  0
   -0.4137    0.2381    4.4736 H   0  0  0  0  0  0  0  0  0  0  0  0
  5  6  2  0  0  0  0
  5  7  1  0  0  0  0
  2  3  1  0  0  0  0
  2  4  1  0  0  0  0
  2  5  1  0  0  0  0
  1  2  1  0  0  0  0
 20 21  2  0  0  0  0
 20 22  1  0  0  0  0
 17 18  1  0  0  0  0
 17 19  2  0  0  0  0
 14 15  1  0  0  0  0
 14 16  1  0  0  0  0
 14 17  1  0  0  0  0
 11 12  1  0  0  0  0
 11 13  1  0  0  0  0
 11 14  1  0  0  0  0
  9 10  1  0  0  0  0
  9 11  1  0  0  0  0
  9 20  1  0  0  0  0
  7  8  1  0  0  0  0
  7  9  1  0  0  0  0
 24 25  1  0  0  0  0
 24 26  1  0  0  0  0
 24 27  1  0  0  0  0
 22 23  1  0  0  0  0
 22 24  1  0  0  0  0
M  CHG  1  18  -1
M  END
$$$$
default_name
  -OEChem-02102213163D

 27 26  0     1  0  0  0  0  0999 V2000
   -3.2406   -3.5400    1.2326 H   0  0  0  0  0  0  0  0  0  0  0  0
   -3.1436   -2.6190    0.6606 C   0  0  0  0  0  0  0  0  0  0  0  0
   -3.8786   -1.8920    0.9996 H   0  0  0  0  0  0  0  0  0  0  0  0
   -3.2846   -2.8280   -0.3984 H   0  0  0  0  0  0  0  0  0  0  0  0
   -1.7586   -2.0580    0.8686 C   0  0  0  0  0  0  0  0  0  0  0  0
   -0.9666   -2.6340    1.6026 O   0  0  0  0  0  0  0  0  0  0  0  0
   -1.4866   -0.9220    0.2366 N   0  0  0  0  0  0  0  0  0  0  0  0
   -2.2166   -0.4790   -0.2994 H   0  0  0  0  0  0  0  0  0  0  0  0
   -0.1956   -0.2250    0.2596 C   0  0  1  0  0  0  0  0  0  0  0  0
    0.5755   -0.9013   -0.1105 H   0  0  0  0  0  0  0  0  0  0  0  0
   -0.2553    0.9811   -0.6992 C   0  0  0  0  0  0  0  0  0  0  0  0
   -0.7268    0.6508   -1.6261 H   0  0  0  0  0  0  0  0  0  0  0  0
   -0.8750    1.7625   -0.2568 H   0  0  0  0  0  0  0  0  0  0  0  0
    1.1274    1.5642   -1.0364 C   0  0  0  0  0  0  0  0  0  0  0  0
    1.7214    1.6269   -0.1215 H   0  0  0  0  0  0  0  0  0  0  0  0
    1.6324    0.8763   -1.7196 H   0  0  0  0  0  0  0  0  0  0  0  0
    1.0619    2.9581   -1.6779 C   0  0  0  0  0  0  0  0  0  0  0  0
   -0.0607    3.4189   -1.9843 O   0  5  0  0  0  0  0  0  0  0  0  0
    2.1497    3.5571   -1.8305 O   0  0  0  0  0  0  0  0  0  0  0  0
    0.1881    0.1678    1.7015 C   0  0  0  0  0  0  0  0  0  0  0  0
    1.3379    0.0002    2.1133 O   0  0  0  0  0  0  0  0  0  0  0  0
   -0.7666    0.7145    2.4656 N   0  0  0  0  0  0  0  0  0  0  0  0
   -1.6971    0.7705    2.0790 H   0  0  0  0  0  0  0  0  0  0  0  0
   -0.5716    1.1232    3.8542 C   0  0  0  0  0  0  0  0  0  0  0  0
    0.3083    1.7643    3.9293 H   0  0  0  0  0  0  0  0  0  0  0  0
   -1.4485    1.6640    4.2131 H   0  0  0  0  0  0  0  0  0  0  0  0
   -0.4137    0.2381    4.4736 H   0  0  0  0  0  0  0  0  0  0  0  0
  5  6  2  0  0  0  0
  5  7  1  0  0  0  0
  2  3  1  0  0  0  0
  2  4  1  0  0  0  0
  2  5  1  0  0  0  0
  1  2  1  0  0  0  0
 20 21  2  0  0  0  0
 20 22  1  0  0  0  0
 17 18  1  0  0  0  0
 17 19  2  0  0  0  0
 14 15  1  0  0  0  0
 14 16  1  0  0  0  0
 14 17  1  0  0  0  0
 11 12  1  0  0  0  0
 11 13  1  0  0  0  0
 11 14  1  0  0  0  0
  9 10  1  0  0  0  0
  9 11  1  0  0  0  0
  9 20  1  0  0  0  0
  7  8  1  0  0  0  0
  7  9  1  0  0  0  0
 24 25  1  0  0  0  0
 24 26  1  0  0  0  0
 24 27  1  0  0  0  0
 22 23  1  0  0  0  0
 22 24  1  0  0  0  0
M  CHG  1  18  -1
M  END
$$$$
default_name
  -OEChem-02102213163D

 27 26  0     1  0  0  0  0  0999 V2000
   -3.2406   -3.5400    1.2326 H   0  0  0  0  0  0  0  0  0  0  0  0
   -3.1436   -2.6190    0.6606 C   0  0  0  0  0  0  0  0  0  0  0  0
   -3.8786   -1.8920    0.9996 H   0  0  0  0  0  0  0  0  0  0  0  0
   -3.2846   -2.8280   -0.3984 H   0  0  0  0  0  0  0  0  0  0  0  0
   -1.7586   -2.0580    0.8686 C   0  0  0  0  0  0  0  0  0  0  0  0
   -0.9666   -2.6340    1.6026 O   0  0  0  0  0  0  0  0  0  0  0  0
   -1.4866   -0.9220    0.2366 N   0  0  0  0  0  0  0  0  0  0  0  0
   -2.2166   -0.4790   -0.2994 H   0  0  0  0  0  0  0  0  0  0  0  0
   -0.1956   -0.2250    0.2596 C   0  0  1  0  0  0  0  0  0  0  0  0
    0.5755   -0.9013   -0.1105 H   0  0  0  0  0  0  0  0  0  0  0  0
   -0.2553    0.9811   -0.6992 C   0  0  0  0  0  0  0  0  0  0  0  0
   -0.7268    0.6508   -1.6261 H   0  0  0  0  0  0  0  0  0  0  0  0
   -0.8750    1.7625   -0.2568 H   0  0  0  0  0  0  0  0  0  0  0  0
    1.1274    1.5642   -1.0364 C   0  0  0  0  0  0  0  0  0  0  0  0
    1.8055    1.3828   -0.1990 H   0  0  0  0  0  0  0  0  0  0  0  0
    1.5196    1.0345   -1.9085 H   0  0  0  0  0  0  0  0  0  0  0  0
    1.0990    3.0715   -1.3299 C   0  0  0  0  0  0  0  0  0  0  0  0
   -0.0128    3.6417   -1.4027 O   0  5  0  0  0  0  0  0  0  0  0  0
    2.2066    3.6398   -1.4538 O   0  0  0  0  0  0  0  0  0  0  0  0
    0.1881    0.1678    1.7015 C   0  0  0  0  0  0  0  0  0  0  0  0
    1.3379    0.0002    2.1133 O   0  0  0  0  0  0  0  0  0  0  0  0
   -0.7666    0.7145    2.4656 N   0  0  0  0  0  0  0  0  0  0  0  0
   -1.6971    0.7705    2.0790 H   0  0  0  0  0  0  0  0  0  0  0  0
   -0.5716    1.1232    3.8542 C   0  0  0  0  0  0  0  0  0  0  0  0
    0.3083    1.7643    3.9293 H   0  0  0  0  0  0  0  0  0  0  0  0
   -1.4485    1.6640    4.2131 H   0  0  0  0  0  0  0  0  0  0  0  0
   -0.4137    0.2381    4.4736 H   0  0  0  0  0  0  0  0  0  0  0  0
  5  6  2  0  0  0  0
  5  7  1  0  0  0  0
  2  3  1  0  0  0  0
  2  4  1  0  0  0  0
  2  5  1  0  0  0  0
  1  2  1  0  0  0  0
 20 21  2  0  0  0  0
 20 22  1  0  0  0  0
 17 18  1  0  0  0  0
 17 19  2  0  0  0  0
 14 15  1  0  0  0  0
 14 16  1  0  0  0  0
 14 17  1  0  0  0  0
 11 12  1  0  0  0  0
 11 13  1  0  0  0  0
 11 14  1  0  0  0  0
  9 10  1  0  0  0  0
  9 11  1  0  0  0  0
  9 20  1  0  0  0  0
  7  8  1  0  0  0  0
  7  9  1  0  0  0  0
 24 25  1  0  0  0  0
 24 26  1  0  0  0  0
 24 27  1  0  0  0  0
 22 23  1  0  0  0  0
 22 24  1  0  0  0  0
M  CHG  1  18  -1
M  END
$$$$
default_name
  -OEChem-02102213163D

 27 26  0     1  0  0  0  0  0999 V2000
   -3.2406   -3.5400    1.2326 H   0  0  0  0  0  0  0  0  0  0  0  0
   -3.1436   -2.6190    0.6606 C   0  0  0  0  0  0  0  0  0  0  0  0
   -3.8786   -1.8920    0.9996 H   0  0  0  0  0  0  0  0  0  0  0  0
   -3.2846   -2.8280   -0.3984 H   0  0  0  0  0  0  0  0  0  0  0  0
   -1.7586   -2.0580    0.8686 C   0  0  0  0  0  0  0  0  0  0  0  0
   -0.9666   -2.6340    1.6026 O   0  0  0  0  0  0  0  0  0  0  0  0
   -1.4866   -0.9220    0.2366 N   0  0  0  0  0  0  0  0  0  0  0  0
   -2.2166   -0.4790   -0.2994 H   0  0  0  0  0  0  0  0  0  0  0  0
   -0.1956   -0.2250    0.2596 C   0  0  1  0  0  0  0  0  0  0  0  0
    0.5755   -0.9013   -0.1105 H   0  0  0  0  0  0  0  0  0  0  0  0
   -0.2553    0.9811   -0.6992 C   0  0  0  0  0  0  0  0  0  0  0  0
   -0.7268    0.6508   -1.6261 H   0  0  0  0  0  0  0  0  0  0  0  0
   -0.8750    1.7625   -0.2568 H   0  0  0  0  0  0  0  0  0  0  0  0
    1.1274    1.5642   -1.0364 C   0  0  0  0  0  0  0  0  0  0  0  0
    1.8652    1.1603   -0.3389 H   0  0  0  0  0  0  0  0  0  0  0  0
    1.4011    1.2376   -2.0431 H   0  0  0  0  0  0  0  0  0  0  0  0
    1.1754    3.0979   -0.9709 C   0  0  0  0  0  0  0  0  0  0  0  0
    0.1032    3.7188   -0.7938 O   0  5  0  0  0  0  0  0  0  0  0  0
    2.3033    3.6289   -1.0763 O   0  0  0  0  0  0  0  0  0  0  0  0
    0.1881    0.1678    1.7015 C   0  0  0  0  0  0  0  0  0  0  0  0
    1.3379    0.0002    2.1133 O   0  0  0  0  0  0  0  0  0  0  0  0
   -0.7666    0.7145    2.4656 N   0  0  0  0  0  0  0  0  0  0  0  0
   -1.6971    0.7705    2.0790 H   0  0  0  0  0  0  0  0  0  0  0  0
   -0.5716    1.1232    3.8542 C   0  0  0  0  0  0  0  0  0  0  0  0
    0.3083    1.7643    3.9293 H   0  0  0  0  0  0  0  0  0  0  0  0
   -1.4485    1.6640    4.2131 H   0  0  0  0  0  0  0  0  0  0  0  0
   -0.4137    0.2381    4.4736 H   0  0  0  0  0  0  0  0  0  0  0  0
  5  6  2  0  0  0  0
  5  7  1  0  0  0  0
  2  3  1  0  0  0  0
  2  4  1  0  0  0  0
  2  5  1  0  0  0  0
  1  2  1  0  0  0  0
 20 21  2  0  0  0  0
 20 22  1  0  0  0  0
 17 18  1  0  0  0  0
 17 19  2  0  0  0  0
 14 15  1  0  0  0  0
 14 16  1  0  0  0  0
 14 17  1  0  0  0  0
 11 12  1  0  0  0  0
 11 13  1  0  0  0  0
 11 14  1  0  0  0  0
  9 10  1  0  0  0  0
  9 11  1  0  0  0  0
  9 20  1  0  0  0  0
  7  8  1  0  0  0  0
  7  9  1  0  0  0  0
 24 25  1  0  0  0  0
 24 26  1  0  0  0  0
 24 27  1  0  0  0  0
 22 23  1  0  0  0  0
 22 24  1  0  0  0  0
M  CHG  1  18  -1
M  END
$$$$
default_name
  -OEChem-02102213163D

 27 26  0     1  0  0  0  0  0999 V2000
   -3.2406   -3.5400    1.2326 H   0  0  0  0  0  0  0  0  0  0  0  0
   -3.1436   -2.6190    0.6606 C   0  0  0  0  0  0  0  0  0  0  0  0
   -3.8786   -1.8920    0.9996 H   0  0  0  0  0  0  0  0  0  0  0  0
   -3.2846   -2.8280   -0.3984 H   0  0  0  0  0  0  0  0  0  0  0  0
   -1.7586   -2.0580    0.8686 C   0  0  0  0  0  0  0  0  0  0  0  0
   -0.9666   -2.6340    1.6026 O   0  0  0  0  0  0  0  0  0  0  0  0
   -1.4866   -0.9220    0.2366 N   0  0  0  0  0  0  0  0  0  0  0  0
   -2.2166   -0.4790   -0.2994 H   0  0  0  0  0  0  0  0  0  0  0  0
   -0.1956   -0.2250    0.2596 C   0  0  1  0  0  0  0  0  0  0  0  0
    0.5755   -0.9013   -0.1105 H   0  0  0  0  0  0  0  0  0  0  0  0
   -0.2553    0.9811   -0.6992 C   0  0  0  0  0  0  0  0  0  0  0  0
   -0.7268    0.6508   -1.6261 H   0  0  0  0  0  0  0  0  0  0  0  0
   -0.8750    1.7625   -0.2568 H   0  0  0  0  0  0  0  0  0  0  0  0
    1.1274    1.5642   -1.0364 C   0  0  0  0  0  0  0  0  0  0  0  0
    1.8965    0.9745   -0.5317 H   0  0  0  0  0  0  0  0  0  0  0  0
    1.2850    1.4719   -2.1142 H   0  0  0  0  0  0  0  0  0  0  0  0
    1.2859    3.0356   -0.6256 C   0  0  0  0  0  0  0  0  0  0  0  0
    0.2793    3.6450   -0.1991 O   0  5  0  0  0  0  0  0  0  0  0  0
    2.4331    3.5250   -0.7237 O   0  0  0  0  0  0  0  0  0  0  0  0
    0.1881    0.1678    1.7015 C   0  0  0  0  0  0  0  0  0  0  0  0
    1.3379    0.0002    2.1133 O   0  0  0  0  0  0  0  0  0  0  0  0
   -0.7666    0.7145    2.4656 N   0  0  0  0  0  0  0  0  0  0  0  0
   -1.6971    0.7705    2.0790 H   0  0  0  0  0  0  0  0  0  0  0  0
   -0.5716    1.1232    3.8542 C   0  0  0  0  0  0  0  0  0  0  0  0
    0.3083    1.7643    3.9293 H   0  0  0  0  0  0  0  0  0  0  0  0
   -1.4485    1.6640    4.2131 H   0  0  0  0  0  0  0  0  0  0  0  0
   -0.4137    0.2381    4.4736 H   0  0  0  0  0  0  0  0  0  0  0  0
  5  6  2  0  0  0  0
  5  7  1  0  0  0  0
  2  3  1  0  0  0  0
  2  4  1  0  0  0  0
  2  5  1  0  0  0  0
  1  2  1  0  0  0  0
 20 21  2  0  0  0  0
 20 22  1  0  0  0  0
 17 18  1  0  0  0  0
 17 19  2  0  0  0  0
 14 15  1  0  0  0  0
 14 16  1  0  0  0  0
 14 17  1  0  0  0  0
 11 12  1  0  0  0  0
 11 13  1  0  0  0  0
 11 14  1  0  0  0  0
  9 10  1  0  0  0  0
  9 11  1  0  0  0  0
  9 20  1  0  0  0  0
  7  8  1  0  0  0  0
  7  9  1  0  0  0  0
 24 25  1  0  0  0  0
 24 26  1  0  0  0  0
 24 27  1  0  0  0  0
 22 23  1  0  0  0  0
 22 24  1  0  0  0  0
M  CHG  1  18  -1
M  END
$$$$
default_name
  -OEChem-02102213163D

 27 26  0     1  0  0  0  0  0999 V2000
   -3.2406   -3.5400    1.2326 H   0  0  0  0  0  0  0  0  0  0  0  0
   -3.1436   -2.6190    0.6606 C   0  0  0  0  0  0  0  0  0  0  0  0
   -3.8786   -1.8920    0.9996 H   0  0  0  0  0  0  0  0  0  0  0  0
   -3.2846   -2.8280   -0.3984 H   0  0  0  0  0  0  0  0  0  0  0  0
   -1.7586   -2.0580    0.8686 C   0  0  0  0  0  0  0  0  0  0  0  0
   -0.9666   -2.6340    1.6026 O   0  0  0  0  0  0  0  0  0  0  0  0
   -1.4866   -0.9220    0.2366 N   0  0  0  0  0  0  0  0  0  0  0  0
   -2.2166   -0.4790   -0.2994 H   0  0  0  0  0  0  0  0  0  0  0  0
   -0.1956   -0.2250    0.2596 C   0  0  1  0  0  0  0  0  0  0  0  0
    0.5755   -0.9013   -0.1105 H   0  0  0  0  0  0  0  0  0  0  0  0
   -0.2553    0.9811   -0.6992 C   0  0  0  0  0  0  0  0  0  0  0  0
   -0.7268    0.6508   -1.6261 H   0  0  0  0  0  0  0  0  0  0  0  0
   -0.8750    1.7625   -0.2568 H   0  0  0  0  0  0  0  0  0  0  0  0
    1.1274    1.5642   -1.0364 C   0  0  0  0  0  0  0  0  0  0  0  0
    1.8973    0.8382   -0.7642 H   0  0  0  0  0  0  0  0  0  0  0  0
    1.1791    1.7213   -2.1170 H   0  0  0  0  0  0  0  0  0  0  0  0
    1.4230    2.8888   -0.3173 C   0  0  0  0  0  0  0  0  0  0  0  0
    0.5036    3.4254    0.3409 O   0  5  0  0  0  0  0  0  0  0  0  0
    2.5872    3.3352   -0.4201 O   0  0  0  0  0  0  0  0  0  0  0  0
    0.1881    0.1678    1.7015 C   0  0  0  0  0  0  0  0  0  0  0  0
    1.3379    0.0002    2.1133 O   0  0  0  0  0  0  0  0  0  0  0  0
   -0.7666    0.7145    2.4656 N   0  0  0  0  0  0  0  0  0  0  0  0
   -1.6971    0.7705    2.0790 H   0  0  0  0  0  0  0  0  0  0  0  0
   -0.5716    1.1232    3.8542 C   0  0  0  0  0  0  0  0  0  0  0  0
    0.3083    1.7643    3.9293 H   0  0  0  0  0  0  0  0  0  0  0  0
   -1.4485    1.6640    4.2131 H   0  0  0  0  0  0  0  0  0  0  0  0
   -0.4137    0.2381    4.4736 H   0  0  0  0  0  0  0  0  0  0  0  0
  5  6  2  0  0  0  0
  5  7  1  0  0  0  0
  2  3  1  0  0  0  0
  2  4  1  0  0  0  0
  2  5  1  0  0  0  0
  1  2  1  0  0  0  0
 20 21  2  0  0  0  0
 20 22  1  0  0  0  0
 17 18  1  0  0  0  0
 17 19  2  0  0  0  0
 14 15  1  0  0  0  0
 14 16  1  0  0  0  0
 14 17  1  0  0  0  0
 11 12  1  0  0  0  0
 11 13  1  0  0  0  0
 11 14  1  0  0  0  0
  9 10  1  0  0  0  0
  9 11  1  0  0  0  0
  9 20  1  0  0  0  0
  7  8  1  0  0  0  0
  7  9  1  0  0  0  0
 24 25  1  0  0  0  0
 24 26  1  0  0  0  0
 24 27  1  0  0  0  0
 22 23  1  0  0  0  0
 22 24  1  0  0  0  0
M  CHG  1  18  -1
M  END
$$$$
default_name
  -OEChem-02102213163D

 27 26  0     1  0  0  0  0  0999 V2000
   -3.2406   -3.5400    1.2326 H   0  0  0  0  0  0  0  0  0  0  0  0
   -3.1436   -2.6190    0.6606 C   0  0  0  0  0  0  0  0  0  0  0  0
   -3.8786   -1.8920    0.9996 H   0  0  0  0  0  0  0  0  0  0  0  0
   -3.2846   -2.8280   -0.3984 H   0  0  0  0  0  0  0  0  0  0  0  0
   -1.7586   -2.0580    0.8686 C   0  0  0  0  0  0  0  0  0  0  0  0
   -0.9666   -2.6340    1.6026 O   0  0  0  0  0  0  0  0  0  0  0  0
   -1.4866   -0.9220    0.2366 N   0  0  0  0  0  0  0  0  0  0  0  0
   -2.2166   -0.4790   -0.2994 H   0  0  0  0  0  0  0  0  0  0  0  0
   -0.1956   -0.2250    0.2596 C   0  0  1  0  0  0  0  0  0  0  0  0
    0.5755   -0.9013   -0.1105 H   0  0  0  0  0  0  0  0  0  0  0  0
   -0.2553    0.9811   -0.6992 C   0  0  0  0  0  0  0  0  0  0  0  0
   -0.7268    0.6508   -1.6261 H   0  0  0  0  0  0  0  0  0  0  0  0
   -0.8750    1.7625   -0.2568 H   0  0  0  0  0  0  0  0  0  0  0  0
    1.1274    1.5642   -1.0364 C   0  0  0  0  0  0  0  0  0  0  0  0
    1.8675    0.7605   -1.0207 H   0  0  0  0  0  0  0  0  0  0  0  0
    1.0908    1.9689   -2.0512 H   0  0  0  0  0  0  0  0  0  0  0  0
    1.5773    2.6674   -0.0672 C   0  0  0  0  0  0  0  0  0  0  0  0
    0.7608    3.0749    0.7895 O   0  5  0  0  0  0  0  0  0  0  0  0
    2.7551    3.0725   -0.1860 O   0  0  0  0  0  0  0  0  0  0  0  0
    0.1881    0.1678    1.7015 C   0  0  0  0  0  0  0  0  0  0  0  0
    1.3379    0.0002    2.1133 O   0  0  0  0  0  0  0  0  0  0  0  0
   -0.7666    0.7145    2.4656 N   0  0  0  0  0  0  0  0  0  0  0  0
   -1.6971    0.7705    2.0790 H   0  0  0  0  0  0  0  0  0  0  0  0
   -0.5716    1.1232    3.8542 C   0  0  0  0  0  0  0  0  0  0  0  0
    0.3083    1.7643    3.9293 H   0  0  0  0  0  0  0  0  0  0  0  0
   -1.4485    1.6640    4.2131 H   0  0  0  0  0  0  0  0  0  0  0  0
   -0.4137    0.2381    4.4736 H   0  0  0  0  0  0  0  0  0  0  0  0
  5  6  2  0  0  0  0
  5  7  1  0  0  0  0
  2  3  1  0  0  0  0
  2  4  1  0  0  0  0
  2  5  1  0  0  0  0
  1  2  1  0  0  0  0
 20 21  2  0  0  0  0
 20 22  1  0  0  0  0
 17 18  1  0  0  0  0
 17 19  2  0  0  0  0
 14 15  1  0  0  0  0
 14 16  1  0  0  0  0
 14 17  1  0  0  0  0
 11 12  1  0  0  0  0
 11 13  1  0  0  0  0
 11 14  1  0  0  0  0
  9 10  1  0  0  0  0
  9 11  1  0  0  0  0
  9 20  1  0  0  0  0
  7  8  1  0  0  0  0
  7  9  1  0  0  0  0
 24 25  1  0  0  0  0
 24 26  1  0  0  0  0
 24 27  1  0  0  0  0
 22 23  1  0  0  0  0
 22 24  1  0  0  0  0
M  CHG  1  18  -1
M  END
$$$$
default_name
  -OEChem-02102213163D

 27 26  0     1  0  0  0  0  0999 V2000
   -3.2406   -3.5400    1.2326 H   0  0  0  0  0  0  0  0  0  0  0  0
   -3.1436   -2.6190    0.6606 C   0  0  0  0  0  0  0  0  0  0  0  0
   -3.8786   -1.8920    0.9996 H   0  0  0  0  0  0  0  0  0  0  0  0
   -3.2846   -2.8280   -0.3984 H   0  0  0  0  0  0  0  0  0  0  0  0
   -1.7586   -2.0580    0.8686 C   0  0  0  0  0  0  0  0  0  0  0  0
   -0.9666   -2.6340    1.6026 O   0  0  0  0  0  0  0  0  0  0  0  0
   -1.4866   -0.9220    0.2366 N   0  0  0  0  0  0  0  0  0  0  0  0
   -2.2166   -0.4790   -0.2994 H   0  0  0  0  0  0  0  0  0  0  0  0
   -0.1956   -0.2250    0.2596 C   0  0  1  0  0  0  0  0  0  0  0  0
    0.5755   -0.9013   -0.1105 H   0  0  0  0  0  0  0  0  0  0  0  0
   -0.2553    0.9811   -0.6992 C   0  0  0  0  0  0  0  0  0  0  0  0
   -0.7268    0.6508   -1.6261 H   0  0  0  0  0  0  0  0  0  0  0  0
   -0.8750    1.7625   -0.2568 H   0  0  0  0  0  0  0  0  0  0  0  0
    1.1274    1.5642   -1.0364 C   0  0  0  0  0  0  0  0  0  0  0  0
    1.8092    0.7469   -1.2835 H   0  0  0  0  0  0  0  0  0  0  0  0
    1.0259    2.1978   -1.9215 H   0  0  0  0  0  0  0  0  0  0  0  0
    1.7384    2.3867    0.1078 C   0  0  0  0  0  0  0  0  0  0  0  0
    1.0334    2.6173    1.1159 O   0  5  0  0  0  0  0  0  0  0  0  0
    2.9252    2.7548   -0.0376 O   0  0  0  0  0  0  0  0  0  0  0  0
    0.1881    0.1678    1.7015 C   0  0  0  0  0  0  0  0  0  0  0  0
    1.3379    0.0002    2.1133 O   0  0  0  0  0  0  0  0  0  0  0  0
   -0.7666    0.7145    2.4656 N   0  0  0  0  0  0  0  0  0  0  0  0
   -1.6971    0.7705    2.0790 H   0  0  0  0  0  0  0  0  0  0  0  0
   -0.5716    1.1232    3.8542 C   0  0  0  0  0  0  0  0  0  0  0  0
    0.3083    1.7643    3.9293 H   0  0  0  0  0  0  0  0  0  0  0  0
   -1.4485    1.6640    4.2131 H   0  0  0  0  0  0  0  0  0  0  0  0
   -0.4137    0.2381    4.4736 H   0  0  0  0  0  0  0  0  0  0  0  0
  5  6  2  0  0  0  0
  5  7  1  0  0  0  0
  2  3  1  0  0  0  0
  2  4  1  0  0  0  0
  2  5  1  0  0  0  0
  1  2  1  0  0  0  0
 20 21  2  0  0  0  0
 20 22  1  0  0  0  0
 17 18  1  0  0  0  0
 17 19  2  0  0  0  0
 14 15  1  0  0  0  0
 14 16  1  0  0  0  0
 14 17  1  0  0  0  0
 11 12  1  0  0  0  0
 11 13  1  0  0  0  0
 11 14  1  0  0  0  0
  9 10  1  0  0  0  0
  9 11  1  0  0  0  0
  9 20  1  0  0  0  0
  7  8  1  0  0  0  0
  7  9  1  0  0  0  0
 24 25  1  0  0  0  0
 24 26  1  0  0  0  0
 24 27  1  0  0  0  0
 22 23  1  0  0  0  0
 22 24  1  0  0  0  0
M  CHG  1  18  -1
M  END
$$$$
default_name
  -OEChem-02102213163D

 27 26  0     1  0  0  0  0  0999 V2000
   -3.2406   -3.5400    1.2326 H   0  0  0  0  0  0  0  0  0  0  0  0
   -3.1436   -2.6190    0.6606 C   0  0  0  0  0  0  0  0  0  0  0  0
   -3.8786   -1.8920    0.9996 H   0  0  0  0  0  0  0  0  0  0  0  0
   -3.2846   -2.8280   -0.3984 H   0  0  0  0  0  0  0  0  0  0  0  0
   -1.7586   -2.0580    0.8686 C   0  0  0  0  0  0  0  0  0  0  0  0
   -0.9666   -2.6340    1.6026 O   0  0  0  0  0  0  0  0  0  0  0  0
   -1.4866   -0.9220    0.2366 N   0  0  0  0  0  0  0  0  0  0  0  0
   -2.2166   -0.4790   -0.2994 H   0  0  0  0  0  0  0  0  0  0  0  0
   -0.1956   -0.2250    0.2596 C   0  0  1  0  0  0  0  0  0  0  0  0
    0.5755   -0.9013   -0.1105 H   0  0  0  0  0  0  0  0  0  0  0  0
   -0.2553    0.9811   -0.6992 C   0  0  0  0  0  0  0  0  0  0  0  0
   -0.7268    0.6508   -1.6261 H   0  0  0  0  0  0  0  0  0  0  0  0
   -0.8750    1.7625   -0.2568 H   0  0  0  0  0  0  0  0  0  0  0  0
    1.1274    1.5642   -1.0364 C   0  0  0  0  0  0  0  0  0  0  0  0
    1.7262    0.7981   -1.5348 H   0  0  0  0  0  0  0  0  0  0  0  0
    0.9890    2.3923   -1.7365 H   0  0  0  0  0  0  0  0  0  0  0  0
    1.8952    2.0656    0.1957 C   0  0  0  0  0  0  0  0  0  0  0  0
    1.3027    2.0840    1.2980 O   0  5  0  0  0  0  0  0  0  0  0  0
    3.0862    2.4037    0.0152 O   0  0  0  0  0  0  0  0  0  0  0  0
    0.1881    0.1678    1.7015 C   0  0  0  0  0  0  0  0  0  0  0  0
    1.3379    0.0002    2.1133 O   0  0  0  0  0  0  0  0  0  0  0  0
   -0.7666    0.7145    2.4656 N   0  0  0  0  0  0  0  0  0  0  0  0
   -1.6971    0.7705    2.0790 H   0  0  0  0  0  0  0  0  0  0  0  0
   -0.5716    1.1232    3.8542 C   0  0  0  0  0  0  0  0  0  0  0  0
    0.3083    1.7643    3.9293 H   0  0  0  0  0  0  0  0  0  0  0  0
   -1.4485    1.6640    4.2131 H   0  0  0  0  0  0  0  0  0  0  0  0
   -0.4137    0.2381    4.4736 H   0  0  0  0  0  0  0  0  0  0  0  0
  5  6  2  0  0  0  0
  5  7  1  0  0  0  0
  2  3  1  0  0  0  0
  2  4  1  0  0  0  0
  2  5  1  0  0  0  0
  1  2  1  0  0  0  0
 20 21  2  0  0  0  0
 20 22  1  0  0  0  0
 17 18  1  0  0  0  0
 17 19  2  0  0  0  0
 14 15  1  0  0  0  0
 14 16  1  0  0  0  0
 14 17  1  0  0  0  0
 11 12  1  0  0  0  0
 11 13  1  0  0  0  0
 11 14  1  0  0  0  0
  9 10  1  0  0  0  0
  9 11  1  0  0  0  0
  9 20  1  0  0  0  0
  7  8  1  0  0  0  0
  7  9  1  0  0  0  0
 24 25  1  0  0  0  0
 24 26  1  0  0  0  0
 24 27  1  0  0  0  0
 22 23  1  0  0  0  0
 22 24  1  0  0  0  0
M  CHG  1  18  -1
M  END
$$$$
default_name
  -OEChem-02102213163D

 27 26  0     1  0  0  0  0  0999 V2000
   -3.2406   -3.5400    1.2326 H   0  0  0  0  0  0  0  0  0  0  0  0
   -3.1436   -2.6190    0.6606 C   0  0  0  0  0  0  0  0  0  0  0  0
   -3.8786   -1.8920    0.9996 H   0  0  0  0  0  0  0  0  0  0  0  0
   -3.2846   -2.8280   -0.3984 H   0  0  0  0  0  0  0  0  0  0  0  0
   -1.7586   -2.0580    0.8686 C   0  0  0  0  0  0  0  0  0  0  0  0
   -0.9666   -2.6340    1.6026 O   0  0  0  0  0  0  0  0  0  0  0  0
   -1.4866   -0.9220    0.2366 N   0  0  0  0  0  0  0  0  0  0  0  0
   -2.2166   -0.4790   -0.2994 H   0  0  0  0  0  0  0  0  0  0  0  0
   -0.1956   -0.2250    0.2596 C   0  0  1  0  0  0  0  0  0  0  0  0
    0.5755   -0.9013   -0.1105 H   0  0  0  0  0  0  0  0  0  0  0  0
   -0.2553    0.9811   -0.6992 C   0  0  0  0  0  0  0  0  0  0  0  0
   -0.7268    0.6508   -1.6261 H   0  0  0  0  0  0  0  0  0  0  0  0
   -0.8750    1.7625   -0.2568 H   0  0  0  0  0  0  0  0  0  0  0  0
    1.1274    1.5642   -1.0364 C   0  0  0  0  0  0  0  0  0  0  0  0
    1.6244    0.9108   -1.7575 H   0  0  0  0  0  0  0  0  0  0  0  0
    0.9825    2.5393   -1.5089 H   0  0  0  0  0  0  0  0  0  0  0  0
    2.0371    1.7262    0.1905 C   0  0  0  0  0  0  0  0  0  0  0  0
    1.5504    1.5111    1.3234 O   0  5  0  0  0  0  0  0  0  0  0  0
    3.2269    2.0431   -0.0313 O   0  0  0  0  0  0  0  0  0  0  0  0
    0.1881    0.1678    1.7015 C   0  0  0  0  0  0  0  0  0  0  0  0
    1.3379    0.0002    2.1133 O   0  0  0  0  0  0  0  0  0  0  0  0
   -0.7666    0.7145    2.4656 N   0  0  0  0  0  0  0  0  0  0  0  0
   -1.6971    0.7705    2.0790 H   0  0  0  0  0  0  0  0  0  0  0  0
   -0.5716    1.1232    3.8542 C   0  0  0  0  0  0  0  0  0  0  0  0
    0.3083    1.7643    3.9293 H   0  0  0  0  0  0  0  0  0  0  0  0
   -1.4485    1.6640    4.2131 H   0  0  0  0  0  0  0  0  0  0  0  0
   -0.4137    0.2381    4.4736 H   0  0  0  0  0  0  0  0  0  0  0  0
  5  6  2  0  0  0  0
  5  7  1  0  0  0  0
  2  3  1  0  0  0  0
  2  4  1  0  0  0  0
  2  5  1  0  0  0  0
  1  2  1  0  0  0  0
 20 21  2  0  0  0  0
 20 22  1  0  0  0  0
 17 18  1  0  0  0  0
 17 19  2  0  0  0  0
 14 15  1  0  0  0  0
 14 16  1  0  0  0  0
 14 17  1  0  0  0  0
 11 12  1  0  0  0  0
 11 13  1  0  0  0  0
 11 14  1  0  0  0  0
  9 10  1  0  0  0  0
  9 11  1  0  0  0  0
  9 20  1  0  0  0  0
  7  8  1  0  0  0  0
  7  9  1  0  0  0  0
 24 25  1  0  0  0  0
 24 26  1  0  0  0  0
 24 27  1  0  0  0  0
 22 23  1  0  0  0  0
 22 24  1  0  0  0  0
M  CHG  1  18  -1
M  END
$$$$
default_name
  -OEChem-02102213163D

 27 26  0     1  0  0  0  0  0999 V2000
   -3.2406   -3.5400    1.2326 H   0  0  0  0  0  0  0  0  0  0  0  0
   -3.1436   -2.6190    0.6606 C   0  0  0  0  0  0  0  0  0  0  0  0
   -3.8786   -1.8920    0.9996 H   0  0  0  0  0  0  0  0  0  0  0  0
   -3.2846   -2.8280   -0.3984 H   0  0  0  0  0  0  0  0  0  0  0  0
   -1.7586   -2.0580    0.8686 C   0  0  0  0  0  0  0  0  0  0  0  0
   -0.9666   -2.6340    1.6026 O   0  0  0  0  0  0  0  0  0  0  0  0
   -1.4866   -0.9220    0.2366 N   0  0  0  0  0  0  0  0  0  0  0  0
   -2.2166   -0.4790   -0.2994 H   0  0  0  0  0  0  0  0  0  0  0  0
   -0.1956   -0.2250    0.2596 C   0  0  1  0  0  0  0  0  0  0  0  0
    0.5755   -0.9013   -0.1105 H   0  0  0  0  0  0  0  0  0  0  0  0
   -0.2553    0.9811   -0.6992 C   0  0  0  0  0  0  0  0  0  0  0  0
   -0.7268    0.6508   -1.6261 H   0  0  0  0  0  0  0  0  0  0  0  0
   -0.8750    1.7625   -0.2568 H   0  0  0  0  0  0  0  0  0  0  0  0
    1.1274    1.5642   -1.0364 C   0  0  0  0  0  0  0  0  0  0  0  0
    1.5106    1.0773   -1.9364 H   0  0  0  0  0  0  0  0  0  0  0  0
    1.0069    2.6287   -1.2543 H   0  0  0  0  0  0  0  0  0  0  0  0
    2.1543    1.3914    0.0926 C   0  0  0  0  0  0  0  0  0  0  0  0
    1.7597    0.9378    1.1903 O   0  5  0  0  0  0  0  0  0  0  0  0
    3.3378    1.6977   -0.1739 O   0  0  0  0  0  0  0  0  0  0  0  0
    0.1881    0.1678    1.7015 C   0  0  0  0  0  0  0  0  0  0  0  0
    1.3379    0.0002    2.1133 O   0  0  0  0  0  0  0  0  0  0  0  0
   -0.7666    0.7145    2.4656 N   0  0  0  0  0  0  0  0  0  0  0  0
   -1.6971    0.7705    2.0790 H   0  0  0  0  0  0  0  0  0  0  0  0
   -0.5716    1.1232    3.8542 C   0  0  0  0  0  0  0  0  0  0  0  0
    0.3083    1.7643    3.9293 H   0  0  0  0  0  0  0  0  0  0  0  0
   -1.4485    1.6640    4.2131 H   0  0  0  0  0  0  0  0  0  0  0  0
   -0.4137    0.2381    4.4736 H   0  0  0  0  0  0  0  0  0  0  0  0
  5  6  2  0  0  0  0
  5  7  1  0  0  0  0
  2  3  1  0  0  0  0
  2  4  1  0  0  0  0
  2  5  1  0  0  0  0
  1  2  1  0  0  0  0
 20 21  2  0  0  0  0
 20 22  1  0  0  0  0
 17 18  1  0  0  0  0
 17 19  2  0  0  0  0
 14 15  1  0  0  0  0
 14 16  1  0  0  0  0
 14 17  1  0  0  0  0
 11 12  1  0  0  0  0
 11 13  1  0  0  0  0
 11 14  1  0  0  0  0
  9 10  1  0  0  0  0
  9 11  1  0  0  0  0
  9 20  1  0  0  0  0
  7  8  1  0  0  0  0
  7  9  1  0  0  0  0
 24 25  1  0  0  0  0
 24 26  1  0  0  0  0
 24 27  1  0  0  0  0
 22 23  1  0  0  0  0
 22 24  1  0  0  0  0
M  CHG  1  18  -1
M  END
$$$$
default_name
  -OEChem-02102213163D

 27 26  0     1  0  0  0  0  0999 V2000
   -3.2406   -3.5400    1.2326 H   0  0  0  0  0  0  0  0  0  0  0  0
   -3.1436   -2.6190    0.6606 C   0  0  0  0  0  0  0  0  0  0  0  0
   -3.8786   -1.8920    0.9996 H   0  0  0  0  0  0  0  0  0  0  0  0
   -3.2846   -2.8280   -0.3984 H   0  0  0  0  0  0  0  0  0  0  0  0
   -1.7586   -2.0580    0.8686 C   0  0  0  0  0  0  0  0  0  0  0  0
   -0.9666   -2.6340    1.6026 O   0  0  0  0  0  0  0  0  0  0  0  0
   -1.4866   -0.9220    0.2366 N   0  0  0  0  0  0  0  0  0  0  0  0
   -2.2166   -0.4790   -0.2994 H   0  0  0  0  0  0  0  0  0  0  0  0
   -0.1956   -0.2250    0.2596 C   0  0  1  0  0  0  0  0  0  0  0  0
    0.5755   -0.9013   -0.1105 H   0  0  0  0  0  0  0  0  0  0  0  0
   -0.2553    0.9811   -0.6992 C   0  0  0  0  0  0  0  0  0  0  0  0
   -0.7268    0.6508   -1.6261 H   0  0  0  0  0  0  0  0  0  0  0  0
   -0.8750    1.7625   -0.2568 H   0  0  0  0  0  0  0  0  0  0  0  0
    1.1274    1.5642   -1.0364 C   0  0  0  0  0  0  0  0  0  0  0  0
    1.3925    1.2862   -2.0593 H   0  0  0  0  0  0  0  0  0  0  0  0
    1.0605    2.6544   -0.9899 H   0  0  0  0  0  0  0  0  0  0  0  0
    2.2390    1.0843   -0.0914 C   0  0  0  0  0  0  0  0  0  0  0  0
    1.9163    0.4031    0.9078 O   0  5  0  0  0  0  0  0  0  0  0  0
    3.4113    1.3909   -0.4029 O   0  0  0  0  0  0  0  0  0  0  0  0
    0.1881    0.1678    1.7015 C   0  0  0  0  0  0  0  0  0  0  0  0
    1.3379    0.0002    2.1133 O   0  0  0  0  0  0  0  0  0  0  0  0
   -0.7666    0.7145    2.4656 N   0  0  0  0  0  0  0  0  0  0  0  0
   -1.6971    0.7705    2.0790 H   0  0  0  0  0  0  0  0  0  0  0  0
   -0.5716    1.1232    3.8542 C   0  0  0  0  0  0  0  0  0  0  0  0
    0.3083    1.7643    3.9293 H   0  0  0  0  0  0  0  0  0  0  0  0
   -1.4485    1.6640    4.2131 H   0  0  0  0  0  0  0  0  0  0  0  0
   -0.4137    0.2381    4.4736 H   0  0  0  0  0  0  0  0  0  0  0  0
  5  6  2  0  0  0  0
  5  7  1  0  0  0  0
  2  3  1  0  0  0  0
  2  4  1  0  0  0  0
  2  5  1  0  0  0  0
  1  2  1  0  0  0  0
 20 21  2  0  0  0  0
 20 22  1  0  0  0  0
 17 18  1  0  0  0  0
 17 19  2  0  0  0  0
 14 15  1  0  0  0  0
 14 16  1  0  0  0  0
 14 17  1  0  0  0  0
 11 12  1  0  0  0  0
 11 13  1  0  0  0  0
 11 14  1  0  0  0  0
  9 10  1  0  0  0  0
  9 11  1  0  0  0  0
  9 20  1  0  0  0  0
  7  8  1  0  0  0  0
  7  9  1  0  0  0  0
 24 25  1  0  0  0  0
 24 26  1  0  0  0  0
 24 27  1  0  0  0  0
 22 23  1  0  0  0  0
 22 24  1  0  0  0  0
M  CHG  1  18  -1
M  END
$$$$
default_name
  -OEChem-02102213163D

 27 26  0     1  0  0  0  0  0999 V2000
   -3.2406   -3.5400    1.2326 H   0  0  0  0  0  0  0  0  0  0  0  0
   -3.1436   -2.6190    0.6606 C   0  0  0  0  0  0  0  0  0  0  0  0
   -3.8786   -1.8920    0.9996 H   0  0  0  0  0  0  0  0  0  0  0  0
   -3.2846   -2.8280   -0.3984 H   0  0  0  0  0  0  0  0  0  0  0  0
   -1.7586   -2.0580    0.8686 C   0  0  0  0  0  0  0  0  0  0  0  0
   -0.9666   -2.6340    1.6026 O   0  0  0  0  0  0  0  0  0  0  0  0
   -1.4866   -0.9220    0.2366 N   0  0  0  0  0  0  0  0  0  0  0  0
   -2.2166   -0.4790   -0.2994 H   0  0  0  0  0  0  0  0  0  0  0  0
   -0.1956   -0.2250    0.2596 C   0  0  1  0  0  0  0  0  0  0  0  0
    0.5755   -0.9013   -0.1105 H   0  0  0  0  0  0  0  0  0  0  0  0
   -0.2553    0.9811   -0.6992 C   0  0  0  0  0  0  0  0  0  0  0  0
   -0.7268    0.6508   -1.6261 H   0  0  0  0  0  0  0  0  0  0  0  0
   -0.8750    1.7625   -0.2568 H   0  0  0  0  0  0  0  0  0  0  0  0
    1.1274    1.5642   -1.0364 C   0  0  0  0  0  0  0  0  0  0  0  0
    1.2783    1.5232   -2.1178 H   0  0  0  0  0  0  0  0  0  0  0  0
    1.1397    2.6146   -0.7339 H   0  0  0  0  0  0  0  0  0  0  0  0
    2.2853    0.8256   -0.3489 C   0  0  0  0  0  0  0  0  0  0  0  0
    2.0095   -0.0565    0.4952 O   0  5  0  0  0  0  0  0  0  0  0  0
    3.4424    1.1437   -0.7027 O   0  0  0  0  0  0  0  0  0  0  0  0
    0.1881    0.1678    1.7015 C   0  0  0  0  0  0  0  0  0  0  0  0
    1.3379    0.0002    2.1133 O   0  0  0  0  0  0  0  0  0  0  0  0
   -0.7666    0.7145    2.4656 N   0  0  0  0  0  0  0  0  0  0  0  0
   -1.6971    0.7705    2.0790 H   0  0  0  0  0  0  0  0  0  0  0  0
   -0.5716    1.1232    3.8542 C   0  0  0  0  0  0  0  0  0  0  0  0
    0.3083    1.7643    3.9293 H   0  0  0  0  0  0  0  0  0  0  0  0
   -1.4485    1.6640    4.2131 H   0  0  0  0  0  0  0  0  0  0  0  0
   -0.4137    0.2381    4.4736 H   0  0  0  0  0  0  0  0  0  0  0  0
  5  6  2  0  0  0  0
  5  7  1  0  0  0  0
  2  3  1  0  0  0  0
  2  4  1  0  0  0  0
  2  5  1  0  0  0  0
  1  2  1  0  0  0  0
 20 21  2  0  0  0  0
 20 22  1  0  0  0  0
 17 18  1  0  0  0  0
 17 19  2  0  0  0  0
 14 15  1  0  0  0  0
 14 16  1  0  0  0  0
 14 17  1  0  0  0  0
 11 12  1  0  0  0  0
 11 13  1  0  0  0  0
 11 14  1  0  0  0  0
  9 10  1  0  0  0  0
  9 11  1  0  0  0  0
  9 20  1  0  0  0  0
  7  8  1  0  0  0  0
  7  9  1  0  0  0  0
 24 25  1  0  0  0  0
 24 26  1  0  0  0  0
 24 27  1  0  0  0  0
 22 23  1  0  0  0  0
 22 24  1  0  0  0  0
M  CHG  1  18  -1
M  END
$$$$
default_name
  -OEChem-02102213163D

 27 26  0     1  0  0  0  0  0999 V2000
   -3.2406   -3.5400    1.2326 H   0  0  0  0  0  0  0  0  0  0  0  0
   -3.1436   -2.6190    0.6606 C   0  0  0  0  0  0  0  0  0  0  0  0
   -3.8786   -1.8920    0.9996 H   0  0  0  0  0  0  0  0  0  0  0  0
   -3.2846   -2.8280   -0.3984 H   0  0  0  0  0  0  0  0  0  0  0  0
   -1.7586   -2.0580    0.8686 C   0  0  0  0  0  0  0  0  0  0  0  0
   -0.9666   -2.6340    1.6026 O   0  0  0  0  0  0  0  0  0  0  0  0
   -1.4866   -0.9220    0.2366 N   0  0  0  0  0  0  0  0  0  0  0  0
   -2.2166   -0.4790   -0.2994 H   0  0  0  0  0  0  0  0  0  0  0  0
   -0.1956   -0.2250    0.2596 C   0  0  1  0  0  0  0  0  0  0  0  0
    0.5755   -0.9013   -0.1105 H   0  0  0  0  0  0  0  0  0  0  0  0
   -0.2553    0.9811   -0.6992 C   0  0  0  0  0  0  0  0  0  0  0  0
   -0.7268    0.6508   -1.6261 H   0  0  0  0  0  0  0  0  0  0  0  0
   -0.8750    1.7625   -0.2568 H   0  0  0  0  0  0  0  0  0  0  0  0
    1.1274    1.5642   -1.0364 C   0  0  0  0  0  0  0  0  0  0  0  0
    1.1757    1.7723   -2.1079 H   0  0  0  0  0  0  0  0  0  0  0  0
    1.2391    2.5122   -0.5035 H   0  0  0  0  0  0  0  0  0  0  0  0
    2.2901    0.6329   -0.6624 C   0  0  0  0  0  0  0  0  0  0  0  0
    2.0329   -0.4097   -0.0195 O   0  5  0  0  0  0  0  0  0  0  0  0
    3.4290    0.9729   -1.0529 O   0  0  0  0  0  0  0  0  0  0  0  0
    0.1881    0.1678    1.7015 C   0  0  0  0  0  0  0  0  0  0  0  0
    1.3379    0.0002    2.1133 O   0  0  0  0  0  0  0  0  0  0  0  0
   -0.7666    0.7145    2.4656 N   0  0  0  0  0  0  0  0  0  0  0  0
   -1.6971    0.7705    2.0790 H   0  0  0  0  0  0  0  0  0  0  0  0
   -0.5716    1.1232    3.8542 C   0  0  0  0  0  0  0  0  0  0  0  0
    0.3083    1.7643    3.9293 H   0  0  0  0  0  0  0  0  0  0  0  0
   -1.4485    1.6640    4.2131 H   0  0  0  0  0  0  0  0  0  0  0  0
   -0.4137    0.2381    4.4736 H   0  0  0  0  0  0  0  0  0  0  0  0
  5  6  2  0  0  0  0
  5  7  1  0  0  0  0
  2  3  1  0  0  0  0
  2  4  1  0  0  0  0
  2  5  1  0  0  0  0
  1  2  1  0  0  0  0
 20 21  2  0  0  0  0
 20 22  1  0  0  0  0
 17 18  1  0  0  0  0
 17 19  2  0  0  0  0
 14 15  1  0  0  0  0
 14 16  1  0  0  0  0
 14 17  1  0  0  0  0
 11 12  1  0  0  0  0
 11 13  1  0  0  0  0
 11 14  1  0  0  0  0
  9 10  1  0  0  0  0
  9 11  1  0  0  0  0
  9 20  1  0  0  0  0
  7  8  1  0  0  0  0
  7  9  1  0  0  0  0
 24 25  1  0  0  0  0
 24 26  1  0  0  0  0
 24 27  1  0  0  0  0
 22 23  1  0  0  0  0
 22 24  1  0  0  0  0
M  CHG  1  18  -1
M  END
$$$$
default_name
  -OEChem-02102213163D

 27 26  0     1  0  0  0  0  0999 V2000
   -3.2406   -3.5400    1.2326 H   0  0  0  0  0  0  0  0  0  0  0  0
   -3.1436   -2.6190    0.6606 C   0  0  0  0  0  0  0  0  0  0  0  0
   -3.8786   -1.8920    0.9996 H   0  0  0  0  0  0  0  0  0  0  0  0
   -3.2846   -2.8280   -0.3984 H   0  0  0  0  0  0  0  0  0  0  0  0
   -1.7586   -2.0580    0.8686 C   0  0  0  0  0  0  0  0  0  0  0  0
   -0.9666   -2.6340    1.6026 O   0  0  0  0  0  0  0  0  0  0  0  0
   -1.4866   -0.9220    0.2366 N   0  0  0  0  0  0  0  0  0  0  0  0
   -2.2166   -0.4790   -0.2994 H   0  0  0  0  0  0  0  0  0  0  0  0
   -0.1956   -0.2250    0.2596 C   0  0  1  0  0  0  0  0  0  0  0  0
    0.5755   -0.9013   -0.1105 H   0  0  0  0  0  0  0  0  0  0  0  0
   -0.2553    0.9811   -0.6992 C   0  0  0  0  0  0  0  0  0  0  0  0
   -0.7268    0.6508   -1.6261 H   0  0  0  0  0  0  0  0  0  0  0  0
   -0.8750    1.7625   -0.2568 H   0  0  0  0  0  0  0  0  0  0  0  0
    1.1274    1.5642   -1.0364 C   0  0  0  0  0  0  0  0  0  0  0  0
    1.0917    2.0164   -2.0304 H   0  0  0  0  0  0  0  0  0  0  0  0
    1.3519    2.3540   -0.3146 H   0  0  0  0  0  0  0  0  0  0  0  0
    2.2530    0.5196   -1.0104 C   0  0  0  0  0  0  0  0  0  0  0  0
    1.9850   -0.6324   -0.6011 O   0  5  0  0  0  0  0  0  0  0  0  0
    3.3720    0.8902   -1.4295 O   0  0  0  0  0  0  0  0  0  0  0  0
    0.1881    0.1678    1.7015 C   0  0  0  0  0  0  0  0  0  0  0  0
    1.3379    0.0002    2.1133 O   0  0  0  0  0  0  0  0  0  0  0  0
   -0.7666    0.7145    2.4656 N   0  0  0  0  0  0  0  0  0  0  0  0
   -1.6971    0.7705    2.0790 H   0  0  0  0  0  0  0  0  0  0  0  0
   -0.5716    1.1232    3.8542 C   0  0  0  0  0  0  0  0  0  0  0  0
    0.3083    1.7643    3.9293 H   0  0  0  0  0  0  0  0  0  0  0  0
   -1.4485    1.6640    4.2131 H   0  0  0  0  0  0  0  0  0  0  0  0
   -0.4137    0.2381    4.4736 H   0  0  0  0  0  0  0  0  0  0  0  0
  5  6  2  0  0  0  0
  5  7  1  0  0  0  0
  2  3  1  0  0  0  0
  2  4  1  0  0  0  0
  2  5  1  0  0  0  0
  1  2  1  0  0  0  0
 20 21  2  0  0  0  0
 20 22  1  0  0  0  0
 17 18  1  0  0  0  0
 17 19  2  0  0  0  0
 14 15  1  0  0  0  0
 14 16  1  0  0  0  0
 14 17  1  0  0  0  0
 11 12  1  0  0  0  0
 11 13  1  0  0  0  0
 11 14  1  0  0  0  0
  9 10  1  0  0  0  0
  9 11  1  0  0  0  0
  9 20  1  0  0  0  0
  7  8  1  0  0  0  0
  7  9  1  0  0  0  0
 24 25  1  0  0  0  0
 24 26  1  0  0  0  0
 24 27  1  0  0  0  0
 22 23  1  0  0  0  0
 22 24  1  0  0  0  0
M  CHG  1  18  -1
M  END
$$$$
default_name
  -OEChem-02102213163D

 27 26  0     1  0  0  0  0  0999 V2000
   -3.2406   -3.5400    1.2326 H   0  0  0  0  0  0  0  0  0  0  0  0
   -3.1436   -2.6190    0.6606 C   0  0  0  0  0  0  0  0  0  0  0  0
   -3.8786   -1.8920    0.9996 H   0  0  0  0  0  0  0  0  0  0  0  0
   -3.2846   -2.8280   -0.3984 H   0  0  0  0  0  0  0  0  0  0  0  0
   -1.7586   -2.0580    0.8686 C   0  0  0  0  0  0  0  0  0  0  0  0
   -0.9666   -2.6340    1.6026 O   0  0  0  0  0  0  0  0  0  0  0  0
   -1.4866   -0.9220    0.2366 N   0  0  0  0  0  0  0  0  0  0  0  0
   -2.2166   -0.4790   -0.2994 H   0  0  0  0  0  0  0  0  0  0  0  0
   -0.1956   -0.2250    0.2596 C   0  0  1  0  0  0  0  0  0  0  0  0
    0.5755   -0.9013   -0.1105 H   0  0  0  0  0  0  0  0  0  0  0  0
   -0.2553    0.9811   -0.6992 C   0  0  0  0  0  0  0  0  0  0  0  0
   -0.7268    0.6508   -1.6261 H   0  0  0  0  0  0  0  0  0  0  0  0
   -0.8750    1.7625   -0.2568 H   0  0  0  0  0  0  0  0  0  0  0  0
    1.1274    1.5642   -1.0364 C   0  0  0  0  0  0  0  0  0  0  0  0
    1.0319    2.2389   -1.8905 H   0  0  0  0  0  0  0  0  0  0  0  0
    1.4704    2.1508   -0.1800 H   0  0  0  0  0  0  0  0  0  0  0  0
    2.1766    0.4931   -1.3694 C   0  0  0  0  0  0  0  0  0  0  0  0
    1.8690   -0.7096   -1.2100 O   0  5  0  0  0  0  0  0  0  0  0  0
    3.2754    0.9011   -1.8070 O   0  0  0  0  0  0  0  0  0  0  0  0
    0.1881    0.1678    1.7015 C   0  0  0  0  0  0  0  0  0  0  0  0
    1.3379    0.0002    2.1133 O   0  0  0  0  0  0  0  0  0  0  0  0
   -0.7666    0.7145    2.4656 N   0  0  0  0  0  0  0  0  0  0  0  0
   -1.6971    0.7705    2.0790 H   0  0  0  0  0  0  0  0  0  0  0  0
   -0.5716    1.1232    3.8542 C   0  0  0  0  0  0  0  0  0  0  0  0
    0.3083    1.7643    3.9293 H   0  0  0  0  0  0  0  0  0  0  0  0
   -1.4485    1.6640    4.2131 H   0  0  0  0  0  0  0  0  0  0  0  0
   -0.4137    0.2381    4.4736 H   0  0  0  0  0  0  0  0  0  0  0  0
  5  6  2  0  0  0  0
  5  7  1  0  0  0  0
  2  3  1  0  0  0  0
  2  4  1  0  0  0  0
  2  5  1  0  0  0  0
  1  2  1  0  0  0  0
 20 21  2  0  0  0  0
 20 22  1  0  0  0  0
 17 18  1  0  0  0  0
 17 19  2  0  0  0  0
 14 15  1  0  0  0  0
 14 16  1  0  0  0  0
 14 17  1  0  0  0  0
 11 12  1  0  0  0  0
 11 13  1  0  0  0  0
 11 14  1  0  0  0  0
  9 10  1  0  0  0  0
  9 11  1  0  0  0  0
  9 20  1  0  0  0  0
  7  8  1  0  0  0  0
  7  9  1  0  0  0  0
 24 25  1  0  0  0  0
 24 26  1  0  0  0  0
 24 27  1  0  0  0  0
 22 23  1  0  0  0  0
 22 24  1  0  0  0  0
M  CHG  1  18  -1
M  END
$$$$
default_name
  -OEChem-02102213163D

 27 26  0     1  0  0  0  0  0999 V2000
   -3.2406   -3.5400    1.2326 H   0  0  0  0  0  0  0  0  0  0  0  0
   -3.1436   -2.6190    0.6606 C   0  0  0  0  0  0  0  0  0  0  0  0
   -3.8786   -1.8920    0.9996 H   0  0  0  0  0  0  0  0  0  0  0  0
   -3.2846   -2.8280   -0.3984 H   0  0  0  0  0  0  0  0  0  0  0  0
   -1.7586   -2.0580    0.8686 C   0  0  0  0  0  0  0  0  0  0  0  0
   -0.9666   -2.6340    1.6026 O   0  0  0  0  0  0  0  0  0  0  0  0
   -1.4866   -0.9220    0.2366 N   0  0  0  0  0  0  0  0  0  0  0  0
   -2.2166   -0.4790   -0.2994 H   0  0  0  0  0  0  0  0  0  0  0  0
   -0.1956   -0.2250    0.2596 C   0  0  1  0  0  0  0  0  0  0  0  0
    0.5755   -0.9013   -0.1105 H   0  0  0  0  0  0  0  0  0  0  0  0
   -0.2553    0.9811   -0.6992 C   0  0  0  0  0  0  0  0  0  0  0  0
   -0.7268    0.6508   -1.6261 H   0  0  0  0  0  0  0  0  0  0  0  0
   -0.8750    1.7625   -0.2568 H   0  0  0  0  0  0  0  0  0  0  0  0
    1.1274    1.5642   -1.0364 C   0  0  0  0  0  0  0  0  0  0  0  0
    1.0006    2.4247   -1.6977 H   0  0  0  0  0  0  0  0  0  0  0  0
    1.5865    1.9166   -0.1089 H   0  0  0  0  0  0  0  0  0  0  0  0
    2.0661    0.5555   -1.7148 C   0  0  0  0  0  0  0  0  0  0  0  0
    1.6929   -0.6358   -1.8047 O   0  5  0  0  0  0  0  0  0  0  0  0
    3.1456    1.0050   -2.1596 O   0  0  0  0  0  0  0  0  0  0  0  0
    0.1881    0.1678    1.7015 C   0  0  0  0  0  0  0  0  0  0  0  0
    1.3379    0.0002    2.1133 O   0  0  0  0  0  0  0  0  0  0  0  0
   -0.7666    0.7145    2.4656 N   0  0  0  0  0  0  0  0  0  0  0  0
   -1.6971    0.7705    2.0790 H   0  0  0  0  0  0  0  0  0  0  0  0
   -0.5716    1.1232    3.8542 C   0  0  0  0  0  0  0  0  0  0  0  0
    0.3083    1.7643    3.9293 H   0  0  0  0  0  0  0  0  0  0  0  0
   -1.4485    1.6640    4.2131 H   0  0  0  0  0  0  0  0  0  0  0  0
   -0.4137    0.2381    4.4736 H   0  0  0  0  0  0  0  0  0  0  0  0
  5  6  2  0  0  0  0
  5  7  1  0  0  0  0
  2  3  1  0  0  0  0
  2  4  1  0  0  0  0
  2  5  1  0  0  0  0
  1  2  1  0  0  0  0
 20 21  2  0  0  0  0
 20 22  1  0  0  0  0
 17 18  1  0  0  0  0
 17 19  2  0  0  0  0
 14 15  1  0  0  0  0
 14 16  1  0  0  0  0
 14 17  1  0  0  0  0
 11 12  1  0  0  0  0
 11 13  1  0  0  0  0
 11 14  1  0  0  0  0
  9 10  1  0  0  0  0
  9 11  1  0  0  0  0
  9 20  1  0  0  0  0
  7  8  1  0  0  0  0
  7  9  1  0  0  0  0
 24 25  1  0  0  0  0
 24 26  1  0  0  0  0
 24 27  1  0  0  0  0
 22 23  1  0  0  0  0
 22 24  1  0  0  0  0
M  CHG  1  18  -1
M  END
$$$$
default_name
  -OEChem-02102213163D

 27 26  0     1  0  0  0  0  0999 V2000
   -3.2406   -3.5400    1.2326 H   0  0  0  0  0  0  0  0  0  0  0  0
   -3.1436   -2.6190    0.6606 C   0  0  0  0  0  0  0  0  0  0  0  0
   -3.8786   -1.8920    0.9996 H   0  0  0  0  0  0  0  0  0  0  0  0
   -3.2846   -2.8280   -0.3984 H   0  0  0  0  0  0  0  0  0  0  0  0
   -1.7586   -2.0580    0.8686 C   0  0  0  0  0  0  0  0  0  0  0  0
   -0.9666   -2.6340    1.6026 O   0  0  0  0  0  0  0  0  0  0  0  0
   -1.4866   -0.9220    0.2366 N   0  0  0  0  0  0  0  0  0  0  0  0
   -2.2166   -0.4790   -0.2994 H   0  0  0  0  0  0  0  0  0  0  0  0
   -0.1956   -0.2250    0.2596 C   0  0  1  0  0  0  0  0  0  0  0  0
    0.5755   -0.9013   -0.1105 H   0  0  0  0  0  0  0  0  0  0  0  0
   -0.2553    0.9811   -0.6992 C   0  0  0  0  0  0  0  0  0  0  0  0
   -0.7268    0.6508   -1.6261 H   0  0  0  0  0  0  0  0  0  0  0  0
   -0.8750    1.7625   -0.2568 H   0  0  0  0  0  0  0  0  0  0  0  0
    1.1274    1.5642   -1.0364 C   0  0  0  0  0  0  0  0  0  0  0  0
    0.9998    2.5611   -1.4651 H   0  0  0  0  0  0  0  0  0  0  0  0
    1.6924    1.6671   -0.1062 H   0  0  0  0  0  0  0  0  0  0  0  0
    1.9290    0.7023   -2.0230 C   0  0  0  0  0  0  0  0  0  0  0  0
    1.4686   -0.4162   -2.3448 O   0  5  0  0  0  0  0  0  0  0  0  0
    2.9915    1.1948   -2.4633 O   0  0  0  0  0  0  0  0  0  0  0  0
    0.1881    0.1678    1.7015 C   0  0  0  0  0  0  0  0  0  0  0  0
    1.3379    0.0002    2.1133 O   0  0  0  0  0  0  0  0  0  0  0  0
   -0.7666    0.7145    2.4656 N   0  0  0  0  0  0  0  0  0  0  0  0
   -1.6971    0.7705    2.0790 H   0  0  0  0  0  0  0  0  0  0  0  0
   -0.5716    1.1232    3.8542 C   0  0  0  0  0  0  0  0  0  0  0  0
    0.3083    1.7643    3.9293 H   0  0  0  0  0  0  0  0  0  0  0  0
   -1.4485    1.6640    4.2131 H   0  0  0  0  0  0  0  0  0  0  0  0
   -0.4137    0.2381    4.4736 H   0  0  0  0  0  0  0  0  0  0  0  0
  5  6  2  0  0  0  0
  5  7  1  0  0  0  0
  2  3  1  0  0  0  0
  2  4  1  0  0  0  0
  2  5  1  0  0  0  0
  1  2  1  0  0  0  0
 20 21  2  0  0  0  0
 20 22  1  0  0  0  0
 17 18  1  0  0  0  0
 17 19  2  0  0  0  0
 14 15  1  0  0  0  0
 14 16  1  0  0  0  0
 14 17  1  0  0  0  0
 11 12  1  0  0  0  0
 11 13  1  0  0  0  0
 11 14  1  0  0  0  0
  9 10  1  0  0  0  0
  9 11  1  0  0  0  0
  9 20  1  0  0  0  0
  7  8  1  0  0  0  0
  7  9  1  0  0  0  0
 24 25  1  0  0  0  0
 24 26  1  0  0  0  0
 24 27  1  0  0  0  0
 22 23  1  0  0  0  0
 22 24  1  0  0  0  0
M  CHG  1  18  -1
M  END
$$$$
default_name
  -OEChem-02102213163D

 27 26  0     1  0  0  0  0  0999 V2000
   -3.2406   -3.5400    1.2326 H   0  0  0  0  0  0  0  0  0  0  0  0
   -3.1436   -2.6190    0.6606 C   0  0  0  0  0  0  0  0  0  0  0  0
   -3.8786   -1.8920    0.9996 H   0  0  0  0  0  0  0  0  0  0  0  0
   -3.2846   -2.8280   -0.3984 H   0  0  0  0  0  0  0  0  0  0  0  0
   -1.7586   -2.0580    0.8686 C   0  0  0  0  0  0  0  0  0  0  0  0
   -0.9666   -2.6340    1.6026 O   0  0  0  0  0  0  0  0  0  0  0  0
   -1.4866   -0.9220    0.2366 N   0  0  0  0  0  0  0  0  0  0  0  0
   -2.2166   -0.4790   -0.2994 H   0  0  0  0  0  0  0  0  0  0  0  0
   -0.1956   -0.2250    0.2596 C   0  0  1  0  0  0  0  0  0  0  0  0
    0.5755   -0.9013   -0.1105 H   0  0  0  0  0  0  0  0  0  0  0  0
   -0.2553    0.9811   -0.6992 C   0  0  0  0  0  0  0  0  0  0  0  0
   -0.7268    0.6508   -1.6261 H   0  0  0  0  0  0  0  0  0  0  0  0
   -0.8750    1.7625   -0.2568 H   0  0  0  0  0  0  0  0  0  0  0  0
    1.1274    1.5642   -1.0364 C   0  0  0  0  0  0  0  0  0  0  0  0
    1.0296    2.6387   -1.2087 H   0  0  0  0  0  0  0  0  0  0  0  0
    1.7807    1.4195   -0.1719 H   0  0  0  0  0  0  0  0  0  0  0  0
    1.7746    0.9236   -2.2732 C   0  0  0  0  0  0  0  0  0  0  0  0
    1.2114   -0.0657   -2.7933 O   0  5  0  0  0  0  0  0  0  0  0  0
    2.8236    1.4575   -2.6973 O   0  0  0  0  0  0  0  0  0  0  0  0
    0.1881    0.1678    1.7015 C   0  0  0  0  0  0  0  0  0  0  0  0
    1.3379    0.0002    2.1133 O   0  0  0  0  0  0  0  0  0  0  0  0
   -0.7666    0.7145    2.4656 N   0  0  0  0  0  0  0  0  0  0  0  0
   -1.6971    0.7705    2.0790 H   0  0  0  0  0  0  0  0  0  0  0  0
   -0.5716    1.1232    3.8542 C   0  0  0  0  0  0  0  0  0  0  0  0
    0.3083    1.7643    3.9293 H   0  0  0  0  0  0  0  0  0  0  0  0
   -1.4485    1.6640    4.2131 H   0  0  0  0  0  0  0  0  0  0  0  0
   -0.4137    0.2381    4.4736 H   0  0  0  0  0  0  0  0  0  0  0  0
  5  6  2  0  0  0  0
  5  7  1  0  0  0  0
  2  3  1  0  0  0  0
  2  4  1  0  0  0  0
  2  5  1  0  0  0  0
  1  2  1  0  0  0  0
 20 21  2  0  0  0  0
 20 22  1  0  0  0  0
 17 18  1  0  0  0  0
 17 19  2  0  0  0  0
 14 15  1  0  0  0  0
 14 16  1  0  0  0  0
 14 17  1  0  0  0  0
 11 12  1  0  0  0  0
 11 13  1  0  0  0  0
 11 14  1  0  0  0  0
  9 10  1  0  0  0  0
  9 11  1  0  0  0  0
  9 20  1  0  0  0  0
  7  8  1  0  0  0  0
  7  9  1  0  0  0  0
 24 25  1  0  0  0  0
 24 26  1  0  0  0  0
 24 27  1  0  0  0  0
 22 23  1  0  0  0  0
 22 24  1  0  0  0  0
M  CHG  1  18  -1
M  END
$$$$
default_name
  -OEChem-02102213163D

 27 26  0     1  0  0  0  0  0999 V2000
   -3.2406   -3.5400    1.2326 H   0  0  0  0  0  0  0  0  0  0  0  0
   -3.1436   -2.6190    0.6606 C   0  0  0  0  0  0  0  0  0  0  0  0
   -3.8786   -1.8920    0.9996 H   0  0  0  0  0  0  0  0  0  0  0  0
   -3.2846   -2.8280   -0.3984 H   0  0  0  0  0  0  0  0  0  0  0  0
   -1.7586   -2.0580    0.8686 C   0  0  0  0  0  0  0  0  0  0  0  0
   -0.9666   -2.6340    1.6026 O   0  0  0  0  0  0  0  0  0  0  0  0
   -1.4866   -0.9220    0.2366 N   0  0  0  0  0  0  0  0  0  0  0  0
   -2.2166   -0.4790   -0.2994 H   0  0  0  0  0  0  0  0  0  0  0  0
   -0.1956   -0.2250    0.2596 C   0  0  1  0  0  0  0  0  0  0  0  0
    0.5755   -0.9013   -0.1105 H   0  0  0  0  0  0  0  0  0  0  0  0
   -0.2553    0.9811   -0.6992 C   0  0  0  0  0  0  0  0  0  0  0  0
   -0.7268    0.6508   -1.6261 H   0  0  0  0  0  0  0  0  0  0  0  0
   -0.8750    1.7625   -0.2568 H   0  0  0  0  0  0  0  0  0  0  0  0
    1.1274    1.5642   -1.0364 C   0  0  0  0  0  0  0  0  0  0  0  0
    1.0880    2.6524   -0.9459 H   0  0  0  0  0  0  0  0  0  0  0  0
    1.8456    1.1907   -0.3017 H   0  0  0  0  0  0  0  0  0  0  0  0
    1.6136    1.2044   -2.4481 C   0  0  0  0  0  0  0  0  0  0  0  0
    0.9388    0.3919   -3.1197 O   0  5  0  0  0  0  0  0  0  0  0  0
    2.6534    1.7752   -2.8458 O   0  0  0  0  0  0  0  0  0  0  0  0
    0.1881    0.1678    1.7015 C   0  0  0  0  0  0  0  0  0  0  0  0
    1.3379    0.0002    2.1133 O   0  0  0  0  0  0  0  0  0  0  0  0
   -0.7666    0.7145    2.4656 N   0  0  0  0  0  0  0  0  0  0  0  0
   -1.6971    0.7705    2.0790 H   0  0  0  0  0  0  0  0  0  0  0  0
   -0.5716    1.1232    3.8542 C   0  0  0  0  0  0  0  0  0  0  0  0
    0.3083    1.7643    3.9293 H   0  0  0  0  0  0  0  0  0  0  0  0
   -1.4485    1.6640    4.2131 H   0  0  0  0  0  0  0  0  0  0  0  0
   -0.4137    0.2381    4.4736 H   0  0  0  0  0  0  0  0  0  0  0  0
  5  6  2  0  0  0  0
  5  7  1  0  0  0  0
  2  3  1  0  0  0  0
  2  4  1  0  0  0  0
  2  5  1  0  0  0  0
  1  2  1  0  0  0  0
 20 21  2  0  0  0  0
 20 22  1  0  0  0  0
 17 18  1  0  0  0  0
 17 19  2  0  0  0  0
 14 15  1  0  0  0  0
 14 16  1  0  0  0  0
 14 17  1  0  0  0  0
 11 12  1  0  0  0  0
 11 13  1  0  0  0  0
 11 14  1  0  0  0  0
  9 10  1  0  0  0  0
  9 11  1  0  0  0  0
  9 20  1  0  0  0  0
  7  8  1  0  0  0  0
  7  9  1  0  0  0  0
 24 25  1  0  0  0  0
 24 26  1  0  0  0  0
 24 27  1  0  0  0  0
 22 23  1  0  0  0  0
 22 24  1  0  0  0  0
M  CHG  1  18  -1
M  END
$$$$
default_name
  -OEChem-02102213163D

 27 26  0     1  0  0  0  0  0999 V2000
   -3.2406   -3.5400    1.2326 H   0  0  0  0  0  0  0  0  0  0  0  0
   -3.1436   -2.6190    0.6606 C   0  0  0  0  0  0  0  0  0  0  0  0
   -3.8786   -1.8920    0.9996 H   0  0  0  0  0  0  0  0  0  0  0  0
   -3.2846   -2.8280   -0.3984 H   0  0  0  0  0  0  0  0  0  0  0  0
   -1.7586   -2.0580    0.8686 C   0  0  0  0  0  0  0  0  0  0  0  0
   -0.9666   -2.6340    1.6026 O   0  0  0  0  0  0  0  0  0  0  0  0
   -1.4866   -0.9220    0.2366 N   0  0  0  0  0  0  0  0  0  0  0  0
   -2.2166   -0.4790   -0.2994 H   0  0  0  0  0  0  0  0  0  0  0  0
   -0.1956   -0.2250    0.2596 C   0  0  1  0  0  0  0  0  0  0  0  0
    0.5755   -0.9013   -0.1105 H   0  0  0  0  0  0  0  0  0  0  0  0
   -0.2553    0.9811   -0.6992 C   0  0  0  0  0  0  0  0  0  0  0  0
   -0.7268    0.6508   -1.6261 H   0  0  0  0  0  0  0  0  0  0  0  0
   -0.8750    1.7625   -0.2568 H   0  0  0  0  0  0  0  0  0  0  0  0
    1.1274    1.5642   -1.0364 C   0  0  0  0  0  0  0  0  0  0  0  0
    1.1709    2.6011   -0.6946 H   0  0  0  0  0  0  0  0  0  0  0  0
    1.8825    0.9961   -0.4866 H   0  0  0  0  0  0  0  0  0  0  0  0
    1.4568    1.5254   -2.5360 C   0  0  0  0  0  0  0  0  0  0  0  0
    0.6695    0.9253   -3.3018 O   0  5  0  0  0  0  0  0  0  0  0  0
    2.4925    2.1263   -2.8986 O   0  0  0  0  0  0  0  0  0  0  0  0
    0.1881    0.1678    1.7015 C   0  0  0  0  0  0  0  0  0  0  0  0
    1.3379    0.0002    2.1133 O   0  0  0  0  0  0  0  0  0  0  0  0
   -0.7666    0.7145    2.4656 N   0  0  0  0  0  0  0  0  0  0  0  0
   -1.6971    0.7705    2.0790 H   0  0  0  0  0  0  0  0  0  0  0  0
   -0.5716    1.1232    3.8542 C   0  0  0  0  0  0  0  0  0  0  0  0
    0.3083    1.7643    3.9293 H   0  0  0  0  0  0  0  0  0  0  0  0
   -1.4485    1.6640    4.2131 H   0  0  0  0  0  0  0  0  0  0  0  0
   -0.4137    0.2381    4.4736 H   0  0  0  0  0  0  0  0  0  0  0  0
  5  6  2  0  0  0  0
  5  7  1  0  0  0  0
  2  3  1  0  0  0  0
  2  4  1  0  0  0  0
  2  5  1  0  0  0  0
  1  2  1  0  0  0  0
 20 21  2  0  0  0  0
 20 22  1  0  0  0  0
 17 18  1  0  0  0  0
 17 19  2  0  0  0  0
 14 15  1  0  0  0  0
 14 16  1  0  0  0  0
 14 17  1  0  0  0  0
 11 12  1  0  0  0  0
 11 13  1  0  0  0  0
 11 14  1  0  0  0  0
  9 10  1  0  0  0  0
  9 11  1  0  0  0  0
  9 20  1  0  0  0  0
  7  8  1  0  0  0  0
  7  9  1  0  0  0  0
 24 25  1  0  0  0  0
 24 26  1  0  0  0  0
 24 27  1  0  0  0  0
 22 23  1  0  0  0  0
 22 24  1  0  0  0  0
M  CHG  1  18  -1
M  END
$$$$
default_name
  -OEChem-02102213163D

 27 26  0     1  0  0  0  0  0999 V2000
   -3.2406   -3.5400    1.2326 H   0  0  0  0  0  0  0  0  0  0  0  0
   -3.1436   -2.6190    0.6606 C   0  0  0  0  0  0  0  0  0  0  0  0
   -3.8786   -1.8920    0.9996 H   0  0  0  0  0  0  0  0  0  0  0  0
   -3.2846   -2.8280   -0.3984 H   0  0  0  0  0  0  0  0  0  0  0  0
   -1.7586   -2.0580    0.8686 C   0  0  0  0  0  0  0  0  0  0  0  0
   -0.9666   -2.6340    1.6026 O   0  0  0  0  0  0  0  0  0  0  0  0
   -1.4866   -0.9220    0.2366 N   0  0  0  0  0  0  0  0  0  0  0  0
   -2.2166   -0.4790   -0.2994 H   0  0  0  0  0  0  0  0  0  0  0  0
   -0.1956   -0.2250    0.2596 C   0  0  1  0  0  0  0  0  0  0  0  0
    0.5755   -0.9013   -0.1105 H   0  0  0  0  0  0  0  0  0  0  0  0
   -0.2553    0.9811   -0.6992 C   0  0  0  0  0  0  0  0  0  0  0  0
   -0.7268    0.6508   -1.6261 H   0  0  0  0  0  0  0  0  0  0  0  0
   -0.8750    1.7625   -0.2568 H   0  0  0  0  0  0  0  0  0  0  0  0
    1.1274    1.5642   -1.0364 C   0  0  0  0  0  0  0  0  0  0  0  0
    1.2727    2.4884   -0.4719 H   0  0  0  0  0  0  0  0  0  0  0  0
    1.8890    0.8492   -0.7142 H   0  0  0  0  0  0  0  0  0  0  0  0
    1.3149    1.8649   -2.5308 C   0  0  0  0  0  0  0  0  0  0  0  0
    0.4217    1.4981   -3.3272 O   0  5  0  0  0  0  0  0  0  0  0  0
    2.3518    2.4869   -2.8521 O   0  0  0  0  0  0  0  0  0  0  0  0
    0.1881    0.1678    1.7015 C   0  0  0  0  0  0  0  0  0  0  0  0
    1.3379    0.0002    2.1133 O   0  0  0  0  0  0  0  0  0  0  0  0
   -0.7666    0.7145    2.4656 N   0  0  0  0  0  0  0  0  0  0  0  0
   -1.6971    0.7705    2.0790 H   0  0  0  0  0  0  0  0  0  0  0  0
   -0.5716    1.1232    3.8542 C   0  0  0  0  0  0  0  0  0  0  0  0
    0.3083    1.7643    3.9293 H   0  0  0  0  0  0  0  0  0  0  0  0
   -1.4485    1.6640    4.2131 H   0  0  0  0  0  0  0  0  0  0  0  0
   -0.4137    0.2381    4.4736 H   0  0  0  0  0  0  0  0  0  0  0  0
  5  6  2  0  0  0  0
  5  7  1  0  0  0  0
  2  3  1  0  0  0  0
  2  4  1  0  0  0  0
  2  5  1  0  0  0  0
  1  2  1  0  0  0  0
 20 21  2  0  0  0  0
 20 22  1  0  0  0  0
 17 18  1  0  0  0  0
 17 19  2  0  0  0  0
 14 15  1  0  0  0  0
 14 16  1  0  0  0  0
 14 17  1  0  0  0  0
 11 12  1  0  0  0  0
 11 13  1  0  0  0  0
 11 14  1  0  0  0  0
  9 10  1  0  0  0  0
  9 11  1  0  0  0  0
  9 20  1  0  0  0  0
  7  8  1  0  0  0  0
  7  9  1  0  0  0  0
 24 25  1  0  0  0  0
 24 26  1  0  0  0  0
 24 27  1  0  0  0  0
 22 23  1  0  0  0  0
 22 24  1  0  0  0  0
M  CHG  1  18  -1
M  END
$$$$
default_name
  -OEChem-02102213163D

 27 26  0     1  0  0  0  0  0999 V2000
   -3.2406   -3.5400    1.2326 H   0  0  0  0  0  0  0  0  0  0  0  0
   -3.1436   -2.6190    0.6606 C   0  0  0  0  0  0  0  0  0  0  0  0
   -3.8786   -1.8920    0.9996 H   0  0  0  0  0  0  0  0  0  0  0  0
   -3.2846   -2.8280   -0.3984 H   0  0  0  0  0  0  0  0  0  0  0  0
   -1.7586   -2.0580    0.8686 C   0  0  0  0  0  0  0  0  0  0  0  0
   -0.9666   -2.6340    1.6026 O   0  0  0  0  0  0  0  0  0  0  0  0
   -1.4866   -0.9220    0.2366 N   0  0  0  0  0  0  0  0  0  0  0  0
   -2.2166   -0.4790   -0.2994 H   0  0  0  0  0  0  0  0  0  0  0  0
   -0.1956   -0.2250    0.2596 C   0  0  1  0  0  0  0  0  0  0  0  0
    0.5755   -0.9013   -0.1105 H   0  0  0  0  0  0  0  0  0  0  0  0
   -0.2553    0.9811   -0.6992 C   0  0  0  0  0  0  0  0  0  0  0  0
   -0.7268    0.6508   -1.6261 H   0  0  0  0  0  0  0  0  0  0  0  0
   -0.8750    1.7625   -0.2568 H   0  0  0  0  0  0  0  0  0  0  0  0
    1.1274    1.5642   -1.0364 C   0  0  0  0  0  0  0  0  0  0  0  0
    1.3865    2.3219   -0.2930 H   0  0  0  0  0  0  0  0  0  0  0  0
    1.8646    0.7598   -0.9688 H   0  0  0  0  0  0  0  0  0  0  0  0
    1.1976    2.1996   -2.4329 C   0  0  0  0  0  0  0  0  0  0  0  0
    0.2125    2.0714   -3.1941 O   0  5  0  0  0  0  0  0  0  0  0  0
    2.2409    2.8323   -2.7095 O   0  0  0  0  0  0  0  0  0  0  0  0
    0.1881    0.1678    1.7015 C   0  0  0  0  0  0  0  0  0  0  0  0
    1.3379    0.0002    2.1133 O   0  0  0  0  0  0  0  0  0  0  0  0
   -0.7666    0.7145    2.4656 N   0  0  0  0  0  0  0  0  0  0  0  0
   -1.6971    0.7705    2.0790 H   0  0  0  0  0  0  0  0  0  0  0  0
   -0.5716    1.1232    3.8542 C   0  0  0  0  0  0  0  0  0  0  0  0
    0.3083    1.7643    3.9293 H   0  0  0  0  0  0  0  0  0  0  0  0
   -1.4485    1.6640    4.2131 H   0  0  0  0  0  0  0  0  0  0  0  0
   -0.4137    0.2381    4.4736 H   0  0  0  0  0  0  0  0  0  0  0  0
  5  6  2  0  0  0  0
  5  7  1  0  0  0  0
  2  3  1  0  0  0  0
  2  4  1  0  0  0  0
  2  5  1  0  0  0  0
  1  2  1  0  0  0  0
 20 21  2  0  0  0  0
 20 22  1  0  0  0  0
 17 18  1  0  0  0  0
 17 19  2  0  0  0  0
 14 15  1  0  0  0  0
 14 16  1  0  0  0  0
 14 17  1  0  0  0  0
 11 12  1  0  0  0  0
 11 13  1  0  0  0  0
 11 14  1  0  0  0  0
  9 10  1  0  0  0  0
  9 11  1  0  0  0  0
  9 20  1  0  0  0  0
  7  8  1  0  0  0  0
  7  9  1  0  0  0  0
 24 25  1  0  0  0  0
 24 26  1  0  0  0  0
 24 27  1  0  0  0  0
 22 23  1  0  0  0  0
 22 24  1  0  0  0  0
M  CHG  1  18  -1
M  END
$$$$
default_name
  -OEChem-02102213163D

 27 26  0     1  0  0  0  0  0999 V2000
   -3.2406   -3.5400    1.2326 H   0  0  0  0  0  0  0  0  0  0  0  0
   -3.1436   -2.6190    0.6606 C   0  0  0  0  0  0  0  0  0  0  0  0
   -3.8786   -1.8920    0.9996 H   0  0  0  0  0  0  0  0  0  0  0  0
   -3.2846   -2.8280   -0.3984 H   0  0  0  0  0  0  0  0  0  0  0  0
   -1.7586   -2.0580    0.8686 C   0  0  0  0  0  0  0  0  0  0  0  0
   -0.9666   -2.6340    1.6026 O   0  0  0  0  0  0  0  0  0  0  0  0
   -1.4866   -0.9220    0.2366 N   0  0  0  0  0  0  0  0  0  0  0  0
   -2.2166   -0.4790   -0.2994 H   0  0  0  0  0  0  0  0  0  0  0  0
   -0.1956   -0.2250    0.2596 C   0  0  1  0  0  0  0  0  0  0  0  0
    0.5755   -0.9013   -0.1105 H   0  0  0  0  0  0  0  0  0  0  0  0
   -0.2553    0.9811   -0.6992 C   0  0  0  0  0  0  0  0  0  0  0  0
   -0.7268    0.6508   -1.6261 H   0  0  0  0  0  0  0  0  0  0  0  0
   -0.8750    1.7625   -0.2568 H   0  0  0  0  0  0  0  0  0  0  0  0
    1.1274    1.5642   -1.0364 C   0  0  0  0  0  0  0  0  0  0  0  0
    1.5046    2.1131   -0.1701 H   0  0  0  0  0  0  0  0  0  0  0  0
    1.8110    0.7341   -1.2332 H   0  0  0  0  0  0  0  0  0  0  0  0
    1.1130    2.5068   -2.2489 C   0  0  0  0  0  0  0  0  0  0  0  0
    0.0559    2.6061   -2.9116 O   0  5  0  0  0  0  0  0  0  0  0  0
    2.1674    3.1391   -2.4804 O   0  0  0  0  0  0  0  0  0  0  0  0
    0.1881    0.1678    1.7015 C   0  0  0  0  0  0  0  0  0  0  0  0
    1.3379    0.0002    2.1133 O   0  0  0  0  0  0  0  0  0  0  0  0
   -0.7666    0.7145    2.4656 N   0  0  0  0  0  0  0  0  0  0  0  0
   -1.6971    0.7705    2.0790 H   0  0  0  0  0  0  0  0  0  0  0  0
   -0.5716    1.1232    3.8542 C   0  0  0  0  0  0  0  0  0  0  0  0
    0.3083    1.7643    3.9293 H   0  0  0  0  0  0  0  0  0  0  0  0
   -1.4485    1.6640    4.2131 H   0  0  0  0  0  0  0  0  0  0  0  0
   -0.4137    0.2381    4.4736 H   0  0  0  0  0  0  0  0  0  0  0  0
  5  6  2  0  0  0  0
  5  7  1  0  0  0  0
  2  3  1  0  0  0  0
  2  4  1  0  0  0  0
  2  5  1  0  0  0  0
  1  2  1  0  0  0  0
 20 21  2  0  0  0  0
 20 22  1  0  0  0  0
 17 18  1  0  0  0  0
 17 19  2  0  0  0  0
 14 15  1  0  0  0  0
 14 16  1  0  0  0  0
 14 17  1  0  0  0  0
 11 12  1  0  0  0  0
 11 13  1  0  0  0  0
 11 14  1  0  0  0  0
  9 10  1  0  0  0  0
  9 11  1  0  0  0  0
  9 20  1  0  0  0  0
  7  8  1  0  0  0  0
  7  9  1  0  0  0  0
 24 25  1  0  0  0  0
 24 26  1  0  0  0  0
 24 27  1  0  0  0  0
 22 23  1  0  0  0  0
 22 24  1  0  0  0  0
M  CHG  1  18  -1
M  END
$$$$
default_name
  -OEChem-02102213163D

 27 26  0     1  0  0  0  0  0999 V2000
   -3.2406   -3.5400    1.2326 H   0  0  0  0  0  0  0  0  0  0  0  0
   -3.1436   -2.6190    0.6606 C   0  0  0  0  0  0  0  0  0  0  0  0
   -3.8786   -1.8920    0.9996 H   0  0  0  0  0  0  0  0  0  0  0  0
   -3.2846   -2.8280   -0.3984 H   0  0  0  0  0  0  0  0  0  0  0  0
   -1.7586   -2.0580    0.8686 C   0  0  0  0  0  0  0  0  0  0  0  0
   -0.9666   -2.6340    1.6026 O   0  0  0  0  0  0  0  0  0  0  0  0
   -1.4866   -0.9220    0.2366 N   0  0  0  0  0  0  0  0  0  0  0  0
   -2.2166   -0.4790   -0.2994 H   0  0  0  0  0  0  0  0  0  0  0  0
   -0.1956   -0.2250    0.2596 C   0  0  1  0  0  0  0  0  0  0  0  0
    0.5755   -0.9013   -0.1105 H   0  0  0  0  0  0  0  0  0  0  0  0
   -0.2553    0.9811   -0.6992 C   0  0  0  0  0  0  0  0  0  0  0  0
   -0.9520    0.7376   -1.5028 H   0  0  0  0  0  0  0  0  0  0  0  0
   -0.6390    1.8496   -0.1618 H   0  0  0  0  0  0  0  0  0  0  0  0
    1.1050    1.3347   -1.3236 C   0  0  0  0  0  0  0  0  0  0  0  0
    1.8176    1.5568   -0.5256 H   0  0  0  0  0  0  0  0  0  0  0  0
    1.4704    0.4599   -1.8679 H   0  0  0  0  0  0  0  0  0  0  0  0
    1.0443    2.5362   -2.2784 C   0  0  0  0  0  0  0  0  0  0  0  0
   -0.0772    3.0146   -2.5608 O   0  5  0  0  0  0  0  0  0  0  0  0
    2.1384    2.9769   -2.6959 O   0  0  0  0  0  0  0  0  0  0  0  0
    0.1881    0.1678    1.7015 C   0  0  0  0  0  0  0  0  0  0  0  0
    1.3379    0.0002    2.1133 O   0  0  0  0  0  0  0  0  0  0  0  0
   -0.7666    0.7145    2.4656 N   0  0  0  0  0  0  0  0  0  0  0  0
   -1.6971    0.7705    2.0790 H   0  0  0  0  0  0  0  0  0  0  0  0
   -0.5716    1.1232    3.8542 C   0  0  0  0  0  0  0  0  0  0  0  0
    0.3083    1.7643    3.9293 H   0  0  0  0  0  0  0  0  0  0  0  0
   -1.4485    1.6640    4.2131 H   0  0  0  0  0  0  0  0  0  0  0  0
   -0.4137    0.2381    4.4736 H   0  0  0  0  0  0  0  0  0  0  0  0
  5  6  2  0  0  0  0
  5  7  1  0  0  0  0
  2  3  1  0  0  0  0
  2  4  1  0  0  0  0
  2  5  1  0  0  0  0
  1  2  1  0  0  0  0
 20 21  2  0  0  0  0
 20 22  1  0  0  0  0
 17 18  1  0  0  0  0
 17 19  2  0  0  0  0
 14 15  1  0  0  0  0
 14 16  1  0  0  0  0
 14 17  1  0  0  0  0
 11 12  1  0  0  0  0
 11 13  1  0  0  0  0
 11 14  1  0  0  0  0
  9 10  1  0  0  0  0
  9 11  1  0  0  0  0
  9 20  1  0  0  0  0
  7  8  1  0  0  0  0
  7  9  1  0  0  0  0
 24 25  1  0  0  0  0
 24 26  1  0  0  0  0
 24 27  1  0  0  0  0
 22 23  1  0  0  0  0
 22 24  1  0  0  0  0
M  CHG  1  18  -1
M  END
$$$$
default_name
  -OEChem-02102213163D

 27 26  0     1  0  0  0  0  0999 V2000
   -3.2406   -3.5400    1.2326 H   0  0  0  0  0  0  0  0  0  0  0  0
   -3.1436   -2.6190    0.6606 C   0  0  0  0  0  0  0  0  0  0  0  0
   -3.8786   -1.8920    0.9996 H   0  0  0  0  0  0  0  0  0  0  0  0
   -3.2846   -2.8280   -0.3984 H   0  0  0  0  0  0  0  0  0  0  0  0
   -1.7586   -2.0580    0.8686 C   0  0  0  0  0  0  0  0  0  0  0  0
   -0.9666   -2.6340    1.6026 O   0  0  0  0  0  0  0  0  0  0  0  0
   -1.4866   -0.9220    0.2366 N   0  0  0  0  0  0  0  0  0  0  0  0
   -2.2166   -0.4790   -0.2994 H   0  0  0  0  0  0  0  0  0  0  0  0
   -0.1956   -0.2250    0.2596 C   0  0  1  0  0  0  0  0  0  0  0  0
    0.5755   -0.9013   -0.1105 H   0  0  0  0  0  0  0  0  0  0  0  0
   -0.2553    0.9811   -0.6992 C   0  0  0  0  0  0  0  0  0  0  0  0
   -0.9520    0.7376   -1.5028 H   0  0  0  0  0  0  0  0  0  0  0  0
   -0.6390    1.8496   -0.1618 H   0  0  0  0  0  0  0  0  0  0  0  0
    1.1050    1.3347   -1.3236 C   0  0  0  0  0  0  0  0  0  0  0  0
    1.8749    1.2945   -0.5493 H   0  0  0  0  0  0  0  0  0  0  0  0
    1.3439    0.5786   -2.0761 H   0  0  0  0  0  0  0  0  0  0  0  0
    1.1343    2.7250   -1.9757 C   0  0  0  0  0  0  0  0  0  0  0  0
    0.0612    3.3636   -2.0616 O   0  5  0  0  0  0  0  0  0  0  0  0
    2.2498    3.1409   -2.3603 O   0  0  0  0  0  0  0  0  0  0  0  0
    0.1881    0.1678    1.7015 C   0  0  0  0  0  0  0  0  0  0  0  0
    1.3379    0.0002    2.1133 O   0  0  0  0  0  0  0  0  0  0  0  0
   -0.7666    0.7145    2.4656 N   0  0  0  0  0  0  0  0  0  0  0  0
   -1.6971    0.7705    2.0790 H   0  0  0  0  0  0  0  0  0  0  0  0
   -0.5716    1.1232    3.8542 C   0  0  0  0  0  0  0  0  0  0  0  0
    0.3083    1.7643    3.9293 H   0  0  0  0  0  0  0  0  0  0  0  0
   -1.4485    1.6640    4.2131 H   0  0  0  0  0  0  0  0  0  0  0  0
   -0.4137    0.2381    4.4736 H   0  0  0  0  0  0  0  0  0  0  0  0
  5  6  2  0  0  0  0
  5  7  1  0  0  0  0
  2  3  1  0  0  0  0
  2  4  1  0  0  0  0
  2  5  1  0  0  0  0
  1  2  1  0  0  0  0
 20 21  2  0  0  0  0
 20 22  1  0  0  0  0
 17 18  1  0  0  0  0
 17 19  2  0  0  0  0
 14 15  1  0  0  0  0
 14 16  1  0  0  0  0
 14 17  1  0  0  0  0
 11 12  1  0  0  0  0
 11 13  1  0  0  0  0
 11 14  1  0  0  0  0
  9 10  1  0  0  0  0
  9 11  1  0  0  0  0
  9 20  1  0  0  0  0
  7  8  1  0  0  0  0
  7  9  1  0  0  0  0
 24 25  1  0  0  0  0
 24 26  1  0  0  0  0
 24 27  1  0  0  0  0
 22 23  1  0  0  0  0
 22 24  1  0  0  0  0
M  CHG  1  18  -1
M  END
$$$$
default_name
  -OEChem-02102213163D

 27 26  0     1  0  0  0  0  0999 V2000
   -3.2406   -3.5400    1.2326 H   0  0  0  0  0  0  0  0  0  0  0  0
   -3.1436   -2.6190    0.6606 C   0  0  0  0  0  0  0  0  0  0  0  0
   -3.8786   -1.8920    0.9996 H   0  0  0  0  0  0  0  0  0  0  0  0
   -3.2846   -2.8280   -0.3984 H   0  0  0  0  0  0  0  0  0  0  0  0
   -1.7586   -2.0580    0.8686 C   0  0  0  0  0  0  0  0  0  0  0  0
   -0.9666   -2.6340    1.6026 O   0  0  0  0  0  0  0  0  0  0  0  0
   -1.4866   -0.9220    0.2366 N   0  0  0  0  0  0  0  0  0  0  0  0
   -2.2166   -0.4790   -0.2994 H   0  0  0  0  0  0  0  0  0  0  0  0
   -0.1956   -0.2250    0.2596 C   0  0  1  0  0  0  0  0  0  0  0  0
    0.5755   -0.9013   -0.1105 H   0  0  0  0  0  0  0  0  0  0  0  0
   -0.2553    0.9811   -0.6992 C   0  0  0  0  0  0  0  0  0  0  0  0
   -0.9520    0.7376   -1.5028 H   0  0  0  0  0  0  0  0  0  0  0  0
   -0.6390    1.8496   -0.1618 H   0  0  0  0  0  0  0  0  0  0  0  0
    1.1050    1.3347   -1.3236 C   0  0  0  0  0  0  0  0  0  0  0  0
    1.9013    1.0405   -0.6356 H   0  0  0  0  0  0  0  0  0  0  0  0
    1.2219    0.7542   -2.2425 H   0  0  0  0  0  0  0  0  0  0  0  0
    1.2589    2.8286   -1.6454 C   0  0  0  0  0  0  0  0  0  0  0  0
    0.2613    3.5718   -1.5077 O   0  5  0  0  0  0  0  0  0  0  0  0
    2.3946    3.2109   -2.0052 O   0  0  0  0  0  0  0  0  0  0  0  0
    0.1881    0.1678    1.7015 C   0  0  0  0  0  0  0  0  0  0  0  0
    1.3379    0.0002    2.1133 O   0  0  0  0  0  0  0  0  0  0  0  0
   -0.7666    0.7145    2.4656 N   0  0  0  0  0  0  0  0  0  0  0  0
   -1.6971    0.7705    2.0790 H   0  0  0  0  0  0  0  0  0  0  0  0
   -0.5716    1.1232    3.8542 C   0  0  0  0  0  0  0  0  0  0  0  0
    0.3083    1.7643    3.9293 H   0  0  0  0  0  0  0  0  0  0  0  0
   -1.4485    1.6640    4.2131 H   0  0  0  0  0  0  0  0  0  0  0  0
   -0.4137    0.2381    4.4736 H   0  0  0  0  0  0  0  0  0  0  0  0
  5  6  2  0  0  0  0
  5  7  1  0  0  0  0
  2  3  1  0  0  0  0
  2  4  1  0  0  0  0
  2  5  1  0  0  0  0
  1  2  1  0  0  0  0
 20 21  2  0  0  0  0
 20 22  1  0  0  0  0
 17 18  1  0  0  0  0
 17 19  2  0  0  0  0
 14 15  1  0  0  0  0
 14 16  1  0  0  0  0
 14 17  1  0  0  0  0
 11 12  1  0  0  0  0
 11 13  1  0  0  0  0
 11 14  1  0  0  0  0
  9 10  1  0  0  0  0
  9 11  1  0  0  0  0
  9 20  1  0  0  0  0
  7  8  1  0  0  0  0
  7  9  1  0  0  0  0
 24 25  1  0  0  0  0
 24 26  1  0  0  0  0
 24 27  1  0  0  0  0
 22 23  1  0  0  0  0
 22 24  1  0  0  0  0
M  CHG  1  18  -1
M  END
$$$$
default_name
  -OEChem-02102213163D

 27 26  0     1  0  0  0  0  0999 V2000
   -3.2406   -3.5400    1.2326 H   0  0  0  0  0  0  0  0  0  0  0  0
   -3.1436   -2.6190    0.6606 C   0  0  0  0  0  0  0  0  0  0  0  0
   -3.8786   -1.8920    0.9996 H   0  0  0  0  0  0  0  0  0  0  0  0
   -3.2846   -2.8280   -0.3984 H   0  0  0  0  0  0  0  0  0  0  0  0
   -1.7586   -2.0580    0.8686 C   0  0  0  0  0  0  0  0  0  0  0  0
   -0.9666   -2.6340    1.6026 O   0  0  0  0  0  0  0  0  0  0  0  0
   -1.4866   -0.9220    0.2366 N   0  0  0  0  0  0  0  0  0  0  0  0
   -2.2166   -0.4790   -0.2994 H   0  0  0  0  0  0  0  0  0  0  0  0
   -0.1956   -0.2250    0.2596 C   0  0  1  0  0  0  0  0  0  0  0  0
    0.5755   -0.9013   -0.1105 H   0  0  0  0  0  0  0  0  0  0  0  0
   -0.2553    0.9811   -0.6992 C   0  0  0  0  0  0  0  0  0  0  0  0
   -0.9520    0.7376   -1.5028 H   0  0  0  0  0  0  0  0  0  0  0  0
   -0.6390    1.8496   -0.1618 H   0  0  0  0  0  0  0  0  0  0  0  0
    1.1050    1.3347   -1.3236 C   0  0  0  0  0  0  0  0  0  0  0  0
    1.8949    0.8121   -0.7788 H   0  0  0  0  0  0  0  0  0  0  0  0
    1.1126    0.9747   -2.3558 H   0  0  0  0  0  0  0  0  0  0  0  0
    1.4099    2.8400   -1.3100 C   0  0  0  0  0  0  0  0  0  0  0  0
    0.5095    3.6251   -0.9369 O   0  5  0  0  0  0  0  0  0  0  0  0
    2.5630    3.1819   -1.6548 O   0  0  0  0  0  0  0  0  0  0  0  0
    0.1881    0.1678    1.7015 C   0  0  0  0  0  0  0  0  0  0  0  0
    1.3379    0.0002    2.1133 O   0  0  0  0  0  0  0  0  0  0  0  0
   -0.7666    0.7145    2.4656 N   0  0  0  0  0  0  0  0  0  0  0  0
   -1.6971    0.7705    2.0790 H   0  0  0  0  0  0  0  0  0  0  0  0
   -0.5716    1.1232    3.8542 C   0  0  0  0  0  0  0  0  0  0  0  0
    0.3083    1.7643    3.9293 H   0  0  0  0  0  0  0  0  0  0  0  0
   -1.4485    1.6640    4.2131 H   0  0  0  0  0  0  0  0  0  0  0  0
   -0.4137    0.2381    4.4736 H   0  0  0  0  0  0  0  0  0  0  0  0
  5  6  2  0  0  0  0
  5  7  1  0  0  0  0
  2  3  1  0  0  0  0
  2  4  1  0  0  0  0
  2  5  1  0  0  0  0
  1  2  1  0  0  0  0
 20 21  2  0  0  0  0
 20 22  1  0  0  0  0
 17 18  1  0  0  0  0
 17 19  2  0  0  0  0
 14 15  1  0  0  0  0
 14 16  1  0  0  0  0
 14 17  1  0  0  0  0
 11 12  1  0  0  0  0
 11 13  1  0  0  0  0
 11 14  1  0  0  0  0
  9 10  1  0  0  0  0
  9 11  1  0  0  0  0
  9 20  1  0  0  0  0
  7  8  1  0  0  0  0
  7  9  1  0  0  0  0
 24 25  1  0  0  0  0
 24 26  1  0  0  0  0
 24 27  1  0  0  0  0
 22 23  1  0  0  0  0
 22 24  1  0  0  0  0
M  CHG  1  18  -1
M  END
$$$$
default_name
  -OEChem-02102213163D

 27 26  0     1  0  0  0  0  0999 V2000
   -3.2406   -3.5400    1.2326 H   0  0  0  0  0  0  0  0  0  0  0  0
   -3.1436   -2.6190    0.6606 C   0  0  0  0  0  0  0  0  0  0  0  0
   -3.8786   -1.8920    0.9996 H   0  0  0  0  0  0  0  0  0  0  0  0
   -3.2846   -2.8280   -0.3984 H   0  0  0  0  0  0  0  0  0  0  0  0
   -1.7586   -2.0580    0.8686 C   0  0  0  0  0  0  0  0  0  0  0  0
   -0.9666   -2.6340    1.6026 O   0  0  0  0  0  0  0  0  0  0  0  0
   -1.4866   -0.9220    0.2366 N   0  0  0  0  0  0  0  0  0  0  0  0
   -2.2166   -0.4790   -0.2994 H   0  0  0  0  0  0  0  0  0  0  0  0
   -0.1956   -0.2250    0.2596 C   0  0  1  0  0  0  0  0  0  0  0  0
    0.5755   -0.9013   -0.1105 H   0  0  0  0  0  0  0  0  0  0  0  0
   -0.2553    0.9811   -0.6992 C   0  0  0  0  0  0  0  0  0  0  0  0
   -0.9520    0.7376   -1.5028 H   0  0  0  0  0  0  0  0  0  0  0  0
   -0.6390    1.8496   -0.1618 H   0  0  0  0  0  0  0  0  0  0  0  0
    1.1050    1.3347   -1.3236 C   0  0  0  0  0  0  0  0  0  0  0  0
    1.8563    0.6250   -0.9689 H   0  0  0  0  0  0  0  0  0  0  0  0
    1.0234    1.2252   -2.4083 H   0  0  0  0  0  0  0  0  0  0  0  0
    1.5769    2.7583   -0.9925 C   0  0  0  0  0  0  0  0  0  0  0  0
    0.7887    3.5199   -0.3882 O   0  5  0  0  0  0  0  0  0  0  0  0
    2.7434    3.0561   -1.3330 O   0  0  0  0  0  0  0  0  0  0  0  0
    0.1881    0.1678    1.7015 C   0  0  0  0  0  0  0  0  0  0  0  0
    1.3379    0.0002    2.1133 O   0  0  0  0  0  0  0  0  0  0  0  0
   -0.7666    0.7145    2.4656 N   0  0  0  0  0  0  0  0  0  0  0  0
   -1.6971    0.7705    2.0790 H   0  0  0  0  0  0  0  0  0  0  0  0
   -0.5716    1.1232    3.8542 C   0  0  0  0  0  0  0  0  0  0  0  0
    0.3083    1.7643    3.9293 H   0  0  0  0  0  0  0  0  0  0  0  0
   -1.4485    1.6640    4.2131 H   0  0  0  0  0  0  0  0  0  0  0  0
   -0.4137    0.2381    4.4736 H   0  0  0  0  0  0  0  0  0  0  0  0
  5  6  2  0  0  0  0
  5  7  1  0  0  0  0
  2  3  1  0  0  0  0
  2  4  1  0  0  0  0
  2  5  1  0  0  0  0
  1  2  1  0  0  0  0
 20 21  2  0  0  0  0
 20 22  1  0  0  0  0
 17 18  1  0  0  0  0
 17 19  2  0  0  0  0
 14 15  1  0  0  0  0
 14 16  1  0  0  0  0
 14 17  1  0  0  0  0
 11 12  1  0  0  0  0
 11 13  1  0  0  0  0
 11 14  1  0  0  0  0
  9 10  1  0  0  0  0
  9 11  1  0  0  0  0
  9 20  1  0  0  0  0
  7  8  1  0  0  0  0
  7  9  1  0  0  0  0
 24 25  1  0  0  0  0
 24 26  1  0  0  0  0
 24 27  1  0  0  0  0
 22 23  1  0  0  0  0
 22 24  1  0  0  0  0
M  CHG  1  18  -1
M  END
$$$$
default_name
  -OEChem-02102213163D

 27 26  0     1  0  0  0  0  0999 V2000
   -3.2406   -3.5400    1.2326 H   0  0  0  0  0  0  0  0  0  0  0  0
   -3.1436   -2.6190    0.6606 C   0  0  0  0  0  0  0  0  0  0  0  0
   -3.8786   -1.8920    0.9996 H   0  0  0  0  0  0  0  0  0  0  0  0
   -3.2846   -2.8280   -0.3984 H   0  0  0  0  0  0  0  0  0  0  0  0
   -1.7586   -2.0580    0.8686 C   0  0  0  0  0  0  0  0  0  0  0  0
   -0.9666   -2.6340    1.6026 O   0  0  0  0  0  0  0  0  0  0  0  0
   -1.4866   -0.9220    0.2366 N   0  0  0  0  0  0  0  0  0  0  0  0
   -2.2166   -0.4790   -0.2994 H   0  0  0  0  0  0  0  0  0  0  0  0
   -0.1956   -0.2250    0.2596 C   0  0  1  0  0  0  0  0  0  0  0  0
    0.5755   -0.9013   -0.1105 H   0  0  0  0  0  0  0  0  0  0  0  0
   -0.2553    0.9811   -0.6992 C   0  0  0  0  0  0  0  0  0  0  0  0
   -0.9520    0.7376   -1.5028 H   0  0  0  0  0  0  0  0  0  0  0  0
   -0.6390    1.8496   -0.1618 H   0  0  0  0  0  0  0  0  0  0  0  0
    1.1050    1.3347   -1.3236 C   0  0  0  0  0  0  0  0  0  0  0  0
    1.7880    0.4918   -1.1931 H   0  0  0  0  0  0  0  0  0  0  0  0
    0.9605    1.4885   -2.3963 H   0  0  0  0  0  0  0  0  0  0  0  0
    1.7485    2.5892   -0.7144 C   0  0  0  0  0  0  0  0  0  0  0  0
    1.0801    3.2633    0.1012 O   0  5  0  0  0  0  0  0  0  0  0  0
    2.9236    2.8419   -1.0617 O   0  0  0  0  0  0  0  0  0  0  0  0
    0.1881    0.1678    1.7015 C   0  0  0  0  0  0  0  0  0  0  0  0
    1.3379    0.0002    2.1133 O   0  0  0  0  0  0  0  0  0  0  0  0
   -0.7666    0.7145    2.4656 N   0  0  0  0  0  0  0  0  0  0  0  0
   -1.6971    0.7705    2.0790 H   0  0  0  0  0  0  0  0  0  0  0  0
   -0.5716    1.1232    3.8542 C   0  0  0  0  0  0  0  0  0  0  0  0
    0.3083    1.7643    3.9293 H   0  0  0  0  0  0  0  0  0  0  0  0
   -1.4485    1.6640    4.2131 H   0  0  0  0  0  0  0  0  0  0  0  0
   -0.4137    0.2381    4.4736 H   0  0  0  0  0  0  0  0  0  0  0  0
  5  6  2  0  0  0  0
  5  7  1  0  0  0  0
  2  3  1  0  0  0  0
  2  4  1  0  0  0  0
  2  5  1  0  0  0  0
  1  2  1  0  0  0  0
 20 21  2  0  0  0  0
 20 22  1  0  0  0  0
 17 18  1  0  0  0  0
 17 19  2  0  0  0  0
 14 15  1  0  0  0  0
 14 16  1  0  0  0  0
 14 17  1  0  0  0  0
 11 12  1  0  0  0  0
 11 13  1  0  0  0  0
 11 14  1  0  0  0  0
  9 10  1  0  0  0  0
  9 11  1  0  0  0  0
  9 20  1  0  0  0  0
  7  8  1  0  0  0  0
  7  9  1  0  0  0  0
 24 25  1  0  0  0  0
 24 26  1  0  0  0  0
 24 27  1  0  0  0  0
 22 23  1  0  0  0  0
 22 24  1  0  0  0  0
M  CHG  1  18  -1
M  END
$$$$
default_name
  -OEChem-02102213163D

 27 26  0     1  0  0  0  0  0999 V2000
   -3.2406   -3.5400    1.2326 H   0  0  0  0  0  0  0  0  0  0  0  0
   -3.1436   -2.6190    0.6606 C   0  0  0  0  0  0  0  0  0  0  0  0
   -3.8786   -1.8920    0.9996 H   0  0  0  0  0  0  0  0  0  0  0  0
   -3.2846   -2.8280   -0.3984 H   0  0  0  0  0  0  0  0  0  0  0  0
   -1.7586   -2.0580    0.8686 C   0  0  0  0  0  0  0  0  0  0  0  0
   -0.9666   -2.6340    1.6026 O   0  0  0  0  0  0  0  0  0  0  0  0
   -1.4866   -0.9220    0.2366 N   0  0  0  0  0  0  0  0  0  0  0  0
   -2.2166   -0.4790   -0.2994 H   0  0  0  0  0  0  0  0  0  0  0  0
   -0.1956   -0.2250    0.2596 C   0  0  1  0  0  0  0  0  0  0  0  0
    0.5755   -0.9013   -0.1105 H   0  0  0  0  0  0  0  0  0  0  0  0
   -0.2553    0.9811   -0.6992 C   0  0  0  0  0  0  0  0  0  0  0  0
   -0.9520    0.7376   -1.5028 H   0  0  0  0  0  0  0  0  0  0  0  0
   -0.6390    1.8496   -0.1618 H   0  0  0  0  0  0  0  0  0  0  0  0
    1.1050    1.3347   -1.3236 C   0  0  0  0  0  0  0  0  0  0  0  0
    1.6946    0.4217   -1.4361 H   0  0  0  0  0  0  0  0  0  0  0  0
    0.9281    1.7467   -2.3207 H   0  0  0  0  0  0  0  0  0  0  0  0
    1.9131    2.3442   -0.4947 C   0  0  0  0  0  0  0  0  0  0  0  0
    1.3636    2.8729    0.4978 O   0  5  0  0  0  0  0  0  0  0  0  0
    3.0913    2.5539   -0.8594 O   0  0  0  0  0  0  0  0  0  0  0  0
    0.1881    0.1678    1.7015 C   0  0  0  0  0  0  0  0  0  0  0  0
    1.3379    0.0002    2.1133 O   0  0  0  0  0  0  0  0  0  0  0  0
   -0.7666    0.7145    2.4656 N   0  0  0  0  0  0  0  0  0  0  0  0
   -1.6971    0.7705    2.0790 H   0  0  0  0  0  0  0  0  0  0  0  0
   -0.5716    1.1232    3.8542 C   0  0  0  0  0  0  0  0  0  0  0  0
    0.3083    1.7643    3.9293 H   0  0  0  0  0  0  0  0  0  0  0  0
   -1.4485    1.6640    4.2131 H   0  0  0  0  0  0  0  0  0  0  0  0
   -0.4137    0.2381    4.4736 H   0  0  0  0  0  0  0  0  0  0  0  0
  5  6  2  0  0  0  0
  5  7  1  0  0  0  0
  2  3  1  0  0  0  0
  2  4  1  0  0  0  0
  2  5  1  0  0  0  0
  1  2  1  0  0  0  0
 20 21  2  0  0  0  0
 20 22  1  0  0  0  0
 17 18  1  0  0  0  0
 17 19  2  0  0  0  0
 14 15  1  0  0  0  0
 14 16  1  0  0  0  0
 14 17  1  0  0  0  0
 11 12  1  0  0  0  0
 11 13  1  0  0  0  0
 11 14  1  0  0  0  0
  9 10  1  0  0  0  0
  9 11  1  0  0  0  0
  9 20  1  0  0  0  0
  7  8  1  0  0  0  0
  7  9  1  0  0  0  0
 24 25  1  0  0  0  0
 24 26  1  0  0  0  0
 24 27  1  0  0  0  0
 22 23  1  0  0  0  0
 22 24  1  0  0  0  0
M  CHG  1  18  -1
M  END
$$$$
default_name
  -OEChem-02102213163D

 27 26  0     1  0  0  0  0  0999 V2000
   -3.2406   -3.5400    1.2326 H   0  0  0  0  0  0  0  0  0  0  0  0
   -3.1436   -2.6190    0.6606 C   0  0  0  0  0  0  0  0  0  0  0  0
   -3.8786   -1.8920    0.9996 H   0  0  0  0  0  0  0  0  0  0  0  0
   -3.2846   -2.8280   -0.3984 H   0  0  0  0  0  0  0  0  0  0  0  0
   -1.7586   -2.0580    0.8686 C   0  0  0  0  0  0  0  0  0  0  0  0
   -0.9666   -2.6340    1.6026 O   0  0  0  0  0  0  0  0  0  0  0  0
   -1.4866   -0.9220    0.2366 N   0  0  0  0  0  0  0  0  0  0  0  0
   -2.2166   -0.4790   -0.2994 H   0  0  0  0  0  0  0  0  0  0  0  0
   -0.1956   -0.2250    0.2596 C   0  0  1  0  0  0  0  0  0  0  0  0
    0.5755   -0.9013   -0.1105 H   0  0  0  0  0  0  0  0  0  0  0  0
   -0.2553    0.9811   -0.6992 C   0  0  0  0  0  0  0  0  0  0  0  0
   -0.9520    0.7376   -1.5028 H   0  0  0  0  0  0  0  0  0  0  0  0
   -0.6390    1.8496   -0.1618 H   0  0  0  0  0  0  0  0  0  0  0  0
    1.1050    1.3347   -1.3236 C   0  0  0  0  0  0  0  0  0  0  0  0
    1.5827    0.4194   -1.6813 H   0  0  0  0  0  0  0  0  0  0  0  0
    0.9284    1.9822   -2.1866 H   0  0  0  0  0  0  0  0  0  0  0  0
    2.0593    2.0399   -0.3484 C   0  0  0  0  0  0  0  0  0  0  0  0
    1.6201    2.3751    0.7746 O   0  5  0  0  0  0  0  0  0  0  0  0
    3.2351    2.2119   -0.7399 O   0  0  0  0  0  0  0  0  0  0  0  0
    0.1881    0.1678    1.7015 C   0  0  0  0  0  0  0  0  0  0  0  0
    1.3379    0.0002    2.1133 O   0  0  0  0  0  0  0  0  0  0  0  0
   -0.7666    0.7145    2.4656 N   0  0  0  0  0  0  0  0  0  0  0  0
   -1.6971    0.7705    2.0790 H   0  0  0  0  0  0  0  0  0  0  0  0
   -0.5716    1.1232    3.8542 C   0  0  0  0  0  0  0  0  0  0  0  0
    0.3083    1.7643    3.9293 H   0  0  0  0  0  0  0  0  0  0  0  0
   -1.4485    1.6640    4.2131 H   0  0  0  0  0  0  0  0  0  0  0  0
   -0.4137    0.2381    4.4736 H   0  0  0  0  0  0  0  0  0  0  0  0
  5  6  2  0  0  0  0
  5  7  1  0  0  0  0
  2  3  1  0  0  0  0
  2  4  1  0  0  0  0
  2  5  1  0  0  0  0
  1  2  1  0  0  0  0
 20 21  2  0  0  0  0
 20 22  1  0  0  0  0
 17 18  1  0  0  0  0
 17 19  2  0  0  0  0
 14 15  1  0  0  0  0
 14 16  1  0  0  0  0
 14 17  1  0  0  0  0
 11 12  1  0  0  0  0
 11 13  1  0  0  0  0
 11 14  1  0  0  0  0
  9 10  1  0  0  0  0
  9 11  1  0  0  0  0
  9 20  1  0  0  0  0
  7  8  1  0  0  0  0
  7  9  1  0  0  0  0
 24 25  1  0  0  0  0
 24 26  1  0  0  0  0
 24 27  1  0  0  0  0
 22 23  1  0  0  0  0
 22 24  1  0  0  0  0
M  CHG  1  18  -1
M  END
$$$$
default_name
  -OEChem-02102213163D

 27 26  0     1  0  0  0  0  0999 V2000
   -3.2406   -3.5400    1.2326 H   0  0  0  0  0  0  0  0  0  0  0  0
   -3.1436   -2.6190    0.6606 C   0  0  0  0  0  0  0  0  0  0  0  0
   -3.8786   -1.8920    0.9996 H   0  0  0  0  0  0  0  0  0  0  0  0
   -3.2846   -2.8280   -0.3984 H   0  0  0  0  0  0  0  0  0  0  0  0
   -1.7586   -2.0580    0.8686 C   0  0  0  0  0  0  0  0  0  0  0  0
   -0.9666   -2.6340    1.6026 O   0  0  0  0  0  0  0  0  0  0  0  0
   -1.4866   -0.9220    0.2366 N   0  0  0  0  0  0  0  0  0  0  0  0
   -2.2166   -0.4790   -0.2994 H   0  0  0  0  0  0  0  0  0  0  0  0
   -0.1956   -0.2250    0.2596 C   0  0  1  0  0  0  0  0  0  0  0  0
    0.5755   -0.9013   -0.1105 H   0  0  0  0  0  0  0  0  0  0  0  0
   -0.2553    0.9811   -0.6992 C   0  0  0  0  0  0  0  0  0  0  0  0
   -0.9520    0.7376   -1.5028 H   0  0  0  0  0  0  0  0  0  0  0  0
   -0.6390    1.8496   -0.1618 H   0  0  0  0  0  0  0  0  0  0  0  0
    1.1050    1.3347   -1.3236 C   0  0  0  0  0  0  0  0  0  0  0  0
    1.4597    0.4851   -1.9120 H   0  0  0  0  0  0  0  0  0  0  0  0
    0.9614    2.1789   -2.0032 H   0  0  0  0  0  0  0  0  0  0  0  0
    2.1773    1.6971   -0.2855 C   0  0  0  0  0  0  0  0  0  0  0  0
    1.8320    1.8040    0.9128 O   0  5  0  0  0  0  0  0  0  0  0  0
    3.3452    1.8390   -0.7113 O   0  0  0  0  0  0  0  0  0  0  0  0
    0.1881    0.1678    1.7015 C   0  0  0  0  0  0  0  0  0  0  0  0
    1.3379    0.0002    2.1133 O   0  0  0  0  0  0  0  0  0  0  0  0
   -0.7666    0.7145    2.4656 N   0  0  0  0  0  0  0  0  0  0  0  0
   -1.6971    0.7705    2.0790 H   0  0  0  0  0  0  0  0  0  0  0  0
   -0.5716    1.1232    3.8542 C   0  0  0  0  0  0  0  0  0  0  0  0
    0.3083    1.7643    3.9293 H   0  0  0  0  0  0  0  0  0  0  0  0
   -1.4485    1.6640    4.2131 H   0  0  0  0  0  0  0  0  0  0  0  0
   -0.4137    0.2381    4.4736 H   0  0  0  0  0  0  0  0  0  0  0  0
  5  6  2  0  0  0  0
  5  7  1  0  0  0  0
  2  3  1  0  0  0  0
  2  4  1  0  0  0  0
  2  5  1  0  0  0  0
  1  2  1  0  0  0  0
 20 21  2  0  0  0  0
 20 22  1  0  0  0  0
 17 18  1  0  0  0  0
 17 19  2  0  0  0  0
 14 15  1  0  0  0  0
 14 16  1  0  0  0  0
 14 17  1  0  0  0  0
 11 12  1  0  0  0  0
 11 13  1  0  0  0  0
 11 14  1  0  0  0  0
  9 10  1  0  0  0  0
  9 11  1  0  0  0  0
  9 20  1  0  0  0  0
  7  8  1  0  0  0  0
  7  9  1  0  0  0  0
 24 25  1  0  0  0  0
 24 26  1  0  0  0  0
 24 27  1  0  0  0  0
 22 23  1  0  0  0  0
 22 24  1  0  0  0  0
M  CHG  1  18  -1
M  END
$$$$
default_name
  -OEChem-02102213163D

 27 26  0     1  0  0  0  0  0999 V2000
   -3.2406   -3.5400    1.2326 H   0  0  0  0  0  0  0  0  0  0  0  0
   -3.1436   -2.6190    0.6606 C   0  0  0  0  0  0  0  0  0  0  0  0
   -3.8786   -1.8920    0.9996 H   0  0  0  0  0  0  0  0  0  0  0  0
   -3.2846   -2.8280   -0.3984 H   0  0  0  0  0  0  0  0  0  0  0  0
   -1.7586   -2.0580    0.8686 C   0  0  0  0  0  0  0  0  0  0  0  0
   -0.9666   -2.6340    1.6026 O   0  0  0  0  0  0  0  0  0  0  0  0
   -1.4866   -0.9220    0.2366 N   0  0  0  0  0  0  0  0  0  0  0  0
   -2.2166   -0.4790   -0.2994 H   0  0  0  0  0  0  0  0  0  0  0  0
   -0.1956   -0.2250    0.2596 C   0  0  1  0  0  0  0  0  0  0  0  0
    0.5755   -0.9013   -0.1105 H   0  0  0  0  0  0  0  0  0  0  0  0
   -0.2553    0.9811   -0.6992 C   0  0  0  0  0  0  0  0  0  0  0  0
   -0.9520    0.7376   -1.5028 H   0  0  0  0  0  0  0  0  0  0  0  0
   -0.6390    1.8496   -0.1618 H   0  0  0  0  0  0  0  0  0  0  0  0
    1.1050    1.3347   -1.3236 C   0  0  0  0  0  0  0  0  0  0  0  0
    1.3341    0.6143   -2.1125 H   0  0  0  0  0  0  0  0  0  0  0  0
    1.0249    2.3235   -1.7830 H   0  0  0  0  0  0  0  0  0  0  0  0
    2.2590    1.3392   -0.3101 C   0  0  0  0  0  0  0  0  0  0  0  0
    1.9849    1.1984    0.9029 O   0  5  0  0  0  0  0  0  0  0  0  0
    3.4140    1.4607   -0.7756 O   0  0  0  0  0  0  0  0  0  0  0  0
    0.1881    0.1678    1.7015 C   0  0  0  0  0  0  0  0  0  0  0  0
    1.3379    0.0002    2.1133 O   0  0  0  0  0  0  0  0  0  0  0  0
   -0.7666    0.7145    2.4656 N   0  0  0  0  0  0  0  0  0  0  0  0
   -1.6971    0.7705    2.0790 H   0  0  0  0  0  0  0  0  0  0  0  0
   -0.5716    1.1232    3.8542 C   0  0  0  0  0  0  0  0  0  0  0  0
    0.3083    1.7643    3.9293 H   0  0  0  0  0  0  0  0  0  0  0  0
   -1.4485    1.6640    4.2131 H   0  0  0  0  0  0  0  0  0  0  0  0
   -0.4137    0.2381    4.4736 H   0  0  0  0  0  0  0  0  0  0  0  0
  5  6  2  0  0  0  0
  5  7  1  0  0  0  0
  2  3  1  0  0  0  0
  2  4  1  0  0  0  0
  2  5  1  0  0  0  0
  1  2  1  0  0  0  0
 20 21  2  0  0  0  0
 20 22  1  0  0  0  0
 17 18  1  0  0  0  0
 17 19  2  0  0  0  0
 14 15  1  0  0  0  0
 14 16  1  0  0  0  0
 14 17  1  0  0  0  0
 11 12  1  0  0  0  0
 11 13  1  0  0  0  0
 11 14  1  0  0  0  0
  9 10  1  0  0  0  0
  9 11  1  0  0  0  0
  9 20  1  0  0  0  0
  7  8  1  0  0  0  0
  7  9  1  0  0  0  0
 24 25  1  0  0  0  0
 24 26  1  0  0  0  0
 24 27  1  0  0  0  0
 22 23  1  0  0  0  0
 22 24  1  0  0  0  0
M  CHG  1  18  -1
M  END
$$$$
default_name
  -OEChem-02102213163D

 27 26  0     1  0  0  0  0  0999 V2000
   -3.2406   -3.5400    1.2326 H   0  0  0  0  0  0  0  0  0  0  0  0
   -3.1436   -2.6190    0.6606 C   0  0  0  0  0  0  0  0  0  0  0  0
   -3.8786   -1.8920    0.9996 H   0  0  0  0  0  0  0  0  0  0  0  0
   -3.2846   -2.8280   -0.3984 H   0  0  0  0  0  0  0  0  0  0  0  0
   -1.7586   -2.0580    0.8686 C   0  0  0  0  0  0  0  0  0  0  0  0
   -0.9666   -2.6340    1.6026 O   0  0  0  0  0  0  0  0  0  0  0  0
   -1.4866   -0.9220    0.2366 N   0  0  0  0  0  0  0  0  0  0  0  0
   -2.2166   -0.4790   -0.2994 H   0  0  0  0  0  0  0  0  0  0  0  0
   -0.1956   -0.2250    0.2596 C   0  0  1  0  0  0  0  0  0  0  0  0
    0.5755   -0.9013   -0.1105 H   0  0  0  0  0  0  0  0  0  0  0  0
   -0.2553    0.9811   -0.6992 C   0  0  0  0  0  0  0  0  0  0  0  0
   -0.9520    0.7376   -1.5028 H   0  0  0  0  0  0  0  0  0  0  0  0
   -0.6390    1.8496   -0.1618 H   0  0  0  0  0  0  0  0  0  0  0  0
    1.1050    1.3347   -1.3236 C   0  0  0  0  0  0  0  0  0  0  0  0
    1.2144    0.7981   -2.2691 H   0  0  0  0  0  0  0  0  0  0  0  0
    1.1146    2.4061   -1.5410 H   0  0  0  0  0  0  0  0  0  0  0  0
    2.2989    0.9906   -0.4208 C   0  0  0  0  0  0  0  0  0  0  0  0
    2.0683    0.5997    0.7457 O   0  5  0  0  0  0  0  0  0  0  0  0
    3.4369    1.1028   -0.9284 O   0  0  0  0  0  0  0  0  0  0  0  0
    0.1881    0.1678    1.7015 C   0  0  0  0  0  0  0  0  0  0  0  0
    1.3379    0.0002    2.1133 O   0  0  0  0  0  0  0  0  0  0  0  0
   -0.7666    0.7145    2.4656 N   0  0  0  0  0  0  0  0  0  0  0  0
   -1.6971    0.7705    2.0790 H   0  0  0  0  0  0  0  0  0  0  0  0
   -0.5716    1.1232    3.8542 C   0  0  0  0  0  0  0  0  0  0  0  0
    0.3083    1.7643    3.9293 H   0  0  0  0  0  0  0  0  0  0  0  0
   -1.4485    1.6640    4.2131 H   0  0  0  0  0  0  0  0  0  0  0  0
   -0.4137    0.2381    4.4736 H   0  0  0  0  0  0  0  0  0  0  0  0
  5  6  2  0  0  0  0
  5  7  1  0  0  0  0
  2  3  1  0  0  0  0
  2  4  1  0  0  0  0
  2  5  1  0  0  0  0
  1  2  1  0  0  0  0
 20 21  2  0  0  0  0
 20 22  1  0  0  0  0
 17 18  1  0  0  0  0
 17 19  2  0  0  0  0
 14 15  1  0  0  0  0
 14 16  1  0  0  0  0
 14 17  1  0  0  0  0
 11 12  1  0  0  0  0
 11 13  1  0  0  0  0
 11 14  1  0  0  0  0
  9 10  1  0  0  0  0
  9 11  1  0  0  0  0
  9 20  1  0  0  0  0
  7  8  1  0  0  0  0
  7  9  1  0  0  0  0
 24 25  1  0  0  0  0
 24 26  1  0  0  0  0
 24 27  1  0  0  0  0
 22 23  1  0  0  0  0
 22 24  1  0  0  0  0
M  CHG  1  18  -1
M  END
$$$$
default_name
  -OEChem-02102213163D

 27 26  0     1  0  0  0  0  0999 V2000
   -3.2406   -3.5400    1.2326 H   0  0  0  0  0  0  0  0  0  0  0  0
   -3.1436   -2.6190    0.6606 C   0  0  0  0  0  0  0  0  0  0  0  0
   -3.8786   -1.8920    0.9996 H   0  0  0  0  0  0  0  0  0  0  0  0
   -3.2846   -2.8280   -0.3984 H   0  0  0  0  0  0  0  0  0  0  0  0
   -1.7586   -2.0580    0.8686 C   0  0  0  0  0  0  0  0  0  0  0  0
   -0.9666   -2.6340    1.6026 O   0  0  0  0  0  0  0  0  0  0  0  0
   -1.4866   -0.9220    0.2366 N   0  0  0  0  0  0  0  0  0  0  0  0
   -2.2166   -0.4790   -0.2994 H   0  0  0  0  0  0  0  0  0  0  0  0
   -0.1956   -0.2250    0.2596 C   0  0  1  0  0  0  0  0  0  0  0  0
    0.5755   -0.9013   -0.1105 H   0  0  0  0  0  0  0  0  0  0  0  0
   -0.2553    0.9811   -0.6992 C   0  0  0  0  0  0  0  0  0  0  0  0
   -0.9520    0.7376   -1.5028 H   0  0  0  0  0  0  0  0  0  0  0  0
   -0.6390    1.8496   -0.1618 H   0  0  0  0  0  0  0  0  0  0  0  0
    1.1050    1.3347   -1.3236 C   0  0  0  0  0  0  0  0  0  0  0  0
    1.1088    1.0242   -2.3712 H   0  0  0  0  0  0  0  0  0  0  0  0
    1.2242    2.4210   -1.2937 H   0  0  0  0  0  0  0  0  0  0  0  0
    2.2941    0.6749   -0.6098 C   0  0  0  0  0  0  0  0  0  0  0  0
    2.0766    0.0486    0.4517 O   0  5  0  0  0  0  0  0  0  0  0  0
    3.4123    0.7897   -1.1593 O   0  0  0  0  0  0  0  0  0  0  0  0
    0.1881    0.1678    1.7015 C   0  0  0  0  0  0  0  0  0  0  0  0
    1.3379    0.0002    2.1133 O   0  0  0  0  0  0  0  0  0  0  0  0
   -0.7666    0.7145    2.4656 N   0  0  0  0  0  0  0  0  0  0  0  0
   -1.6971    0.7705    2.0790 H   0  0  0  0  0  0  0  0  0  0  0  0
   -0.5716    1.1232    3.8542 C   0  0  0  0  0  0  0  0  0  0  0  0
    0.3083    1.7643    3.9293 H   0  0  0  0  0  0  0  0  0  0  0  0
   -1.4485    1.6640    4.2131 H   0  0  0  0  0  0  0  0  0  0  0  0
   -0.4137    0.2381    4.4736 H   0  0  0  0  0  0  0  0  0  0  0  0
  5  6  2  0  0  0  0
  5  7  1  0  0  0  0
  2  3  1  0  0  0  0
  2  4  1  0  0  0  0
  2  5  1  0  0  0  0
  1  2  1  0  0  0  0
 20 21  2  0  0  0  0
 20 22  1  0  0  0  0
 17 18  1  0  0  0  0
 17 19  2  0  0  0  0
 14 15  1  0  0  0  0
 14 16  1  0  0  0  0
 14 17  1  0  0  0  0
 11 12  1  0  0  0  0
 11 13  1  0  0  0  0
 11 14  1  0  0  0  0
  9 10  1  0  0  0  0
  9 11  1  0  0  0  0
  9 20  1  0  0  0  0
  7  8  1  0  0  0  0
  7  9  1  0  0  0  0
 24 25  1  0  0  0  0
 24 26  1  0  0  0  0
 24 27  1  0  0  0  0
 22 23  1  0  0  0  0
 22 24  1  0  0  0  0
M  CHG  1  18  -1
M  END
$$$$
default_name
  -OEChem-02102213163D

 27 26  0     1  0  0  0  0  0999 V2000
   -3.2406   -3.5400    1.2326 H   0  0  0  0  0  0  0  0  0  0  0  0
   -3.1436   -2.6190    0.6606 C   0  0  0  0  0  0  0  0  0  0  0  0
   -3.8786   -1.8920    0.9996 H   0  0  0  0  0  0  0  0  0  0  0  0
   -3.2846   -2.8280   -0.3984 H   0  0  0  0  0  0  0  0  0  0  0  0
   -1.7586   -2.0580    0.8686 C   0  0  0  0  0  0  0  0  0  0  0  0
   -0.9666   -2.6340    1.6026 O   0  0  0  0  0  0  0  0  0  0  0  0
   -1.4866   -0.9220    0.2366 N   0  0  0  0  0  0  0  0  0  0  0  0
   -2.2166   -0.4790   -0.2994 H   0  0  0  0  0  0  0  0  0  0  0  0
   -0.1956   -0.2250    0.2596 C   0  0  1  0  0  0  0  0  0  0  0  0
    0.5755   -0.9013   -0.1105 H   0  0  0  0  0  0  0  0  0  0  0  0
   -0.2553    0.9811   -0.6992 C   0  0  0  0  0  0  0  0  0  0  0  0
   -0.9520    0.7376   -1.5028 H   0  0  0  0  0  0  0  0  0  0  0  0
   -0.6390    1.8496   -0.1618 H   0  0  0  0  0  0  0  0  0  0  0  0
    1.1050    1.3347   -1.3236 C   0  0  0  0  0  0  0  0  0  0  0  0
    1.0244    1.2770   -2.4118 H   0  0  0  0  0  0  0  0  0  0  0  0
    1.3464    2.3673   -1.0579 H   0  0  0  0  0  0  0  0  0  0  0  0
    2.2452    0.4138   -0.8644 C   0  0  0  0  0  0  0  0  0  0  0  0
    2.0093   -0.4174    0.0412 O   0  5  0  0  0  0  0  0  0  0  0  0
    3.3419    0.5427   -1.4526 O   0  0  0  0  0  0  0  0  0  0  0  0
    0.1881    0.1678    1.7015 C   0  0  0  0  0  0  0  0  0  0  0  0
    1.3379    0.0002    2.1133 O   0  0  0  0  0  0  0  0  0  0  0  0
   -0.7666    0.7145    2.4656 N   0  0  0  0  0  0  0  0  0  0  0  0
   -1.6971    0.7705    2.0790 H   0  0  0  0  0  0  0  0  0  0  0  0
   -0.5716    1.1232    3.8542 C   0  0  0  0  0  0  0  0  0  0  0  0
    0.3083    1.7643    3.9293 H   0  0  0  0  0  0  0  0  0  0  0  0
   -1.4485    1.6640    4.2131 H   0  0  0  0  0  0  0  0  0  0  0  0
   -0.4137    0.2381    4.4736 H   0  0  0  0  0  0  0  0  0  0  0  0
  5  6  2  0  0  0  0
  5  7  1  0  0  0  0
  2  3  1  0  0  0  0
  2  4  1  0  0  0  0
  2  5  1  0  0  0  0
  1  2  1  0  0  0  0
 20 21  2  0  0  0  0
 20 22  1  0  0  0  0
 17 18  1  0  0  0  0
 17 19  2  0  0  0  0
 14 15  1  0  0  0  0
 14 16  1  0  0  0  0
 14 17  1  0  0  0  0
 11 12  1  0  0  0  0
 11 13  1  0  0  0  0
 11 14  1  0  0  0  0
  9 10  1  0  0  0  0
  9 11  1  0  0  0  0
  9 20  1  0  0  0  0
  7  8  1  0  0  0  0
  7  9  1  0  0  0  0
 24 25  1  0  0  0  0
 24 26  1  0  0  0  0
 24 27  1  0  0  0  0
 22 23  1  0  0  0  0
 22 24  1  0  0  0  0
M  CHG  1  18  -1
M  END
$$$$
default_name
  -OEChem-02102213163D

 27 26  0     1  0  0  0  0  0999 V2000
   -3.2406   -3.5400    1.2326 H   0  0  0  0  0  0  0  0  0  0  0  0
   -3.1436   -2.6190    0.6606 C   0  0  0  0  0  0  0  0  0  0  0  0
   -3.8786   -1.8920    0.9996 H   0  0  0  0  0  0  0  0  0  0  0  0
   -3.2846   -2.8280   -0.3984 H   0  0  0  0  0  0  0  0  0  0  0  0
   -1.7586   -2.0580    0.8686 C   0  0  0  0  0  0  0  0  0  0  0  0
   -0.9666   -2.6340    1.6026 O   0  0  0  0  0  0  0  0  0  0  0  0
   -1.4866   -0.9220    0.2366 N   0  0  0  0  0  0  0  0  0  0  0  0
   -2.2166   -0.4790   -0.2994 H   0  0  0  0  0  0  0  0  0  0  0  0
   -0.1956   -0.2250    0.2596 C   0  0  1  0  0  0  0  0  0  0  0  0
    0.5755   -0.9013   -0.1105 H   0  0  0  0  0  0  0  0  0  0  0  0
   -0.2553    0.9811   -0.6992 C   0  0  0  0  0  0  0  0  0  0  0  0
   -0.9520    0.7376   -1.5028 H   0  0  0  0  0  0  0  0  0  0  0  0
   -0.6390    1.8496   -0.1618 H   0  0  0  0  0  0  0  0  0  0  0  0
    1.1050    1.3347   -1.3236 C   0  0  0  0  0  0  0  0  0  0  0  0
    0.9671    1.5393   -2.3881 H   0  0  0  0  0  0  0  0  0  0  0  0
    1.4729    2.2486   -0.8497 H   0  0  0  0  0  0  0  0  0  0  0  0
    2.1553    0.2250   -1.1671 C   0  0  0  0  0  0  0  0  0  0  0  0
    1.8708   -0.7663   -0.4581 O   0  5  0  0  0  0  0  0  0  0  0  0
    3.2304    0.3786   -1.7882 O   0  0  0  0  0  0  0  0  0  0  0  0
    0.1881    0.1678    1.7015 C   0  0  0  0  0  0  0  0  0  0  0  0
    1.3379    0.0002    2.1133 O   0  0  0  0  0  0  0  0  0  0  0  0
   -0.7666    0.7145    2.4656 N   0  0  0  0  0  0  0  0  0  0  0  0
   -1.6971    0.7705    2.0790 H   0  0  0  0  0  0  0  0  0  0  0  0
   -0.5716    1.1232    3.8542 C   0  0  0  0  0  0  0  0  0  0  0  0
    0.3083    1.7643    3.9293 H   0  0  0  0  0  0  0  0  0  0  0  0
   -1.4485    1.6640    4.2131 H   0  0  0  0  0  0  0  0  0  0  0  0
   -0.4137    0.2381    4.4736 H   0  0  0  0  0  0  0  0  0  0  0  0
  5  6  2  0  0  0  0
  5  7  1  0  0  0  0
  2  3  1  0  0  0  0
  2  4  1  0  0  0  0
  2  5  1  0  0  0  0
  1  2  1  0  0  0  0
 20 21  2  0  0  0  0
 20 22  1  0  0  0  0
 17 18  1  0  0  0  0
 17 19  2  0  0  0  0
 14 15  1  0  0  0  0
 14 16  1  0  0  0  0
 14 17  1  0  0  0  0
 11 12  1  0  0  0  0
 11 13  1  0  0  0  0
 11 14  1  0  0  0  0
  9 10  1  0  0  0  0
  9 11  1  0  0  0  0
  9 20  1  0  0  0  0
  7  8  1  0  0  0  0
  7  9  1  0  0  0  0
 24 25  1  0  0  0  0
 24 26  1  0  0  0  0
 24 27  1  0  0  0  0
 22 23  1  0  0  0  0
 22 24  1  0  0  0  0
M  CHG  1  18  -1
M  END
$$$$
default_name
  -OEChem-02102213163D

 27 26  0     1  0  0  0  0  0999 V2000
   -3.2406   -3.5400    1.2326 H   0  0  0  0  0  0  0  0  0  0  0  0
   -3.1436   -2.6190    0.6606 C   0  0  0  0  0  0  0  0  0  0  0  0
   -3.8786   -1.8920    0.9996 H   0  0  0  0  0  0  0  0  0  0  0  0
   -3.2846   -2.8280   -0.3984 H   0  0  0  0  0  0  0  0  0  0  0  0
   -1.7586   -2.0580    0.8686 C   0  0  0  0  0  0  0  0  0  0  0  0
   -0.9666   -2.6340    1.6026 O   0  0  0  0  0  0  0  0  0  0  0  0
   -1.4866   -0.9220    0.2366 N   0  0  0  0  0  0  0  0  0  0  0  0
   -2.2166   -0.4790   -0.2994 H   0  0  0  0  0  0  0  0  0  0  0  0
   -0.1956   -0.2250    0.2596 C   0  0  1  0  0  0  0  0  0  0  0  0
    0.5755   -0.9013   -0.1105 H   0  0  0  0  0  0  0  0  0  0  0  0
   -0.2553    0.9811   -0.6992 C   0  0  0  0  0  0  0  0  0  0  0  0
   -0.9520    0.7376   -1.5028 H   0  0  0  0  0  0  0  0  0  0  0  0
   -0.6390    1.8496   -0.1618 H   0  0  0  0  0  0  0  0  0  0  0  0
    1.1050    1.3347   -1.3236 C   0  0  0  0  0  0  0  0  0  0  0  0
    0.9408    1.7933   -2.3017 H   0  0  0  0  0  0  0  0  0  0  0  0
    1.5949    2.0730   -0.6832 H   0  0  0  0  0  0  0  0  0  0  0  0
    2.0306    0.1214   -1.4974 C   0  0  0  0  0  0  0  0  0  0  0  0
    1.6707   -0.9746   -1.0119 O   0  5  0  0  0  0  0  0  0  0  0  0
    3.0856    0.3086   -2.1433 O   0  0  0  0  0  0  0  0  0  0  0  0
    0.1881    0.1678    1.7015 C   0  0  0  0  0  0  0  0  0  0  0  0
    1.3379    0.0002    2.1133 O   0  0  0  0  0  0  0  0  0  0  0  0
   -0.7666    0.7145    2.4656 N   0  0  0  0  0  0  0  0  0  0  0  0
   -1.6971    0.7705    2.0790 H   0  0  0  0  0  0  0  0  0  0  0  0
   -0.5716    1.1232    3.8542 C   0  0  0  0  0  0  0  0  0  0  0  0
    0.3083    1.7643    3.9293 H   0  0  0  0  0  0  0  0  0  0  0  0
   -1.4485    1.6640    4.2131 H   0  0  0  0  0  0  0  0  0  0  0  0
   -0.4137    0.2381    4.4736 H   0  0  0  0  0  0  0  0  0  0  0  0
  5  6  2  0  0  0  0
  5  7  1  0  0  0  0
  2  3  1  0  0  0  0
  2  4  1  0  0  0  0
  2  5  1  0  0  0  0
  1  2  1  0  0  0  0
 20 21  2  0  0  0  0
 20 22  1  0  0  0  0
 17 18  1  0  0  0  0
 17 19  2  0  0  0  0
 14 15  1  0  0  0  0
 14 16  1  0  0  0  0
 14 17  1  0  0  0  0
 11 12  1  0  0  0  0
 11 13  1  0  0  0  0
 11 14  1  0  0  0  0
  9 10  1  0  0  0  0
  9 11  1  0  0  0  0
  9 20  1  0  0  0  0
  7  8  1  0  0  0  0
  7  9  1  0  0  0  0
 24 25  1  0  0  0  0
 24 26  1  0  0  0  0
 24 27  1  0  0  0  0
 22 23  1  0  0  0  0
 22 24  1  0  0  0  0
M  CHG  1  18  -1
M  END
$$$$
default_name
  -OEChem-02102213163D

 27 26  0     1  0  0  0  0  0999 V2000
   -3.2406   -3.5400    1.2326 H   0  0  0  0  0  0  0  0  0  0  0  0
   -3.1436   -2.6190    0.6606 C   0  0  0  0  0  0  0  0  0  0  0  0
   -3.8786   -1.8920    0.9996 H   0  0  0  0  0  0  0  0  0  0  0  0
   -3.2846   -2.8280   -0.3984 H   0  0  0  0  0  0  0  0  0  0  0  0
   -1.7586   -2.0580    0.8686 C   0  0  0  0  0  0  0  0  0  0  0  0
   -0.9666   -2.6340    1.6026 O   0  0  0  0  0  0  0  0  0  0  0  0
   -1.4866   -0.9220    0.2366 N   0  0  0  0  0  0  0  0  0  0  0  0
   -2.2166   -0.4790   -0.2994 H   0  0  0  0  0  0  0  0  0  0  0  0
   -0.1956   -0.2250    0.2596 C   0  0  1  0  0  0  0  0  0  0  0  0
    0.5755   -0.9013   -0.1105 H   0  0  0  0  0  0  0  0  0  0  0  0
   -0.2553    0.9811   -0.6992 C   0  0  0  0  0  0  0  0  0  0  0  0
   -0.9520    0.7376   -1.5028 H   0  0  0  0  0  0  0  0  0  0  0  0
   -0.6390    1.8496   -0.1618 H   0  0  0  0  0  0  0  0  0  0  0  0
    1.1050    1.3347   -1.3236 C   0  0  0  0  0  0  0  0  0  0  0  0
    0.9471    2.0216   -2.1586 H   0  0  0  0  0  0  0  0  0  0  0  0
    1.7042    1.8525   -0.5700 H   0  0  0  0  0  0  0  0  0  0  0  0
    1.8796    0.1101   -1.8328 C   0  0  0  0  0  0  0  0  0  0  0  0
    1.4226   -1.0279   -1.5827 O   0  5  0  0  0  0  0  0  0  0  0  0
    2.9172    0.3376   -2.4936 O   0  0  0  0  0  0  0  0  0  0  0  0
    0.1881    0.1678    1.7015 C   0  0  0  0  0  0  0  0  0  0  0  0
    1.3379    0.0002    2.1133 O   0  0  0  0  0  0  0  0  0  0  0  0
   -0.7666    0.7145    2.4656 N   0  0  0  0  0  0  0  0  0  0  0  0
   -1.6971    0.7705    2.0790 H   0  0  0  0  0  0  0  0  0  0  0  0
   -0.5716    1.1232    3.8542 C   0  0  0  0  0  0  0  0  0  0  0  0
    0.3083    1.7643    3.9293 H   0  0  0  0  0  0  0  0  0  0  0  0
   -1.4485    1.6640    4.2131 H   0  0  0  0  0  0  0  0  0  0  0  0
   -0.4137    0.2381    4.4736 H   0  0  0  0  0  0  0  0  0  0  0  0
  5  6  2  0  0  0  0
  5  7  1  0  0  0  0
  2  3  1  0  0  0  0
  2  4  1  0  0  0  0
  2  5  1  0  0  0  0
  1  2  1  0  0  0  0
 20 21  2  0  0  0  0
 20 22  1  0  0  0  0
 17 18  1  0  0  0  0
 17 19  2  0  0  0  0
 14 15  1  0  0  0  0
 14 16  1  0  0  0  0
 14 17  1  0  0  0  0
 11 12  1  0  0  0  0
 11 13  1  0  0  0  0
 11 14  1  0  0  0  0
  9 10  1  0  0  0  0
  9 11  1  0  0  0  0
  9 20  1  0  0  0  0
  7  8  1  0  0  0  0
  7  9  1  0  0  0  0
 24 25  1  0  0  0  0
 24 26  1  0  0  0  0
 24 27  1  0  0  0  0
 22 23  1  0  0  0  0
 22 24  1  0  0  0  0
M  CHG  1  18  -1
M  END
$$$$
default_name
  -OEChem-02102213163D

 27 26  0     1  0  0  0  0  0999 V2000
   -3.2406   -3.5400    1.2326 H   0  0  0  0  0  0  0  0  0  0  0  0
   -3.1436   -2.6190    0.6606 C   0  0  0  0  0  0  0  0  0  0  0  0
   -3.8786   -1.8920    0.9996 H   0  0  0  0  0  0  0  0  0  0  0  0
   -3.2846   -2.8280   -0.3984 H   0  0  0  0  0  0  0  0  0  0  0  0
   -1.7586   -2.0580    0.8686 C   0  0  0  0  0  0  0  0  0  0  0  0
   -0.9666   -2.6340    1.6026 O   0  0  0  0  0  0  0  0  0  0  0  0
   -1.4866   -0.9220    0.2366 N   0  0  0  0  0  0  0  0  0  0  0  0
   -2.2166   -0.4790   -0.2994 H   0  0  0  0  0  0  0  0  0  0  0  0
   -0.1956   -0.2250    0.2596 C   0  0  1  0  0  0  0  0  0  0  0  0
    0.5755   -0.9013   -0.1105 H   0  0  0  0  0  0  0  0  0  0  0  0
   -0.2553    0.9811   -0.6992 C   0  0  0  0  0  0  0  0  0  0  0  0
   -0.9520    0.7376   -1.5028 H   0  0  0  0  0  0  0  0  0  0  0  0
   -0.6390    1.8496   -0.1618 H   0  0  0  0  0  0  0  0  0  0  0  0
    1.1050    1.3347   -1.3236 C   0  0  0  0  0  0  0  0  0  0  0  0
    0.9858    2.2087   -1.9684 H   0  0  0  0  0  0  0  0  0  0  0  0
    1.7934    1.6020   -0.5175 H   0  0  0  0  0  0  0  0  0  0  0  0
    1.7126    0.1918   -2.1503 C   0  0  0  0  0  0  0  0  0  0  0  0
    1.1433   -0.9227   -2.1314 O   0  5  0  0  0  0  0  0  0  0  0  0
    2.7368    0.4635   -2.8155 O   0  0  0  0  0  0  0  0  0  0  0  0
    0.1881    0.1678    1.7015 C   0  0  0  0  0  0  0  0  0  0  0  0
    1.3379    0.0002    2.1133 O   0  0  0  0  0  0  0  0  0  0  0  0
   -0.7666    0.7145    2.4656 N   0  0  0  0  0  0  0  0  0  0  0  0
   -1.6971    0.7705    2.0790 H   0  0  0  0  0  0  0  0  0  0  0  0
   -0.5716    1.1232    3.8542 C   0  0  0  0  0  0  0  0  0  0  0  0
    0.3083    1.7643    3.9293 H   0  0  0  0  0  0  0  0  0  0  0  0
   -1.4485    1.6640    4.2131 H   0  0  0  0  0  0  0  0  0  0  0  0
   -0.4137    0.2381    4.4736 H   0  0  0  0  0  0  0  0  0  0  0  0
  5  6  2  0  0  0  0
  5  7  1  0  0  0  0
  2  3  1  0  0  0  0
  2  4  1  0  0  0  0
  2  5  1  0  0  0  0
  1  2  1  0  0  0  0
 20 21  2  0  0  0  0
 20 22  1  0  0  0  0
 17 18  1  0  0  0  0
 17 19  2  0  0  0  0
 14 15  1  0  0  0  0
 14 16  1  0  0  0  0
 14 17  1  0  0  0  0
 11 12  1  0  0  0  0
 11 13  1  0  0  0  0
 11 14  1  0  0  0  0
  9 10  1  0  0  0  0
  9 11  1  0  0  0  0
  9 20  1  0  0  0  0
  7  8  1  0  0  0  0
  7  9  1  0  0  0  0
 24 25  1  0  0  0  0
 24 26  1  0  0  0  0
 24 27  1  0  0  0  0
 22 23  1  0  0  0  0
 22 24  1  0  0  0  0
M  CHG  1  18  -1
M  END
$$$$
default_name
  -OEChem-02102213163D

 27 26  0     1  0  0  0  0  0999 V2000
   -3.2406   -3.5400    1.2326 H   0  0  0  0  0  0  0  0  0  0  0  0
   -3.1436   -2.6190    0.6606 C   0  0  0  0  0  0  0  0  0  0  0  0
   -3.8786   -1.8920    0.9996 H   0  0  0  0  0  0  0  0  0  0  0  0
   -3.2846   -2.8280   -0.3984 H   0  0  0  0  0  0  0  0  0  0  0  0
   -1.7586   -2.0580    0.8686 C   0  0  0  0  0  0  0  0  0  0  0  0
   -0.9666   -2.6340    1.6026 O   0  0  0  0  0  0  0  0  0  0  0  0
   -1.4866   -0.9220    0.2366 N   0  0  0  0  0  0  0  0  0  0  0  0
   -2.2166   -0.4790   -0.2994 H   0  0  0  0  0  0  0  0  0  0  0  0
   -0.1956   -0.2250    0.2596 C   0  0  1  0  0  0  0  0  0  0  0  0
    0.5755   -0.9013   -0.1105 H   0  0  0  0  0  0  0  0  0  0  0  0
   -0.2553    0.9811   -0.6992 C   0  0  0  0  0  0  0  0  0  0  0  0
   -0.9520    0.7376   -1.5028 H   0  0  0  0  0  0  0  0  0  0  0  0
   -0.6390    1.8496   -0.1618 H   0  0  0  0  0  0  0  0  0  0  0  0
    1.1050    1.3347   -1.3236 C   0  0  0  0  0  0  0  0  0  0  0  0
    1.0541    2.3419   -1.7442 H   0  0  0  0  0  0  0  0  0  0  0  0
    1.8563    1.3387   -0.5295 H   0  0  0  0  0  0  0  0  0  0  0  0
    1.5410    0.3609   -2.4284 C   0  0  0  0  0  0  0  0  0  0  0  0
    0.8520   -0.6661   -2.6208 O   0  5  0  0  0  0  0  0  0  0  0  0
    2.5566    0.6777   -3.0868 O   0  0  0  0  0  0  0  0  0  0  0  0
    0.1881    0.1678    1.7015 C   0  0  0  0  0  0  0  0  0  0  0  0
    1.3379    0.0002    2.1133 O   0  0  0  0  0  0  0  0  0  0  0  0
   -0.7666    0.7145    2.4656 N   0  0  0  0  0  0  0  0  0  0  0  0
   -1.6971    0.7705    2.0790 H   0  0  0  0  0  0  0  0  0  0  0  0
   -0.5716    1.1232    3.8542 C   0  0  0  0  0  0  0  0  0  0  0  0
    0.3083    1.7643    3.9293 H   0  0  0  0  0  0  0  0  0  0  0  0
   -1.4485    1.6640    4.2131 H   0  0  0  0  0  0  0  0  0  0  0  0
   -0.4137    0.2381    4.4736 H   0  0  0  0  0  0  0  0  0  0  0  0
  5  6  2  0  0  0  0
  5  7  1  0  0  0  0
  2  3  1  0  0  0  0
  2  4  1  0  0  0  0
  2  5  1  0  0  0  0
  1  2  1  0  0  0  0
 20 21  2  0  0  0  0
 20 22  1  0  0  0  0
 17 18  1  0  0  0  0
 17 19  2  0  0  0  0
 14 15  1  0  0  0  0
 14 16  1  0  0  0  0
 14 17  1  0  0  0  0
 11 12  1  0  0  0  0
 11 13  1  0  0  0  0
 11 14  1  0  0  0  0
  9 10  1  0  0  0  0
  9 11  1  0  0  0  0
  9 20  1  0  0  0  0
  7  8  1  0  0  0  0
  7  9  1  0  0  0  0
 24 25  1  0  0  0  0
 24 26  1  0  0  0  0
 24 27  1  0  0  0  0
 22 23  1  0  0  0  0
 22 24  1  0  0  0  0
M  CHG  1  18  -1
M  END
$$$$
default_name
  -OEChem-02102213163D

 27 26  0     1  0  0  0  0  0999 V2000
   -3.2406   -3.5400    1.2326 H   0  0  0  0  0  0  0  0  0  0  0  0
   -3.1436   -2.6190    0.6606 C   0  0  0  0  0  0  0  0  0  0  0  0
   -3.8786   -1.8920    0.9996 H   0  0  0  0  0  0  0  0  0  0  0  0
   -3.2846   -2.8280   -0.3984 H   0  0  0  0  0  0  0  0  0  0  0  0
   -1.7586   -2.0580    0.8686 C   0  0  0  0  0  0  0  0  0  0  0  0
   -0.9666   -2.6340    1.6026 O   0  0  0  0  0  0  0  0  0  0  0  0
   -1.4866   -0.9220    0.2366 N   0  0  0  0  0  0  0  0  0  0  0  0
   -2.2166   -0.4790   -0.2994 H   0  0  0  0  0  0  0  0  0  0  0  0
   -0.1956   -0.2250    0.2596 C   0  0  1  0  0  0  0  0  0  0  0  0
    0.5755   -0.9013   -0.1105 H   0  0  0  0  0  0  0  0  0  0  0  0
   -0.2553    0.9811   -0.6992 C   0  0  0  0  0  0  0  0  0  0  0  0
   -0.9520    0.7376   -1.5028 H   0  0  0  0  0  0  0  0  0  0  0  0
   -0.6390    1.8496   -0.1618 H   0  0  0  0  0  0  0  0  0  0  0  0
    1.1050    1.3347   -1.3236 C   0  0  0  0  0  0  0  0  0  0  0  0
    1.1474    2.4120   -1.5013 H   0  0  0  0  0  0  0  0  0  0  0  0
    1.8887    1.0805   -0.6051 H   0  0  0  0  0  0  0  0  0  0  0  0
    1.3764    0.6059   -2.6480 C   0  0  0  0  0  0  0  0  0  0  0  0
    0.5684   -0.2757   -3.0174 O   0  5  0  0  0  0  0  0  0  0  0  0
    2.3889    0.9656   -3.2890 O   0  0  0  0  0  0  0  0  0  0  0  0
    0.1881    0.1678    1.7015 C   0  0  0  0  0  0  0  0  0  0  0  0
    1.3379    0.0002    2.1133 O   0  0  0  0  0  0  0  0  0  0  0  0
   -0.7666    0.7145    2.4656 N   0  0  0  0  0  0  0  0  0  0  0  0
   -1.6971    0.7705    2.0790 H   0  0  0  0  0  0  0  0  0  0  0  0
   -0.5716    1.1232    3.8542 C   0  0  0  0  0  0  0  0  0  0  0  0
    0.3083    1.7643    3.9293 H   0  0  0  0  0  0  0  0  0  0  0  0
   -1.4485    1.6640    4.2131 H   0  0  0  0  0  0  0  0  0  0  0  0
   -0.4137    0.2381    4.4736 H   0  0  0  0  0  0  0  0  0  0  0  0
  5  6  2  0  0  0  0
  5  7  1  0  0  0  0
  2  3  1  0  0  0  0
  2  4  1  0  0  0  0
  2  5  1  0  0  0  0
  1  2  1  0  0  0  0
 20 21  2  0  0  0  0
 20 22  1  0  0  0  0
 17 18  1  0  0  0  0
 17 19  2  0  0  0  0
 14 15  1  0  0  0  0
 14 16  1  0  0  0  0
 14 17  1  0  0  0  0
 11 12  1  0  0  0  0
 11 13  1  0  0  0  0
 11 14  1  0  0  0  0
  9 10  1  0  0  0  0
  9 11  1  0  0  0  0
  9 20  1  0  0  0  0
  7  8  1  0  0  0  0
  7  9  1  0  0  0  0
 24 25  1  0  0  0  0
 24 26  1  0  0  0  0
 24 27  1  0  0  0  0
 22 23  1  0  0  0  0
 22 24  1  0  0  0  0
M  CHG  1  18  -1
M  END
$$$$
default_name
  -OEChem-02102213163D

 27 26  0     1  0  0  0  0  0999 V2000
   -3.2406   -3.5400    1.2326 H   0  0  0  0  0  0  0  0  0  0  0  0
   -3.1436   -2.6190    0.6606 C   0  0  0  0  0  0  0  0  0  0  0  0
   -3.8786   -1.8920    0.9996 H   0  0  0  0  0  0  0  0  0  0  0  0
   -3.2846   -2.8280   -0.3984 H   0  0  0  0  0  0  0  0  0  0  0  0
   -1.7586   -2.0580    0.8686 C   0  0  0  0  0  0  0  0  0  0  0  0
   -0.9666   -2.6340    1.6026 O   0  0  0  0  0  0  0  0  0  0  0  0
   -1.4866   -0.9220    0.2366 N   0  0  0  0  0  0  0  0  0  0  0  0
   -2.2166   -0.4790   -0.2994 H   0  0  0  0  0  0  0  0  0  0  0  0
   -0.1956   -0.2250    0.2596 C   0  0  1  0  0  0  0  0  0  0  0  0
    0.5755   -0.9013   -0.1105 H   0  0  0  0  0  0  0  0  0  0  0  0
   -0.2553    0.9811   -0.6992 C   0  0  0  0  0  0  0  0  0  0  0  0
   -0.9520    0.7376   -1.5028 H   0  0  0  0  0  0  0  0  0  0  0  0
   -0.6390    1.8496   -0.1618 H   0  0  0  0  0  0  0  0  0  0  0  0
    1.1050    1.3347   -1.3236 C   0  0  0  0  0  0  0  0  0  0  0  0
    1.2593    2.4143   -1.2561 H   0  0  0  0  0  0  0  0  0  0  0  0
    1.8884    0.8450   -0.7392 H   0  0  0  0  0  0  0  0  0  0  0  0
    1.2302    0.9102   -2.7943 C   0  0  0  0  0  0  0  0  0  0  0  0
    0.3119    0.2221   -3.2942 O   0  5  0  0  0  0  0  0  0  0  0  0
    2.2451    1.3077   -3.4085 O   0  0  0  0  0  0  0  0  0  0  0  0
    0.1881    0.1678    1.7015 C   0  0  0  0  0  0  0  0  0  0  0  0
    1.3379    0.0002    2.1133 O   0  0  0  0  0  0  0  0  0  0  0  0
   -0.7666    0.7145    2.4656 N   0  0  0  0  0  0  0  0  0  0  0  0
   -1.6971    0.7705    2.0790 H   0  0  0  0  0  0  0  0  0  0  0  0
   -0.5716    1.1232    3.8542 C   0  0  0  0  0  0  0  0  0  0  0  0
    0.3083    1.7643    3.9293 H   0  0  0  0  0  0  0  0  0  0  0  0
   -1.4485    1.6640    4.2131 H   0  0  0  0  0  0  0  0  0  0  0  0
   -0.4137    0.2381    4.4736 H   0  0  0  0  0  0  0  0  0  0  0  0
  5  6  2  0  0  0  0
  5  7  1  0  0  0  0
  2  3  1  0  0  0  0
  2  4  1  0  0  0  0
  2  5  1  0  0  0  0
  1  2  1  0  0  0  0
 20 21  2  0  0  0  0
 20 22  1  0  0  0  0
 17 18  1  0  0  0  0
 17 19  2  0  0  0  0
 14 15  1  0  0  0  0
 14 16  1  0  0  0  0
 14 17  1  0  0  0  0
 11 12  1  0  0  0  0
 11 13  1  0  0  0  0
 11 14  1  0  0  0  0
  9 10  1  0  0  0  0
  9 11  1  0  0  0  0
  9 20  1  0  0  0  0
  7  8  1  0  0  0  0
  7  9  1  0  0  0  0
 24 25  1  0  0  0  0
 24 26  1  0  0  0  0
 24 27  1  0  0  0  0
 22 23  1  0  0  0  0
 22 24  1  0  0  0  0
M  CHG  1  18  -1
M  END
$$$$
default_name
  -OEChem-02102213163D

 27 26  0     1  0  0  0  0  0999 V2000
   -3.2406   -3.5400    1.2326 H   0  0  0  0  0  0  0  0  0  0  0  0
   -3.1436   -2.6190    0.6606 C   0  0  0  0  0  0  0  0  0  0  0  0
   -3.8786   -1.8920    0.9996 H   0  0  0  0  0  0  0  0  0  0  0  0
   -3.2846   -2.8280   -0.3984 H   0  0  0  0  0  0  0  0  0  0  0  0
   -1.7586   -2.0580    0.8686 C   0  0  0  0  0  0  0  0  0  0  0  0
   -0.9666   -2.6340    1.6026 O   0  0  0  0  0  0  0  0  0  0  0  0
   -1.4866   -0.9220    0.2366 N   0  0  0  0  0  0  0  0  0  0  0  0
   -2.2166   -0.4790   -0.2994 H   0  0  0  0  0  0  0  0  0  0  0  0
   -0.1956   -0.2250    0.2596 C   0  0  1  0  0  0  0  0  0  0  0  0
    0.5755   -0.9013   -0.1105 H   0  0  0  0  0  0  0  0  0  0  0  0
   -0.2553    0.9811   -0.6992 C   0  0  0  0  0  0  0  0  0  0  0  0
   -0.9520    0.7376   -1.5028 H   0  0  0  0  0  0  0  0  0  0  0  0
   -0.6390    1.8496   -0.1618 H   0  0  0  0  0  0  0  0  0  0  0  0
    1.1050    1.3347   -1.3236 C   0  0  0  0  0  0  0  0  0  0  0  0
    1.3823    2.3487   -1.0253 H   0  0  0  0  0  0  0  0  0  0  0  0
    1.8554    0.6483   -0.9225 H   0  0  0  0  0  0  0  0  0  0  0  0
    1.1122    1.2530   -2.8573 C   0  0  0  0  0  0  0  0  0  0  0  0
    0.1000    0.7932   -3.4324 O   0  5  0  0  0  0  0  0  0  0  0  0
    2.1351    1.6805   -3.4371 O   0  0  0  0  0  0  0  0  0  0  0  0
    0.1881    0.1678    1.7015 C   0  0  0  0  0  0  0  0  0  0  0  0
    1.3379    0.0002    2.1133 O   0  0  0  0  0  0  0  0  0  0  0  0
   -0.7666    0.7145    2.4656 N   0  0  0  0  0  0  0  0  0  0  0  0
   -1.6971    0.7705    2.0790 H   0  0  0  0  0  0  0  0  0  0  0  0
   -0.5716    1.1232    3.8542 C   0  0  0  0  0  0  0  0  0  0  0  0
    0.3083    1.7643    3.9293 H   0  0  0  0  0  0  0  0  0  0  0  0
   -1.4485    1.6640    4.2131 H   0  0  0  0  0  0  0  0  0  0  0  0
   -0.4137    0.2381    4.4736 H   0  0  0  0  0  0  0  0  0  0  0  0
  5  6  2  0  0  0  0
  5  7  1  0  0  0  0
  2  3  1  0  0  0  0
  2  4  1  0  0  0  0
  2  5  1  0  0  0  0
  1  2  1  0  0  0  0
 20 21  2  0  0  0  0
 20 22  1  0  0  0  0
 17 18  1  0  0  0  0
 17 19  2  0  0  0  0
 14 15  1  0  0  0  0
 14 16  1  0  0  0  0
 14 17  1  0  0  0  0
 11 12  1  0  0  0  0
 11 13  1  0  0  0  0
 11 14  1  0  0  0  0
  9 10  1  0  0  0  0
  9 11  1  0  0  0  0
  9 20  1  0  0  0  0
  7  8  1  0  0  0  0
  7  9  1  0  0  0  0
 24 25  1  0  0  0  0
 24 26  1  0  0  0  0
 24 27  1  0  0  0  0
 22 23  1  0  0  0  0
 22 24  1  0  0  0  0
M  CHG  1  18  -1
M  END
$$$$
default_name
  -OEChem-02102213163D

 27 26  0     1  0  0  0  0  0999 V2000
   -3.2406   -3.5400    1.2326 H   0  0  0  0  0  0  0  0  0  0  0  0
   -3.1436   -2.6190    0.6606 C   0  0  0  0  0  0  0  0  0  0  0  0
   -3.8786   -1.8920    0.9996 H   0  0  0  0  0  0  0  0  0  0  0  0
   -3.2846   -2.8280   -0.3984 H   0  0  0  0  0  0  0  0  0  0  0  0
   -1.7586   -2.0580    0.8686 C   0  0  0  0  0  0  0  0  0  0  0  0
   -0.9666   -2.6340    1.6026 O   0  0  0  0  0  0  0  0  0  0  0  0
   -1.4866   -0.9220    0.2366 N   0  0  0  0  0  0  0  0  0  0  0  0
   -2.2166   -0.4790   -0.2994 H   0  0  0  0  0  0  0  0  0  0  0  0
   -0.1956   -0.2250    0.2596 C   0  0  1  0  0  0  0  0  0  0  0  0
    0.5755   -0.9013   -0.1105 H   0  0  0  0  0  0  0  0  0  0  0  0
   -0.2553    0.9811   -0.6992 C   0  0  0  0  0  0  0  0  0  0  0  0
   -0.9520    0.7376   -1.5028 H   0  0  0  0  0  0  0  0  0  0  0  0
   -0.6390    1.8496   -0.1618 H   0  0  0  0  0  0  0  0  0  0  0  0
    1.1050    1.3347   -1.3236 C   0  0  0  0  0  0  0  0  0  0  0  0
    1.5079    2.2195   -0.8248 H   0  0  0  0  0  0  0  0  0  0  0  0
    1.7919    0.5037   -1.1427 H   0  0  0  0  0  0  0  0  0  0  0  0
    1.0305    1.6109   -2.8326 C   0  0  0  0  0  0  0  0  0  0  0  0
   -0.0528    1.3988   -3.4225 O   0  5  0  0  0  0  0  0  0  0  0  0
    2.0662    2.0588   -3.3728 O   0  0  0  0  0  0  0  0  0  0  0  0
    0.1881    0.1678    1.7015 C   0  0  0  0  0  0  0  0  0  0  0  0
    1.3379    0.0002    2.1133 O   0  0  0  0  0  0  0  0  0  0  0  0
   -0.7666    0.7145    2.4656 N   0  0  0  0  0  0  0  0  0  0  0  0
   -1.6971    0.7705    2.0790 H   0  0  0  0  0  0  0  0  0  0  0  0
   -0.5716    1.1232    3.8542 C   0  0  0  0  0  0  0  0  0  0  0  0
    0.3083    1.7643    3.9293 H   0  0  0  0  0  0  0  0  0  0  0  0
   -1.4485    1.6640    4.2131 H   0  0  0  0  0  0  0  0  0  0  0  0
   -0.4137    0.2381    4.4736 H   0  0  0  0  0  0  0  0  0  0  0  0
  5  6  2  0  0  0  0
  5  7  1  0  0  0  0
  2  3  1  0  0  0  0
  2  4  1  0  0  0  0
  2  5  1  0  0  0  0
  1  2  1  0  0  0  0
 20 21  2  0  0  0  0
 20 22  1  0  0  0  0
 17 18  1  0  0  0  0
 17 19  2  0  0  0  0
 14 15  1  0  0  0  0
 14 16  1  0  0  0  0
 14 17  1  0  0  0  0
 11 12  1  0  0  0  0
 11 13  1  0  0  0  0
 11 14  1  0  0  0  0
  9 10  1  0  0  0  0
  9 11  1  0  0  0  0
  9 20  1  0  0  0  0
  7  8  1  0  0  0  0
  7  9  1  0  0  0  0
 24 25  1  0  0  0  0
 24 26  1  0  0  0  0
 24 27  1  0  0  0  0
 22 23  1  0  0  0  0
 22 24  1  0  0  0  0
M  CHG  1  18  -1
M  END
$$$$
default_name
  -OEChem-02102213163D

 27 26  0     1  0  0  0  0  0999 V2000
   -3.2406   -3.5400    1.2326 H   0  0  0  0  0  0  0  0  0  0  0  0
   -3.1436   -2.6190    0.6606 C   0  0  0  0  0  0  0  0  0  0  0  0
   -3.8786   -1.8920    0.9996 H   0  0  0  0  0  0  0  0  0  0  0  0
   -3.2846   -2.8280   -0.3984 H   0  0  0  0  0  0  0  0  0  0  0  0
   -1.7586   -2.0580    0.8686 C   0  0  0  0  0  0  0  0  0  0  0  0
   -0.9666   -2.6340    1.6026 O   0  0  0  0  0  0  0  0  0  0  0  0
   -1.4866   -0.9220    0.2366 N   0  0  0  0  0  0  0  0  0  0  0  0
   -2.2166   -0.4790   -0.2994 H   0  0  0  0  0  0  0  0  0  0  0  0
   -0.1956   -0.2250    0.2596 C   0  0  1  0  0  0  0  0  0  0  0  0
    0.5755   -0.9013   -0.1105 H   0  0  0  0  0  0  0  0  0  0  0  0
   -0.2553    0.9811   -0.6992 C   0  0  0  0  0  0  0  0  0  0  0  0
   -0.9520    0.7376   -1.5028 H   0  0  0  0  0  0  0  0  0  0  0  0
   -0.6390    1.8496   -0.1618 H   0  0  0  0  0  0  0  0  0  0  0  0
    1.1050    1.3347   -1.3236 C   0  0  0  0  0  0  0  0  0  0  0  0
    1.6276    2.0356   -0.6682 H   0  0  0  0  0  0  0  0  0  0  0  0
    1.7023    0.4211   -1.3848 H   0  0  0  0  0  0  0  0  0  0  0  0
    0.9906    1.9595   -2.7220 C   0  0  0  0  0  0  0  0  0  0  0  0
   -0.1363    1.9976   -3.2653 O   0  5  0  0  0  0  0  0  0  0  0  0
    2.0434    2.4167   -3.2200 O   0  0  0  0  0  0  0  0  0  0  0  0
    0.1881    0.1678    1.7015 C   0  0  0  0  0  0  0  0  0  0  0  0
    1.3379    0.0002    2.1133 O   0  0  0  0  0  0  0  0  0  0  0  0
   -0.7666    0.7145    2.4656 N   0  0  0  0  0  0  0  0  0  0  0  0
   -1.6971    0.7705    2.0790 H   0  0  0  0  0  0  0  0  0  0  0  0
   -0.5716    1.1232    3.8542 C   0  0  0  0  0  0  0  0  0  0  0  0
    0.3083    1.7643    3.9293 H   0  0  0  0  0  0  0  0  0  0  0  0
   -1.4485    1.6640    4.2131 H   0  0  0  0  0  0  0  0  0  0  0  0
   -0.4137    0.2381    4.4736 H   0  0  0  0  0  0  0  0  0  0  0  0
  5  6  2  0  0  0  0
  5  7  1  0  0  0  0
  2  3  1  0  0  0  0
  2  4  1  0  0  0  0
  2  5  1  0  0  0  0
  1  2  1  0  0  0  0
 20 21  2  0  0  0  0
 20 22  1  0  0  0  0
 17 18  1  0  0  0  0
 17 19  2  0  0  0  0
 14 15  1  0  0  0  0
 14 16  1  0  0  0  0
 14 17  1  0  0  0  0
 11 12  1  0  0  0  0
 11 13  1  0  0  0  0
 11 14  1  0  0  0  0
  9 10  1  0  0  0  0
  9 11  1  0  0  0  0
  9 20  1  0  0  0  0
  7  8  1  0  0  0  0
  7  9  1  0  0  0  0
 24 25  1  0  0  0  0
 24 26  1  0  0  0  0
 24 27  1  0  0  0  0
 22 23  1  0  0  0  0
 22 24  1  0  0  0  0
M  CHG  1  18  -1
M  END
$$$$
default_name
  -OEChem-02102213163D

 27 26  0     1  0  0  0  0  0999 V2000
   -3.2406   -3.5400    1.2326 H   0  0  0  0  0  0  0  0  0  0  0  0
   -3.1436   -2.6190    0.6606 C   0  0  0  0  0  0  0  0  0  0  0  0
   -3.8786   -1.8920    0.9996 H   0  0  0  0  0  0  0  0  0  0  0  0
   -3.2846   -2.8280   -0.3984 H   0  0  0  0  0  0  0  0  0  0  0  0
   -1.7586   -2.0580    0.8686 C   0  0  0  0  0  0  0  0  0  0  0  0
   -0.9666   -2.6340    1.6026 O   0  0  0  0  0  0  0  0  0  0  0  0
   -1.4866   -0.9220    0.2366 N   0  0  0  0  0  0  0  0  0  0  0  0
   -2.2166   -0.4790   -0.2994 H   0  0  0  0  0  0  0  0  0  0  0  0
   -0.1956   -0.2250    0.2596 C   0  0  1  0  0  0  0  0  0  0  0  0
    0.5755   -0.9013   -0.1105 H   0  0  0  0  0  0  0  0  0  0  0  0
   -0.2553    0.9811   -0.6992 C   0  0  0  0  0  0  0  0  0  0  0  0
   -0.9520    0.7376   -1.5028 H   0  0  0  0  0  0  0  0  0  0  0  0
   -0.6390    1.8496   -0.1618 H   0  0  0  0  0  0  0  0  0  0  0  0
    1.1050    1.3347   -1.3236 C   0  0  0  0  0  0  0  0  0  0  0  0
    1.7332    1.8096   -0.5662 H   0  0  0  0  0  0  0  0  0  0  0  0
    1.5926    0.4062   -1.6321 H   0  0  0  0  0  0  0  0  0  0  0  0
    0.9954    2.2751   -2.5330 C   0  0  0  0  0  0  0  0  0  0  0  0
   -0.1446    2.5487   -2.9714 O   0  5  0  0  0  0  0  0  0  0  0  0
    2.0680    2.7298   -2.9891 O   0  0  0  0  0  0  0  0  0  0  0  0
    0.1881    0.1678    1.7015 C   0  0  0  0  0  0  0  0  0  0  0  0
    1.3379    0.0002    2.1133 O   0  0  0  0  0  0  0  0  0  0  0  0
   -0.7666    0.7145    2.4656 N   0  0  0  0  0  0  0  0  0  0  0  0
   -1.6971    0.7705    2.0790 H   0  0  0  0  0  0  0  0  0  0  0  0
   -0.5716    1.1232    3.8542 C   0  0  0  0  0  0  0  0  0  0  0  0
    0.3083    1.7643    3.9293 H   0  0  0  0  0  0  0  0  0  0  0  0
   -1.4485    1.6640    4.2131 H   0  0  0  0  0  0  0  0  0  0  0  0
   -0.4137    0.2381    4.4736 H   0  0  0  0  0  0  0  0  0  0  0  0
  5  6  2  0  0  0  0
  5  7  1  0  0  0  0
  2  3  1  0  0  0  0
  2  4  1  0  0  0  0
  2  5  1  0  0  0  0
  1  2  1  0  0  0  0
 20 21  2  0  0  0  0
 20 22  1  0  0  0  0
 17 18  1  0  0  0  0
 17 19  2  0  0  0  0
 14 15  1  0  0  0  0
 14 16  1  0  0  0  0
 14 17  1  0  0  0  0
 11 12  1  0  0  0  0
 11 13  1  0  0  0  0
 11 14  1  0  0  0  0
  9 10  1  0  0  0  0
  9 11  1  0  0  0  0
  9 20  1  0  0  0  0
  7  8  1  0  0  0  0
  7  9  1  0  0  0  0
 24 25  1  0  0  0  0
 24 26  1  0  0  0  0
 24 27  1  0  0  0  0
 22 23  1  0  0  0  0
 22 24  1  0  0  0  0
M  CHG  1  18  -1
M  END
$$$$
default_name
  -OEChem-02102213163D

 27 26  0     1  0  0  0  0  0999 V2000
   -3.2406   -3.5400    1.2326 H   0  0  0  0  0  0  0  0  0  0  0  0
   -3.1436   -2.6190    0.6606 C   0  0  0  0  0  0  0  0  0  0  0  0
   -3.8786   -1.8920    0.9996 H   0  0  0  0  0  0  0  0  0  0  0  0
   -3.2846   -2.8280   -0.3984 H   0  0  0  0  0  0  0  0  0  0  0  0
   -1.7586   -2.0580    0.8686 C   0  0  0  0  0  0  0  0  0  0  0  0
   -0.9666   -2.6340    1.6026 O   0  0  0  0  0  0  0  0  0  0  0  0
   -1.4866   -0.9220    0.2366 N   0  0  0  0  0  0  0  0  0  0  0  0
   -2.2166   -0.4790   -0.2994 H   0  0  0  0  0  0  0  0  0  0  0  0
   -0.1956   -0.2250    0.2596 C   0  0  1  0  0  0  0  0  0  0  0  0
    0.5755   -0.9013   -0.1105 H   0  0  0  0  0  0  0  0  0  0  0  0
   -0.2553    0.9811   -0.6992 C   0  0  0  0  0  0  0  0  0  0  0  0
   -1.1306    0.8589   -1.3391 H   0  0  0  0  0  0  0  0  0  0  0  0
   -0.3779    1.8968   -0.1188 H   0  0  0  0  0  0  0  0  0  0  0  0
    0.9883    1.1138   -1.5943 C   0  0  0  0  0  0  0  0  0  0  0  0
    1.8744    1.2123   -0.9625 H   0  0  0  0  0  0  0  0  0  0  0  0
    1.0907    0.1949   -2.1776 H   0  0  0  0  0  0  0  0  0  0  0  0
    0.9278    2.3155   -2.5488 C   0  0  0  0  0  0  0  0  0  0  0  0
   -0.1366    2.9710   -2.6119 O   0  5  0  0  0  0  0  0  0  0  0  0
    1.9702    2.5758   -3.1899 O   0  0  0  0  0  0  0  0  0  0  0  0
    0.1881    0.1678    1.7015 C   0  0  0  0  0  0  0  0  0  0  0  0
    1.3379    0.0002    2.1133 O   0  0  0  0  0  0  0  0  0  0  0  0
   -0.7666    0.7145    2.4656 N   0  0  0  0  0  0  0  0  0  0  0  0
   -1.6971    0.7705    2.0790 H   0  0  0  0  0  0  0  0  0  0  0  0
   -0.5716    1.1232    3.8542 C   0  0  0  0  0  0  0  0  0  0  0  0
    0.3083    1.7643    3.9293 H   0  0  0  0  0  0  0  0  0  0  0  0
   -1.4485    1.6640    4.2131 H   0  0  0  0  0  0  0  0  0  0  0  0
   -0.4137    0.2381    4.4736 H   0  0  0  0  0  0  0  0  0  0  0  0
  5  6  2  0  0  0  0
  5  7  1  0  0  0  0
  2  3  1  0  0  0  0
  2  4  1  0  0  0  0
  2  5  1  0  0  0  0
  1  2  1  0  0  0  0
 20 21  2  0  0  0  0
 20 22  1  0  0  0  0
 17 18  1  0  0  0  0
 17 19  2  0  0  0  0
 14 15  1  0  0  0  0
 14 16  1  0  0  0  0
 14 17  1  0  0  0  0
 11 12  1  0  0  0  0
 11 13  1  0  0  0  0
 11 14  1  0  0  0  0
  9 10  1  0  0  0  0
  9 11  1  0  0  0  0
  9 20  1  0  0  0  0
  7  8  1  0  0  0  0
  7  9  1  0  0  0  0
 24 25  1  0  0  0  0
 24 26  1  0  0  0  0
 24 27  1  0  0  0  0
 22 23  1  0  0  0  0
 22 24  1  0  0  0  0
M  CHG  1  18  -1
M  END
$$$$
default_name
  -OEChem-02102213163D

 27 26  0     1  0  0  0  0  0999 V2000
   -3.2406   -3.5400    1.2326 H   0  0  0  0  0  0  0  0  0  0  0  0
   -3.1436   -2.6190    0.6606 C   0  0  0  0  0  0  0  0  0  0  0  0
   -3.8786   -1.8920    0.9996 H   0  0  0  0  0  0  0  0  0  0  0  0
   -3.2846   -2.8280   -0.3984 H   0  0  0  0  0  0  0  0  0  0  0  0
   -1.7586   -2.0580    0.8686 C   0  0  0  0  0  0  0  0  0  0  0  0
   -0.9666   -2.6340    1.6026 O   0  0  0  0  0  0  0  0  0  0  0  0
   -1.4866   -0.9220    0.2366 N   0  0  0  0  0  0  0  0  0  0  0  0
   -2.2166   -0.4790   -0.2994 H   0  0  0  0  0  0  0  0  0  0  0  0
   -0.1956   -0.2250    0.2596 C   0  0  1  0  0  0  0  0  0  0  0  0
    0.5755   -0.9013   -0.1105 H   0  0  0  0  0  0  0  0  0  0  0  0
   -0.2553    0.9811   -0.6992 C   0  0  0  0  0  0  0  0  0  0  0  0
   -1.1306    0.8589   -1.3391 H   0  0  0  0  0  0  0  0  0  0  0  0
   -0.3779    1.8968   -0.1188 H   0  0  0  0  0  0  0  0  0  0  0  0
    0.9883    1.1138   -1.5943 C   0  0  0  0  0  0  0  0  0  0  0  0
    1.8830    0.9443   -0.9903 H   0  0  0  0  0  0  0  0  0  0  0  0
    0.9453    0.3339   -2.3591 H   0  0  0  0  0  0  0  0  0  0  0  0
    1.1063    2.4853   -2.2756 C   0  0  0  0  0  0  0  0  0  0  0  0
    0.1544    3.2897   -2.1603 O   0  5  0  0  0  0  0  0  0  0  0  0
    2.1722    2.7175   -2.8881 O   0  0  0  0  0  0  0  0  0  0  0  0
    0.1881    0.1678    1.7015 C   0  0  0  0  0  0  0  0  0  0  0  0
    1.3379    0.0002    2.1133 O   0  0  0  0  0  0  0  0  0  0  0  0
   -0.7666    0.7145    2.4656 N   0  0  0  0  0  0  0  0  0  0  0  0
   -1.6971    0.7705    2.0790 H   0  0  0  0  0  0  0  0  0  0  0  0
   -0.5716    1.1232    3.8542 C   0  0  0  0  0  0  0  0  0  0  0  0
    0.3083    1.7643    3.9293 H   0  0  0  0  0  0  0  0  0  0  0  0
   -1.4485    1.6640    4.2131 H   0  0  0  0  0  0  0  0  0  0  0  0
   -0.4137    0.2381    4.4736 H   0  0  0  0  0  0  0  0  0  0  0  0
  5  6  2  0  0  0  0
  5  7  1  0  0  0  0
  2  3  1  0  0  0  0
  2  4  1  0  0  0  0
  2  5  1  0  0  0  0
  1  2  1  0  0  0  0
 20 21  2  0  0  0  0
 20 22  1  0  0  0  0
 17 18  1  0  0  0  0
 17 19  2  0  0  0  0
 14 15  1  0  0  0  0
 14 16  1  0  0  0  0
 14 17  1  0  0  0  0
 11 12  1  0  0  0  0
 11 13  1  0  0  0  0
 11 14  1  0  0  0  0
  9 10  1  0  0  0  0
  9 11  1  0  0  0  0
  9 20  1  0  0  0  0
  7  8  1  0  0  0  0
  7  9  1  0  0  0  0
 24 25  1  0  0  0  0
 24 26  1  0  0  0  0
 24 27  1  0  0  0  0
 22 23  1  0  0  0  0
 22 24  1  0  0  0  0
M  CHG  1  18  -1
M  END
$$$$
default_name
  -OEChem-02102213163D

 27 26  0     1  0  0  0  0  0999 V2000
   -3.2406   -3.5400    1.2326 H   0  0  0  0  0  0  0  0  0  0  0  0
   -3.1436   -2.6190    0.6606 C   0  0  0  0  0  0  0  0  0  0  0  0
   -3.8786   -1.8920    0.9996 H   0  0  0  0  0  0  0  0  0  0  0  0
   -3.2846   -2.8280   -0.3984 H   0  0  0  0  0  0  0  0  0  0  0  0
   -1.7586   -2.0580    0.8686 C   0  0  0  0  0  0  0  0  0  0  0  0
   -0.9666   -2.6340    1.6026 O   0  0  0  0  0  0  0  0  0  0  0  0
   -1.4866   -0.9220    0.2366 N   0  0  0  0  0  0  0  0  0  0  0  0
   -2.2166   -0.4790   -0.2994 H   0  0  0  0  0  0  0  0  0  0  0  0
   -0.1956   -0.2250    0.2596 C   0  0  1  0  0  0  0  0  0  0  0  0
    0.5755   -0.9013   -0.1105 H   0  0  0  0  0  0  0  0  0  0  0  0
   -0.2553    0.9811   -0.6992 C   0  0  0  0  0  0  0  0  0  0  0  0
   -1.1306    0.8589   -1.3391 H   0  0  0  0  0  0  0  0  0  0  0  0
   -0.3779    1.8968   -0.1188 H   0  0  0  0  0  0  0  0  0  0  0  0
    0.9883    1.1138   -1.5943 C   0  0  0  0  0  0  0  0  0  0  0  0
    1.8503    0.6900   -1.0734 H   0  0  0  0  0  0  0  0  0  0  0  0
    0.8216    0.5280   -2.5021 H   0  0  0  0  0  0  0  0  0  0  0  0
    1.3105    2.5651   -1.9801 C   0  0  0  0  0  0  0  0  0  0  0  0
    0.4936    3.4592   -1.6639 O   0  5  0  0  0  0  0  0  0  0  0  0
    2.3955    2.7607   -2.5715 O   0  0  0  0  0  0  0  0  0  0  0  0
    0.1881    0.1678    1.7015 C   0  0  0  0  0  0  0  0  0  0  0  0
    1.3379    0.0002    2.1133 O   0  0  0  0  0  0  0  0  0  0  0  0
   -0.7666    0.7145    2.4656 N   0  0  0  0  0  0  0  0  0  0  0  0
   -1.6971    0.7705    2.0790 H   0  0  0  0  0  0  0  0  0  0  0  0
   -0.5716    1.1232    3.8542 C   0  0  0  0  0  0  0  0  0  0  0  0
    0.3083    1.7643    3.9293 H   0  0  0  0  0  0  0  0  0  0  0  0
   -1.4485    1.6640    4.2131 H   0  0  0  0  0  0  0  0  0  0  0  0
   -0.4137    0.2381    4.4736 H   0  0  0  0  0  0  0  0  0  0  0  0
  5  6  2  0  0  0  0
  5  7  1  0  0  0  0
  2  3  1  0  0  0  0
  2  4  1  0  0  0  0
  2  5  1  0  0  0  0
  1  2  1  0  0  0  0
 20 21  2  0  0  0  0
 20 22  1  0  0  0  0
 17 18  1  0  0  0  0
 17 19  2  0  0  0  0
 14 15  1  0  0  0  0
 14 16  1  0  0  0  0
 14 17  1  0  0  0  0
 11 12  1  0  0  0  0
 11 13  1  0  0  0  0
 11 14  1  0  0  0  0
  9 10  1  0  0  0  0
  9 11  1  0  0  0  0
  9 20  1  0  0  0  0
  7  8  1  0  0  0  0
  7  9  1  0  0  0  0
 24 25  1  0  0  0  0
 24 26  1  0  0  0  0
 24 27  1  0  0  0  0
 22 23  1  0  0  0  0
 22 24  1  0  0  0  0
M  CHG  1  18  -1
M  END
$$$$
default_name
  -OEChem-02102213163D

 27 26  0     1  0  0  0  0  0999 V2000
   -3.2406   -3.5400    1.2326 H   0  0  0  0  0  0  0  0  0  0  0  0
   -3.1436   -2.6190    0.6606 C   0  0  0  0  0  0  0  0  0  0  0  0
   -3.8786   -1.8920    0.9996 H   0  0  0  0  0  0  0  0  0  0  0  0
   -3.2846   -2.8280   -0.3984 H   0  0  0  0  0  0  0  0  0  0  0  0
   -1.7586   -2.0580    0.8686 C   0  0  0  0  0  0  0  0  0  0  0  0
   -0.9666   -2.6340    1.6026 O   0  0  0  0  0  0  0  0  0  0  0  0
   -1.4866   -0.9220    0.2366 N   0  0  0  0  0  0  0  0  0  0  0  0
   -2.2166   -0.4790   -0.2994 H   0  0  0  0  0  0  0  0  0  0  0  0
   -0.1956   -0.2250    0.2596 C   0  0  1  0  0  0  0  0  0  0  0  0
    0.5755   -0.9013   -0.1105 H   0  0  0  0  0  0  0  0  0  0  0  0
   -0.2553    0.9811   -0.6992 C   0  0  0  0  0  0  0  0  0  0  0  0
   -1.1306    0.8589   -1.3391 H   0  0  0  0  0  0  0  0  0  0  0  0
   -0.3779    1.8968   -0.1188 H   0  0  0  0  0  0  0  0  0  0  0  0
    0.9883    1.1138   -1.5943 C   0  0  0  0  0  0  0  0  0  0  0  0
    1.7785    0.4666   -1.2062 H   0  0  0  0  0  0  0  0  0  0  0  0
    0.7283    0.7641   -2.5968 H   0  0  0  0  0  0  0  0  0  0  0  0
    1.5263    2.5497   -1.6825 C   0  0  0  0  0  0  0  0  0  0  0  0
    0.8579    3.4679   -1.1565 O   0  5  0  0  0  0  0  0  0  0  0  0
    2.6247    2.7026   -2.2616 O   0  0  0  0  0  0  0  0  0  0  0  0
    0.1881    0.1678    1.7015 C   0  0  0  0  0  0  0  0  0  0  0  0
    1.3379    0.0002    2.1133 O   0  0  0  0  0  0  0  0  0  0  0  0
   -0.7666    0.7145    2.4656 N   0  0  0  0  0  0  0  0  0  0  0  0
   -1.6971    0.7705    2.0790 H   0  0  0  0  0  0  0  0  0  0  0  0
   -0.5716    1.1232    3.8542 C   0  0  0  0  0  0  0  0  0  0  0  0
    0.3083    1.7643    3.9293 H   0  0  0  0  0  0  0  0  0  0  0  0
   -1.4485    1.6640    4.2131 H   0  0  0  0  0  0  0  0  0  0  0  0
   -0.4137    0.2381    4.4736 H   0  0  0  0  0  0  0  0  0  0  0  0
  5  6  2  0  0  0  0
  5  7  1  0  0  0  0
  2  3  1  0  0  0  0
  2  4  1  0  0  0  0
  2  5  1  0  0  0  0
  1  2  1  0  0  0  0
 20 21  2  0  0  0  0
 20 22  1  0  0  0  0
 17 18  1  0  0  0  0
 17 19  2  0  0  0  0
 14 15  1  0  0  0  0
 14 16  1  0  0  0  0
 14 17  1  0  0  0  0
 11 12  1  0  0  0  0
 11 13  1  0  0  0  0
 11 14  1  0  0  0  0
  9 10  1  0  0  0  0
  9 11  1  0  0  0  0
  9 20  1  0  0  0  0
  7  8  1  0  0  0  0
  7  9  1  0  0  0  0
 24 25  1  0  0  0  0
 24 26  1  0  0  0  0
 24 27  1  0  0  0  0
 22 23  1  0  0  0  0
 22 24  1  0  0  0  0
M  CHG  1  18  -1
M  END
$$$$
default_name
  -OEChem-02102213163D

 27 26  0     1  0  0  0  0  0999 V2000
   -3.2406   -3.5400    1.2326 H   0  0  0  0  0  0  0  0  0  0  0  0
   -3.1436   -2.6190    0.6606 C   0  0  0  0  0  0  0  0  0  0  0  0
   -3.8786   -1.8920    0.9996 H   0  0  0  0  0  0  0  0  0  0  0  0
   -3.2846   -2.8280   -0.3984 H   0  0  0  0  0  0  0  0  0  0  0  0
   -1.7586   -2.0580    0.8686 C   0  0  0  0  0  0  0  0  0  0  0  0
   -0.9666   -2.6340    1.6026 O   0  0  0  0  0  0  0  0  0  0  0  0
   -1.4866   -0.9220    0.2366 N   0  0  0  0  0  0  0  0  0  0  0  0
   -2.2166   -0.4790   -0.2994 H   0  0  0  0  0  0  0  0  0  0  0  0
   -0.1956   -0.2250    0.2596 C   0  0  1  0  0  0  0  0  0  0  0  0
    0.5755   -0.9013   -0.1105 H   0  0  0  0  0  0  0  0  0  0  0  0
   -0.2553    0.9811   -0.6992 C   0  0  0  0  0  0  0  0  0  0  0  0
   -1.1306    0.8589   -1.3391 H   0  0  0  0  0  0  0  0  0  0  0  0
   -0.3779    1.8968   -0.1188 H   0  0  0  0  0  0  0  0  0  0  0  0
    0.9883    1.1138   -1.5943 C   0  0  0  0  0  0  0  0  0  0  0  0
    1.6726    0.2895   -1.3796 H   0  0  0  0  0  0  0  0  0  0  0  0
    0.6715    1.0260   -2.6369 H   0  0  0  0  0  0  0  0  0  0  0  0
    1.7391    2.4400   -1.4031 C   0  0  0  0  0  0  0  0  0  0  0  0
    1.2224    3.3152   -0.6727 O   0  5  0  0  0  0  0  0  0  0  0  0
    2.8443    2.5471   -1.9796 O   0  0  0  0  0  0  0  0  0  0  0  0
    0.1881    0.1678    1.7015 C   0  0  0  0  0  0  0  0  0  0  0  0
    1.3379    0.0002    2.1133 O   0  0  0  0  0  0  0  0  0  0  0  0
   -0.7666    0.7145    2.4656 N   0  0  0  0  0  0  0  0  0  0  0  0
   -1.6971    0.7705    2.0790 H   0  0  0  0  0  0  0  0  0  0  0  0
   -0.5716    1.1232    3.8542 C   0  0  0  0  0  0  0  0  0  0  0  0
    0.3083    1.7643    3.9293 H   0  0  0  0  0  0  0  0  0  0  0  0
   -1.4485    1.6640    4.2131 H   0  0  0  0  0  0  0  0  0  0  0  0
   -0.4137    0.2381    4.4736 H   0  0  0  0  0  0  0  0  0  0  0  0
  5  6  2  0  0  0  0
  5  7  1  0  0  0  0
  2  3  1  0  0  0  0
  2  4  1  0  0  0  0
  2  5  1  0  0  0  0
  1  2  1  0  0  0  0
 20 21  2  0  0  0  0
 20 22  1  0  0  0  0
 17 18  1  0  0  0  0
 17 19  2  0  0  0  0
 14 15  1  0  0  0  0
 14 16  1  0  0  0  0
 14 17  1  0  0  0  0
 11 12  1  0  0  0  0
 11 13  1  0  0  0  0
 11 14  1  0  0  0  0
  9 10  1  0  0  0  0
  9 11  1  0  0  0  0
  9 20  1  0  0  0  0
  7  8  1  0  0  0  0
  7  9  1  0  0  0  0
 24 25  1  0  0  0  0
 24 26  1  0  0  0  0
 24 27  1  0  0  0  0
 22 23  1  0  0  0  0
 22 24  1  0  0  0  0
M  CHG  1  18  -1
M  END
$$$$
default_name
  -OEChem-02102213163D

 27 26  0     1  0  0  0  0  0999 V2000
   -3.2406   -3.5400    1.2326 H   0  0  0  0  0  0  0  0  0  0  0  0
   -3.1436   -2.6190    0.6606 C   0  0  0  0  0  0  0  0  0  0  0  0
   -3.8786   -1.8920    0.9996 H   0  0  0  0  0  0  0  0  0  0  0  0
   -3.2846   -2.8280   -0.3984 H   0  0  0  0  0  0  0  0  0  0  0  0
   -1.7586   -2.0580    0.8686 C   0  0  0  0  0  0  0  0  0  0  0  0
   -0.9666   -2.6340    1.6026 O   0  0  0  0  0  0  0  0  0  0  0  0
   -1.4866   -0.9220    0.2366 N   0  0  0  0  0  0  0  0  0  0  0  0
   -2.2166   -0.4790   -0.2994 H   0  0  0  0  0  0  0  0  0  0  0  0
   -0.1956   -0.2250    0.2596 C   0  0  1  0  0  0  0  0  0  0  0  0
    0.5755   -0.9013   -0.1105 H   0  0  0  0  0  0  0  0  0  0  0  0
   -0.2553    0.9811   -0.6992 C   0  0  0  0  0  0  0  0  0  0  0  0
   -1.1306    0.8589   -1.3391 H   0  0  0  0  0  0  0  0  0  0  0  0
   -0.3779    1.8968   -0.1188 H   0  0  0  0  0  0  0  0  0  0  0  0
    0.9883    1.1138   -1.5943 C   0  0  0  0  0  0  0  0  0  0  0  0
    1.5398    0.1706   -1.5818 H   0  0  0  0  0  0  0  0  0  0  0  0
    0.6552    1.2960   -2.6194 H   0  0  0  0  0  0  0  0  0  0  0  0
    1.9344    2.2435   -1.1609 C   0  0  0  0  0  0  0  0  0  0  0  0
    1.5622    3.0116   -0.2455 O   0  5  0  0  0  0  0  0  0  0  0  0
    3.0393    2.3048   -1.7446 O   0  0  0  0  0  0  0  0  0  0  0  0
    0.1881    0.1678    1.7015 C   0  0  0  0  0  0  0  0  0  0  0  0
    1.3379    0.0002    2.1133 O   0  0  0  0  0  0  0  0  0  0  0  0
   -0.7666    0.7145    2.4656 N   0  0  0  0  0  0  0  0  0  0  0  0
   -1.6971    0.7705    2.0790 H   0  0  0  0  0  0  0  0  0  0  0  0
   -0.5716    1.1232    3.8542 C   0  0  0  0  0  0  0  0  0  0  0  0
    0.3083    1.7643    3.9293 H   0  0  0  0  0  0  0  0  0  0  0  0
   -1.4485    1.6640    4.2131 H   0  0  0  0  0  0  0  0  0  0  0  0
   -0.4137    0.2381    4.4736 H   0  0  0  0  0  0  0  0  0  0  0  0
  5  6  2  0  0  0  0
  5  7  1  0  0  0  0
  2  3  1  0  0  0  0
  2  4  1  0  0  0  0
  2  5  1  0  0  0  0
  1  2  1  0  0  0  0
 20 21  2  0  0  0  0
 20 22  1  0  0  0  0
 17 18  1  0  0  0  0
 17 19  2  0  0  0  0
 14 15  1  0  0  0  0
 14 16  1  0  0  0  0
 14 17  1  0  0  0  0
 11 12  1  0  0  0  0
 11 13  1  0  0  0  0
 11 14  1  0  0  0  0
  9 10  1  0  0  0  0
  9 11  1  0  0  0  0
  9 20  1  0  0  0  0
  7  8  1  0  0  0  0
  7  9  1  0  0  0  0
 24 25  1  0  0  0  0
 24 26  1  0  0  0  0
 24 27  1  0  0  0  0
 22 23  1  0  0  0  0
 22 24  1  0  0  0  0
M  CHG  1  18  -1
M  END
$$$$
default_name
  -OEChem-02102213163D

 27 26  0     1  0  0  0  0  0999 V2000
   -3.2406   -3.5400    1.2326 H   0  0  0  0  0  0  0  0  0  0  0  0
   -3.1436   -2.6190    0.6606 C   0  0  0  0  0  0  0  0  0  0  0  0
   -3.8786   -1.8920    0.9996 H   0  0  0  0  0  0  0  0  0  0  0  0
   -3.2846   -2.8280   -0.3984 H   0  0  0  0  0  0  0  0  0  0  0  0
   -1.7586   -2.0580    0.8686 C   0  0  0  0  0  0  0  0  0  0  0  0
   -0.9666   -2.6340    1.6026 O   0  0  0  0  0  0  0  0  0  0  0  0
   -1.4866   -0.9220    0.2366 N   0  0  0  0  0  0  0  0  0  0  0  0
   -2.2166   -0.4790   -0.2994 H   0  0  0  0  0  0  0  0  0  0  0  0
   -0.1956   -0.2250    0.2596 C   0  0  1  0  0  0  0  0  0  0  0  0
    0.5755   -0.9013   -0.1105 H   0  0  0  0  0  0  0  0  0  0  0  0
   -0.2553    0.9811   -0.6992 C   0  0  0  0  0  0  0  0  0  0  0  0
   -1.1306    0.8589   -1.3391 H   0  0  0  0  0  0  0  0  0  0  0  0
   -0.3779    1.8968   -0.1188 H   0  0  0  0  0  0  0  0  0  0  0  0
    0.9883    1.1138   -1.5943 C   0  0  0  0  0  0  0  0  0  0  0  0
    1.3890    0.1181   -1.7990 H   0  0  0  0  0  0  0  0  0  0  0  0
    0.6806    1.5555   -2.5458 H   0  0  0  0  0  0  0  0  0  0  0  0
    2.0988    1.9736   -0.9725 C   0  0  0  0  0  0  0  0  0  0  0  0
    1.8543    2.5778    0.0960 O   0  5  0  0  0  0  0  0  0  0  0  0
    3.1964    1.9921   -1.5727 O   0  0  0  0  0  0  0  0  0  0  0  0
    0.1881    0.1678    1.7015 C   0  0  0  0  0  0  0  0  0  0  0  0
    1.3379    0.0002    2.1133 O   0  0  0  0  0  0  0  0  0  0  0  0
   -0.7666    0.7145    2.4656 N   0  0  0  0  0  0  0  0  0  0  0  0
   -1.6971    0.7705    2.0790 H   0  0  0  0  0  0  0  0  0  0  0  0
   -0.5716    1.1232    3.8542 C   0  0  0  0  0  0  0  0  0  0  0  0
    0.3083    1.7643    3.9293 H   0  0  0  0  0  0  0  0  0  0  0  0
   -1.4485    1.6640    4.2131 H   0  0  0  0  0  0  0  0  0  0  0  0
   -0.4137    0.2381    4.4736 H   0  0  0  0  0  0  0  0  0  0  0  0
  5  6  2  0  0  0  0
  5  7  1  0  0  0  0
  2  3  1  0  0  0  0
  2  4  1  0  0  0  0
  2  5  1  0  0  0  0
  1  2  1  0  0  0  0
 20 21  2  0  0  0  0
 20 22  1  0  0  0  0
 17 18  1  0  0  0  0
 17 19  2  0  0  0  0
 14 15  1  0  0  0  0
 14 16  1  0  0  0  0
 14 17  1  0  0  0  0
 11 12  1  0  0  0  0
 11 13  1  0  0  0  0
 11 14  1  0  0  0  0
  9 10  1  0  0  0  0
  9 11  1  0  0  0  0
  9 20  1  0  0  0  0
  7  8  1  0  0  0  0
  7  9  1  0  0  0  0
 24 25  1  0  0  0  0
 24 26  1  0  0  0  0
 24 27  1  0  0  0  0
 22 23  1  0  0  0  0
 22 24  1  0  0  0  0
M  CHG  1  18  -1
M  END
$$$$
default_name
  -OEChem-02102213163D

 27 26  0     1  0  0  0  0  0999 V2000
   -3.2406   -3.5400    1.2326 H   0  0  0  0  0  0  0  0  0  0  0  0
   -3.1436   -2.6190    0.6606 C   0  0  0  0  0  0  0  0  0  0  0  0
   -3.8786   -1.8920    0.9996 H   0  0  0  0  0  0  0  0  0  0  0  0
   -3.2846   -2.8280   -0.3984 H   0  0  0  0  0  0  0  0  0  0  0  0
   -1.7586   -2.0580    0.8686 C   0  0  0  0  0  0  0  0  0  0  0  0
   -0.9666   -2.6340    1.6026 O   0  0  0  0  0  0  0  0  0  0  0  0
   -1.4866   -0.9220    0.2366 N   0  0  0  0  0  0  0  0  0  0  0  0
   -2.2166   -0.4790   -0.2994 H   0  0  0  0  0  0  0  0  0  0  0  0
   -0.1956   -0.2250    0.2596 C   0  0  1  0  0  0  0  0  0  0  0  0
    0.5755   -0.9013   -0.1105 H   0  0  0  0  0  0  0  0  0  0  0  0
   -0.2553    0.9811   -0.6992 C   0  0  0  0  0  0  0  0  0  0  0  0
   -1.1306    0.8589   -1.3391 H   0  0  0  0  0  0  0  0  0  0  0  0
   -0.3779    1.8968   -0.1188 H   0  0  0  0  0  0  0  0  0  0  0  0
    0.9883    1.1138   -1.5943 C   0  0  0  0  0  0  0  0  0  0  0  0
    1.2307    0.1356   -2.0164 H   0  0  0  0  0  0  0  0  0  0  0  0
    0.7458    1.7869   -2.4208 H   0  0  0  0  0  0  0  0  0  0  0  0
    2.2212    1.6487   -0.8506 C   0  0  0  0  0  0  0  0  0  0  0  0
    2.0788    2.0433    0.3286 O   0  5  0  0  0  0  0  0  0  0  0  0
    3.3049    1.6305   -1.4756 O   0  0  0  0  0  0  0  0  0  0  0  0
    0.1881    0.1678    1.7015 C   0  0  0  0  0  0  0  0  0  0  0  0
    1.3379    0.0002    2.1133 O   0  0  0  0  0  0  0  0  0  0  0  0
   -0.7666    0.7145    2.4656 N   0  0  0  0  0  0  0  0  0  0  0  0
   -1.6971    0.7705    2.0790 H   0  0  0  0  0  0  0  0  0  0  0  0
   -0.5716    1.1232    3.8542 C   0  0  0  0  0  0  0  0  0  0  0  0
    0.3083    1.7643    3.9293 H   0  0  0  0  0  0  0  0  0  0  0  0
   -1.4485    1.6640    4.2131 H   0  0  0  0  0  0  0  0  0  0  0  0
   -0.4137    0.2381    4.4736 H   0  0  0  0  0  0  0  0  0  0  0  0
  5  6  2  0  0  0  0
  5  7  1  0  0  0  0
  2  3  1  0  0  0  0
  2  4  1  0  0  0  0
  2  5  1  0  0  0  0
  1  2  1  0  0  0  0
 20 21  2  0  0  0  0
 20 22  1  0  0  0  0
 17 18  1  0  0  0  0
 17 19  2  0  0  0  0
 14 15  1  0  0  0  0
 14 16  1  0  0  0  0
 14 17  1  0  0  0  0
 11 12  1  0  0  0  0
 11 13  1  0  0  0  0
 11 14  1  0  0  0  0
  9 10  1  0  0  0  0
  9 11  1  0  0  0  0
  9 20  1  0  0  0  0
  7  8  1  0  0  0  0
  7  9  1  0  0  0  0
 24 25  1  0  0  0  0
 24 26  1  0  0  0  0
 24 27  1  0  0  0  0
 22 23  1  0  0  0  0
 22 24  1  0  0  0  0
M  CHG  1  18  -1
M  END
$$$$
default_name
  -OEChem-02102213163D

 27 26  0     1  0  0  0  0  0999 V2000
   -3.2406   -3.5400    1.2326 H   0  0  0  0  0  0  0  0  0  0  0  0
   -3.1436   -2.6190    0.6606 C   0  0  0  0  0  0  0  0  0  0  0  0
   -3.8786   -1.8920    0.9996 H   0  0  0  0  0  0  0  0  0  0  0  0
   -3.2846   -2.8280   -0.3984 H   0  0  0  0  0  0  0  0  0  0  0  0
   -1.7586   -2.0580    0.8686 C   0  0  0  0  0  0  0  0  0  0  0  0
   -0.9666   -2.6340    1.6026 O   0  0  0  0  0  0  0  0  0  0  0  0
   -1.4866   -0.9220    0.2366 N   0  0  0  0  0  0  0  0  0  0  0  0
   -2.2166   -0.4790   -0.2994 H   0  0  0  0  0  0  0  0  0  0  0  0
   -0.1956   -0.2250    0.2596 C   0  0  1  0  0  0  0  0  0  0  0  0
    0.5755   -0.9013   -0.1105 H   0  0  0  0  0  0  0  0  0  0  0  0
   -0.2553    0.9811   -0.6992 C   0  0  0  0  0  0  0  0  0  0  0  0
   -1.1306    0.8589   -1.3391 H   0  0  0  0  0  0  0  0  0  0  0  0
   -0.3779    1.8968   -0.1188 H   0  0  0  0  0  0  0  0  0  0  0  0
    0.9883    1.1138   -1.5943 C   0  0  0  0  0  0  0  0  0  0  0  0
    1.0755    0.2218   -2.2193 H   0  0  0  0  0  0  0  0  0  0  0  0
    0.8465    1.9745   -2.2532 H   0  0  0  0  0  0  0  0  0  0  0  0
    2.2931    1.2909   -0.8037 C   0  0  0  0  0  0  0  0  0  0  0  0
    2.2202    1.4445    0.4363 O   0  5  0  0  0  0  0  0  0  0  0  0
    3.3574    1.2446   -1.4599 O   0  0  0  0  0  0  0  0  0  0  0  0
    0.1881    0.1678    1.7015 C   0  0  0  0  0  0  0  0  0  0  0  0
    1.3379    0.0002    2.1133 O   0  0  0  0  0  0  0  0  0  0  0  0
   -0.7666    0.7145    2.4656 N   0  0  0  0  0  0  0  0  0  0  0  0
   -1.6971    0.7705    2.0790 H   0  0  0  0  0  0  0  0  0  0  0  0
   -0.5716    1.1232    3.8542 C   0  0  0  0  0  0  0  0  0  0  0  0
    0.3083    1.7643    3.9293 H   0  0  0  0  0  0  0  0  0  0  0  0
   -1.4485    1.6640    4.2131 H   0  0  0  0  0  0  0  0  0  0  0  0
   -0.4137    0.2381    4.4736 H   0  0  0  0  0  0  0  0  0  0  0  0
  5  6  2  0  0  0  0
  5  7  1  0  0  0  0
  2  3  1  0  0  0  0
  2  4  1  0  0  0  0
  2  5  1  0  0  0  0
  1  2  1  0  0  0  0
 20 21  2  0  0  0  0
 20 22  1  0  0  0  0
 17 18  1  0  0  0  0
 17 19  2  0  0  0  0
 14 15  1  0  0  0  0
 14 16  1  0  0  0  0
 14 17  1  0  0  0  0
 11 12  1  0  0  0  0
 11 13  1  0  0  0  0
 11 14  1  0  0  0  0
  9 10  1  0  0  0  0
  9 11  1  0  0  0  0
  9 20  1  0  0  0  0
  7  8  1  0  0  0  0
  7  9  1  0  0  0  0
 24 25  1  0  0  0  0
 24 26  1  0  0  0  0
 24 27  1  0  0  0  0
 22 23  1  0  0  0  0
 22 24  1  0  0  0  0
M  CHG  1  18  -1
M  END
$$$$
default_name
  -OEChem-02102213163D

 27 26  0     1  0  0  0  0  0999 V2000
   -3.2406   -3.5400    1.2326 H   0  0  0  0  0  0  0  0  0  0  0  0
   -3.1436   -2.6190    0.6606 C   0  0  0  0  0  0  0  0  0  0  0  0
   -3.8786   -1.8920    0.9996 H   0  0  0  0  0  0  0  0  0  0  0  0
   -3.2846   -2.8280   -0.3984 H   0  0  0  0  0  0  0  0  0  0  0  0
   -1.7586   -2.0580    0.8686 C   0  0  0  0  0  0  0  0  0  0  0  0
   -0.9666   -2.6340    1.6026 O   0  0  0  0  0  0  0  0  0  0  0  0
   -1.4866   -0.9220    0.2366 N   0  0  0  0  0  0  0  0  0  0  0  0
   -2.2166   -0.4790   -0.2994 H   0  0  0  0  0  0  0  0  0  0  0  0
   -0.1956   -0.2250    0.2596 C   0  0  1  0  0  0  0  0  0  0  0  0
    0.5755   -0.9013   -0.1105 H   0  0  0  0  0  0  0  0  0  0  0  0
   -0.2553    0.9811   -0.6992 C   0  0  0  0  0  0  0  0  0  0  0  0
   -1.1306    0.8589   -1.3391 H   0  0  0  0  0  0  0  0  0  0  0  0
   -0.3779    1.8968   -0.1188 H   0  0  0  0  0  0  0  0  0  0  0  0
    0.9883    1.1138   -1.5943 C   0  0  0  0  0  0  0  0  0  0  0  0
    0.9340    0.3709   -2.3937 H   0  0  0  0  0  0  0  0  0  0  0  0
    0.9757    2.1055   -2.0542 H   0  0  0  0  0  0  0  0  0  0  0  0
    2.3098    0.9247   -0.8348 C   0  0  0  0  0  0  0  0  0  0  0  0
    2.2690    0.8222    0.4120 O   0  5  0  0  0  0  0  0  0  0  0  0
    3.3503    0.8606   -1.5266 O   0  0  0  0  0  0  0  0  0  0  0  0
    0.1881    0.1678    1.7015 C   0  0  0  0  0  0  0  0  0  0  0  0
    1.3379    0.0002    2.1133 O   0  0  0  0  0  0  0  0  0  0  0  0
   -0.7666    0.7145    2.4656 N   0  0  0  0  0  0  0  0  0  0  0  0
   -1.6971    0.7705    2.0790 H   0  0  0  0  0  0  0  0  0  0  0  0
   -0.5716    1.1232    3.8542 C   0  0  0  0  0  0  0  0  0  0  0  0
    0.3083    1.7643    3.9293 H   0  0  0  0  0  0  0  0  0  0  0  0
   -1.4485    1.6640    4.2131 H   0  0  0  0  0  0  0  0  0  0  0  0
   -0.4137    0.2381    4.4736 H   0  0  0  0  0  0  0  0  0  0  0  0
  5  6  2  0  0  0  0
  5  7  1  0  0  0  0
  2  3  1  0  0  0  0
  2  4  1  0  0  0  0
  2  5  1  0  0  0  0
  1  2  1  0  0  0  0
 20 21  2  0  0  0  0
 20 22  1  0  0  0  0
 17 18  1  0  0  0  0
 17 19  2  0  0  0  0
 14 15  1  0  0  0  0
 14 16  1  0  0  0  0
 14 17  1  0  0  0  0
 11 12  1  0  0  0  0
 11 13  1  0  0  0  0
 11 14  1  0  0  0  0
  9 10  1  0  0  0  0
  9 11  1  0  0  0  0
  9 20  1  0  0  0  0
  7  8  1  0  0  0  0
  7  9  1  0  0  0  0
 24 25  1  0  0  0  0
 24 26  1  0  0  0  0
 24 27  1  0  0  0  0
 22 23  1  0  0  0  0
 22 24  1  0  0  0  0
M  CHG  1  18  -1
M  END
$$$$
default_name
  -OEChem-02102213163D

 27 26  0     1  0  0  0  0  0999 V2000
   -3.2406   -3.5400    1.2326 H   0  0  0  0  0  0  0  0  0  0  0  0
   -3.1436   -2.6190    0.6606 C   0  0  0  0  0  0  0  0  0  0  0  0
   -3.8786   -1.8920    0.9996 H   0  0  0  0  0  0  0  0  0  0  0  0
   -3.2846   -2.8280   -0.3984 H   0  0  0  0  0  0  0  0  0  0  0  0
   -1.7586   -2.0580    0.8686 C   0  0  0  0  0  0  0  0  0  0  0  0
   -0.9666   -2.6340    1.6026 O   0  0  0  0  0  0  0  0  0  0  0  0
   -1.4866   -0.9220    0.2366 N   0  0  0  0  0  0  0  0  0  0  0  0
   -2.2166   -0.4790   -0.2994 H   0  0  0  0  0  0  0  0  0  0  0  0
   -0.1956   -0.2250    0.2596 C   0  0  1  0  0  0  0  0  0  0  0  0
    0.5755   -0.9013   -0.1105 H   0  0  0  0  0  0  0  0  0  0  0  0
   -0.2553    0.9811   -0.6992 C   0  0  0  0  0  0  0  0  0  0  0  0
   -1.1306    0.8589   -1.3391 H   0  0  0  0  0  0  0  0  0  0  0  0
   -0.3779    1.8968   -0.1188 H   0  0  0  0  0  0  0  0  0  0  0  0
    0.9883    1.1138   -1.5943 C   0  0  0  0  0  0  0  0  0  0  0  0
    0.8160    0.5728   -2.5278 H   0  0  0  0  0  0  0  0  0  0  0  0
    1.1247    2.1709   -1.8375 H   0  0  0  0  0  0  0  0  0  0  0  0
    2.2701    0.5749   -0.9418 C   0  0  0  0  0  0  0  0  0  0  0  0
    2.2219    0.2189    0.2571 O   0  5  0  0  0  0  0  0  0  0  0  0
    3.2841    0.5047   -1.6713 O   0  0  0  0  0  0  0  0  0  0  0  0
    0.1881    0.1678    1.7015 C   0  0  0  0  0  0  0  0  0  0  0  0
    1.3379    0.0002    2.1133 O   0  0  0  0  0  0  0  0  0  0  0  0
   -0.7666    0.7145    2.4656 N   0  0  0  0  0  0  0  0  0  0  0  0
   -1.6971    0.7705    2.0790 H   0  0  0  0  0  0  0  0  0  0  0  0
   -0.5716    1.1232    3.8542 C   0  0  0  0  0  0  0  0  0  0  0  0
    0.3083    1.7643    3.9293 H   0  0  0  0  0  0  0  0  0  0  0  0
   -1.4485    1.6640    4.2131 H   0  0  0  0  0  0  0  0  0  0  0  0
   -0.4137    0.2381    4.4736 H   0  0  0  0  0  0  0  0  0  0  0  0
  5  6  2  0  0  0  0
  5  7  1  0  0  0  0
  2  3  1  0  0  0  0
  2  4  1  0  0  0  0
  2  5  1  0  0  0  0
  1  2  1  0  0  0  0
 20 21  2  0  0  0  0
 20 22  1  0  0  0  0
 17 18  1  0  0  0  0
 17 19  2  0  0  0  0
 14 15  1  0  0  0  0
 14 16  1  0  0  0  0
 14 17  1  0  0  0  0
 11 12  1  0  0  0  0
 11 13  1  0  0  0  0
 11 14  1  0  0  0  0
  9 10  1  0  0  0  0
  9 11  1  0  0  0  0
  9 20  1  0  0  0  0
  7  8  1  0  0  0  0
  7  9  1  0  0  0  0
 24 25  1  0  0  0  0
 24 26  1  0  0  0  0
 24 27  1  0  0  0  0
 22 23  1  0  0  0  0
 22 24  1  0  0  0  0
M  CHG  1  18  -1
M  END
$$$$
default_name
  -OEChem-02102213163D

 27 26  0     1  0  0  0  0  0999 V2000
   -3.2406   -3.5400    1.2326 H   0  0  0  0  0  0  0  0  0  0  0  0
   -3.1436   -2.6190    0.6606 C   0  0  0  0  0  0  0  0  0  0  0  0
   -3.8786   -1.8920    0.9996 H   0  0  0  0  0  0  0  0  0  0  0  0
   -3.2846   -2.8280   -0.3984 H   0  0  0  0  0  0  0  0  0  0  0  0
   -1.7586   -2.0580    0.8686 C   0  0  0  0  0  0  0  0  0  0  0  0
   -0.9666   -2.6340    1.6026 O   0  0  0  0  0  0  0  0  0  0  0  0
   -1.4866   -0.9220    0.2366 N   0  0  0  0  0  0  0  0  0  0  0  0
   -2.2166   -0.4790   -0.2994 H   0  0  0  0  0  0  0  0  0  0  0  0
   -0.1956   -0.2250    0.2596 C   0  0  1  0  0  0  0  0  0  0  0  0
    0.5755   -0.9013   -0.1105 H   0  0  0  0  0  0  0  0  0  0  0  0
   -0.2553    0.9811   -0.6992 C   0  0  0  0  0  0  0  0  0  0  0  0
   -1.1306    0.8589   -1.3391 H   0  0  0  0  0  0  0  0  0  0  0  0
   -0.3779    1.8968   -0.1188 H   0  0  0  0  0  0  0  0  0  0  0  0
    0.9883    1.1138   -1.5943 C   0  0  0  0  0  0  0  0  0  0  0  0
    0.7294    0.8136   -2.6125 H   0  0  0  0  0  0  0  0  0  0  0  0
    1.2833    2.1662   -1.6179 H   0  0  0  0  0  0  0  0  0  0  0  0
    2.1766    0.2655   -1.1176 C   0  0  0  0  0  0  0  0  0  0  0  0
    2.0821   -0.3243   -0.0177 O   0  5  0  0  0  0  0  0  0  0  0  0
    3.1633    0.2012   -1.8841 O   0  0  0  0  0  0  0  0  0  0  0  0
    0.1881    0.1678    1.7015 C   0  0  0  0  0  0  0  0  0  0  0  0
    1.3379    0.0002    2.1133 O   0  0  0  0  0  0  0  0  0  0  0  0
   -0.7666    0.7145    2.4656 N   0  0  0  0  0  0  0  0  0  0  0  0
   -1.6971    0.7705    2.0790 H   0  0  0  0  0  0  0  0  0  0  0  0
   -0.5716    1.1232    3.8542 C   0  0  0  0  0  0  0  0  0  0  0  0
    0.3083    1.7643    3.9293 H   0  0  0  0  0  0  0  0  0  0  0  0
   -1.4485    1.6640    4.2131 H   0  0  0  0  0  0  0  0  0  0  0  0
   -0.4137    0.2381    4.4736 H   0  0  0  0  0  0  0  0  0  0  0  0
  5  6  2  0  0  0  0
  5  7  1  0  0  0  0
  2  3  1  0  0  0  0
  2  4  1  0  0  0  0
  2  5  1  0  0  0  0
  1  2  1  0  0  0  0
 20 21  2  0  0  0  0
 20 22  1  0  0  0  0
 17 18  1  0  0  0  0
 17 19  2  0  0  0  0
 14 15  1  0  0  0  0
 14 16  1  0  0  0  0
 14 17  1  0  0  0  0
 11 12  1  0  0  0  0
 11 13  1  0  0  0  0
 11 14  1  0  0  0  0
  9 10  1  0  0  0  0
  9 11  1  0  0  0  0
  9 20  1  0  0  0  0
  7  8  1  0  0  0  0
  7  9  1  0  0  0  0
 24 25  1  0  0  0  0
 24 26  1  0  0  0  0
 24 27  1  0  0  0  0
 22 23  1  0  0  0  0
 22 24  1  0  0  0  0
M  CHG  1  18  -1
M  END
$$$$
default_name
  -OEChem-02102213163D

 27 26  0     1  0  0  0  0  0999 V2000
   -3.2406   -3.5400    1.2326 H   0  0  0  0  0  0  0  0  0  0  0  0
   -3.1436   -2.6190    0.6606 C   0  0  0  0  0  0  0  0  0  0  0  0
   -3.8786   -1.8920    0.9996 H   0  0  0  0  0  0  0  0  0  0  0  0
   -3.2846   -2.8280   -0.3984 H   0  0  0  0  0  0  0  0  0  0  0  0
   -1.7586   -2.0580    0.8686 C   0  0  0  0  0  0  0  0  0  0  0  0
   -0.9666   -2.6340    1.6026 O   0  0  0  0  0  0  0  0  0  0  0  0
   -1.4866   -0.9220    0.2366 N   0  0  0  0  0  0  0  0  0  0  0  0
   -2.2166   -0.4790   -0.2994 H   0  0  0  0  0  0  0  0  0  0  0  0
   -0.1956   -0.2250    0.2596 C   0  0  1  0  0  0  0  0  0  0  0  0
    0.5755   -0.9013   -0.1105 H   0  0  0  0  0  0  0  0  0  0  0  0
   -0.2553    0.9811   -0.6992 C   0  0  0  0  0  0  0  0  0  0  0  0
   -1.1306    0.8589   -1.3391 H   0  0  0  0  0  0  0  0  0  0  0  0
   -0.3779    1.8968   -0.1188 H   0  0  0  0  0  0  0  0  0  0  0  0
    0.9883    1.1138   -1.5943 C   0  0  0  0  0  0  0  0  0  0  0  0
    0.6801    1.0770   -2.6419 H   0  0  0  0  0  0  0  0  0  0  0  0
    1.4407    2.0919   -1.4102 H   0  0  0  0  0  0  0  0  0  0  0  0
    2.0358    0.0174   -1.3500 C   0  0  0  0  0  0  0  0  0  0  0  0
    1.8591   -0.7705   -0.3937 O   0  5  0  0  0  0  0  0  0  0  0  0
    2.9962   -0.0292   -2.1505 O   0  0  0  0  0  0  0  0  0  0  0  0
    0.1881    0.1678    1.7015 C   0  0  0  0  0  0  0  0  0  0  0  0
    1.3379    0.0002    2.1133 O   0  0  0  0  0  0  0  0  0  0  0  0
   -0.7666    0.7145    2.4656 N   0  0  0  0  0  0  0  0  0  0  0  0
   -1.6971    0.7705    2.0790 H   0  0  0  0  0  0  0  0  0  0  0  0
   -0.5716    1.1232    3.8542 C   0  0  0  0  0  0  0  0  0  0  0  0
    0.3083    1.7643    3.9293 H   0  0  0  0  0  0  0  0  0  0  0  0
   -1.4485    1.6640    4.2131 H   0  0  0  0  0  0  0  0  0  0  0  0
   -0.4137    0.2381    4.4736 H   0  0  0  0  0  0  0  0  0  0  0  0
  5  6  2  0  0  0  0
  5  7  1  0  0  0  0
  2  3  1  0  0  0  0
  2  4  1  0  0  0  0
  2  5  1  0  0  0  0
  1  2  1  0  0  0  0
 20 21  2  0  0  0  0
 20 22  1  0  0  0  0
 17 18  1  0  0  0  0
 17 19  2  0  0  0  0
 14 15  1  0  0  0  0
 14 16  1  0  0  0  0
 14 17  1  0  0  0  0
 11 12  1  0  0  0  0
 11 13  1  0  0  0  0
 11 14  1  0  0  0  0
  9 10  1  0  0  0  0
  9 11  1  0  0  0  0
  9 20  1  0  0  0  0
  7  8  1  0  0  0  0
  7  9  1  0  0  0  0
 24 25  1  0  0  0  0
 24 26  1  0  0  0  0
 24 27  1  0  0  0  0
 22 23  1  0  0  0  0
 22 24  1  0  0  0  0
M  CHG  1  18  -1
M  END
$$$$
default_name
  -OEChem-02102213163D

 27 26  0     1  0  0  0  0  0999 V2000
   -3.2406   -3.5400    1.2326 H   0  0  0  0  0  0  0  0  0  0  0  0
   -3.1436   -2.6190    0.6606 C   0  0  0  0  0  0  0  0  0  0  0  0
   -3.8786   -1.8920    0.9996 H   0  0  0  0  0  0  0  0  0  0  0  0
   -3.2846   -2.8280   -0.3984 H   0  0  0  0  0  0  0  0  0  0  0  0
   -1.7586   -2.0580    0.8686 C   0  0  0  0  0  0  0  0  0  0  0  0
   -0.9666   -2.6340    1.6026 O   0  0  0  0  0  0  0  0  0  0  0  0
   -1.4866   -0.9220    0.2366 N   0  0  0  0  0  0  0  0  0  0  0  0
   -2.2166   -0.4790   -0.2994 H   0  0  0  0  0  0  0  0  0  0  0  0
   -0.1956   -0.2250    0.2596 C   0  0  1  0  0  0  0  0  0  0  0  0
    0.5755   -0.9013   -0.1105 H   0  0  0  0  0  0  0  0  0  0  0  0
   -0.2553    0.9811   -0.6992 C   0  0  0  0  0  0  0  0  0  0  0  0
   -1.1306    0.8589   -1.3391 H   0  0  0  0  0  0  0  0  0  0  0  0
   -0.3779    1.8968   -0.1188 H   0  0  0  0  0  0  0  0  0  0  0  0
    0.9883    1.1138   -1.5943 C   0  0  0  0  0  0  0  0  0  0  0  0
    0.6715    1.3450   -2.6141 H   0  0  0  0  0  0  0  0  0  0  0  0
    1.5861    1.9529   -1.2287 H   0  0  0  0  0  0  0  0  0  0  0  0
    1.8572   -0.1523   -1.6233 C   0  0  0  0  0  0  0  0  0  0  0  0
    1.5681   -1.0892   -0.8453 O   0  5  0  0  0  0  0  0  0  0  0  0
    2.7941   -0.1709   -2.4522 O   0  0  0  0  0  0  0  0  0  0  0  0
    0.1881    0.1678    1.7015 C   0  0  0  0  0  0  0  0  0  0  0  0
    1.3379    0.0002    2.1133 O   0  0  0  0  0  0  0  0  0  0  0  0
   -0.7666    0.7145    2.4656 N   0  0  0  0  0  0  0  0  0  0  0  0
   -1.6971    0.7705    2.0790 H   0  0  0  0  0  0  0  0  0  0  0  0
   -0.5716    1.1232    3.8542 C   0  0  0  0  0  0  0  0  0  0  0  0
    0.3083    1.7643    3.9293 H   0  0  0  0  0  0  0  0  0  0  0  0
   -1.4485    1.6640    4.2131 H   0  0  0  0  0  0  0  0  0  0  0  0
   -0.4137    0.2381    4.4736 H   0  0  0  0  0  0  0  0  0  0  0  0
  5  6  2  0  0  0  0
  5  7  1  0  0  0  0
  2  3  1  0  0  0  0
  2  4  1  0  0  0  0
  2  5  1  0  0  0  0
  1  2  1  0  0  0  0
 20 21  2  0  0  0  0
 20 22  1  0  0  0  0
 17 18  1  0  0  0  0
 17 19  2  0  0  0  0
 14 15  1  0  0  0  0
 14 16  1  0  0  0  0
 14 17  1  0  0  0  0
 11 12  1  0  0  0  0
 11 13  1  0  0  0  0
 11 14  1  0  0  0  0
  9 10  1  0  0  0  0
  9 11  1  0  0  0  0
  9 20  1  0  0  0  0
  7  8  1  0  0  0  0
  7  9  1  0  0  0  0
 24 25  1  0  0  0  0
 24 26  1  0  0  0  0
 24 27  1  0  0  0  0
 22 23  1  0  0  0  0
 22 24  1  0  0  0  0
M  CHG  1  18  -1
M  END
$$$$
default_name
  -OEChem-02102213163D

 27 26  0     1  0  0  0  0  0999 V2000
   -3.2406   -3.5400    1.2326 H   0  0  0  0  0  0  0  0  0  0  0  0
   -3.1436   -2.6190    0.6606 C   0  0  0  0  0  0  0  0  0  0  0  0
   -3.8786   -1.8920    0.9996 H   0  0  0  0  0  0  0  0  0  0  0  0
   -3.2846   -2.8280   -0.3984 H   0  0  0  0  0  0  0  0  0  0  0  0
   -1.7586   -2.0580    0.8686 C   0  0  0  0  0  0  0  0  0  0  0  0
   -0.9666   -2.6340    1.6026 O   0  0  0  0  0  0  0  0  0  0  0  0
   -1.4866   -0.9220    0.2366 N   0  0  0  0  0  0  0  0  0  0  0  0
   -2.2166   -0.4790   -0.2994 H   0  0  0  0  0  0  0  0  0  0  0  0
   -0.1956   -0.2250    0.2596 C   0  0  1  0  0  0  0  0  0  0  0  0
    0.5755   -0.9013   -0.1105 H   0  0  0  0  0  0  0  0  0  0  0  0
   -0.2553    0.9811   -0.6992 C   0  0  0  0  0  0  0  0  0  0  0  0
   -1.1306    0.8589   -1.3391 H   0  0  0  0  0  0  0  0  0  0  0  0
   -0.3779    1.8968   -0.1188 H   0  0  0  0  0  0  0  0  0  0  0  0
    0.9883    1.1138   -1.5943 C   0  0  0  0  0  0  0  0  0  0  0  0
    0.7042    1.5993   -2.5310 H   0  0  0  0  0  0  0  0  0  0  0  0
    1.7098    1.7588   -1.0857 H   0  0  0  0  0  0  0  0  0  0  0  0
    1.6531   -0.2322   -1.9188 C   0  0  0  0  0  0  0  0  0  0  0  0
    1.2289   -1.2586   -1.3417 O   0  5  0  0  0  0  0  0  0  0  0  0
    2.5709   -0.2141   -2.7688 O   0  0  0  0  0  0  0  0  0  0  0  0
    0.1881    0.1678    1.7015 C   0  0  0  0  0  0  0  0  0  0  0  0
    1.3379    0.0002    2.1133 O   0  0  0  0  0  0  0  0  0  0  0  0
   -0.7666    0.7145    2.4656 N   0  0  0  0  0  0  0  0  0  0  0  0
   -1.6971    0.7705    2.0790 H   0  0  0  0  0  0  0  0  0  0  0  0
   -0.5716    1.1232    3.8542 C   0  0  0  0  0  0  0  0  0  0  0  0
    0.3083    1.7643    3.9293 H   0  0  0  0  0  0  0  0  0  0  0  0
   -1.4485    1.6640    4.2131 H   0  0  0  0  0  0  0  0  0  0  0  0
   -0.4137    0.2381    4.4736 H   0  0  0  0  0  0  0  0  0  0  0  0
  5  6  2  0  0  0  0
  5  7  1  0  0  0  0
  2  3  1  0  0  0  0
  2  4  1  0  0  0  0
  2  5  1  0  0  0  0
  1  2  1  0  0  0  0
 20 21  2  0  0  0  0
 20 22  1  0  0  0  0
 17 18  1  0  0  0  0
 17 19  2  0  0  0  0
 14 15  1  0  0  0  0
 14 16  1  0  0  0  0
 14 17  1  0  0  0  0
 11 12  1  0  0  0  0
 11 13  1  0  0  0  0
 11 14  1  0  0  0  0
  9 10  1  0  0  0  0
  9 11  1  0  0  0  0
  9 20  1  0  0  0  0
  7  8  1  0  0  0  0
  7  9  1  0  0  0  0
 24 25  1  0  0  0  0
 24 26  1  0  0  0  0
 24 27  1  0  0  0  0
 22 23  1  0  0  0  0
 22 24  1  0  0  0  0
M  CHG  1  18  -1
M  END
$$$$
default_name
  -OEChem-02102213163D

 27 26  0     1  0  0  0  0  0999 V2000
   -3.2406   -3.5400    1.2326 H   0  0  0  0  0  0  0  0  0  0  0  0
   -3.1436   -2.6190    0.6606 C   0  0  0  0  0  0  0  0  0  0  0  0
   -3.8786   -1.8920    0.9996 H   0  0  0  0  0  0  0  0  0  0  0  0
   -3.2846   -2.8280   -0.3984 H   0  0  0  0  0  0  0  0  0  0  0  0
   -1.7586   -2.0580    0.8686 C   0  0  0  0  0  0  0  0  0  0  0  0
   -0.9666   -2.6340    1.6026 O   0  0  0  0  0  0  0  0  0  0  0  0
   -1.4866   -0.9220    0.2366 N   0  0  0  0  0  0  0  0  0  0  0  0
   -2.2166   -0.4790   -0.2994 H   0  0  0  0  0  0  0  0  0  0  0  0
   -0.1956   -0.2250    0.2596 C   0  0  1  0  0  0  0  0  0  0  0  0
    0.5755   -0.9013   -0.1105 H   0  0  0  0  0  0  0  0  0  0  0  0
   -0.2553    0.9811   -0.6992 C   0  0  0  0  0  0  0  0  0  0  0  0
   -1.1306    0.8589   -1.3391 H   0  0  0  0  0  0  0  0  0  0  0  0
   -0.3779    1.8968   -0.1188 H   0  0  0  0  0  0  0  0  0  0  0  0
    0.9883    1.1138   -1.5943 C   0  0  0  0  0  0  0  0  0  0  0  0
    0.7759    1.8227   -2.3982 H   0  0  0  0  0  0  0  0  0  0  0  0
    1.8032    1.5227   -0.9909 H   0  0  0  0  0  0  0  0  0  0  0  0
    1.4372   -0.2167   -2.2164 C   0  0  0  0  0  0  0  0  0  0  0  0
    0.8646   -1.2673   -1.8491 O   0  5  0  0  0  0  0  0  0  0  0  0
    2.3416   -0.1560   -3.0787 O   0  0  0  0  0  0  0  0  0  0  0  0
    0.1881    0.1678    1.7015 C   0  0  0  0  0  0  0  0  0  0  0  0
    1.3379    0.0002    2.1133 O   0  0  0  0  0  0  0  0  0  0  0  0
   -0.7666    0.7145    2.4656 N   0  0  0  0  0  0  0  0  0  0  0  0
   -1.6971    0.7705    2.0790 H   0  0  0  0  0  0  0  0  0  0  0  0
   -0.5716    1.1232    3.8542 C   0  0  0  0  0  0  0  0  0  0  0  0
    0.3083    1.7643    3.9293 H   0  0  0  0  0  0  0  0  0  0  0  0
   -1.4485    1.6640    4.2131 H   0  0  0  0  0  0  0  0  0  0  0  0
   -0.4137    0.2381    4.4736 H   0  0  0  0  0  0  0  0  0  0  0  0
  5  6  2  0  0  0  0
  5  7  1  0  0  0  0
  2  3  1  0  0  0  0
  2  4  1  0  0  0  0
  2  5  1  0  0  0  0
  1  2  1  0  0  0  0
 20 21  2  0  0  0  0
 20 22  1  0  0  0  0
 17 18  1  0  0  0  0
 17 19  2  0  0  0  0
 14 15  1  0  0  0  0
 14 16  1  0  0  0  0
 14 17  1  0  0  0  0
 11 12  1  0  0  0  0
 11 13  1  0  0  0  0
 11 14  1  0  0  0  0
  9 10  1  0  0  0  0
  9 11  1  0  0  0  0
  9 20  1  0  0  0  0
  7  8  1  0  0  0  0
  7  9  1  0  0  0  0
 24 25  1  0  0  0  0
 24 26  1  0  0  0  0
 24 27  1  0  0  0  0
 22 23  1  0  0  0  0
 22 24  1  0  0  0  0
M  CHG  1  18  -1
M  END
$$$$
default_name
  -OEChem-02102213163D

 27 26  0     1  0  0  0  0  0999 V2000
   -3.2406   -3.5400    1.2326 H   0  0  0  0  0  0  0  0  0  0  0  0
   -3.1436   -2.6190    0.6606 C   0  0  0  0  0  0  0  0  0  0  0  0
   -3.8786   -1.8920    0.9996 H   0  0  0  0  0  0  0  0  0  0  0  0
   -3.2846   -2.8280   -0.3984 H   0  0  0  0  0  0  0  0  0  0  0  0
   -1.7586   -2.0580    0.8686 C   0  0  0  0  0  0  0  0  0  0  0  0
   -0.9666   -2.6340    1.6026 O   0  0  0  0  0  0  0  0  0  0  0  0
   -1.4866   -0.9220    0.2366 N   0  0  0  0  0  0  0  0  0  0  0  0
   -2.2166   -0.4790   -0.2994 H   0  0  0  0  0  0  0  0  0  0  0  0
   -0.1956   -0.2250    0.2596 C   0  0  1  0  0  0  0  0  0  0  0  0
    0.5755   -0.9013   -0.1105 H   0  0  0  0  0  0  0  0  0  0  0  0
   -0.2553    0.9811   -0.6992 C   0  0  0  0  0  0  0  0  0  0  0  0
   -1.1306    0.8589   -1.3391 H   0  0  0  0  0  0  0  0  0  0  0  0
   -0.3779    1.8968   -0.1188 H   0  0  0  0  0  0  0  0  0  0  0  0
    0.9883    1.1138   -1.5943 C   0  0  0  0  0  0  0  0  0  0  0  0
    0.8818    1.9998   -2.2248 H   0  0  0  0  0  0  0  0  0  0  0  0
    1.8599    1.2608   -0.9509 H   0  0  0  0  0  0  0  0  0  0  0  0
    1.2244   -0.1070   -2.4957 C   0  0  0  0  0  0  0  0  0  0  0  0
    0.5001   -1.1147   -2.3329 O   0  5  0  0  0  0  0  0  0  0  0  0
    2.1220   -0.0005   -3.3608 O   0  0  0  0  0  0  0  0  0  0  0  0
    0.1881    0.1678    1.7015 C   0  0  0  0  0  0  0  0  0  0  0  0
    1.3379    0.0002    2.1133 O   0  0  0  0  0  0  0  0  0  0  0  0
   -0.7666    0.7145    2.4656 N   0  0  0  0  0  0  0  0  0  0  0  0
   -1.6971    0.7705    2.0790 H   0  0  0  0  0  0  0  0  0  0  0  0
   -0.5716    1.1232    3.8542 C   0  0  0  0  0  0  0  0  0  0  0  0
    0.3083    1.7643    3.9293 H   0  0  0  0  0  0  0  0  0  0  0  0
   -1.4485    1.6640    4.2131 H   0  0  0  0  0  0  0  0  0  0  0  0
   -0.4137    0.2381    4.4736 H   0  0  0  0  0  0  0  0  0  0  0  0
  5  6  2  0  0  0  0
  5  7  1  0  0  0  0
  2  3  1  0  0  0  0
  2  4  1  0  0  0  0
  2  5  1  0  0  0  0
  1  2  1  0  0  0  0
 20 21  2  0  0  0  0
 20 22  1  0  0  0  0
 17 18  1  0  0  0  0
 17 19  2  0  0  0  0
 14 15  1  0  0  0  0
 14 16  1  0  0  0  0
 14 17  1  0  0  0  0
 11 12  1  0  0  0  0
 11 13  1  0  0  0  0
 11 14  1  0  0  0  0
  9 10  1  0  0  0  0
  9 11  1  0  0  0  0
  9 20  1  0  0  0  0
  7  8  1  0  0  0  0
  7  9  1  0  0  0  0
 24 25  1  0  0  0  0
 24 26  1  0  0  0  0
 24 27  1  0  0  0  0
 22 23  1  0  0  0  0
 22 24  1  0  0  0  0
M  CHG  1  18  -1
M  END
$$$$
default_name
  -OEChem-02102213163D

 27 26  0     1  0  0  0  0  0999 V2000
   -3.2406   -3.5400    1.2326 H   0  0  0  0  0  0  0  0  0  0  0  0
   -3.1436   -2.6190    0.6606 C   0  0  0  0  0  0  0  0  0  0  0  0
   -3.8786   -1.8920    0.9996 H   0  0  0  0  0  0  0  0  0  0  0  0
   -3.2846   -2.8280   -0.3984 H   0  0  0  0  0  0  0  0  0  0  0  0
   -1.7586   -2.0580    0.8686 C   0  0  0  0  0  0  0  0  0  0  0  0
   -0.9666   -2.6340    1.6026 O   0  0  0  0  0  0  0  0  0  0  0  0
   -1.4866   -0.9220    0.2366 N   0  0  0  0  0  0  0  0  0  0  0  0
   -2.2166   -0.4790   -0.2994 H   0  0  0  0  0  0  0  0  0  0  0  0
   -0.1956   -0.2250    0.2596 C   0  0  1  0  0  0  0  0  0  0  0  0
    0.5755   -0.9013   -0.1105 H   0  0  0  0  0  0  0  0  0  0  0  0
   -0.2553    0.9811   -0.6992 C   0  0  0  0  0  0  0  0  0  0  0  0
   -1.1306    0.8589   -1.3391 H   0  0  0  0  0  0  0  0  0  0  0  0
   -0.3779    1.8968   -0.1188 H   0  0  0  0  0  0  0  0  0  0  0  0
    0.9883    1.1138   -1.5943 C   0  0  0  0  0  0  0  0  0  0  0  0
    1.0147    2.1187   -2.0226 H   0  0  0  0  0  0  0  0  0  0  0  0
    1.8762    0.9909   -0.9683 H   0  0  0  0  0  0  0  0  0  0  0  0
    1.0292    0.0895   -2.7379 C   0  0  0  0  0  0  0  0  0  0  0  0
    0.1603   -0.8111   -2.7601 O   0  5  0  0  0  0  0  0  0  0  0  0
    1.9270    0.2419   -3.5957 O   0  0  0  0  0  0  0  0  0  0  0  0
    0.1881    0.1678    1.7015 C   0  0  0  0  0  0  0  0  0  0  0  0
    1.3379    0.0002    2.1133 O   0  0  0  0  0  0  0  0  0  0  0  0
   -0.7666    0.7145    2.4656 N   0  0  0  0  0  0  0  0  0  0  0  0
   -1.6971    0.7705    2.0790 H   0  0  0  0  0  0  0  0  0  0  0  0
   -0.5716    1.1232    3.8542 C   0  0  0  0  0  0  0  0  0  0  0  0
    0.3083    1.7643    3.9293 H   0  0  0  0  0  0  0  0  0  0  0  0
   -1.4485    1.6640    4.2131 H   0  0  0  0  0  0  0  0  0  0  0  0
   -0.4137    0.2381    4.4736 H   0  0  0  0  0  0  0  0  0  0  0  0
  5  6  2  0  0  0  0
  5  7  1  0  0  0  0
  2  3  1  0  0  0  0
  2  4  1  0  0  0  0
  2  5  1  0  0  0  0
  1  2  1  0  0  0  0
 20 21  2  0  0  0  0
 20 22  1  0  0  0  0
 17 18  1  0  0  0  0
 17 19  2  0  0  0  0
 14 15  1  0  0  0  0
 14 16  1  0  0  0  0
 14 17  1  0  0  0  0
 11 12  1  0  0  0  0
 11 13  1  0  0  0  0
 11 14  1  0  0  0  0
  9 10  1  0  0  0  0
  9 11  1  0  0  0  0
  9 20  1  0  0  0  0
  7  8  1  0  0  0  0
  7  9  1  0  0  0  0
 24 25  1  0  0  0  0
 24 26  1  0  0  0  0
 24 27  1  0  0  0  0
 22 23  1  0  0  0  0
 22 24  1  0  0  0  0
M  CHG  1  18  -1
M  END
$$$$
default_name
  -OEChem-02102213163D

 27 26  0     1  0  0  0  0  0999 V2000
   -3.2406   -3.5400    1.2326 H   0  0  0  0  0  0  0  0  0  0  0  0
   -3.1436   -2.6190    0.6606 C   0  0  0  0  0  0  0  0  0  0  0  0
   -3.8786   -1.8920    0.9996 H   0  0  0  0  0  0  0  0  0  0  0  0
   -3.2846   -2.8280   -0.3984 H   0  0  0  0  0  0  0  0  0  0  0  0
   -1.7586   -2.0580    0.8686 C   0  0  0  0  0  0  0  0  0  0  0  0
   -0.9666   -2.6340    1.6026 O   0  0  0  0  0  0  0  0  0  0  0  0
   -1.4866   -0.9220    0.2366 N   0  0  0  0  0  0  0  0  0  0  0  0
   -2.2166   -0.4790   -0.2994 H   0  0  0  0  0  0  0  0  0  0  0  0
   -0.1956   -0.2250    0.2596 C   0  0  1  0  0  0  0  0  0  0  0  0
    0.5755   -0.9013   -0.1105 H   0  0  0  0  0  0  0  0  0  0  0  0
   -0.2553    0.9811   -0.6992 C   0  0  0  0  0  0  0  0  0  0  0  0
   -1.1306    0.8589   -1.3391 H   0  0  0  0  0  0  0  0  0  0  0  0
   -0.3779    1.8968   -0.1188 H   0  0  0  0  0  0  0  0  0  0  0  0
    0.9883    1.1138   -1.5943 C   0  0  0  0  0  0  0  0  0  0  0  0
    1.1654    2.1712   -1.8054 H   0  0  0  0  0  0  0  0  0  0  0  0
    1.8508    0.7313   -1.0420 H   0  0  0  0  0  0  0  0  0  0  0  0
    0.8648    0.3593   -2.9263 C   0  0  0  0  0  0  0  0  0  0  0  0
   -0.1318   -0.3773   -3.1016 O   0  5  0  0  0  0  0  0  0  0  0  0
    1.7700    0.5545   -3.7677 O   0  0  0  0  0  0  0  0  0  0  0  0
    0.1881    0.1678    1.7015 C   0  0  0  0  0  0  0  0  0  0  0  0
    1.3379    0.0002    2.1133 O   0  0  0  0  0  0  0  0  0  0  0  0
   -0.7666    0.7145    2.4656 N   0  0  0  0  0  0  0  0  0  0  0  0
   -1.6971    0.7705    2.0790 H   0  0  0  0  0  0  0  0  0  0  0  0
   -0.5716    1.1232    3.8542 C   0  0  0  0  0  0  0  0  0  0  0  0
    0.3083    1.7643    3.9293 H   0  0  0  0  0  0  0  0  0  0  0  0
   -1.4485    1.6640    4.2131 H   0  0  0  0  0  0  0  0  0  0  0  0
   -0.4137    0.2381    4.4736 H   0  0  0  0  0  0  0  0  0  0  0  0
  5  6  2  0  0  0  0
  5  7  1  0  0  0  0
  2  3  1  0  0  0  0
  2  4  1  0  0  0  0
  2  5  1  0  0  0  0
  1  2  1  0  0  0  0
 20 21  2  0  0  0  0
 20 22  1  0  0  0  0
 17 18  1  0  0  0  0
 17 19  2  0  0  0  0
 14 15  1  0  0  0  0
 14 16  1  0  0  0  0
 14 17  1  0  0  0  0
 11 12  1  0  0  0  0
 11 13  1  0  0  0  0
 11 14  1  0  0  0  0
  9 10  1  0  0  0  0
  9 11  1  0  0  0  0
  9 20  1  0  0  0  0
  7  8  1  0  0  0  0
  7  9  1  0  0  0  0
 24 25  1  0  0  0  0
 24 26  1  0  0  0  0
 24 27  1  0  0  0  0
 22 23  1  0  0  0  0
 22 24  1  0  0  0  0
M  CHG  1  18  -1
M  END
$$$$
default_name
  -OEChem-02102213163D

 27 26  0     1  0  0  0  0  0999 V2000
   -3.2406   -3.5400    1.2326 H   0  0  0  0  0  0  0  0  0  0  0  0
   -3.1436   -2.6190    0.6606 C   0  0  0  0  0  0  0  0  0  0  0  0
   -3.8786   -1.8920    0.9996 H   0  0  0  0  0  0  0  0  0  0  0  0
   -3.2846   -2.8280   -0.3984 H   0  0  0  0  0  0  0  0  0  0  0  0
   -1.7586   -2.0580    0.8686 C   0  0  0  0  0  0  0  0  0  0  0  0
   -0.9666   -2.6340    1.6026 O   0  0  0  0  0  0  0  0  0  0  0  0
   -1.4866   -0.9220    0.2366 N   0  0  0  0  0  0  0  0  0  0  0  0
   -2.2166   -0.4790   -0.2994 H   0  0  0  0  0  0  0  0  0  0  0  0
   -0.1956   -0.2250    0.2596 C   0  0  1  0  0  0  0  0  0  0  0  0
    0.5755   -0.9013   -0.1105 H   0  0  0  0  0  0  0  0  0  0  0  0
   -0.2553    0.9811   -0.6992 C   0  0  0  0  0  0  0  0  0  0  0  0
   -1.1306    0.8589   -1.3391 H   0  0  0  0  0  0  0  0  0  0  0  0
   -0.3779    1.8968   -0.1188 H   0  0  0  0  0  0  0  0  0  0  0  0
    0.9883    1.1138   -1.5943 C   0  0  0  0  0  0  0  0  0  0  0  0
    1.3238    2.1537   -1.5879 H   0  0  0  0  0  0  0  0  0  0  0  0
    1.7856    0.4999   -1.1670 H   0  0  0  0  0  0  0  0  0  0  0  0
    0.7424    0.6842   -3.0482 C   0  0  0  0  0  0  0  0  0  0  0  0
   -0.3562    0.1573   -3.3342 O   0  5  0  0  0  0  0  0  0  0  0  0
    1.6615    0.9161   -3.8648 O   0  0  0  0  0  0  0  0  0  0  0  0
    0.1881    0.1678    1.7015 C   0  0  0  0  0  0  0  0  0  0  0  0
    1.3379    0.0002    2.1133 O   0  0  0  0  0  0  0  0  0  0  0  0
   -0.7666    0.7145    2.4656 N   0  0  0  0  0  0  0  0  0  0  0  0
   -1.6971    0.7705    2.0790 H   0  0  0  0  0  0  0  0  0  0  0  0
   -0.5716    1.1232    3.8542 C   0  0  0  0  0  0  0  0  0  0  0  0
    0.3083    1.7643    3.9293 H   0  0  0  0  0  0  0  0  0  0  0  0
   -1.4485    1.6640    4.2131 H   0  0  0  0  0  0  0  0  0  0  0  0
   -0.4137    0.2381    4.4736 H   0  0  0  0  0  0  0  0  0  0  0  0
  5  6  2  0  0  0  0
  5  7  1  0  0  0  0
  2  3  1  0  0  0  0
  2  4  1  0  0  0  0
  2  5  1  0  0  0  0
  1  2  1  0  0  0  0
 20 21  2  0  0  0  0
 20 22  1  0  0  0  0
 17 18  1  0  0  0  0
 17 19  2  0  0  0  0
 14 15  1  0  0  0  0
 14 16  1  0  0  0  0
 14 17  1  0  0  0  0
 11 12  1  0  0  0  0
 11 13  1  0  0  0  0
 11 14  1  0  0  0  0
  9 10  1  0  0  0  0
  9 11  1  0  0  0  0
  9 20  1  0  0  0  0
  7  8  1  0  0  0  0
  7  9  1  0  0  0  0
 24 25  1  0  0  0  0
 24 26  1  0  0  0  0
 24 27  1  0  0  0  0
 22 23  1  0  0  0  0
 22 24  1  0  0  0  0
M  CHG  1  18  -1
M  END
$$$$
default_name
  -OEChem-02102213163D

 27 26  0     1  0  0  0  0  0999 V2000
   -3.2406   -3.5400    1.2326 H   0  0  0  0  0  0  0  0  0  0  0  0
   -3.1436   -2.6190    0.6606 C   0  0  0  0  0  0  0  0  0  0  0  0
   -3.8786   -1.8920    0.9996 H   0  0  0  0  0  0  0  0  0  0  0  0
   -3.2846   -2.8280   -0.3984 H   0  0  0  0  0  0  0  0  0  0  0  0
   -1.7586   -2.0580    0.8686 C   0  0  0  0  0  0  0  0  0  0  0  0
   -0.9666   -2.6340    1.6026 O   0  0  0  0  0  0  0  0  0  0  0  0
   -1.4866   -0.9220    0.2366 N   0  0  0  0  0  0  0  0  0  0  0  0
   -2.2166   -0.4790   -0.2994 H   0  0  0  0  0  0  0  0  0  0  0  0
   -0.1956   -0.2250    0.2596 C   0  0  1  0  0  0  0  0  0  0  0  0
    0.5755   -0.9013   -0.1105 H   0  0  0  0  0  0  0  0  0  0  0  0
   -0.2553    0.9811   -0.6992 C   0  0  0  0  0  0  0  0  0  0  0  0
   -1.1306    0.8589   -1.3391 H   0  0  0  0  0  0  0  0  0  0  0  0
   -0.3779    1.8968   -0.1188 H   0  0  0  0  0  0  0  0  0  0  0  0
    0.9883    1.1138   -1.5943 C   0  0  0  0  0  0  0  0  0  0  0  0
    1.4790    2.0675   -1.3851 H   0  0  0  0  0  0  0  0  0  0  0  0
    1.6849    0.3123   -1.3346 H   0  0  0  0  0  0  0  0  0  0  0  0
    0.6704    1.0420   -3.0952 C   0  0  0  0  0  0  0  0  0  0  0  0
   -0.4977    0.7561   -3.4419 O   0  5  0  0  0  0  0  0  0  0  0  0
    1.6090    1.3021   -3.8805 O   0  0  0  0  0  0  0  0  0  0  0  0
    0.1881    0.1678    1.7015 C   0  0  0  0  0  0  0  0  0  0  0  0
    1.3379    0.0002    2.1133 O   0  0  0  0  0  0  0  0  0  0  0  0
   -0.7666    0.7145    2.4656 N   0  0  0  0  0  0  0  0  0  0  0  0
   -1.6971    0.7705    2.0790 H   0  0  0  0  0  0  0  0  0  0  0  0
   -0.5716    1.1232    3.8542 C   0  0  0  0  0  0  0  0  0  0  0  0
    0.3083    1.7643    3.9293 H   0  0  0  0  0  0  0  0  0  0  0  0
   -1.4485    1.6640    4.2131 H   0  0  0  0  0  0  0  0  0  0  0  0
   -0.4137    0.2381    4.4736 H   0  0  0  0  0  0  0  0  0  0  0  0
  5  6  2  0  0  0  0
  5  7  1  0  0  0  0
  2  3  1  0  0  0  0
  2  4  1  0  0  0  0
  2  5  1  0  0  0  0
  1  2  1  0  0  0  0
 20 21  2  0  0  0  0
 20 22  1  0  0  0  0
 17 18  1  0  0  0  0
 17 19  2  0  0  0  0
 14 15  1  0  0  0  0
 14 16  1  0  0  0  0
 14 17  1  0  0  0  0
 11 12  1  0  0  0  0
 11 13  1  0  0  0  0
 11 14  1  0  0  0  0
  9 10  1  0  0  0  0
  9 11  1  0  0  0  0
  9 20  1  0  0  0  0
  7  8  1  0  0  0  0
  7  9  1  0  0  0  0
 24 25  1  0  0  0  0
 24 26  1  0  0  0  0
 24 27  1  0  0  0  0
 22 23  1  0  0  0  0
 22 24  1  0  0  0  0
M  CHG  1  18  -1
M  END
$$$$
default_name
  -OEChem-02102213163D

 27 26  0     1  0  0  0  0  0999 V2000
   -3.2406   -3.5400    1.2326 H   0  0  0  0  0  0  0  0  0  0  0  0
   -3.1436   -2.6190    0.6606 C   0  0  0  0  0  0  0  0  0  0  0  0
   -3.8786   -1.8920    0.9996 H   0  0  0  0  0  0  0  0  0  0  0  0
   -3.2846   -2.8280   -0.3984 H   0  0  0  0  0  0  0  0  0  0  0  0
   -1.7586   -2.0580    0.8686 C   0  0  0  0  0  0  0  0  0  0  0  0
   -0.9666   -2.6340    1.6026 O   0  0  0  0  0  0  0  0  0  0  0  0
   -1.4866   -0.9220    0.2366 N   0  0  0  0  0  0  0  0  0  0  0  0
   -2.2166   -0.4790   -0.2994 H   0  0  0  0  0  0  0  0  0  0  0  0
   -0.1956   -0.2250    0.2596 C   0  0  1  0  0  0  0  0  0  0  0  0
    0.5755   -0.9013   -0.1105 H   0  0  0  0  0  0  0  0  0  0  0  0
   -0.2553    0.9811   -0.6992 C   0  0  0  0  0  0  0  0  0  0  0  0
   -1.1306    0.8589   -1.3391 H   0  0  0  0  0  0  0  0  0  0  0  0
   -0.3779    1.8968   -0.1188 H   0  0  0  0  0  0  0  0  0  0  0  0
    0.9883    1.1138   -1.5943 C   0  0  0  0  0  0  0  0  0  0  0  0
    1.6204    1.9184   -1.2107 H   0  0  0  0  0  0  0  0  0  0  0  0
    1.5557    0.1814   -1.5336 H   0  0  0  0  0  0  0  0  0  0  0  0
    0.6537    1.4082   -3.0641 C   0  0  0  0  0  0  0  0  0  0  0  0
   -0.5465    1.3783   -3.4176 O   0  5  0  0  0  0  0  0  0  0  0  0
    1.6161    1.6861   -3.8137 O   0  0  0  0  0  0  0  0  0  0  0  0
    0.1881    0.1678    1.7015 C   0  0  0  0  0  0  0  0  0  0  0  0
    1.3379    0.0002    2.1133 O   0  0  0  0  0  0  0  0  0  0  0  0
   -0.7666    0.7145    2.4656 N   0  0  0  0  0  0  0  0  0  0  0  0
   -1.6971    0.7705    2.0790 H   0  0  0  0  0  0  0  0  0  0  0  0
   -0.5716    1.1232    3.8542 C   0  0  0  0  0  0  0  0  0  0  0  0
    0.3083    1.7643    3.9293 H   0  0  0  0  0  0  0  0  0  0  0  0
   -1.4485    1.6640    4.2131 H   0  0  0  0  0  0  0  0  0  0  0  0
   -0.4137    0.2381    4.4736 H   0  0  0  0  0  0  0  0  0  0  0  0
  5  6  2  0  0  0  0
  5  7  1  0  0  0  0
  2  3  1  0  0  0  0
  2  4  1  0  0  0  0
  2  5  1  0  0  0  0
  1  2  1  0  0  0  0
 20 21  2  0  0  0  0
 20 22  1  0  0  0  0
 17 18  1  0  0  0  0
 17 19  2  0  0  0  0
 14 15  1  0  0  0  0
 14 16  1  0  0  0  0
 14 17  1  0  0  0  0
 11 12  1  0  0  0  0
 11 13  1  0  0  0  0
 11 14  1  0  0  0  0
  9 10  1  0  0  0  0
  9 11  1  0  0  0  0
  9 20  1  0  0  0  0
  7  8  1  0  0  0  0
  7  9  1  0  0  0  0
 24 25  1  0  0  0  0
 24 26  1  0  0  0  0
 24 27  1  0  0  0  0
 22 23  1  0  0  0  0
 22 24  1  0  0  0  0
M  CHG  1  18  -1
M  END
$$$$
default_name
  -OEChem-02102213163D

 27 26  0     1  0  0  0  0  0999 V2000
   -3.2406   -3.5400    1.2326 H   0  0  0  0  0  0  0  0  0  0  0  0
   -3.1436   -2.6190    0.6606 C   0  0  0  0  0  0  0  0  0  0  0  0
   -3.8786   -1.8920    0.9996 H   0  0  0  0  0  0  0  0  0  0  0  0
   -3.2846   -2.8280   -0.3984 H   0  0  0  0  0  0  0  0  0  0  0  0
   -1.7586   -2.0580    0.8686 C   0  0  0  0  0  0  0  0  0  0  0  0
   -0.9666   -2.6340    1.6026 O   0  0  0  0  0  0  0  0  0  0  0  0
   -1.4866   -0.9220    0.2366 N   0  0  0  0  0  0  0  0  0  0  0  0
   -2.2166   -0.4790   -0.2994 H   0  0  0  0  0  0  0  0  0  0  0  0
   -0.1956   -0.2250    0.2596 C   0  0  1  0  0  0  0  0  0  0  0  0
    0.5755   -0.9013   -0.1105 H   0  0  0  0  0  0  0  0  0  0  0  0
   -0.2553    0.9811   -0.6992 C   0  0  0  0  0  0  0  0  0  0  0  0
   -1.1306    0.8589   -1.3391 H   0  0  0  0  0  0  0  0  0  0  0  0
   -0.3779    1.8968   -0.1188 H   0  0  0  0  0  0  0  0  0  0  0  0
    0.9883    1.1138   -1.5943 C   0  0  0  0  0  0  0  0  0  0  0  0
    1.7385    1.7165   -1.0766 H   0  0  0  0  0  0  0  0  0  0  0  0
    1.4067    0.1160   -1.7502 H   0  0  0  0  0  0  0  0  0  0  0  0
    0.6935    1.7580   -2.9570 C   0  0  0  0  0  0  0  0  0  0  0  0
   -0.4994    1.9816   -3.2627 O   0  5  0  0  0  0  0  0  0  0  0  0
    1.6823    2.0419   -3.6690 O   0  0  0  0  0  0  0  0  0  0  0  0
    0.1881    0.1678    1.7015 C   0  0  0  0  0  0  0  0  0  0  0  0
    1.3379    0.0002    2.1133 O   0  0  0  0  0  0  0  0  0  0  0  0
   -0.7666    0.7145    2.4656 N   0  0  0  0  0  0  0  0  0  0  0  0
   -1.6971    0.7705    2.0790 H   0  0  0  0  0  0  0  0  0  0  0  0
   -0.5716    1.1232    3.8542 C   0  0  0  0  0  0  0  0  0  0  0  0
    0.3083    1.7643    3.9293 H   0  0  0  0  0  0  0  0  0  0  0  0
   -1.4485    1.6640    4.2131 H   0  0  0  0  0  0  0  0  0  0  0  0
   -0.4137    0.2381    4.4736 H   0  0  0  0  0  0  0  0  0  0  0  0
  5  6  2  0  0  0  0
  5  7  1  0  0  0  0
  2  3  1  0  0  0  0
  2  4  1  0  0  0  0
  2  5  1  0  0  0  0
  1  2  1  0  0  0  0
 20 21  2  0  0  0  0
 20 22  1  0  0  0  0
 17 18  1  0  0  0  0
 17 19  2  0  0  0  0
 14 15  1  0  0  0  0
 14 16  1  0  0  0  0
 14 17  1  0  0  0  0
 11 12  1  0  0  0  0
 11 13  1  0  0  0  0
 11 14  1  0  0  0  0
  9 10  1  0  0  0  0
  9 11  1  0  0  0  0
  9 20  1  0  0  0  0
  7  8  1  0  0  0  0
  7  9  1  0  0  0  0
 24 25  1  0  0  0  0
 24 26  1  0  0  0  0
 24 27  1  0  0  0  0
 22 23  1  0  0  0  0
 22 24  1  0  0  0  0
M  CHG  1  18  -1
M  END
$$$$
default_name
  -OEChem-02102213163D

 27 26  0     1  0  0  0  0  0999 V2000
   -3.2406   -3.5400    1.2326 H   0  0  0  0  0  0  0  0  0  0  0  0
   -3.1436   -2.6190    0.6606 C   0  0  0  0  0  0  0  0  0  0  0  0
   -3.8786   -1.8920    0.9996 H   0  0  0  0  0  0  0  0  0  0  0  0
   -3.2846   -2.8280   -0.3984 H   0  0  0  0  0  0  0  0  0  0  0  0
   -1.7586   -2.0580    0.8686 C   0  0  0  0  0  0  0  0  0  0  0  0
   -0.9666   -2.6340    1.6026 O   0  0  0  0  0  0  0  0  0  0  0  0
   -1.4866   -0.9220    0.2366 N   0  0  0  0  0  0  0  0  0  0  0  0
   -2.2166   -0.4790   -0.2994 H   0  0  0  0  0  0  0  0  0  0  0  0
   -0.1956   -0.2250    0.2596 C   0  0  1  0  0  0  0  0  0  0  0  0
    0.5755   -0.9013   -0.1105 H   0  0  0  0  0  0  0  0  0  0  0  0
   -0.2553    0.9811   -0.6992 C   0  0  0  0  0  0  0  0  0  0  0  0
   -1.1306    0.8589   -1.3391 H   0  0  0  0  0  0  0  0  0  0  0  0
   -0.3779    1.8968   -0.1188 H   0  0  0  0  0  0  0  0  0  0  0  0
    0.9883    1.1138   -1.5943 C   0  0  0  0  0  0  0  0  0  0  0  0
    1.8251    1.4757   -0.9919 H   0  0  0  0  0  0  0  0  0  0  0  0
    1.2481    0.1206   -1.9699 H   0  0  0  0  0  0  0  0  0  0  0  0
    0.7869    2.0675   -2.7813 C   0  0  0  0  0  0  0  0  0  0  0  0
   -0.3596    2.5249   -2.9879 O   0  5  0  0  0  0  0  0  0  0  0  0
    1.8030    2.3454   -3.4562 O   0  0  0  0  0  0  0  0  0  0  0  0
    0.1881    0.1678    1.7015 C   0  0  0  0  0  0  0  0  0  0  0  0
    1.3379    0.0002    2.1133 O   0  0  0  0  0  0  0  0  0  0  0  0
   -0.7666    0.7145    2.4656 N   0  0  0  0  0  0  0  0  0  0  0  0
   -1.6971    0.7705    2.0790 H   0  0  0  0  0  0  0  0  0  0  0  0
   -0.5716    1.1232    3.8542 C   0  0  0  0  0  0  0  0  0  0  0  0
    0.3083    1.7643    3.9293 H   0  0  0  0  0  0  0  0  0  0  0  0
   -1.4485    1.6640    4.2131 H   0  0  0  0  0  0  0  0  0  0  0  0
   -0.4137    0.2381    4.4736 H   0  0  0  0  0  0  0  0  0  0  0  0
  5  6  2  0  0  0  0
  5  7  1  0  0  0  0
  2  3  1  0  0  0  0
  2  4  1  0  0  0  0
  2  5  1  0  0  0  0
  1  2  1  0  0  0  0
 20 21  2  0  0  0  0
 20 22  1  0  0  0  0
 17 18  1  0  0  0  0
 17 19  2  0  0  0  0
 14 15  1  0  0  0  0
 14 16  1  0  0  0  0
 14 17  1  0  0  0  0
 11 12  1  0  0  0  0
 11 13  1  0  0  0  0
 11 14  1  0  0  0  0
  9 10  1  0  0  0  0
  9 11  1  0  0  0  0
  9 20  1  0  0  0  0
  7  8  1  0  0  0  0
  7  9  1  0  0  0  0
 24 25  1  0  0  0  0
 24 26  1  0  0  0  0
 24 27  1  0  0  0  0
 22 23  1  0  0  0  0
 22 24  1  0  0  0  0
M  CHG  1  18  -1
M  END
$$$$
default_name
  -OEChem-02102213163D

 27 26  0     1  0  0  0  0  0999 V2000
   -3.2406   -3.5400    1.2326 H   0  0  0  0  0  0  0  0  0  0  0  0
   -3.1436   -2.6190    0.6606 C   0  0  0  0  0  0  0  0  0  0  0  0
   -3.8786   -1.8920    0.9996 H   0  0  0  0  0  0  0  0  0  0  0  0
   -3.2846   -2.8280   -0.3984 H   0  0  0  0  0  0  0  0  0  0  0  0
   -1.7586   -2.0580    0.8686 C   0  0  0  0  0  0  0  0  0  0  0  0
   -0.9666   -2.6340    1.6026 O   0  0  0  0  0  0  0  0  0  0  0  0
   -1.4866   -0.9220    0.2366 N   0  0  0  0  0  0  0  0  0  0  0  0
   -2.2166   -0.4790   -0.2994 H   0  0  0  0  0  0  0  0  0  0  0  0
   -0.1956   -0.2250    0.2596 C   0  0  1  0  0  0  0  0  0  0  0  0
    0.5755   -0.9013   -0.1105 H   0  0  0  0  0  0  0  0  0  0  0  0
   -0.2553    0.9811   -0.6992 C   0  0  0  0  0  0  0  0  0  0  0  0
   -1.2504    1.0065   -1.1460 H   0  0  0  0  0  0  0  0  0  0  0  0
   -0.1093    1.9007   -0.1306 H   0  0  0  0  0  0  0  0  0  0  0  0
    0.7853    0.9165   -1.8298 C   0  0  0  0  0  0  0  0  0  0  0  0
    1.7854    0.8660   -1.3925 H   0  0  0  0  0  0  0  0  0  0  0  0
    0.6187   -0.0030   -2.3972 H   0  0  0  0  0  0  0  0  0  0  0  0
    0.7249    2.1184   -2.7842 C   0  0  0  0  0  0  0  0  0  0  0  0
   -0.2112    2.9380   -2.6488 O   0  5  0  0  0  0  0  0  0  0  0  0
    1.6431    2.2106   -3.6290 O   0  0  0  0  0  0  0  0  0  0  0  0
    0.1881    0.1678    1.7015 C   0  0  0  0  0  0  0  0  0  0  0  0
    1.3379    0.0002    2.1133 O   0  0  0  0  0  0  0  0  0  0  0  0
   -0.7666    0.7145    2.4656 N   0  0  0  0  0  0  0  0  0  0  0  0
   -1.6971    0.7705    2.0790 H   0  0  0  0  0  0  0  0  0  0  0  0
   -0.5716    1.1232    3.8542 C   0  0  0  0  0  0  0  0  0  0  0  0
    0.3083    1.7643    3.9293 H   0  0  0  0  0  0  0  0  0  0  0  0
   -1.4485    1.6640    4.2131 H   0  0  0  0  0  0  0  0  0  0  0  0
   -0.4137    0.2381    4.4736 H   0  0  0  0  0  0  0  0  0  0  0  0
  5  6  2  0  0  0  0
  5  7  1  0  0  0  0
  2  3  1  0  0  0  0
  2  4  1  0  0  0  0
  2  5  1  0  0  0  0
  1  2  1  0  0  0  0
 20 21  2  0  0  0  0
 20 22  1  0  0  0  0
 17 18  1  0  0  0  0
 17 19  2  0  0  0  0
 14 15  1  0  0  0  0
 14 16  1  0  0  0  0
 14 17  1  0  0  0  0
 11 12  1  0  0  0  0
 11 13  1  0  0  0  0
 11 14  1  0  0  0  0
  9 10  1  0  0  0  0
  9 11  1  0  0  0  0
  9 20  1  0  0  0  0
  7  8  1  0  0  0  0
  7  9  1  0  0  0  0
 24 25  1  0  0  0  0
 24 26  1  0  0  0  0
 24 27  1  0  0  0  0
 22 23  1  0  0  0  0
 22 24  1  0  0  0  0
M  CHG  1  18  -1
M  END
$$$$
default_name
  -OEChem-02102213163D

 27 26  0     1  0  0  0  0  0999 V2000
   -3.2406   -3.5400    1.2326 H   0  0  0  0  0  0  0  0  0  0  0  0
   -3.1436   -2.6190    0.6606 C   0  0  0  0  0  0  0  0  0  0  0  0
   -3.8786   -1.8920    0.9996 H   0  0  0  0  0  0  0  0  0  0  0  0
   -3.2846   -2.8280   -0.3984 H   0  0  0  0  0  0  0  0  0  0  0  0
   -1.7586   -2.0580    0.8686 C   0  0  0  0  0  0  0  0  0  0  0  0
   -0.9666   -2.6340    1.6026 O   0  0  0  0  0  0  0  0  0  0  0  0
   -1.4866   -0.9220    0.2366 N   0  0  0  0  0  0  0  0  0  0  0  0
   -2.2166   -0.4790   -0.2994 H   0  0  0  0  0  0  0  0  0  0  0  0
   -0.1956   -0.2250    0.2596 C   0  0  1  0  0  0  0  0  0  0  0  0
    0.5755   -0.9013   -0.1105 H   0  0  0  0  0  0  0  0  0  0  0  0
   -0.2553    0.9811   -0.6992 C   0  0  0  0  0  0  0  0  0  0  0  0
   -1.2504    1.0065   -1.1460 H   0  0  0  0  0  0  0  0  0  0  0  0
   -0.1093    1.9007   -0.1306 H   0  0  0  0  0  0  0  0  0  0  0  0
    0.7853    0.9165   -1.8298 C   0  0  0  0  0  0  0  0  0  0  0  0
    1.7452    0.6004   -1.4144 H   0  0  0  0  0  0  0  0  0  0  0  0
    0.4635    0.1589   -2.5493 H   0  0  0  0  0  0  0  0  0  0  0  0
    0.9801    2.2551   -2.5572 C   0  0  0  0  0  0  0  0  0  0  0  0
    0.2126    3.2024   -2.2738 O   0  5  0  0  0  0  0  0  0  0  0  0
    1.9223    2.3157   -3.3780 O   0  0  0  0  0  0  0  0  0  0  0  0
    0.1881    0.1678    1.7015 C   0  0  0  0  0  0  0  0  0  0  0  0
    1.3379    0.0002    2.1133 O   0  0  0  0  0  0  0  0  0  0  0  0
   -0.7666    0.7145    2.4656 N   0  0  0  0  0  0  0  0  0  0  0  0
   -1.6971    0.7705    2.0790 H   0  0  0  0  0  0  0  0  0  0  0  0
   -0.5716    1.1232    3.8542 C   0  0  0  0  0  0  0  0  0  0  0  0
    0.3083    1.7643    3.9293 H   0  0  0  0  0  0  0  0  0  0  0  0
   -1.4485    1.6640    4.2131 H   0  0  0  0  0  0  0  0  0  0  0  0
   -0.4137    0.2381    4.4736 H   0  0  0  0  0  0  0  0  0  0  0  0
  5  6  2  0  0  0  0
  5  7  1  0  0  0  0
  2  3  1  0  0  0  0
  2  4  1  0  0  0  0
  2  5  1  0  0  0  0
  1  2  1  0  0  0  0
 20 21  2  0  0  0  0
 20 22  1  0  0  0  0
 17 18  1  0  0  0  0
 17 19  2  0  0  0  0
 14 15  1  0  0  0  0
 14 16  1  0  0  0  0
 14 17  1  0  0  0  0
 11 12  1  0  0  0  0
 11 13  1  0  0  0  0
 11 14  1  0  0  0  0
  9 10  1  0  0  0  0
  9 11  1  0  0  0  0
  9 20  1  0  0  0  0
  7  8  1  0  0  0  0
  7  9  1  0  0  0  0
 24 25  1  0  0  0  0
 24 26  1  0  0  0  0
 24 27  1  0  0  0  0
 22 23  1  0  0  0  0
 22 24  1  0  0  0  0
M  CHG  1  18  -1
M  END
$$$$
default_name
  -OEChem-02102213163D

 27 26  0     1  0  0  0  0  0999 V2000
   -3.2406   -3.5400    1.2326 H   0  0  0  0  0  0  0  0  0  0  0  0
   -3.1436   -2.6190    0.6606 C   0  0  0  0  0  0  0  0  0  0  0  0
   -3.8786   -1.8920    0.9996 H   0  0  0  0  0  0  0  0  0  0  0  0
   -3.2846   -2.8280   -0.3984 H   0  0  0  0  0  0  0  0  0  0  0  0
   -1.7586   -2.0580    0.8686 C   0  0  0  0  0  0  0  0  0  0  0  0
   -0.9666   -2.6340    1.6026 O   0  0  0  0  0  0  0  0  0  0  0  0
   -1.4866   -0.9220    0.2366 N   0  0  0  0  0  0  0  0  0  0  0  0
   -2.2166   -0.4790   -0.2994 H   0  0  0  0  0  0  0  0  0  0  0  0
   -0.1956   -0.2250    0.2596 C   0  0  1  0  0  0  0  0  0  0  0  0
    0.5755   -0.9013   -0.1105 H   0  0  0  0  0  0  0  0  0  0  0  0
   -0.2553    0.9811   -0.6992 C   0  0  0  0  0  0  0  0  0  0  0  0
   -1.2504    1.0065   -1.1460 H   0  0  0  0  0  0  0  0  0  0  0  0
   -0.1093    1.9007   -0.1306 H   0  0  0  0  0  0  0  0  0  0  0  0
    0.7853    0.9165   -1.8298 C   0  0  0  0  0  0  0  0  0  0  0  0
    1.6560    0.3553   -1.4824 H   0  0  0  0  0  0  0  0  0  0  0  0
    0.3460    0.3714   -2.6695 H   0  0  0  0  0  0  0  0  0  0  0  0
    1.2501    2.2990   -2.3111 C   0  0  0  0  0  0  0  0  0  0  0  0
    0.6683    3.3114   -1.8607 O   0  5  0  0  0  0  0  0  0  0  0  0
    2.2093    2.3201   -3.1142 O   0  0  0  0  0  0  0  0  0  0  0  0
    0.1881    0.1678    1.7015 C   0  0  0  0  0  0  0  0  0  0  0  0
    1.3379    0.0002    2.1133 O   0  0  0  0  0  0  0  0  0  0  0  0
   -0.7666    0.7145    2.4656 N   0  0  0  0  0  0  0  0  0  0  0  0
   -1.6971    0.7705    2.0790 H   0  0  0  0  0  0  0  0  0  0  0  0
   -0.5716    1.1232    3.8542 C   0  0  0  0  0  0  0  0  0  0  0  0
    0.3083    1.7643    3.9293 H   0  0  0  0  0  0  0  0  0  0  0  0
   -1.4485    1.6640    4.2131 H   0  0  0  0  0  0  0  0  0  0  0  0
   -0.4137    0.2381    4.4736 H   0  0  0  0  0  0  0  0  0  0  0  0
  5  6  2  0  0  0  0
  5  7  1  0  0  0  0
  2  3  1  0  0  0  0
  2  4  1  0  0  0  0
  2  5  1  0  0  0  0
  1  2  1  0  0  0  0
 20 21  2  0  0  0  0
 20 22  1  0  0  0  0
 17 18  1  0  0  0  0
 17 19  2  0  0  0  0
 14 15  1  0  0  0  0
 14 16  1  0  0  0  0
 14 17  1  0  0  0  0
 11 12  1  0  0  0  0
 11 13  1  0  0  0  0
 11 14  1  0  0  0  0
  9 10  1  0  0  0  0
  9 11  1  0  0  0  0
  9 20  1  0  0  0  0
  7  8  1  0  0  0  0
  7  9  1  0  0  0  0
 24 25  1  0  0  0  0
 24 26  1  0  0  0  0
 24 27  1  0  0  0  0
 22 23  1  0  0  0  0
 22 24  1  0  0  0  0
M  CHG  1  18  -1
M  END
$$$$
default_name
  -OEChem-02102213163D

 27 26  0     1  0  0  0  0  0999 V2000
   -3.2406   -3.5400    1.2326 H   0  0  0  0  0  0  0  0  0  0  0  0
   -3.1436   -2.6190    0.6606 C   0  0  0  0  0  0  0  0  0  0  0  0
   -3.8786   -1.8920    0.9996 H   0  0  0  0  0  0  0  0  0  0  0  0
   -3.2846   -2.8280   -0.3984 H   0  0  0  0  0  0  0  0  0  0  0  0
   -1.7586   -2.0580    0.8686 C   0  0  0  0  0  0  0  0  0  0  0  0
   -0.9666   -2.6340    1.6026 O   0  0  0  0  0  0  0  0  0  0  0  0
   -1.4866   -0.9220    0.2366 N   0  0  0  0  0  0  0  0  0  0  0  0
   -2.2166   -0.4790   -0.2994 H   0  0  0  0  0  0  0  0  0  0  0  0
   -0.1956   -0.2250    0.2596 C   0  0  1  0  0  0  0  0  0  0  0  0
    0.5755   -0.9013   -0.1105 H   0  0  0  0  0  0  0  0  0  0  0  0
   -0.2553    0.9811   -0.6992 C   0  0  0  0  0  0  0  0  0  0  0  0
   -1.2504    1.0065   -1.1460 H   0  0  0  0  0  0  0  0  0  0  0  0
   -0.1093    1.9007   -0.1306 H   0  0  0  0  0  0  0  0  0  0  0  0
    0.7853    0.9165   -1.8298 C   0  0  0  0  0  0  0  0  0  0  0  0
    1.5240    0.1473   -1.5920 H   0  0  0  0  0  0  0  0  0  0  0  0
    0.2743    0.6201   -2.7497 H   0  0  0  0  0  0  0  0  0  0  0  0
    1.5166    2.2468   -2.0629 C   0  0  0  0  0  0  0  0  0  0  0  0
    1.1247    3.2577   -1.4376 O   0  5  0  0  0  0  0  0  0  0  0  0
    2.4844    2.2236   -2.8555 O   0  0  0  0  0  0  0  0  0  0  0  0
    0.1881    0.1678    1.7015 C   0  0  0  0  0  0  0  0  0  0  0  0
    1.3379    0.0002    2.1133 O   0  0  0  0  0  0  0  0  0  0  0  0
   -0.7666    0.7145    2.4656 N   0  0  0  0  0  0  0  0  0  0  0  0
   -1.6971    0.7705    2.0790 H   0  0  0  0  0  0  0  0  0  0  0  0
   -0.5716    1.1232    3.8542 C   0  0  0  0  0  0  0  0  0  0  0  0
    0.3083    1.7643    3.9293 H   0  0  0  0  0  0  0  0  0  0  0  0
   -1.4485    1.6640    4.2131 H   0  0  0  0  0  0  0  0  0  0  0  0
   -0.4137    0.2381    4.4736 H   0  0  0  0  0  0  0  0  0  0  0  0
  5  6  2  0  0  0  0
  5  7  1  0  0  0  0
  2  3  1  0  0  0  0
  2  4  1  0  0  0  0
  2  5  1  0  0  0  0
  1  2  1  0  0  0  0
 20 21  2  0  0  0  0
 20 22  1  0  0  0  0
 17 18  1  0  0  0  0
 17 19  2  0  0  0  0
 14 15  1  0  0  0  0
 14 16  1  0  0  0  0
 14 17  1  0  0  0  0
 11 12  1  0  0  0  0
 11 13  1  0  0  0  0
 11 14  1  0  0  0  0
  9 10  1  0  0  0  0
  9 11  1  0  0  0  0
  9 20  1  0  0  0  0
  7  8  1  0  0  0  0
  7  9  1  0  0  0  0
 24 25  1  0  0  0  0
 24 26  1  0  0  0  0
 24 27  1  0  0  0  0
 22 23  1  0  0  0  0
 22 24  1  0  0  0  0
M  CHG  1  18  -1
M  END
$$$$
default_name
  -OEChem-02102213163D

 27 26  0     1  0  0  0  0  0999 V2000
   -3.2406   -3.5400    1.2326 H   0  0  0  0  0  0  0  0  0  0  0  0
   -3.1436   -2.6190    0.6606 C   0  0  0  0  0  0  0  0  0  0  0  0
   -3.8786   -1.8920    0.9996 H   0  0  0  0  0  0  0  0  0  0  0  0
   -3.2846   -2.8280   -0.3984 H   0  0  0  0  0  0  0  0  0  0  0  0
   -1.7586   -2.0580    0.8686 C   0  0  0  0  0  0  0  0  0  0  0  0
   -0.9666   -2.6340    1.6026 O   0  0  0  0  0  0  0  0  0  0  0  0
   -1.4866   -0.9220    0.2366 N   0  0  0  0  0  0  0  0  0  0  0  0
   -2.2166   -0.4790   -0.2994 H   0  0  0  0  0  0  0  0  0  0  0  0
   -0.1956   -0.2250    0.2596 C   0  0  1  0  0  0  0  0  0  0  0  0
    0.5755   -0.9013   -0.1105 H   0  0  0  0  0  0  0  0  0  0  0  0
   -0.2553    0.9811   -0.6992 C   0  0  0  0  0  0  0  0  0  0  0  0
   -1.2504    1.0065   -1.1460 H   0  0  0  0  0  0  0  0  0  0  0  0
   -0.1093    1.9007   -0.1306 H   0  0  0  0  0  0  0  0  0  0  0  0
    0.7853    0.9165   -1.8298 C   0  0  0  0  0  0  0  0  0  0  0  0
    1.3581   -0.0092   -1.7357 H   0  0  0  0  0  0  0  0  0  0  0  0
    0.2533    0.8880   -2.7844 H   0  0  0  0  0  0  0  0  0  0  0  0
    1.7614    2.1023   -1.8293 C   0  0  0  0  0  0  0  0  0  0  0  0
    1.5507    3.0449   -1.0333 O   0  5  0  0  0  0  0  0  0  0  0  0
    2.7290    2.0327   -2.6195 O   0  0  0  0  0  0  0  0  0  0  0  0
    0.1881    0.1678    1.7015 C   0  0  0  0  0  0  0  0  0  0  0  0
    1.3379    0.0002    2.1133 O   0  0  0  0  0  0  0  0  0  0  0  0
   -0.7666    0.7145    2.4656 N   0  0  0  0  0  0  0  0  0  0  0  0
   -1.6971    0.7705    2.0790 H   0  0  0  0  0  0  0  0  0  0  0  0
   -0.5716    1.1232    3.8542 C   0  0  0  0  0  0  0  0  0  0  0  0
    0.3083    1.7643    3.9293 H   0  0  0  0  0  0  0  0  0  0  0  0
   -1.4485    1.6640    4.2131 H   0  0  0  0  0  0  0  0  0  0  0  0
   -0.4137    0.2381    4.4736 H   0  0  0  0  0  0  0  0  0  0  0  0
  5  6  2  0  0  0  0
  5  7  1  0  0  0  0
  2  3  1  0  0  0  0
  2  4  1  0  0  0  0
  2  5  1  0  0  0  0
  1  2  1  0  0  0  0
 20 21  2  0  0  0  0
 20 22  1  0  0  0  0
 17 18  1  0  0  0  0
 17 19  2  0  0  0  0
 14 15  1  0  0  0  0
 14 16  1  0  0  0  0
 14 17  1  0  0  0  0
 11 12  1  0  0  0  0
 11 13  1  0  0  0  0
 11 14  1  0  0  0  0
  9 10  1  0  0  0  0
  9 11  1  0  0  0  0
  9 20  1  0  0  0  0
  7  8  1  0  0  0  0
  7  9  1  0  0  0  0
 24 25  1  0  0  0  0
 24 26  1  0  0  0  0
 24 27  1  0  0  0  0
 22 23  1  0  0  0  0
 22 24  1  0  0  0  0
M  CHG  1  18  -1
M  END
$$$$
default_name
  -OEChem-02102213163D

 27 26  0     1  0  0  0  0  0999 V2000
   -3.2406   -3.5400    1.2326 H   0  0  0  0  0  0  0  0  0  0  0  0
   -3.1436   -2.6190    0.6606 C   0  0  0  0  0  0  0  0  0  0  0  0
   -3.8786   -1.8920    0.9996 H   0  0  0  0  0  0  0  0  0  0  0  0
   -3.2846   -2.8280   -0.3984 H   0  0  0  0  0  0  0  0  0  0  0  0
   -1.7586   -2.0580    0.8686 C   0  0  0  0  0  0  0  0  0  0  0  0
   -0.9666   -2.6340    1.6026 O   0  0  0  0  0  0  0  0  0  0  0  0
   -1.4866   -0.9220    0.2366 N   0  0  0  0  0  0  0  0  0  0  0  0
   -2.2166   -0.4790   -0.2994 H   0  0  0  0  0  0  0  0  0  0  0  0
   -0.1956   -0.2250    0.2596 C   0  0  1  0  0  0  0  0  0  0  0  0
    0.5755   -0.9013   -0.1105 H   0  0  0  0  0  0  0  0  0  0  0  0
   -0.2553    0.9811   -0.6992 C   0  0  0  0  0  0  0  0  0  0  0  0
   -1.2504    1.0065   -1.1460 H   0  0  0  0  0  0  0  0  0  0  0  0
   -0.1093    1.9007   -0.1306 H   0  0  0  0  0  0  0  0  0  0  0  0
    0.7853    0.9165   -1.8298 C   0  0  0  0  0  0  0  0  0  0  0  0
    1.1697   -0.1036   -1.9037 H   0  0  0  0  0  0  0  0  0  0  0  0
    0.2843    1.1569   -2.7713 H   0  0  0  0  0  0  0  0  0  0  0  0
    1.9679    1.8752   -1.6264 C   0  0  0  0  0  0  0  0  0  0  0  0
    1.9173    2.6874   -0.6755 O   0  5  0  0  0  0  0  0  0  0  0  0
    2.9264    1.7605   -2.4222 O   0  0  0  0  0  0  0  0  0  0  0  0
    0.1881    0.1678    1.7015 C   0  0  0  0  0  0  0  0  0  0  0  0
    1.3379    0.0002    2.1133 O   0  0  0  0  0  0  0  0  0  0  0  0
   -0.7666    0.7145    2.4656 N   0  0  0  0  0  0  0  0  0  0  0  0
   -1.6971    0.7705    2.0790 H   0  0  0  0  0  0  0  0  0  0  0  0
   -0.5716    1.1232    3.8542 C   0  0  0  0  0  0  0  0  0  0  0  0
    0.3083    1.7643    3.9293 H   0  0  0  0  0  0  0  0  0  0  0  0
   -1.4485    1.6640    4.2131 H   0  0  0  0  0  0  0  0  0  0  0  0
   -0.4137    0.2381    4.4736 H   0  0  0  0  0  0  0  0  0  0  0  0
  5  6  2  0  0  0  0
  5  7  1  0  0  0  0
  2  3  1  0  0  0  0
  2  4  1  0  0  0  0
  2  5  1  0  0  0  0
  1  2  1  0  0  0  0
 20 21  2  0  0  0  0
 20 22  1  0  0  0  0
 17 18  1  0  0  0  0
 17 19  2  0  0  0  0
 14 15  1  0  0  0  0
 14 16  1  0  0  0  0
 14 17  1  0  0  0  0
 11 12  1  0  0  0  0
 11 13  1  0  0  0  0
 11 14  1  0  0  0  0
  9 10  1  0  0  0  0
  9 11  1  0  0  0  0
  9 20  1  0  0  0  0
  7  8  1  0  0  0  0
  7  9  1  0  0  0  0
 24 25  1  0  0  0  0
 24 26  1  0  0  0  0
 24 27  1  0  0  0  0
 22 23  1  0  0  0  0
 22 24  1  0  0  0  0
M  CHG  1  18  -1
M  END
$$$$
default_name
  -OEChem-02102213163D

 27 26  0     1  0  0  0  0  0999 V2000
   -3.2406   -3.5400    1.2326 H   0  0  0  0  0  0  0  0  0  0  0  0
   -3.1436   -2.6190    0.6606 C   0  0  0  0  0  0  0  0  0  0  0  0
   -3.8786   -1.8920    0.9996 H   0  0  0  0  0  0  0  0  0  0  0  0
   -3.2846   -2.8280   -0.3984 H   0  0  0  0  0  0  0  0  0  0  0  0
   -1.7586   -2.0580    0.8686 C   0  0  0  0  0  0  0  0  0  0  0  0
   -0.9666   -2.6340    1.6026 O   0  0  0  0  0  0  0  0  0  0  0  0
   -1.4866   -0.9220    0.2366 N   0  0  0  0  0  0  0  0  0  0  0  0
   -2.2166   -0.4790   -0.2994 H   0  0  0  0  0  0  0  0  0  0  0  0
   -0.1956   -0.2250    0.2596 C   0  0  1  0  0  0  0  0  0  0  0  0
    0.5755   -0.9013   -0.1105 H   0  0  0  0  0  0  0  0  0  0  0  0
   -0.2553    0.9811   -0.6992 C   0  0  0  0  0  0  0  0  0  0  0  0
   -1.2504    1.0065   -1.1460 H   0  0  0  0  0  0  0  0  0  0  0  0
   -0.1093    1.9007   -0.1306 H   0  0  0  0  0  0  0  0  0  0  0  0
    0.7853    0.9165   -1.8298 C   0  0  0  0  0  0  0  0  0  0  0  0
    0.9715   -0.1296   -2.0846 H   0  0  0  0  0  0  0  0  0  0  0  0
    0.3652    1.4084   -2.7112 H   0  0  0  0  0  0  0  0  0  0  0  0
    2.1218    1.5810   -1.4678 C   0  0  0  0  0  0  0  0  0  0  0  0
    2.1995    2.2098   -0.3885 O   0  5  0  0  0  0  0  0  0  0  0  0
    3.0631    1.4254   -2.2773 O   0  0  0  0  0  0  0  0  0  0  0  0
    0.1881    0.1678    1.7015 C   0  0  0  0  0  0  0  0  0  0  0  0
    1.3379    0.0002    2.1133 O   0  0  0  0  0  0  0  0  0  0  0  0
   -0.7666    0.7145    2.4656 N   0  0  0  0  0  0  0  0  0  0  0  0
   -1.6971    0.7705    2.0790 H   0  0  0  0  0  0  0  0  0  0  0  0
   -0.5716    1.1232    3.8542 C   0  0  0  0  0  0  0  0  0  0  0  0
    0.3083    1.7643    3.9293 H   0  0  0  0  0  0  0  0  0  0  0  0
   -1.4485    1.6640    4.2131 H   0  0  0  0  0  0  0  0  0  0  0  0
   -0.4137    0.2381    4.4736 H   0  0  0  0  0  0  0  0  0  0  0  0
  5  6  2  0  0  0  0
  5  7  1  0  0  0  0
  2  3  1  0  0  0  0
  2  4  1  0  0  0  0
  2  5  1  0  0  0  0
  1  2  1  0  0  0  0
 20 21  2  0  0  0  0
 20 22  1  0  0  0  0
 17 18  1  0  0  0  0
 17 19  2  0  0  0  0
 14 15  1  0  0  0  0
 14 16  1  0  0  0  0
 14 17  1  0  0  0  0
 11 12  1  0  0  0  0
 11 13  1  0  0  0  0
 11 14  1  0  0  0  0
  9 10  1  0  0  0  0
  9 11  1  0  0  0  0
  9 20  1  0  0  0  0
  7  8  1  0  0  0  0
  7  9  1  0  0  0  0
 24 25  1  0  0  0  0
 24 26  1  0  0  0  0
 24 27  1  0  0  0  0
 22 23  1  0  0  0  0
 22 24  1  0  0  0  0
M  CHG  1  18  -1
M  END
$$$$
default_name
  -OEChem-02102213163D

 27 26  0     1  0  0  0  0  0999 V2000
   -3.2406   -3.5400    1.2326 H   0  0  0  0  0  0  0  0  0  0  0  0
   -3.1436   -2.6190    0.6606 C   0  0  0  0  0  0  0  0  0  0  0  0
   -3.8786   -1.8920    0.9996 H   0  0  0  0  0  0  0  0  0  0  0  0
   -3.2846   -2.8280   -0.3984 H   0  0  0  0  0  0  0  0  0  0  0  0
   -1.7586   -2.0580    0.8686 C   0  0  0  0  0  0  0  0  0  0  0  0
   -0.9666   -2.6340    1.6026 O   0  0  0  0  0  0  0  0  0  0  0  0
   -1.4866   -0.9220    0.2366 N   0  0  0  0  0  0  0  0  0  0  0  0
   -2.2166   -0.4790   -0.2994 H   0  0  0  0  0  0  0  0  0  0  0  0
   -0.1956   -0.2250    0.2596 C   0  0  1  0  0  0  0  0  0  0  0  0
    0.5755   -0.9013   -0.1105 H   0  0  0  0  0  0  0  0  0  0  0  0
   -0.2553    0.9811   -0.6992 C   0  0  0  0  0  0  0  0  0  0  0  0
   -1.2504    1.0065   -1.1460 H   0  0  0  0  0  0  0  0  0  0  0  0
   -0.1093    1.9007   -0.1306 H   0  0  0  0  0  0  0  0  0  0  0  0
    0.7853    0.9165   -1.8298 C   0  0  0  0  0  0  0  0  0  0  0  0
    0.7772   -0.0853   -2.2660 H   0  0  0  0  0  0  0  0  0  0  0  0
    0.4906    1.6254   -2.6081 H   0  0  0  0  0  0  0  0  0  0  0  0
    2.2129    1.2398   -1.3646 C   0  0  0  0  0  0  0  0  0  0  0  0
    2.3781    1.6445   -0.1918 O   0  5  0  0  0  0  0  0  0  0  0  0
    3.1298    1.0504   -2.1945 O   0  0  0  0  0  0  0  0  0  0  0  0
    0.1881    0.1678    1.7015 C   0  0  0  0  0  0  0  0  0  0  0  0
    1.3379    0.0002    2.1133 O   0  0  0  0  0  0  0  0  0  0  0  0
   -0.7666    0.7145    2.4656 N   0  0  0  0  0  0  0  0  0  0  0  0
   -1.6971    0.7705    2.0790 H   0  0  0  0  0  0  0  0  0  0  0  0
   -0.5716    1.1232    3.8542 C   0  0  0  0  0  0  0  0  0  0  0  0
    0.3083    1.7643    3.9293 H   0  0  0  0  0  0  0  0  0  0  0  0
   -1.4485    1.6640    4.2131 H   0  0  0  0  0  0  0  0  0  0  0  0
   -0.4137    0.2381    4.4736 H   0  0  0  0  0  0  0  0  0  0  0  0
  5  6  2  0  0  0  0
  5  7  1  0  0  0  0
  2  3  1  0  0  0  0
  2  4  1  0  0  0  0
  2  5  1  0  0  0  0
  1  2  1  0  0  0  0
 20 21  2  0  0  0  0
 20 22  1  0  0  0  0
 17 18  1  0  0  0  0
 17 19  2  0  0  0  0
 14 15  1  0  0  0  0
 14 16  1  0  0  0  0
 14 17  1  0  0  0  0
 11 12  1  0  0  0  0
 11 13  1  0  0  0  0
 11 14  1  0  0  0  0
  9 10  1  0  0  0  0
  9 11  1  0  0  0  0
  9 20  1  0  0  0  0
  7  8  1  0  0  0  0
  7  9  1  0  0  0  0
 24 25  1  0  0  0  0
 24 26  1  0  0  0  0
 24 27  1  0  0  0  0
 22 23  1  0  0  0  0
 22 24  1  0  0  0  0
M  CHG  1  18  -1
M  END
$$$$
default_name
  -OEChem-02102213163D

 27 26  0     1  0  0  0  0  0999 V2000
   -3.2406   -3.5400    1.2326 H   0  0  0  0  0  0  0  0  0  0  0  0
   -3.1436   -2.6190    0.6606 C   0  0  0  0  0  0  0  0  0  0  0  0
   -3.8786   -1.8920    0.9996 H   0  0  0  0  0  0  0  0  0  0  0  0
   -3.2846   -2.8280   -0.3984 H   0  0  0  0  0  0  0  0  0  0  0  0
   -1.7586   -2.0580    0.8686 C   0  0  0  0  0  0  0  0  0  0  0  0
   -0.9666   -2.6340    1.6026 O   0  0  0  0  0  0  0  0  0  0  0  0
   -1.4866   -0.9220    0.2366 N   0  0  0  0  0  0  0  0  0  0  0  0
   -2.2166   -0.4790   -0.2994 H   0  0  0  0  0  0  0  0  0  0  0  0
   -0.1956   -0.2250    0.2596 C   0  0  1  0  0  0  0  0  0  0  0  0
    0.5755   -0.9013   -0.1105 H   0  0  0  0  0  0  0  0  0  0  0  0
   -0.2553    0.9811   -0.6992 C   0  0  0  0  0  0  0  0  0  0  0  0
   -1.2504    1.0065   -1.1460 H   0  0  0  0  0  0  0  0  0  0  0  0
   -0.1093    1.9007   -0.1306 H   0  0  0  0  0  0  0  0  0  0  0  0
    0.7853    0.9165   -1.8298 C   0  0  0  0  0  0  0  0  0  0  0  0
    0.5998    0.0263   -2.4356 H   0  0  0  0  0  0  0  0  0  0  0  0
    0.6519    1.7931   -2.4693 H   0  0  0  0  0  0  0  0  0  0  0  0
    2.2347    0.8748   -1.3236 C   0  0  0  0  0  0  0  0  0  0  0  0
    2.4409    1.0300   -0.0989 O   0  5  0  0  0  0  0  0  0  0  0  0
    3.1219    0.6609   -2.1794 O   0  0  0  0  0  0  0  0  0  0  0  0
    0.1881    0.1678    1.7015 C   0  0  0  0  0  0  0  0  0  0  0  0
    1.3379    0.0002    2.1133 O   0  0  0  0  0  0  0  0  0  0  0  0
   -0.7666    0.7145    2.4656 N   0  0  0  0  0  0  0  0  0  0  0  0
   -1.6971    0.7705    2.0790 H   0  0  0  0  0  0  0  0  0  0  0  0
   -0.5716    1.1232    3.8542 C   0  0  0  0  0  0  0  0  0  0  0  0
    0.3083    1.7643    3.9293 H   0  0  0  0  0  0  0  0  0  0  0  0
   -1.4485    1.6640    4.2131 H   0  0  0  0  0  0  0  0  0  0  0  0
   -0.4137    0.2381    4.4736 H   0  0  0  0  0  0  0  0  0  0  0  0
  5  6  2  0  0  0  0
  5  7  1  0  0  0  0
  2  3  1  0  0  0  0
  2  4  1  0  0  0  0
  2  5  1  0  0  0  0
  1  2  1  0  0  0  0
 20 21  2  0  0  0  0
 20 22  1  0  0  0  0
 17 18  1  0  0  0  0
 17 19  2  0  0  0  0
 14 15  1  0  0  0  0
 14 16  1  0  0  0  0
 14 17  1  0  0  0  0
 11 12  1  0  0  0  0
 11 13  1  0  0  0  0
 11 14  1  0  0  0  0
  9 10  1  0  0  0  0
  9 11  1  0  0  0  0
  9 20  1  0  0  0  0
  7  8  1  0  0  0  0
  7  9  1  0  0  0  0
 24 25  1  0  0  0  0
 24 26  1  0  0  0  0
 24 27  1  0  0  0  0
 22 23  1  0  0  0  0
 22 24  1  0  0  0  0
M  CHG  1  18  -1
M  END
$$$$
default_name
  -OEChem-02102213163D

 27 26  0     1  0  0  0  0  0999 V2000
   -3.2406   -3.5400    1.2326 H   0  0  0  0  0  0  0  0  0  0  0  0
   -3.1436   -2.6190    0.6606 C   0  0  0  0  0  0  0  0  0  0  0  0
   -3.8786   -1.8920    0.9996 H   0  0  0  0  0  0  0  0  0  0  0  0
   -3.2846   -2.8280   -0.3984 H   0  0  0  0  0  0  0  0  0  0  0  0
   -1.7586   -2.0580    0.8686 C   0  0  0  0  0  0  0  0  0  0  0  0
   -0.9666   -2.6340    1.6026 O   0  0  0  0  0  0  0  0  0  0  0  0
   -1.4866   -0.9220    0.2366 N   0  0  0  0  0  0  0  0  0  0  0  0
   -2.2166   -0.4790   -0.2994 H   0  0  0  0  0  0  0  0  0  0  0  0
   -0.1956   -0.2250    0.2596 C   0  0  1  0  0  0  0  0  0  0  0  0
    0.5755   -0.9013   -0.1105 H   0  0  0  0  0  0  0  0  0  0  0  0
   -0.2553    0.9811   -0.6992 C   0  0  0  0  0  0  0  0  0  0  0  0
   -1.2504    1.0065   -1.1460 H   0  0  0  0  0  0  0  0  0  0  0  0
   -0.1093    1.9007   -0.1306 H   0  0  0  0  0  0  0  0  0  0  0  0
    0.7853    0.9165   -1.8298 C   0  0  0  0  0  0  0  0  0  0  0  0
    0.4516    0.1975   -2.5819 H   0  0  0  0  0  0  0  0  0  0  0  0
    0.8381    1.9001   -2.3040 H   0  0  0  0  0  0  0  0  0  0  0  0
    2.1860    0.5109   -1.3477 C   0  0  0  0  0  0  0  0  0  0  0  0
    2.3836    0.4082   -0.1160 O   0  5  0  0  0  0  0  0  0  0  0  0
    3.0401    0.2836   -2.2331 O   0  0  0  0  0  0  0  0  0  0  0  0
    0.1881    0.1678    1.7015 C   0  0  0  0  0  0  0  0  0  0  0  0
    1.3379    0.0002    2.1133 O   0  0  0  0  0  0  0  0  0  0  0  0
   -0.7666    0.7145    2.4656 N   0  0  0  0  0  0  0  0  0  0  0  0
   -1.6971    0.7705    2.0790 H   0  0  0  0  0  0  0  0  0  0  0  0
   -0.5716    1.1232    3.8542 C   0  0  0  0  0  0  0  0  0  0  0  0
    0.3083    1.7643    3.9293 H   0  0  0  0  0  0  0  0  0  0  0  0
   -1.4485    1.6640    4.2131 H   0  0  0  0  0  0  0  0  0  0  0  0
   -0.4137    0.2381    4.4736 H   0  0  0  0  0  0  0  0  0  0  0  0
  5  6  2  0  0  0  0
  5  7  1  0  0  0  0
  2  3  1  0  0  0  0
  2  4  1  0  0  0  0
  2  5  1  0  0  0  0
  1  2  1  0  0  0  0
 20 21  2  0  0  0  0
 20 22  1  0  0  0  0
 17 18  1  0  0  0  0
 17 19  2  0  0  0  0
 14 15  1  0  0  0  0
 14 16  1  0  0  0  0
 14 17  1  0  0  0  0
 11 12  1  0  0  0  0
 11 13  1  0  0  0  0
 11 14  1  0  0  0  0
  9 10  1  0  0  0  0
  9 11  1  0  0  0  0
  9 20  1  0  0  0  0
  7  8  1  0  0  0  0
  7  9  1  0  0  0  0
 24 25  1  0  0  0  0
 24 26  1  0  0  0  0
 24 27  1  0  0  0  0
 22 23  1  0  0  0  0
 22 24  1  0  0  0  0
M  CHG  1  18  -1
M  END
$$$$
default_name
  -OEChem-02102213163D

 27 26  0     1  0  0  0  0  0999 V2000
   -3.2406   -3.5400    1.2326 H   0  0  0  0  0  0  0  0  0  0  0  0
   -3.1436   -2.6190    0.6606 C   0  0  0  0  0  0  0  0  0  0  0  0
   -3.8786   -1.8920    0.9996 H   0  0  0  0  0  0  0  0  0  0  0  0
   -3.2846   -2.8280   -0.3984 H   0  0  0  0  0  0  0  0  0  0  0  0
   -1.7586   -2.0580    0.8686 C   0  0  0  0  0  0  0  0  0  0  0  0
   -0.9666   -2.6340    1.6026 O   0  0  0  0  0  0  0  0  0  0  0  0
   -1.4866   -0.9220    0.2366 N   0  0  0  0  0  0  0  0  0  0  0  0
   -2.2166   -0.4790   -0.2994 H   0  0  0  0  0  0  0  0  0  0  0  0
   -0.1956   -0.2250    0.2596 C   0  0  1  0  0  0  0  0  0  0  0  0
    0.5755   -0.9013   -0.1105 H   0  0  0  0  0  0  0  0  0  0  0  0
   -0.2553    0.9811   -0.6992 C   0  0  0  0  0  0  0  0  0  0  0  0
   -1.2504    1.0065   -1.1460 H   0  0  0  0  0  0  0  0  0  0  0  0
   -0.1093    1.9007   -0.1306 H   0  0  0  0  0  0  0  0  0  0  0  0
    0.7853    0.9165   -1.8298 C   0  0  0  0  0  0  0  0  0  0  0  0
    0.3425    0.4166   -2.6947 H   0  0  0  0  0  0  0  0  0  0  0  0
    1.0365    1.9391   -2.1236 H   0  0  0  0  0  0  0  0  0  0  0  0
    2.0699    0.1729   -1.4352 C   0  0  0  0  0  0  0  0  0  0  0  0
    2.2102   -0.1785   -0.2421 O   0  5  0  0  0  0  0  0  0  0  0  0
    2.8899   -0.0559   -2.3520 O   0  0  0  0  0  0  0  0  0  0  0  0
    0.1881    0.1678    1.7015 C   0  0  0  0  0  0  0  0  0  0  0  0
    1.3379    0.0002    2.1133 O   0  0  0  0  0  0  0  0  0  0  0  0
   -0.7666    0.7145    2.4656 N   0  0  0  0  0  0  0  0  0  0  0  0
   -1.6971    0.7705    2.0790 H   0  0  0  0  0  0  0  0  0  0  0  0
   -0.5716    1.1232    3.8542 C   0  0  0  0  0  0  0  0  0  0  0  0
    0.3083    1.7643    3.9293 H   0  0  0  0  0  0  0  0  0  0  0  0
   -1.4485    1.6640    4.2131 H   0  0  0  0  0  0  0  0  0  0  0  0
   -0.4137    0.2381    4.4736 H   0  0  0  0  0  0  0  0  0  0  0  0
  5  6  2  0  0  0  0
  5  7  1  0  0  0  0
  2  3  1  0  0  0  0
  2  4  1  0  0  0  0
  2  5  1  0  0  0  0
  1  2  1  0  0  0  0
 20 21  2  0  0  0  0
 20 22  1  0  0  0  0
 17 18  1  0  0  0  0
 17 19  2  0  0  0  0
 14 15  1  0  0  0  0
 14 16  1  0  0  0  0
 14 17  1  0  0  0  0
 11 12  1  0  0  0  0
 11 13  1  0  0  0  0
 11 14  1  0  0  0  0
  9 10  1  0  0  0  0
  9 11  1  0  0  0  0
  9 20  1  0  0  0  0
  7  8  1  0  0  0  0
  7  9  1  0  0  0  0
 24 25  1  0  0  0  0
 24 26  1  0  0  0  0
 24 27  1  0  0  0  0
 22 23  1  0  0  0  0
 22 24  1  0  0  0  0
M  CHG  1  18  -1
M  END
$$$$
default_name
  -OEChem-02102213163D

 27 26  0     1  0  0  0  0  0999 V2000
   -3.2406   -3.5400    1.2326 H   0  0  0  0  0  0  0  0  0  0  0  0
   -3.1436   -2.6190    0.6606 C   0  0  0  0  0  0  0  0  0  0  0  0
   -3.8786   -1.8920    0.9996 H   0  0  0  0  0  0  0  0  0  0  0  0
   -3.2846   -2.8280   -0.3984 H   0  0  0  0  0  0  0  0  0  0  0  0
   -1.7586   -2.0580    0.8686 C   0  0  0  0  0  0  0  0  0  0  0  0
   -0.9666   -2.6340    1.6026 O   0  0  0  0  0  0  0  0  0  0  0  0
   -1.4866   -0.9220    0.2366 N   0  0  0  0  0  0  0  0  0  0  0  0
   -2.2166   -0.4790   -0.2994 H   0  0  0  0  0  0  0  0  0  0  0  0
   -0.1956   -0.2250    0.2596 C   0  0  1  0  0  0  0  0  0  0  0  0
    0.5755   -0.9013   -0.1105 H   0  0  0  0  0  0  0  0  0  0  0  0
   -0.2553    0.9811   -0.6992 C   0  0  0  0  0  0  0  0  0  0  0  0
   -1.2504    1.0065   -1.1460 H   0  0  0  0  0  0  0  0  0  0  0  0
   -0.1093    1.9007   -0.1306 H   0  0  0  0  0  0  0  0  0  0  0  0
    0.7853    0.9165   -1.8298 C   0  0  0  0  0  0  0  0  0  0  0  0
    0.2801    0.6689   -2.7666 H   0  0  0  0  0  0  0  0  0  0  0  0
    1.2337    1.9074   -1.9404 H   0  0  0  0  0  0  0  0  0  0  0  0
    1.8944   -0.1162   -1.5802 C   0  0  0  0  0  0  0  0  0  0  0  0
    1.9324   -0.6901   -0.4685 O   0  5  0  0  0  0  0  0  0  0  0  0
    2.6814   -0.3344   -2.5279 O   0  0  0  0  0  0  0  0  0  0  0  0
    0.1881    0.1678    1.7015 C   0  0  0  0  0  0  0  0  0  0  0  0
    1.3379    0.0002    2.1133 O   0  0  0  0  0  0  0  0  0  0  0  0
   -0.7666    0.7145    2.4656 N   0  0  0  0  0  0  0  0  0  0  0  0
   -1.6971    0.7705    2.0790 H   0  0  0  0  0  0  0  0  0  0  0  0
   -0.5716    1.1232    3.8542 C   0  0  0  0  0  0  0  0  0  0  0  0
    0.3083    1.7643    3.9293 H   0  0  0  0  0  0  0  0  0  0  0  0
   -1.4485    1.6640    4.2131 H   0  0  0  0  0  0  0  0  0  0  0  0
   -0.4137    0.2381    4.4736 H   0  0  0  0  0  0  0  0  0  0  0  0
  5  6  2  0  0  0  0
  5  7  1  0  0  0  0
  2  3  1  0  0  0  0
  2  4  1  0  0  0  0
  2  5  1  0  0  0  0
  1  2  1  0  0  0  0
 20 21  2  0  0  0  0
 20 22  1  0  0  0  0
 17 18  1  0  0  0  0
 17 19  2  0  0  0  0
 14 15  1  0  0  0  0
 14 16  1  0  0  0  0
 14 17  1  0  0  0  0
 11 12  1  0  0  0  0
 11 13  1  0  0  0  0
 11 14  1  0  0  0  0
  9 10  1  0  0  0  0
  9 11  1  0  0  0  0
  9 20  1  0  0  0  0
  7  8  1  0  0  0  0
  7  9  1  0  0  0  0
 24 25  1  0  0  0  0
 24 26  1  0  0  0  0
 24 27  1  0  0  0  0
 22 23  1  0  0  0  0
 22 24  1  0  0  0  0
M  CHG  1  18  -1
M  END
$$$$
default_name
  -OEChem-02102213163D

 27 26  0     1  0  0  0  0  0999 V2000
   -3.2406   -3.5400    1.2326 H   0  0  0  0  0  0  0  0  0  0  0  0
   -3.1436   -2.6190    0.6606 C   0  0  0  0  0  0  0  0  0  0  0  0
   -3.8786   -1.8920    0.9996 H   0  0  0  0  0  0  0  0  0  0  0  0
   -3.2846   -2.8280   -0.3984 H   0  0  0  0  0  0  0  0  0  0  0  0
   -1.7586   -2.0580    0.8686 C   0  0  0  0  0  0  0  0  0  0  0  0
   -0.9666   -2.6340    1.6026 O   0  0  0  0  0  0  0  0  0  0  0  0
   -1.4866   -0.9220    0.2366 N   0  0  0  0  0  0  0  0  0  0  0  0
   -2.2166   -0.4790   -0.2994 H   0  0  0  0  0  0  0  0  0  0  0  0
   -0.1956   -0.2250    0.2596 C   0  0  1  0  0  0  0  0  0  0  0  0
    0.5755   -0.9013   -0.1105 H   0  0  0  0  0  0  0  0  0  0  0  0
   -0.2553    0.9811   -0.6992 C   0  0  0  0  0  0  0  0  0  0  0  0
   -1.2504    1.0065   -1.1460 H   0  0  0  0  0  0  0  0  0  0  0  0
   -0.1093    1.9007   -0.1306 H   0  0  0  0  0  0  0  0  0  0  0  0
    0.7853    0.9165   -1.8298 C   0  0  0  0  0  0  0  0  0  0  0  0
    0.2687    0.9369   -2.7924 H   0  0  0  0  0  0  0  0  0  0  0  0
    1.4160    1.8072   -1.7669 H   0  0  0  0  0  0  0  0  0  0  0  0
    1.6715   -0.3366   -1.7727 C   0  0  0  0  0  0  0  0  0  0  0  0
    1.5692   -1.0918   -0.7798 O   0  5  0  0  0  0  0  0  0  0  0  0
    2.4290   -0.5330   -2.7489 O   0  0  0  0  0  0  0  0  0  0  0  0
    0.1881    0.1678    1.7015 C   0  0  0  0  0  0  0  0  0  0  0  0
    1.3379    0.0002    2.1133 O   0  0  0  0  0  0  0  0  0  0  0  0
   -0.7666    0.7145    2.4656 N   0  0  0  0  0  0  0  0  0  0  0  0
   -1.6971    0.7705    2.0790 H   0  0  0  0  0  0  0  0  0  0  0  0
   -0.5716    1.1232    3.8542 C   0  0  0  0  0  0  0  0  0  0  0  0
    0.3083    1.7643    3.9293 H   0  0  0  0  0  0  0  0  0  0  0  0
   -1.4485    1.6640    4.2131 H   0  0  0  0  0  0  0  0  0  0  0  0
   -0.4137    0.2381    4.4736 H   0  0  0  0  0  0  0  0  0  0  0  0
  5  6  2  0  0  0  0
  5  7  1  0  0  0  0
  2  3  1  0  0  0  0
  2  4  1  0  0  0  0
  2  5  1  0  0  0  0
  1  2  1  0  0  0  0
 20 21  2  0  0  0  0
 20 22  1  0  0  0  0
 17 18  1  0  0  0  0
 17 19  2  0  0  0  0
 14 15  1  0  0  0  0
 14 16  1  0  0  0  0
 14 17  1  0  0  0  0
 11 12  1  0  0  0  0
 11 13  1  0  0  0  0
 11 14  1  0  0  0  0
  9 10  1  0  0  0  0
  9 11  1  0  0  0  0
  9 20  1  0  0  0  0
  7  8  1  0  0  0  0
  7  9  1  0  0  0  0
 24 25  1  0  0  0  0
 24 26  1  0  0  0  0
 24 27  1  0  0  0  0
 22 23  1  0  0  0  0
 22 24  1  0  0  0  0
M  CHG  1  18  -1
M  END
$$$$
default_name
  -OEChem-02102213163D

 27 26  0     1  0  0  0  0  0999 V2000
   -3.2406   -3.5400    1.2326 H   0  0  0  0  0  0  0  0  0  0  0  0
   -3.1436   -2.6190    0.6606 C   0  0  0  0  0  0  0  0  0  0  0  0
   -3.8786   -1.8920    0.9996 H   0  0  0  0  0  0  0  0  0  0  0  0
   -3.2846   -2.8280   -0.3984 H   0  0  0  0  0  0  0  0  0  0  0  0
   -1.7586   -2.0580    0.8686 C   0  0  0  0  0  0  0  0  0  0  0  0
   -0.9666   -2.6340    1.6026 O   0  0  0  0  0  0  0  0  0  0  0  0
   -1.4866   -0.9220    0.2366 N   0  0  0  0  0  0  0  0  0  0  0  0
   -2.2166   -0.4790   -0.2994 H   0  0  0  0  0  0  0  0  0  0  0  0
   -0.1956   -0.2250    0.2596 C   0  0  1  0  0  0  0  0  0  0  0  0
    0.5755   -0.9013   -0.1105 H   0  0  0  0  0  0  0  0  0  0  0  0
   -0.2553    0.9811   -0.6992 C   0  0  0  0  0  0  0  0  0  0  0  0
   -1.2504    1.0065   -1.1460 H   0  0  0  0  0  0  0  0  0  0  0  0
   -0.1093    1.9007   -0.1306 H   0  0  0  0  0  0  0  0  0  0  0  0
    0.7853    0.9165   -1.8298 C   0  0  0  0  0  0  0  0  0  0  0  0
    0.3089    1.2026   -2.7706 H   0  0  0  0  0  0  0  0  0  0  0  0
    1.5712    1.6453   -1.6148 H   0  0  0  0  0  0  0  0  0  0  0  0
    1.4163   -0.4734   -1.9998 C   0  0  0  0  0  0  0  0  0  0  0  0
    1.1453   -1.3561   -1.1548 O   0  5  0  0  0  0  0  0  0  0  0  0
    2.1498   -0.6381   -2.9998 O   0  0  0  0  0  0  0  0  0  0  0  0
    0.1881    0.1678    1.7015 C   0  0  0  0  0  0  0  0  0  0  0  0
    1.3379    0.0002    2.1133 O   0  0  0  0  0  0  0  0  0  0  0  0
   -0.7666    0.7145    2.4656 N   0  0  0  0  0  0  0  0  0  0  0  0
   -1.6971    0.7705    2.0790 H   0  0  0  0  0  0  0  0  0  0  0  0
   -0.5716    1.1232    3.8542 C   0  0  0  0  0  0  0  0  0  0  0  0
    0.3083    1.7643    3.9293 H   0  0  0  0  0  0  0  0  0  0  0  0
   -1.4485    1.6640    4.2131 H   0  0  0  0  0  0  0  0  0  0  0  0
   -0.4137    0.2381    4.4736 H   0  0  0  0  0  0  0  0  0  0  0  0
  5  6  2  0  0  0  0
  5  7  1  0  0  0  0
  2  3  1  0  0  0  0
  2  4  1  0  0  0  0
  2  5  1  0  0  0  0
  1  2  1  0  0  0  0
 20 21  2  0  0  0  0
 20 22  1  0  0  0  0
 17 18  1  0  0  0  0
 17 19  2  0  0  0  0
 14 15  1  0  0  0  0
 14 16  1  0  0  0  0
 14 17  1  0  0  0  0
 11 12  1  0  0  0  0
 11 13  1  0  0  0  0
 11 14  1  0  0  0  0
  9 10  1  0  0  0  0
  9 11  1  0  0  0  0
  9 20  1  0  0  0  0
  7  8  1  0  0  0  0
  7  9  1  0  0  0  0
 24 25  1  0  0  0  0
 24 26  1  0  0  0  0
 24 27  1  0  0  0  0
 22 23  1  0  0  0  0
 22 24  1  0  0  0  0
M  CHG  1  18  -1
M  END
$$$$
default_name
  -OEChem-02102213163D

 27 26  0     1  0  0  0  0  0999 V2000
   -3.2406   -3.5400    1.2326 H   0  0  0  0  0  0  0  0  0  0  0  0
   -3.1436   -2.6190    0.6606 C   0  0  0  0  0  0  0  0  0  0  0  0
   -3.8786   -1.8920    0.9996 H   0  0  0  0  0  0  0  0  0  0  0  0
   -3.2846   -2.8280   -0.3984 H   0  0  0  0  0  0  0  0  0  0  0  0
   -1.7586   -2.0580    0.8686 C   0  0  0  0  0  0  0  0  0  0  0  0
   -0.9666   -2.6340    1.6026 O   0  0  0  0  0  0  0  0  0  0  0  0
   -1.4866   -0.9220    0.2366 N   0  0  0  0  0  0  0  0  0  0  0  0
   -2.2166   -0.4790   -0.2994 H   0  0  0  0  0  0  0  0  0  0  0  0
   -0.1956   -0.2250    0.2596 C   0  0  1  0  0  0  0  0  0  0  0  0
    0.5755   -0.9013   -0.1105 H   0  0  0  0  0  0  0  0  0  0  0  0
   -0.2553    0.9811   -0.6992 C   0  0  0  0  0  0  0  0  0  0  0  0
   -1.2504    1.0065   -1.1460 H   0  0  0  0  0  0  0  0  0  0  0  0
   -0.1093    1.9007   -0.1306 H   0  0  0  0  0  0  0  0  0  0  0  0
    0.7853    0.9165   -1.8298 C   0  0  0  0  0  0  0  0  0  0  0  0
    0.3980    1.4477   -2.7026 H   0  0  0  0  0  0  0  0  0  0  0  0
    1.6887    1.4328   -1.4945 H   0  0  0  0  0  0  0  0  0  0  0  0
    1.1462   -0.5173   -2.2458 C   0  0  0  0  0  0  0  0  0  0  0  0
    0.6896   -1.4652   -1.5680 O   0  5  0  0  0  0  0  0  0  0  0  0
    1.8629   -0.6425   -3.2636 O   0  0  0  0  0  0  0  0  0  0  0  0
    0.1881    0.1678    1.7015 C   0  0  0  0  0  0  0  0  0  0  0  0
    1.3379    0.0002    2.1133 O   0  0  0  0  0  0  0  0  0  0  0  0
   -0.7666    0.7145    2.4656 N   0  0  0  0  0  0  0  0  0  0  0  0
   -1.6971    0.7705    2.0790 H   0  0  0  0  0  0  0  0  0  0  0  0
   -0.5716    1.1232    3.8542 C   0  0  0  0  0  0  0  0  0  0  0  0
    0.3083    1.7643    3.9293 H   0  0  0  0  0  0  0  0  0  0  0  0
   -1.4485    1.6640    4.2131 H   0  0  0  0  0  0  0  0  0  0  0  0
   -0.4137    0.2381    4.4736 H   0  0  0  0  0  0  0  0  0  0  0  0
  5  6  2  0  0  0  0
  5  7  1  0  0  0  0
  2  3  1  0  0  0  0
  2  4  1  0  0  0  0
  2  5  1  0  0  0  0
  1  2  1  0  0  0  0
 20 21  2  0  0  0  0
 20 22  1  0  0  0  0
 17 18  1  0  0  0  0
 17 19  2  0  0  0  0
 14 15  1  0  0  0  0
 14 16  1  0  0  0  0
 14 17  1  0  0  0  0
 11 12  1  0  0  0  0
 11 13  1  0  0  0  0
 11 14  1  0  0  0  0
  9 10  1  0  0  0  0
  9 11  1  0  0  0  0
  9 20  1  0  0  0  0
  7  8  1  0  0  0  0
  7  9  1  0  0  0  0
 24 25  1  0  0  0  0
 24 26  1  0  0  0  0
 24 27  1  0  0  0  0
 22 23  1  0  0  0  0
 22 24  1  0  0  0  0
M  CHG  1  18  -1
M  END
$$$$
default_name
  -OEChem-02102213163D

 27 26  0     1  0  0  0  0  0999 V2000
   -3.2406   -3.5400    1.2326 H   0  0  0  0  0  0  0  0  0  0  0  0
   -3.1436   -2.6190    0.6606 C   0  0  0  0  0  0  0  0  0  0  0  0
   -3.8786   -1.8920    0.9996 H   0  0  0  0  0  0  0  0  0  0  0  0
   -3.2846   -2.8280   -0.3984 H   0  0  0  0  0  0  0  0  0  0  0  0
   -1.7586   -2.0580    0.8686 C   0  0  0  0  0  0  0  0  0  0  0  0
   -0.9666   -2.6340    1.6026 O   0  0  0  0  0  0  0  0  0  0  0  0
   -1.4866   -0.9220    0.2366 N   0  0  0  0  0  0  0  0  0  0  0  0
   -2.2166   -0.4790   -0.2994 H   0  0  0  0  0  0  0  0  0  0  0  0
   -0.1956   -0.2250    0.2596 C   0  0  1  0  0  0  0  0  0  0  0  0
    0.5755   -0.9013   -0.1105 H   0  0  0  0  0  0  0  0  0  0  0  0
   -0.2553    0.9811   -0.6992 C   0  0  0  0  0  0  0  0  0  0  0  0
   -1.2504    1.0065   -1.1460 H   0  0  0  0  0  0  0  0  0  0  0  0
   -0.1093    1.9007   -0.1306 H   0  0  0  0  0  0  0  0  0  0  0  0
    0.7853    0.9165   -1.8298 C   0  0  0  0  0  0  0  0  0  0  0  0
    0.5300    1.6556   -2.5930 H   0  0  0  0  0  0  0  0  0  0  0  0
    1.7604    1.1841   -1.4143 H   0  0  0  0  0  0  0  0  0  0  0  0
    0.8797   -0.4651   -2.4940 C   0  0  0  0  0  0  0  0  0  0  0  0
    0.2332   -1.4115   -1.9911 O   0  5  0  0  0  0  0  0  0  0  0  0
    1.5877   -0.5460   -3.5224 O   0  0  0  0  0  0  0  0  0  0  0  0
    0.1881    0.1678    1.7015 C   0  0  0  0  0  0  0  0  0  0  0  0
    1.3379    0.0002    2.1133 O   0  0  0  0  0  0  0  0  0  0  0  0
   -0.7666    0.7145    2.4656 N   0  0  0  0  0  0  0  0  0  0  0  0
   -1.6971    0.7705    2.0790 H   0  0  0  0  0  0  0  0  0  0  0  0
   -0.5716    1.1232    3.8542 C   0  0  0  0  0  0  0  0  0  0  0  0
    0.3083    1.7643    3.9293 H   0  0  0  0  0  0  0  0  0  0  0  0
   -1.4485    1.6640    4.2131 H   0  0  0  0  0  0  0  0  0  0  0  0
   -0.4137    0.2381    4.4736 H   0  0  0  0  0  0  0  0  0  0  0  0
  5  6  2  0  0  0  0
  5  7  1  0  0  0  0
  2  3  1  0  0  0  0
  2  4  1  0  0  0  0
  2  5  1  0  0  0  0
  1  2  1  0  0  0  0
 20 21  2  0  0  0  0
 20 22  1  0  0  0  0
 17 18  1  0  0  0  0
 17 19  2  0  0  0  0
 14 15  1  0  0  0  0
 14 16  1  0  0  0  0
 14 17  1  0  0  0  0
 11 12  1  0  0  0  0
 11 13  1  0  0  0  0
 11 14  1  0  0  0  0
  9 10  1  0  0  0  0
  9 11  1  0  0  0  0
  9 20  1  0  0  0  0
  7  8  1  0  0  0  0
  7  9  1  0  0  0  0
 24 25  1  0  0  0  0
 24 26  1  0  0  0  0
 24 27  1  0  0  0  0
 22 23  1  0  0  0  0
 22 24  1  0  0  0  0
M  CHG  1  18  -1
M  END
$$$$
default_name
  -OEChem-02102213163D

 27 26  0     1  0  0  0  0  0999 V2000
   -3.2406   -3.5400    1.2326 H   0  0  0  0  0  0  0  0  0  0  0  0
   -3.1436   -2.6190    0.6606 C   0  0  0  0  0  0  0  0  0  0  0  0
   -3.8786   -1.8920    0.9996 H   0  0  0  0  0  0  0  0  0  0  0  0
   -3.2846   -2.8280   -0.3984 H   0  0  0  0  0  0  0  0  0  0  0  0
   -1.7586   -2.0580    0.8686 C   0  0  0  0  0  0  0  0  0  0  0  0
   -0.9666   -2.6340    1.6026 O   0  0  0  0  0  0  0  0  0  0  0  0
   -1.4866   -0.9220    0.2366 N   0  0  0  0  0  0  0  0  0  0  0  0
   -2.2166   -0.4790   -0.2994 H   0  0  0  0  0  0  0  0  0  0  0  0
   -0.1956   -0.2250    0.2596 C   0  0  1  0  0  0  0  0  0  0  0  0
    0.5755   -0.9013   -0.1105 H   0  0  0  0  0  0  0  0  0  0  0  0
   -0.2553    0.9811   -0.6992 C   0  0  0  0  0  0  0  0  0  0  0  0
   -1.2504    1.0065   -1.1460 H   0  0  0  0  0  0  0  0  0  0  0  0
   -0.1093    1.9007   -0.1306 H   0  0  0  0  0  0  0  0  0  0  0  0
    0.7853    0.9165   -1.8298 C   0  0  0  0  0  0  0  0  0  0  0  0
    0.6959    1.8122   -2.4493 H   0  0  0  0  0  0  0  0  0  0  0  0
    1.7815    0.9162   -1.3796 H   0  0  0  0  0  0  0  0  0  0  0  0
    0.6349   -0.3206   -2.7276 C   0  0  0  0  0  0  0  0  0  0  0  0
   -0.1928   -1.1986   -2.3953 O   0  5  0  0  0  0  0  0  0  0  0  0
    1.3432   -0.3551   -3.7584 O   0  0  0  0  0  0  0  0  0  0  0  0
    0.1881    0.1678    1.7015 C   0  0  0  0  0  0  0  0  0  0  0  0
    1.3379    0.0002    2.1133 O   0  0  0  0  0  0  0  0  0  0  0  0
   -0.7666    0.7145    2.4656 N   0  0  0  0  0  0  0  0  0  0  0  0
   -1.6971    0.7705    2.0790 H   0  0  0  0  0  0  0  0  0  0  0  0
   -0.5716    1.1232    3.8542 C   0  0  0  0  0  0  0  0  0  0  0  0
    0.3083    1.7643    3.9293 H   0  0  0  0  0  0  0  0  0  0  0  0
   -1.4485    1.6640    4.2131 H   0  0  0  0  0  0  0  0  0  0  0  0
   -0.4137    0.2381    4.4736 H   0  0  0  0  0  0  0  0  0  0  0  0
  5  6  2  0  0  0  0
  5  7  1  0  0  0  0
  2  3  1  0  0  0  0
  2  4  1  0  0  0  0
  2  5  1  0  0  0  0
  1  2  1  0  0  0  0
 20 21  2  0  0  0  0
 20 22  1  0  0  0  0
 17 18  1  0  0  0  0
 17 19  2  0  0  0  0
 14 15  1  0  0  0  0
 14 16  1  0  0  0  0
 14 17  1  0  0  0  0
 11 12  1  0  0  0  0
 11 13  1  0  0  0  0
 11 14  1  0  0  0  0
  9 10  1  0  0  0  0
  9 11  1  0  0  0  0
  9 20  1  0  0  0  0
  7  8  1  0  0  0  0
  7  9  1  0  0  0  0
 24 25  1  0  0  0  0
 24 26  1  0  0  0  0
 24 27  1  0  0  0  0
 22 23  1  0  0  0  0
 22 24  1  0  0  0  0
M  CHG  1  18  -1
M  END
$$$$
default_name
  -OEChem-02102213163D

 27 26  0     1  0  0  0  0  0999 V2000
   -3.2406   -3.5400    1.2326 H   0  0  0  0  0  0  0  0  0  0  0  0
   -3.1436   -2.6190    0.6606 C   0  0  0  0  0  0  0  0  0  0  0  0
   -3.8786   -1.8920    0.9996 H   0  0  0  0  0  0  0  0  0  0  0  0
   -3.2846   -2.8280   -0.3984 H   0  0  0  0  0  0  0  0  0  0  0  0
   -1.7586   -2.0580    0.8686 C   0  0  0  0  0  0  0  0  0  0  0  0
   -0.9666   -2.6340    1.6026 O   0  0  0  0  0  0  0  0  0  0  0  0
   -1.4866   -0.9220    0.2366 N   0  0  0  0  0  0  0  0  0  0  0  0
   -2.2166   -0.4790   -0.2994 H   0  0  0  0  0  0  0  0  0  0  0  0
   -0.1956   -0.2250    0.2596 C   0  0  1  0  0  0  0  0  0  0  0  0
    0.5755   -0.9013   -0.1105 H   0  0  0  0  0  0  0  0  0  0  0  0
   -0.2553    0.9811   -0.6992 C   0  0  0  0  0  0  0  0  0  0  0  0
   -1.2504    1.0065   -1.1460 H   0  0  0  0  0  0  0  0  0  0  0  0
   -0.1093    1.9007   -0.1306 H   0  0  0  0  0  0  0  0  0  0  0  0
    0.7853    0.9165   -1.8298 C   0  0  0  0  0  0  0  0  0  0  0  0
    0.8843    1.9066   -2.2813 H   0  0  0  0  0  0  0  0  0  0  0  0
    1.7505    0.6473   -1.3928 H   0  0  0  0  0  0  0  0  0  0  0  0
    0.4285   -0.0935   -2.9306 C   0  0  0  0  0  0  0  0  0  0  0  0
   -0.5594   -0.8412   -2.7531 O   0  5  0  0  0  0  0  0  0  0  0  0
    1.1458   -0.0829   -3.9556 O   0  0  0  0  0  0  0  0  0  0  0  0
    0.1881    0.1678    1.7015 C   0  0  0  0  0  0  0  0  0  0  0  0
    1.3379    0.0002    2.1133 O   0  0  0  0  0  0  0  0  0  0  0  0
   -0.7666    0.7145    2.4656 N   0  0  0  0  0  0  0  0  0  0  0  0
   -1.6971    0.7705    2.0790 H   0  0  0  0  0  0  0  0  0  0  0  0
   -0.5716    1.1232    3.8542 C   0  0  0  0  0  0  0  0  0  0  0  0
    0.3083    1.7643    3.9293 H   0  0  0  0  0  0  0  0  0  0  0  0
   -1.4485    1.6640    4.2131 H   0  0  0  0  0  0  0  0  0  0  0  0
   -0.4137    0.2381    4.4736 H   0  0  0  0  0  0  0  0  0  0  0  0
  5  6  2  0  0  0  0
  5  7  1  0  0  0  0
  2  3  1  0  0  0  0
  2  4  1  0  0  0  0
  2  5  1  0  0  0  0
  1  2  1  0  0  0  0
 20 21  2  0  0  0  0
 20 22  1  0  0  0  0
 17 18  1  0  0  0  0
 17 19  2  0  0  0  0
 14 15  1  0  0  0  0
 14 16  1  0  0  0  0
 14 17  1  0  0  0  0
 11 12  1  0  0  0  0
 11 13  1  0  0  0  0
 11 14  1  0  0  0  0
  9 10  1  0  0  0  0
  9 11  1  0  0  0  0
  9 20  1  0  0  0  0
  7  8  1  0  0  0  0
  7  9  1  0  0  0  0
 24 25  1  0  0  0  0
 24 26  1  0  0  0  0
 24 27  1  0  0  0  0
 22 23  1  0  0  0  0
 22 24  1  0  0  0  0
M  CHG  1  18  -1
M  END
$$$$
default_name
  -OEChem-02102213163D

 27 26  0     1  0  0  0  0  0999 V2000
   -3.2406   -3.5400    1.2326 H   0  0  0  0  0  0  0  0  0  0  0  0
   -3.1436   -2.6190    0.6606 C   0  0  0  0  0  0  0  0  0  0  0  0
   -3.8786   -1.8920    0.9996 H   0  0  0  0  0  0  0  0  0  0  0  0
   -3.2846   -2.8280   -0.3984 H   0  0  0  0  0  0  0  0  0  0  0  0
   -1.7586   -2.0580    0.8686 C   0  0  0  0  0  0  0  0  0  0  0  0
   -0.9666   -2.6340    1.6026 O   0  0  0  0  0  0  0  0  0  0  0  0
   -1.4866   -0.9220    0.2366 N   0  0  0  0  0  0  0  0  0  0  0  0
   -2.2166   -0.4790   -0.2994 H   0  0  0  0  0  0  0  0  0  0  0  0
   -0.1956   -0.2250    0.2596 C   0  0  1  0  0  0  0  0  0  0  0  0
    0.5755   -0.9013   -0.1105 H   0  0  0  0  0  0  0  0  0  0  0  0
   -0.2553    0.9811   -0.6992 C   0  0  0  0  0  0  0  0  0  0  0  0
   -1.2504    1.0065   -1.1460 H   0  0  0  0  0  0  0  0  0  0  0  0
   -0.1093    1.9007   -0.1306 H   0  0  0  0  0  0  0  0  0  0  0  0
    0.7853    0.9165   -1.8298 C   0  0  0  0  0  0  0  0  0  0  0  0
    1.0825    1.9326   -2.1004 H   0  0  0  0  0  0  0  0  0  0  0  0
    1.6695    0.3958   -1.4529 H   0  0  0  0  0  0  0  0  0  0  0  0
    0.2745    0.2007   -3.0891 C   0  0  0  0  0  0  0  0  0  0  0  0
   -0.8416   -0.3636   -3.0401 O   0  5  0  0  0  0  0  0  0  0  0  0
    1.0091    0.2522   -4.1005 O   0  0  0  0  0  0  0  0  0  0  0  0
    0.1881    0.1678    1.7015 C   0  0  0  0  0  0  0  0  0  0  0  0
    1.3379    0.0002    2.1133 O   0  0  0  0  0  0  0  0  0  0  0  0
   -0.7666    0.7145    2.4656 N   0  0  0  0  0  0  0  0  0  0  0  0
   -1.6971    0.7705    2.0790 H   0  0  0  0  0  0  0  0  0  0  0  0
   -0.5716    1.1232    3.8542 C   0  0  0  0  0  0  0  0  0  0  0  0
    0.3083    1.7643    3.9293 H   0  0  0  0  0  0  0  0  0  0  0  0
   -1.4485    1.6640    4.2131 H   0  0  0  0  0  0  0  0  0  0  0  0
   -0.4137    0.2381    4.4736 H   0  0  0  0  0  0  0  0  0  0  0  0
  5  6  2  0  0  0  0
  5  7  1  0  0  0  0
  2  3  1  0  0  0  0
  2  4  1  0  0  0  0
  2  5  1  0  0  0  0
  1  2  1  0  0  0  0
 20 21  2  0  0  0  0
 20 22  1  0  0  0  0
 17 18  1  0  0  0  0
 17 19  2  0  0  0  0
 14 15  1  0  0  0  0
 14 16  1  0  0  0  0
 14 17  1  0  0  0  0
 11 12  1  0  0  0  0
 11 13  1  0  0  0  0
 11 14  1  0  0  0  0
  9 10  1  0  0  0  0
  9 11  1  0  0  0  0
  9 20  1  0  0  0  0
  7  8  1  0  0  0  0
  7  9  1  0  0  0  0
 24 25  1  0  0  0  0
 24 26  1  0  0  0  0
 24 27  1  0  0  0  0
 22 23  1  0  0  0  0
 22 24  1  0  0  0  0
M  CHG  1  18  -1
M  END
$$$$
default_name
  -OEChem-02102213163D

 27 26  0     1  0  0  0  0  0999 V2000
   -3.2406   -3.5400    1.2326 H   0  0  0  0  0  0  0  0  0  0  0  0
   -3.1436   -2.6190    0.6606 C   0  0  0  0  0  0  0  0  0  0  0  0
   -3.8786   -1.8920    0.9996 H   0  0  0  0  0  0  0  0  0  0  0  0
   -3.2846   -2.8280   -0.3984 H   0  0  0  0  0  0  0  0  0  0  0  0
   -1.7586   -2.0580    0.8686 C   0  0  0  0  0  0  0  0  0  0  0  0
   -0.9666   -2.6340    1.6026 O   0  0  0  0  0  0  0  0  0  0  0  0
   -1.4866   -0.9220    0.2366 N   0  0  0  0  0  0  0  0  0  0  0  0
   -2.2166   -0.4790   -0.2994 H   0  0  0  0  0  0  0  0  0  0  0  0
   -0.1956   -0.2250    0.2596 C   0  0  1  0  0  0  0  0  0  0  0  0
    0.5755   -0.9013   -0.1105 H   0  0  0  0  0  0  0  0  0  0  0  0
   -0.2553    0.9811   -0.6992 C   0  0  0  0  0  0  0  0  0  0  0  0
   -1.2504    1.0065   -1.1460 H   0  0  0  0  0  0  0  0  0  0  0  0
   -0.1093    1.9007   -0.1306 H   0  0  0  0  0  0  0  0  0  0  0  0
    0.7853    0.9165   -1.8298 C   0  0  0  0  0  0  0  0  0  0  0  0
    1.2769    1.8883   -1.9190 H   0  0  0  0  0  0  0  0  0  0  0  0
    1.5441    0.1788   -1.5559 H   0  0  0  0  0  0  0  0  0  0  0  0
    0.1835    0.5419   -3.1924 C   0  0  0  0  0  0  0  0  0  0  0  0
   -1.0202    0.2018   -3.2368 O   0  5  0  0  0  0  0  0  0  0  0  0
    0.9424    0.6272   -4.1834 O   0  0  0  0  0  0  0  0  0  0  0  0
    0.1881    0.1678    1.7015 C   0  0  0  0  0  0  0  0  0  0  0  0
    1.3379    0.0002    2.1133 O   0  0  0  0  0  0  0  0  0  0  0  0
   -0.7666    0.7145    2.4656 N   0  0  0  0  0  0  0  0  0  0  0  0
   -1.6971    0.7705    2.0790 H   0  0  0  0  0  0  0  0  0  0  0  0
   -0.5716    1.1232    3.8542 C   0  0  0  0  0  0  0  0  0  0  0  0
    0.3083    1.7643    3.9293 H   0  0  0  0  0  0  0  0  0  0  0  0
   -1.4485    1.6640    4.2131 H   0  0  0  0  0  0  0  0  0  0  0  0
   -0.4137    0.2381    4.4736 H   0  0  0  0  0  0  0  0  0  0  0  0
  5  6  2  0  0  0  0
  5  7  1  0  0  0  0
  2  3  1  0  0  0  0
  2  4  1  0  0  0  0
  2  5  1  0  0  0  0
  1  2  1  0  0  0  0
 20 21  2  0  0  0  0
 20 22  1  0  0  0  0
 17 18  1  0  0  0  0
 17 19  2  0  0  0  0
 14 15  1  0  0  0  0
 14 16  1  0  0  0  0
 14 17  1  0  0  0  0
 11 12  1  0  0  0  0
 11 13  1  0  0  0  0
 11 14  1  0  0  0  0
  9 10  1  0  0  0  0
  9 11  1  0  0  0  0
  9 20  1  0  0  0  0
  7  8  1  0  0  0  0
  7  9  1  0  0  0  0
 24 25  1  0  0  0  0
 24 26  1  0  0  0  0
 24 27  1  0  0  0  0
 22 23  1  0  0  0  0
 22 24  1  0  0  0  0
M  CHG  1  18  -1
M  END
$$$$
default_name
  -OEChem-02102213163D

 27 26  0     1  0  0  0  0  0999 V2000
   -3.2406   -3.5400    1.2326 H   0  0  0  0  0  0  0  0  0  0  0  0
   -3.1436   -2.6190    0.6606 C   0  0  0  0  0  0  0  0  0  0  0  0
   -3.8786   -1.8920    0.9996 H   0  0  0  0  0  0  0  0  0  0  0  0
   -3.2846   -2.8280   -0.3984 H   0  0  0  0  0  0  0  0  0  0  0  0
   -1.7586   -2.0580    0.8686 C   0  0  0  0  0  0  0  0  0  0  0  0
   -0.9666   -2.6340    1.6026 O   0  0  0  0  0  0  0  0  0  0  0  0
   -1.4866   -0.9220    0.2366 N   0  0  0  0  0  0  0  0  0  0  0  0
   -2.2166   -0.4790   -0.2994 H   0  0  0  0  0  0  0  0  0  0  0  0
   -0.1956   -0.2250    0.2596 C   0  0  1  0  0  0  0  0  0  0  0  0
    0.5755   -0.9013   -0.1105 H   0  0  0  0  0  0  0  0  0  0  0  0
   -0.2553    0.9811   -0.6992 C   0  0  0  0  0  0  0  0  0  0  0  0
   -1.2504    1.0065   -1.1460 H   0  0  0  0  0  0  0  0  0  0  0  0
   -0.1093    1.9007   -0.1306 H   0  0  0  0  0  0  0  0  0  0  0  0
    0.7853    0.9165   -1.8298 C   0  0  0  0  0  0  0  0  0  0  0  0
    1.4542    1.7767   -1.7494 H   0  0  0  0  0  0  0  0  0  0  0  0
    1.3828    0.0111   -1.6947 H   0  0  0  0  0  0  0  0  0  0  0  0
    0.1616    0.9069   -3.2334 C   0  0  0  0  0  0  0  0  0  0  0  0
   -1.0830    0.8162   -3.3298 O   0  5  0  0  0  0  0  0  0  0  0  0
    0.9502    1.0167   -4.1984 O   0  0  0  0  0  0  0  0  0  0  0  0
    0.1881    0.1678    1.7015 C   0  0  0  0  0  0  0  0  0  0  0  0
    1.3379    0.0002    2.1133 O   0  0  0  0  0  0  0  0  0  0  0  0
   -0.7666    0.7145    2.4656 N   0  0  0  0  0  0  0  0  0  0  0  0
   -1.6971    0.7705    2.0790 H   0  0  0  0  0  0  0  0  0  0  0  0
   -0.5716    1.1232    3.8542 C   0  0  0  0  0  0  0  0  0  0  0  0
    0.3083    1.7643    3.9293 H   0  0  0  0  0  0  0  0  0  0  0  0
   -1.4485    1.6640    4.2131 H   0  0  0  0  0  0  0  0  0  0  0  0
   -0.4137    0.2381    4.4736 H   0  0  0  0  0  0  0  0  0  0  0  0
  5  6  2  0  0  0  0
  5  7  1  0  0  0  0
  2  3  1  0  0  0  0
  2  4  1  0  0  0  0
  2  5  1  0  0  0  0
  1  2  1  0  0  0  0
 20 21  2  0  0  0  0
 20 22  1  0  0  0  0
 17 18  1  0  0  0  0
 17 19  2  0  0  0  0
 14 15  1  0  0  0  0
 14 16  1  0  0  0  0
 14 17  1  0  0  0  0
 11 12  1  0  0  0  0
 11 13  1  0  0  0  0
 11 14  1  0  0  0  0
  9 10  1  0  0  0  0
  9 11  1  0  0  0  0
  9 20  1  0  0  0  0
  7  8  1  0  0  0  0
  7  9  1  0  0  0  0
 24 25  1  0  0  0  0
 24 26  1  0  0  0  0
 24 27  1  0  0  0  0
 22 23  1  0  0  0  0
 22 24  1  0  0  0  0
M  CHG  1  18  -1
M  END
$$$$
default_name
  -OEChem-02102213163D

 27 26  0     1  0  0  0  0  0999 V2000
   -3.2406   -3.5400    1.2326 H   0  0  0  0  0  0  0  0  0  0  0  0
   -3.1436   -2.6190    0.6606 C   0  0  0  0  0  0  0  0  0  0  0  0
   -3.8786   -1.8920    0.9996 H   0  0  0  0  0  0  0  0  0  0  0  0
   -3.2846   -2.8280   -0.3984 H   0  0  0  0  0  0  0  0  0  0  0  0
   -1.7586   -2.0580    0.8686 C   0  0  0  0  0  0  0  0  0  0  0  0
   -0.9666   -2.6340    1.6026 O   0  0  0  0  0  0  0  0  0  0  0  0
   -1.4866   -0.9220    0.2366 N   0  0  0  0  0  0  0  0  0  0  0  0
   -2.2166   -0.4790   -0.2994 H   0  0  0  0  0  0  0  0  0  0  0  0
   -0.1956   -0.2250    0.2596 C   0  0  1  0  0  0  0  0  0  0  0  0
    0.5755   -0.9013   -0.1105 H   0  0  0  0  0  0  0  0  0  0  0  0
   -0.2553    0.9811   -0.6992 C   0  0  0  0  0  0  0  0  0  0  0  0
   -1.2504    1.0065   -1.1460 H   0  0  0  0  0  0  0  0  0  0  0  0
   -0.1093    1.9007   -0.1306 H   0  0  0  0  0  0  0  0  0  0  0  0
    0.7853    0.9165   -1.8298 C   0  0  0  0  0  0  0  0  0  0  0  0
    1.6025    1.6055   -1.6031 H   0  0  0  0  0  0  0  0  0  0  0  0
    1.1966   -0.0959   -1.8600 H   0  0  0  0  0  0  0  0  0  0  0  0
    0.2104    1.2708   -3.2093 C   0  0  0  0  0  0  0  0  0  0  0  0
   -1.0257    1.4380   -3.3126 O   0  5  0  0  0  0  0  0  0  0  0  0
    1.0320    1.3940   -4.1447 O   0  0  0  0  0  0  0  0  0  0  0  0
    0.1881    0.1678    1.7015 C   0  0  0  0  0  0  0  0  0  0  0  0
    1.3379    0.0002    2.1133 O   0  0  0  0  0  0  0  0  0  0  0  0
   -0.7666    0.7145    2.4656 N   0  0  0  0  0  0  0  0  0  0  0  0
   -1.6971    0.7705    2.0790 H   0  0  0  0  0  0  0  0  0  0  0  0
   -0.5716    1.1232    3.8542 C   0  0  0  0  0  0  0  0  0  0  0  0
    0.3083    1.7643    3.9293 H   0  0  0  0  0  0  0  0  0  0  0  0
   -1.4485    1.6640    4.2131 H   0  0  0  0  0  0  0  0  0  0  0  0
   -0.4137    0.2381    4.4736 H   0  0  0  0  0  0  0  0  0  0  0  0
  5  6  2  0  0  0  0
  5  7  1  0  0  0  0
  2  3  1  0  0  0  0
  2  4  1  0  0  0  0
  2  5  1  0  0  0  0
  1  2  1  0  0  0  0
 20 21  2  0  0  0  0
 20 22  1  0  0  0  0
 17 18  1  0  0  0  0
 17 19  2  0  0  0  0
 14 15  1  0  0  0  0
 14 16  1  0  0  0  0
 14 17  1  0  0  0  0
 11 12  1  0  0  0  0
 11 13  1  0  0  0  0
 11 14  1  0  0  0  0
  9 10  1  0  0  0  0
  9 11  1  0  0  0  0
  9 20  1  0  0  0  0
  7  8  1  0  0  0  0
  7  9  1  0  0  0  0
 24 25  1  0  0  0  0
 24 26  1  0  0  0  0
 24 27  1  0  0  0  0
 22 23  1  0  0  0  0
 22 24  1  0  0  0  0
M  CHG  1  18  -1
M  END
$$$$
default_name
  -OEChem-02102213163D

 27 26  0     1  0  0  0  0  0999 V2000
   -3.2406   -3.5400    1.2326 H   0  0  0  0  0  0  0  0  0  0  0  0
   -3.1436   -2.6190    0.6606 C   0  0  0  0  0  0  0  0  0  0  0  0
   -3.8786   -1.8920    0.9996 H   0  0  0  0  0  0  0  0  0  0  0  0
   -3.2846   -2.8280   -0.3984 H   0  0  0  0  0  0  0  0  0  0  0  0
   -1.7586   -2.0580    0.8686 C   0  0  0  0  0  0  0  0  0  0  0  0
   -0.9666   -2.6340    1.6026 O   0  0  0  0  0  0  0  0  0  0  0  0
   -1.4866   -0.9220    0.2366 N   0  0  0  0  0  0  0  0  0  0  0  0
   -2.2166   -0.4790   -0.2994 H   0  0  0  0  0  0  0  0  0  0  0  0
   -0.1956   -0.2250    0.2596 C   0  0  1  0  0  0  0  0  0  0  0  0
    0.5755   -0.9013   -0.1105 H   0  0  0  0  0  0  0  0  0  0  0  0
   -0.2553    0.9811   -0.6992 C   0  0  0  0  0  0  0  0  0  0  0  0
   -1.2504    1.0065   -1.1460 H   0  0  0  0  0  0  0  0  0  0  0  0
   -0.1093    1.9007   -0.1306 H   0  0  0  0  0  0  0  0  0  0  0  0
    0.7853    0.9165   -1.8298 C   0  0  0  0  0  0  0  0  0  0  0  0
    1.7115    1.3863   -1.4903 H   0  0  0  0  0  0  0  0  0  0  0  0
    0.9982   -0.1349   -2.0404 H   0  0  0  0  0  0  0  0  0  0  0  0
    0.3265    1.6088   -3.1218 C   0  0  0  0  0  0  0  0  0  0  0  0
   -0.8523    2.0247   -3.1865 O   0  5  0  0  0  0  0  0  0  0  0  0
    1.1823    1.7335   -4.0258 O   0  0  0  0  0  0  0  0  0  0  0  0
    0.1881    0.1678    1.7015 C   0  0  0  0  0  0  0  0  0  0  0  0
    1.3379    0.0002    2.1133 O   0  0  0  0  0  0  0  0  0  0  0  0
   -0.7666    0.7145    2.4656 N   0  0  0  0  0  0  0  0  0  0  0  0
   -1.6971    0.7705    2.0790 H   0  0  0  0  0  0  0  0  0  0  0  0
   -0.5716    1.1232    3.8542 C   0  0  0  0  0  0  0  0  0  0  0  0
    0.3083    1.7643    3.9293 H   0  0  0  0  0  0  0  0  0  0  0  0
   -1.4485    1.6640    4.2131 H   0  0  0  0  0  0  0  0  0  0  0  0
   -0.4137    0.2381    4.4736 H   0  0  0  0  0  0  0  0  0  0  0  0
  5  6  2  0  0  0  0
  5  7  1  0  0  0  0
  2  3  1  0  0  0  0
  2  4  1  0  0  0  0
  2  5  1  0  0  0  0
  1  2  1  0  0  0  0
 20 21  2  0  0  0  0
 20 22  1  0  0  0  0
 17 18  1  0  0  0  0
 17 19  2  0  0  0  0
 14 15  1  0  0  0  0
 14 16  1  0  0  0  0
 14 17  1  0  0  0  0
 11 12  1  0  0  0  0
 11 13  1  0  0  0  0
 11 14  1  0  0  0  0
  9 10  1  0  0  0  0
  9 11  1  0  0  0  0
  9 20  1  0  0  0  0
  7  8  1  0  0  0  0
  7  9  1  0  0  0  0
 24 25  1  0  0  0  0
 24 26  1  0  0  0  0
 24 27  1  0  0  0  0
 22 23  1  0  0  0  0
 22 24  1  0  0  0  0
M  CHG  1  18  -1
M  END
$$$$
default_name
  -OEChem-02102213163D

 27 26  0     1  0  0  0  0  0999 V2000
   -3.2406   -3.5400    1.2326 H   0  0  0  0  0  0  0  0  0  0  0  0
   -3.1436   -2.6190    0.6606 C   0  0  0  0  0  0  0  0  0  0  0  0
   -3.8786   -1.8920    0.9996 H   0  0  0  0  0  0  0  0  0  0  0  0
   -3.2846   -2.8280   -0.3984 H   0  0  0  0  0  0  0  0  0  0  0  0
   -1.7586   -2.0580    0.8686 C   0  0  0  0  0  0  0  0  0  0  0  0
   -0.9666   -2.6340    1.6026 O   0  0  0  0  0  0  0  0  0  0  0  0
   -1.4866   -0.9220    0.2366 N   0  0  0  0  0  0  0  0  0  0  0  0
   -2.2166   -0.4790   -0.2994 H   0  0  0  0  0  0  0  0  0  0  0  0
   -0.1956   -0.2250    0.2596 C   0  0  1  0  0  0  0  0  0  0  0  0
    0.5755   -0.9013   -0.1105 H   0  0  0  0  0  0  0  0  0  0  0  0
   -0.2553    0.9811   -0.6992 C   0  0  0  0  0  0  0  0  0  0  0  0
   -1.2504    1.0065   -1.1460 H   0  0  0  0  0  0  0  0  0  0  0  0
   -0.1093    1.9007   -0.1306 H   0  0  0  0  0  0  0  0  0  0  0  0
    0.7853    0.9165   -1.8298 C   0  0  0  0  0  0  0  0  0  0  0  0
    1.7739    1.1341   -1.4184 H   0  0  0  0  0  0  0  0  0  0  0  0
    0.8011   -0.1032   -2.2236 H   0  0  0  0  0  0  0  0  0  0  0  0
    0.5020    1.8979   -2.9768 C   0  0  0  0  0  0  0  0  0  0  0  0
   -0.5745    2.5363   -2.9601 O   0  5  0  0  0  0  0  0  0  0  0  0
    1.3907    2.0120   -3.8499 O   0  0  0  0  0  0  0  0  0  0  0  0
    0.1881    0.1678    1.7015 C   0  0  0  0  0  0  0  0  0  0  0  0
    1.3379    0.0002    2.1133 O   0  0  0  0  0  0  0  0  0  0  0  0
   -0.7666    0.7145    2.4656 N   0  0  0  0  0  0  0  0  0  0  0  0
   -1.6971    0.7705    2.0790 H   0  0  0  0  0  0  0  0  0  0  0  0
   -0.5716    1.1232    3.8542 C   0  0  0  0  0  0  0  0  0  0  0  0
    0.3083    1.7643    3.9293 H   0  0  0  0  0  0  0  0  0  0  0  0
   -1.4485    1.6640    4.2131 H   0  0  0  0  0  0  0  0  0  0  0  0
   -0.4137    0.2381    4.4736 H   0  0  0  0  0  0  0  0  0  0  0  0
  5  6  2  0  0  0  0
  5  7  1  0  0  0  0
  2  3  1  0  0  0  0
  2  4  1  0  0  0  0
  2  5  1  0  0  0  0
  1  2  1  0  0  0  0
 20 21  2  0  0  0  0
 20 22  1  0  0  0  0
 17 18  1  0  0  0  0
 17 19  2  0  0  0  0
 14 15  1  0  0  0  0
 14 16  1  0  0  0  0
 14 17  1  0  0  0  0
 11 12  1  0  0  0  0
 11 13  1  0  0  0  0
 11 14  1  0  0  0  0
  9 10  1  0  0  0  0
  9 11  1  0  0  0  0
  9 20  1  0  0  0  0
  7  8  1  0  0  0  0
  7  9  1  0  0  0  0
 24 25  1  0  0  0  0
 24 26  1  0  0  0  0
 24 27  1  0  0  0  0
 22 23  1  0  0  0  0
 22 24  1  0  0  0  0
M  CHG  1  18  -1
M  END
$$$$
default_name
  -OEChem-02102213163D

 27 26  0     1  0  0  0  0  0999 V2000
   -3.2406   -3.5400    1.2326 H   0  0  0  0  0  0  0  0  0  0  0  0
   -3.1436   -2.6190    0.6606 C   0  0  0  0  0  0  0  0  0  0  0  0
   -3.8786   -1.8920    0.9996 H   0  0  0  0  0  0  0  0  0  0  0  0
   -3.2846   -2.8280   -0.3984 H   0  0  0  0  0  0  0  0  0  0  0  0
   -1.7586   -2.0580    0.8686 C   0  0  0  0  0  0  0  0  0  0  0  0
   -0.9666   -2.6340    1.6026 O   0  0  0  0  0  0  0  0  0  0  0  0
   -1.4866   -0.9220    0.2366 N   0  0  0  0  0  0  0  0  0  0  0  0
   -2.2166   -0.4790   -0.2994 H   0  0  0  0  0  0  0  0  0  0  0  0
   -0.1956   -0.2250    0.2596 C   0  0  1  0  0  0  0  0  0  0  0  0
    0.5755   -0.9013   -0.1105 H   0  0  0  0  0  0  0  0  0  0  0  0
   -0.2553    0.9811   -0.6992 C   0  0  0  0  0  0  0  0  0  0  0  0
   -1.3034    1.1702   -0.9367 H   0  0  0  0  0  0  0  0  0  0  0  0
    0.1483    1.8612   -0.1964 H   0  0  0  0  0  0  0  0  0  0  0  0
    0.5097    0.7562   -2.0143 C   0  0  0  0  0  0  0  0  0  0  0  0
    1.5566    0.5416   -1.7865 H   0  0  0  0  0  0  0  0  0  0  0  0
    0.0864   -0.1204   -2.5117 H   0  0  0  0  0  0  0  0  0  0  0  0
    0.4495    1.9582   -2.9685 C   0  0  0  0  0  0  0  0  0  0  0  0
   -0.2962    2.9177   -2.6690 O   0  5  0  0  0  0  0  0  0  0  0  0
    1.1796    1.9060   -3.9832 O   0  0  0  0  0  0  0  0  0  0  0  0
    0.1881    0.1678    1.7015 C   0  0  0  0  0  0  0  0  0  0  0  0
    1.3379    0.0002    2.1133 O   0  0  0  0  0  0  0  0  0  0  0  0
   -0.7666    0.7145    2.4656 N   0  0  0  0  0  0  0  0  0  0  0  0
   -1.6971    0.7705    2.0790 H   0  0  0  0  0  0  0  0  0  0  0  0
   -0.5716    1.1232    3.8542 C   0  0  0  0  0  0  0  0  0  0  0  0
    0.3083    1.7643    3.9293 H   0  0  0  0  0  0  0  0  0  0  0  0
   -1.4485    1.6640    4.2131 H   0  0  0  0  0  0  0  0  0  0  0  0
   -0.4137    0.2381    4.4736 H   0  0  0  0  0  0  0  0  0  0  0  0
  5  6  2  0  0  0  0
  5  7  1  0  0  0  0
  2  3  1  0  0  0  0
  2  4  1  0  0  0  0
  2  5  1  0  0  0  0
  1  2  1  0  0  0  0
 20 21  2  0  0  0  0
 20 22  1  0  0  0  0
 17 18  1  0  0  0  0
 17 19  2  0  0  0  0
 14 15  1  0  0  0  0
 14 16  1  0  0  0  0
 14 17  1  0  0  0  0
 11 12  1  0  0  0  0
 11 13  1  0  0  0  0
 11 14  1  0  0  0  0
  9 10  1  0  0  0  0
  9 11  1  0  0  0  0
  9 20  1  0  0  0  0
  7  8  1  0  0  0  0
  7  9  1  0  0  0  0
 24 25  1  0  0  0  0
 24 26  1  0  0  0  0
 24 27  1  0  0  0  0
 22 23  1  0  0  0  0
 22 24  1  0  0  0  0
M  CHG  1  18  -1
M  END
$$$$
default_name
  -OEChem-02102213163D

 27 26  0     1  0  0  0  0  0999 V2000
   -3.2406   -3.5400    1.2326 H   0  0  0  0  0  0  0  0  0  0  0  0
   -3.1436   -2.6190    0.6606 C   0  0  0  0  0  0  0  0  0  0  0  0
   -3.8786   -1.8920    0.9996 H   0  0  0  0  0  0  0  0  0  0  0  0
   -3.2846   -2.8280   -0.3984 H   0  0  0  0  0  0  0  0  0  0  0  0
   -1.7586   -2.0580    0.8686 C   0  0  0  0  0  0  0  0  0  0  0  0
   -0.9666   -2.6340    1.6026 O   0  0  0  0  0  0  0  0  0  0  0  0
   -1.4866   -0.9220    0.2366 N   0  0  0  0  0  0  0  0  0  0  0  0
   -2.2166   -0.4790   -0.2994 H   0  0  0  0  0  0  0  0  0  0  0  0
   -0.1956   -0.2250    0.2596 C   0  0  1  0  0  0  0  0  0  0  0  0
    0.5755   -0.9013   -0.1105 H   0  0  0  0  0  0  0  0  0  0  0  0
   -0.2553    0.9811   -0.6992 C   0  0  0  0  0  0  0  0  0  0  0  0
   -1.3034    1.1702   -0.9367 H   0  0  0  0  0  0  0  0  0  0  0  0
    0.1483    1.8612   -0.1964 H   0  0  0  0  0  0  0  0  0  0  0  0
    0.5097    0.7562   -2.0143 C   0  0  0  0  0  0  0  0  0  0  0  0
    1.4708    0.2861   -1.7926 H   0  0  0  0  0  0  0  0  0  0  0  0
   -0.0685    0.0654   -2.6337 H   0  0  0  0  0  0  0  0  0  0  0  0
    0.7641    2.0504   -2.8013 C   0  0  0  0  0  0  0  0  0  0  0  0
    0.2318    3.1075   -2.3943 O   0  5  0  0  0  0  0  0  0  0  0  0
    1.5171    1.9629   -3.7966 O   0  0  0  0  0  0  0  0  0  0  0  0
    0.1881    0.1678    1.7015 C   0  0  0  0  0  0  0  0  0  0  0  0
    1.3379    0.0002    2.1133 O   0  0  0  0  0  0  0  0  0  0  0  0
   -0.7666    0.7145    2.4656 N   0  0  0  0  0  0  0  0  0  0  0  0
   -1.6971    0.7705    2.0790 H   0  0  0  0  0  0  0  0  0  0  0  0
   -0.5716    1.1232    3.8542 C   0  0  0  0  0  0  0  0  0  0  0  0
    0.3083    1.7643    3.9293 H   0  0  0  0  0  0  0  0  0  0  0  0
   -1.4485    1.6640    4.2131 H   0  0  0  0  0  0  0  0  0  0  0  0
   -0.4137    0.2381    4.4736 H   0  0  0  0  0  0  0  0  0  0  0  0
  5  6  2  0  0  0  0
  5  7  1  0  0  0  0
  2  3  1  0  0  0  0
  2  4  1  0  0  0  0
  2  5  1  0  0  0  0
  1  2  1  0  0  0  0
 20 21  2  0  0  0  0
 20 22  1  0  0  0  0
 17 18  1  0  0  0  0
 17 19  2  0  0  0  0
 14 15  1  0  0  0  0
 14 16  1  0  0  0  0
 14 17  1  0  0  0  0
 11 12  1  0  0  0  0
 11 13  1  0  0  0  0
 11 14  1  0  0  0  0
  9 10  1  0  0  0  0
  9 11  1  0  0  0  0
  9 20  1  0  0  0  0
  7  8  1  0  0  0  0
  7  9  1  0  0  0  0
 24 25  1  0  0  0  0
 24 26  1  0  0  0  0
 24 27  1  0  0  0  0
 22 23  1  0  0  0  0
 22 24  1  0  0  0  0
M  CHG  1  18  -1
M  END
$$$$
default_name
  -OEChem-02102213163D

 27 26  0     1  0  0  0  0  0999 V2000
   -3.2406   -3.5400    1.2326 H   0  0  0  0  0  0  0  0  0  0  0  0
   -3.1436   -2.6190    0.6606 C   0  0  0  0  0  0  0  0  0  0  0  0
   -3.8786   -1.8920    0.9996 H   0  0  0  0  0  0  0  0  0  0  0  0
   -3.2846   -2.8280   -0.3984 H   0  0  0  0  0  0  0  0  0  0  0  0
   -1.7586   -2.0580    0.8686 C   0  0  0  0  0  0  0  0  0  0  0  0
   -0.9666   -2.6340    1.6026 O   0  0  0  0  0  0  0  0  0  0  0  0
   -1.4866   -0.9220    0.2366 N   0  0  0  0  0  0  0  0  0  0  0  0
   -2.2166   -0.4790   -0.2994 H   0  0  0  0  0  0  0  0  0  0  0  0
   -0.1956   -0.2250    0.2596 C   0  0  1  0  0  0  0  0  0  0  0  0
    0.5755   -0.9013   -0.1105 H   0  0  0  0  0  0  0  0  0  0  0  0
   -0.2553    0.9811   -0.6992 C   0  0  0  0  0  0  0  0  0  0  0  0
   -1.3034    1.1702   -0.9367 H   0  0  0  0  0  0  0  0  0  0  0  0
    0.1483    1.8612   -0.1964 H   0  0  0  0  0  0  0  0  0  0  0  0
    0.5097    0.7562   -2.0143 C   0  0  0  0  0  0  0  0  0  0  0  0
    1.3317    0.0591   -1.8347 H   0  0  0  0  0  0  0  0  0  0  0  0
   -0.1724    0.2950   -2.7334 H   0  0  0  0  0  0  0  0  0  0  0  0
    1.0820    2.0483   -2.6161 C   0  0  0  0  0  0  0  0  0  0  0  0
    0.7734    3.1386   -2.0846 O   0  5  0  0  0  0  0  0  0  0  0  0
    1.8486    1.9190   -3.5963 O   0  0  0  0  0  0  0  0  0  0  0  0
    0.1881    0.1678    1.7015 C   0  0  0  0  0  0  0  0  0  0  0  0
    1.3379    0.0002    2.1133 O   0  0  0  0  0  0  0  0  0  0  0  0
   -0.7666    0.7145    2.4656 N   0  0  0  0  0  0  0  0  0  0  0  0
   -1.6971    0.7705    2.0790 H   0  0  0  0  0  0  0  0  0  0  0  0
   -0.5716    1.1232    3.8542 C   0  0  0  0  0  0  0  0  0  0  0  0
    0.3083    1.7643    3.9293 H   0  0  0  0  0  0  0  0  0  0  0  0
   -1.4485    1.6640    4.2131 H   0  0  0  0  0  0  0  0  0  0  0  0
   -0.4137    0.2381    4.4736 H   0  0  0  0  0  0  0  0  0  0  0  0
  5  6  2  0  0  0  0
  5  7  1  0  0  0  0
  2  3  1  0  0  0  0
  2  4  1  0  0  0  0
  2  5  1  0  0  0  0
  1  2  1  0  0  0  0
 20 21  2  0  0  0  0
 20 22  1  0  0  0  0
 17 18  1  0  0  0  0
 17 19  2  0  0  0  0
 14 15  1  0  0  0  0
 14 16  1  0  0  0  0
 14 17  1  0  0  0  0
 11 12  1  0  0  0  0
 11 13  1  0  0  0  0
 11 14  1  0  0  0  0
  9 10  1  0  0  0  0
  9 11  1  0  0  0  0
  9 20  1  0  0  0  0
  7  8  1  0  0  0  0
  7  9  1  0  0  0  0
 24 25  1  0  0  0  0
 24 26  1  0  0  0  0
 24 27  1  0  0  0  0
 22 23  1  0  0  0  0
 22 24  1  0  0  0  0
M  CHG  1  18  -1
M  END
$$$$
default_name
  -OEChem-02102213163D

 27 26  0     1  0  0  0  0  0999 V2000
   -3.2406   -3.5400    1.2326 H   0  0  0  0  0  0  0  0  0  0  0  0
   -3.1436   -2.6190    0.6606 C   0  0  0  0  0  0  0  0  0  0  0  0
   -3.8786   -1.8920    0.9996 H   0  0  0  0  0  0  0  0  0  0  0  0
   -3.2846   -2.8280   -0.3984 H   0  0  0  0  0  0  0  0  0  0  0  0
   -1.7586   -2.0580    0.8686 C   0  0  0  0  0  0  0  0  0  0  0  0
   -0.9666   -2.6340    1.6026 O   0  0  0  0  0  0  0  0  0  0  0  0
   -1.4866   -0.9220    0.2366 N   0  0  0  0  0  0  0  0  0  0  0  0
   -2.2166   -0.4790   -0.2994 H   0  0  0  0  0  0  0  0  0  0  0  0
   -0.1956   -0.2250    0.2596 C   0  0  1  0  0  0  0  0  0  0  0  0
    0.5755   -0.9013   -0.1105 H   0  0  0  0  0  0  0  0  0  0  0  0
   -0.2553    0.9811   -0.6992 C   0  0  0  0  0  0  0  0  0  0  0  0
   -1.3034    1.1702   -0.9367 H   0  0  0  0  0  0  0  0  0  0  0  0
    0.1483    1.8612   -0.1964 H   0  0  0  0  0  0  0  0  0  0  0  0
    0.5097    0.7562   -2.0143 C   0  0  0  0  0  0  0  0  0  0  0  0
    1.1487   -0.1240   -1.9099 H   0  0  0  0  0  0  0  0  0  0  0  0
   -0.2182    0.5525   -2.8041 H   0  0  0  0  0  0  0  0  0  0  0  0
    1.3815    1.9520   -2.4253 C   0  0  0  0  0  0  0  0  0  0  0  0
    1.2916    3.0089   -1.7609 O   0  5  0  0  0  0  0  0  0  0  0  0
    2.1515    1.7776   -3.3959 O   0  0  0  0  0  0  0  0  0  0  0  0
    0.1881    0.1678    1.7015 C   0  0  0  0  0  0  0  0  0  0  0  0
    1.3379    0.0002    2.1133 O   0  0  0  0  0  0  0  0  0  0  0  0
   -0.7666    0.7145    2.4656 N   0  0  0  0  0  0  0  0  0  0  0  0
   -1.6971    0.7705    2.0790 H   0  0  0  0  0  0  0  0  0  0  0  0
   -0.5716    1.1232    3.8542 C   0  0  0  0  0  0  0  0  0  0  0  0
    0.3083    1.7643    3.9293 H   0  0  0  0  0  0  0  0  0  0  0  0
   -1.4485    1.6640    4.2131 H   0  0  0  0  0  0  0  0  0  0  0  0
   -0.4137    0.2381    4.4736 H   0  0  0  0  0  0  0  0  0  0  0  0
  5  6  2  0  0  0  0
  5  7  1  0  0  0  0
  2  3  1  0  0  0  0
  2  4  1  0  0  0  0
  2  5  1  0  0  0  0
  1  2  1  0  0  0  0
 20 21  2  0  0  0  0
 20 22  1  0  0  0  0
 17 18  1  0  0  0  0
 17 19  2  0  0  0  0
 14 15  1  0  0  0  0
 14 16  1  0  0  0  0
 14 17  1  0  0  0  0
 11 12  1  0  0  0  0
 11 13  1  0  0  0  0
 11 14  1  0  0  0  0
  9 10  1  0  0  0  0
  9 11  1  0  0  0  0
  9 20  1  0  0  0  0
  7  8  1  0  0  0  0
  7  9  1  0  0  0  0
 24 25  1  0  0  0  0
 24 26  1  0  0  0  0
 24 27  1  0  0  0  0
 22 23  1  0  0  0  0
 22 24  1  0  0  0  0
M  CHG  1  18  -1
M  END
$$$$
default_name
  -OEChem-02102213163D

 27 26  0     1  0  0  0  0  0999 V2000
   -3.2406   -3.5400    1.2326 H   0  0  0  0  0  0  0  0  0  0  0  0
   -3.1436   -2.6190    0.6606 C   0  0  0  0  0  0  0  0  0  0  0  0
   -3.8786   -1.8920    0.9996 H   0  0  0  0  0  0  0  0  0  0  0  0
   -3.2846   -2.8280   -0.3984 H   0  0  0  0  0  0  0  0  0  0  0  0
   -1.7586   -2.0580    0.8686 C   0  0  0  0  0  0  0  0  0  0  0  0
   -0.9666   -2.6340    1.6026 O   0  0  0  0  0  0  0  0  0  0  0  0
   -1.4866   -0.9220    0.2366 N   0  0  0  0  0  0  0  0  0  0  0  0
   -2.2166   -0.4790   -0.2994 H   0  0  0  0  0  0  0  0  0  0  0  0
   -0.1956   -0.2250    0.2596 C   0  0  1  0  0  0  0  0  0  0  0  0
    0.5755   -0.9013   -0.1105 H   0  0  0  0  0  0  0  0  0  0  0  0
   -0.2553    0.9811   -0.6992 C   0  0  0  0  0  0  0  0  0  0  0  0
   -1.3034    1.1702   -0.9367 H   0  0  0  0  0  0  0  0  0  0  0  0
    0.1483    1.8612   -0.1964 H   0  0  0  0  0  0  0  0  0  0  0  0
    0.5097    0.7562   -2.0143 C   0  0  0  0  0  0  0  0  0  0  0  0
    0.9342   -0.2506   -2.0130 H   0  0  0  0  0  0  0  0  0  0  0  0
   -0.2028    0.8205   -2.8409 H   0  0  0  0  0  0  0  0  0  0  0  0
    1.6424    1.7682   -2.2422 C   0  0  0  0  0  0  0  0  0  0  0  0
    1.7513    2.7272   -1.4454 O   0  5  0  0  0  0  0  0  0  0  0  0
    2.4053    1.5480   -3.2090 O   0  0  0  0  0  0  0  0  0  0  0  0
    0.1881    0.1678    1.7015 C   0  0  0  0  0  0  0  0  0  0  0  0
    1.3379    0.0002    2.1133 O   0  0  0  0  0  0  0  0  0  0  0  0
   -0.7666    0.7145    2.4656 N   0  0  0  0  0  0  0  0  0  0  0  0
   -1.6971    0.7705    2.0790 H   0  0  0  0  0  0  0  0  0  0  0  0
   -0.5716    1.1232    3.8542 C   0  0  0  0  0  0  0  0  0  0  0  0
    0.3083    1.7643    3.9293 H   0  0  0  0  0  0  0  0  0  0  0  0
   -1.4485    1.6640    4.2131 H   0  0  0  0  0  0  0  0  0  0  0  0
   -0.4137    0.2381    4.4736 H   0  0  0  0  0  0  0  0  0  0  0  0
  5  6  2  0  0  0  0
  5  7  1  0  0  0  0
  2  3  1  0  0  0  0
  2  4  1  0  0  0  0
  2  5  1  0  0  0  0
  1  2  1  0  0  0  0
 20 21  2  0  0  0  0
 20 22  1  0  0  0  0
 17 18  1  0  0  0  0
 17 19  2  0  0  0  0
 14 15  1  0  0  0  0
 14 16  1  0  0  0  0
 14 17  1  0  0  0  0
 11 12  1  0  0  0  0
 11 13  1  0  0  0  0
 11 14  1  0  0  0  0
  9 10  1  0  0  0  0
  9 11  1  0  0  0  0
  9 20  1  0  0  0  0
  7  8  1  0  0  0  0
  7  9  1  0  0  0  0
 24 25  1  0  0  0  0
 24 26  1  0  0  0  0
 24 27  1  0  0  0  0
 22 23  1  0  0  0  0
 22 24  1  0  0  0  0
M  CHG  1  18  -1
M  END
$$$$
default_name
  -OEChem-02102213163D

 27 26  0     1  0  0  0  0  0999 V2000
   -3.2406   -3.5400    1.2326 H   0  0  0  0  0  0  0  0  0  0  0  0
   -3.1436   -2.6190    0.6606 C   0  0  0  0  0  0  0  0  0  0  0  0
   -3.8786   -1.8920    0.9996 H   0  0  0  0  0  0  0  0  0  0  0  0
   -3.2846   -2.8280   -0.3984 H   0  0  0  0  0  0  0  0  0  0  0  0
   -1.7586   -2.0580    0.8686 C   0  0  0  0  0  0  0  0  0  0  0  0
   -0.9666   -2.6340    1.6026 O   0  0  0  0  0  0  0  0  0  0  0  0
   -1.4866   -0.9220    0.2366 N   0  0  0  0  0  0  0  0  0  0  0  0
   -2.2166   -0.4790   -0.2994 H   0  0  0  0  0  0  0  0  0  0  0  0
   -0.1956   -0.2250    0.2596 C   0  0  1  0  0  0  0  0  0  0  0  0
    0.5755   -0.9013   -0.1105 H   0  0  0  0  0  0  0  0  0  0  0  0
   -0.2553    0.9811   -0.6992 C   0  0  0  0  0  0  0  0  0  0  0  0
   -1.3034    1.1702   -0.9367 H   0  0  0  0  0  0  0  0  0  0  0  0
    0.1483    1.8612   -0.1964 H   0  0  0  0  0  0  0  0  0  0  0  0
    0.5097    0.7562   -2.0143 C   0  0  0  0  0  0  0  0  0  0  0  0
    0.7029   -0.3122   -2.1370 H   0  0  0  0  0  0  0  0  0  0  0  0
   -0.1272    1.0807   -2.8414 H   0  0  0  0  0  0  0  0  0  0  0  0
    1.8467    1.5093   -2.0790 C   0  0  0  0  0  0  0  0  0  0  0  0
    2.1210    2.3128   -1.1595 O   0  5  0  0  0  0  0  0  0  0  0  0
    2.5925    1.2461   -3.0485 O   0  0  0  0  0  0  0  0  0  0  0  0
    0.1881    0.1678    1.7015 C   0  0  0  0  0  0  0  0  0  0  0  0
    1.3379    0.0002    2.1133 O   0  0  0  0  0  0  0  0  0  0  0  0
   -0.7666    0.7145    2.4656 N   0  0  0  0  0  0  0  0  0  0  0  0
   -1.6971    0.7705    2.0790 H   0  0  0  0  0  0  0  0  0  0  0  0
   -0.5716    1.1232    3.8542 C   0  0  0  0  0  0  0  0  0  0  0  0
    0.3083    1.7643    3.9293 H   0  0  0  0  0  0  0  0  0  0  0  0
   -1.4485    1.6640    4.2131 H   0  0  0  0  0  0  0  0  0  0  0  0
   -0.4137    0.2381    4.4736 H   0  0  0  0  0  0  0  0  0  0  0  0
  5  6  2  0  0  0  0
  5  7  1  0  0  0  0
  2  3  1  0  0  0  0
  2  4  1  0  0  0  0
  2  5  1  0  0  0  0
  1  2  1  0  0  0  0
 20 21  2  0  0  0  0
 20 22  1  0  0  0  0
 17 18  1  0  0  0  0
 17 19  2  0  0  0  0
 14 15  1  0  0  0  0
 14 16  1  0  0  0  0
 14 17  1  0  0  0  0
 11 12  1  0  0  0  0
 11 13  1  0  0  0  0
 11 14  1  0  0  0  0
  9 10  1  0  0  0  0
  9 11  1  0  0  0  0
  9 20  1  0  0  0  0
  7  8  1  0  0  0  0
  7  9  1  0  0  0  0
 24 25  1  0  0  0  0
 24 26  1  0  0  0  0
 24 27  1  0  0  0  0
 22 23  1  0  0  0  0
 22 24  1  0  0  0  0
M  CHG  1  18  -1
M  END
$$$$
default_name
  -OEChem-02102213163D

 27 26  0     1  0  0  0  0  0999 V2000
   -3.2406   -3.5400    1.2326 H   0  0  0  0  0  0  0  0  0  0  0  0
   -3.1436   -2.6190    0.6606 C   0  0  0  0  0  0  0  0  0  0  0  0
   -3.8786   -1.8920    0.9996 H   0  0  0  0  0  0  0  0  0  0  0  0
   -3.2846   -2.8280   -0.3984 H   0  0  0  0  0  0  0  0  0  0  0  0
   -1.7586   -2.0580    0.8686 C   0  0  0  0  0  0  0  0  0  0  0  0
   -0.9666   -2.6340    1.6026 O   0  0  0  0  0  0  0  0  0  0  0  0
   -1.4866   -0.9220    0.2366 N   0  0  0  0  0  0  0  0  0  0  0  0
   -2.2166   -0.4790   -0.2994 H   0  0  0  0  0  0  0  0  0  0  0  0
   -0.1956   -0.2250    0.2596 C   0  0  1  0  0  0  0  0  0  0  0  0
    0.5755   -0.9013   -0.1105 H   0  0  0  0  0  0  0  0  0  0  0  0
   -0.2553    0.9811   -0.6992 C   0  0  0  0  0  0  0  0  0  0  0  0
   -1.3034    1.1702   -0.9367 H   0  0  0  0  0  0  0  0  0  0  0  0
    0.1483    1.8612   -0.1964 H   0  0  0  0  0  0  0  0  0  0  0  0
    0.5097    0.7562   -2.0143 C   0  0  0  0  0  0  0  0  0  0  0  0
    0.4706   -0.3045   -2.2735 H   0  0  0  0  0  0  0  0  0  0  0  0
    0.0034    1.3154   -2.8056 H   0  0  0  0  0  0  0  0  0  0  0  0
    1.9806    1.1931   -1.9470 C   0  0  0  0  0  0  0  0  0  0  0  0
    2.3756    1.7939   -0.9226 O   0  5  0  0  0  0  0  0  0  0  0  0
    2.7004    0.8924   -2.9252 O   0  0  0  0  0  0  0  0  0  0  0  0
    0.1881    0.1678    1.7015 C   0  0  0  0  0  0  0  0  0  0  0  0
    1.3379    0.0002    2.1133 O   0  0  0  0  0  0  0  0  0  0  0  0
   -0.7666    0.7145    2.4656 N   0  0  0  0  0  0  0  0  0  0  0  0
   -1.6971    0.7705    2.0790 H   0  0  0  0  0  0  0  0  0  0  0  0
   -0.5716    1.1232    3.8542 C   0  0  0  0  0  0  0  0  0  0  0  0
    0.3083    1.7643    3.9293 H   0  0  0  0  0  0  0  0  0  0  0  0
   -1.4485    1.6640    4.2131 H   0  0  0  0  0  0  0  0  0  0  0  0
   -0.4137    0.2381    4.4736 H   0  0  0  0  0  0  0  0  0  0  0  0
  5  6  2  0  0  0  0
  5  7  1  0  0  0  0
  2  3  1  0  0  0  0
  2  4  1  0  0  0  0
  2  5  1  0  0  0  0
  1  2  1  0  0  0  0
 20 21  2  0  0  0  0
 20 22  1  0  0  0  0
 17 18  1  0  0  0  0
 17 19  2  0  0  0  0
 14 15  1  0  0  0  0
 14 16  1  0  0  0  0
 14 17  1  0  0  0  0
 11 12  1  0  0  0  0
 11 13  1  0  0  0  0
 11 14  1  0  0  0  0
  9 10  1  0  0  0  0
  9 11  1  0  0  0  0
  9 20  1  0  0  0  0
  7  8  1  0  0  0  0
  7  9  1  0  0  0  0
 24 25  1  0  0  0  0
 24 26  1  0  0  0  0
 24 27  1  0  0  0  0
 22 23  1  0  0  0  0
 22 24  1  0  0  0  0
M  CHG  1  18  -1
M  END
$$$$
default_name
  -OEChem-02102213163D

 27 26  0     1  0  0  0  0  0999 V2000
   -3.2406   -3.5400    1.2326 H   0  0  0  0  0  0  0  0  0  0  0  0
   -3.1436   -2.6190    0.6606 C   0  0  0  0  0  0  0  0  0  0  0  0
   -3.8786   -1.8920    0.9996 H   0  0  0  0  0  0  0  0  0  0  0  0
   -3.2846   -2.8280   -0.3984 H   0  0  0  0  0  0  0  0  0  0  0  0
   -1.7586   -2.0580    0.8686 C   0  0  0  0  0  0  0  0  0  0  0  0
   -0.9666   -2.6340    1.6026 O   0  0  0  0  0  0  0  0  0  0  0  0
   -1.4866   -0.9220    0.2366 N   0  0  0  0  0  0  0  0  0  0  0  0
   -2.2166   -0.4790   -0.2994 H   0  0  0  0  0  0  0  0  0  0  0  0
   -0.1956   -0.2250    0.2596 C   0  0  1  0  0  0  0  0  0  0  0  0
    0.5755   -0.9013   -0.1105 H   0  0  0  0  0  0  0  0  0  0  0  0
   -0.2553    0.9811   -0.6992 C   0  0  0  0  0  0  0  0  0  0  0  0
   -1.3034    1.1702   -0.9367 H   0  0  0  0  0  0  0  0  0  0  0  0
    0.1483    1.8612   -0.1964 H   0  0  0  0  0  0  0  0  0  0  0  0
    0.5097    0.7562   -2.0143 C   0  0  0  0  0  0  0  0  0  0  0  0
    0.2530   -0.2282   -2.4131 H   0  0  0  0  0  0  0  0  0  0  0  0
    0.1802    1.5086   -2.7358 H   0  0  0  0  0  0  0  0  0  0  0  0
    2.0350    0.8409   -1.8552 C   0  0  0  0  0  0  0  0  0  0  0  0
    2.4977    1.2059   -0.7510 O   0  5  0  0  0  0  0  0  0  0  0  0
    2.7217    0.5110   -2.8476 O   0  0  0  0  0  0  0  0  0  0  0  0
    0.1881    0.1678    1.7015 C   0  0  0  0  0  0  0  0  0  0  0  0
    1.3379    0.0002    2.1133 O   0  0  0  0  0  0  0  0  0  0  0  0
   -0.7666    0.7145    2.4656 N   0  0  0  0  0  0  0  0  0  0  0  0
   -1.6971    0.7705    2.0790 H   0  0  0  0  0  0  0  0  0  0  0  0
   -0.5716    1.1232    3.8542 C   0  0  0  0  0  0  0  0  0  0  0  0
    0.3083    1.7643    3.9293 H   0  0  0  0  0  0  0  0  0  0  0  0
   -1.4485    1.6640    4.2131 H   0  0  0  0  0  0  0  0  0  0  0  0
   -0.4137    0.2381    4.4736 H   0  0  0  0  0  0  0  0  0  0  0  0
  5  6  2  0  0  0  0
  5  7  1  0  0  0  0
  2  3  1  0  0  0  0
  2  4  1  0  0  0  0
  2  5  1  0  0  0  0
  1  2  1  0  0  0  0
 20 21  2  0  0  0  0
 20 22  1  0  0  0  0
 17 18  1  0  0  0  0
 17 19  2  0  0  0  0
 14 15  1  0  0  0  0
 14 16  1  0  0  0  0
 14 17  1  0  0  0  0
 11 12  1  0  0  0  0
 11 13  1  0  0  0  0
 11 14  1  0  0  0  0
  9 10  1  0  0  0  0
  9 11  1  0  0  0  0
  9 20  1  0  0  0  0
  7  8  1  0  0  0  0
  7  9  1  0  0  0  0
 24 25  1  0  0  0  0
 24 26  1  0  0  0  0
 24 27  1  0  0  0  0
 22 23  1  0  0  0  0
 22 24  1  0  0  0  0
M  CHG  1  18  -1
M  END
$$$$
default_name
  -OEChem-02102213163D

 27 26  0     1  0  0  0  0  0999 V2000
   -3.2406   -3.5400    1.2326 H   0  0  0  0  0  0  0  0  0  0  0  0
   -3.1436   -2.6190    0.6606 C   0  0  0  0  0  0  0  0  0  0  0  0
   -3.8786   -1.8920    0.9996 H   0  0  0  0  0  0  0  0  0  0  0  0
   -3.2846   -2.8280   -0.3984 H   0  0  0  0  0  0  0  0  0  0  0  0
   -1.7586   -2.0580    0.8686 C   0  0  0  0  0  0  0  0  0  0  0  0
   -0.9666   -2.6340    1.6026 O   0  0  0  0  0  0  0  0  0  0  0  0
   -1.4866   -0.9220    0.2366 N   0  0  0  0  0  0  0  0  0  0  0  0
   -2.2166   -0.4790   -0.2994 H   0  0  0  0  0  0  0  0  0  0  0  0
   -0.1956   -0.2250    0.2596 C   0  0  1  0  0  0  0  0  0  0  0  0
    0.5755   -0.9013   -0.1105 H   0  0  0  0  0  0  0  0  0  0  0  0
   -0.2553    0.9811   -0.6992 C   0  0  0  0  0  0  0  0  0  0  0  0
   -1.3034    1.1702   -0.9367 H   0  0  0  0  0  0  0  0  0  0  0  0
    0.1483    1.8612   -0.1964 H   0  0  0  0  0  0  0  0  0  0  0  0
    0.5097    0.7562   -2.0143 C   0  0  0  0  0  0  0  0  0  0  0  0
    0.0650   -0.0882   -2.5464 H   0  0  0  0  0  0  0  0  0  0  0  0
    0.3911    1.6470   -2.6368 H   0  0  0  0  0  0  0  0  0  0  0  0
    2.0061    0.4770   -1.8098 C   0  0  0  0  0  0  0  0  0  0  0  0
    2.4790    0.5887   -0.6564 O   0  5  0  0  0  0  0  0  0  0  0  0
    2.6549    0.1279   -2.8209 O   0  0  0  0  0  0  0  0  0  0  0  0
    0.1881    0.1678    1.7015 C   0  0  0  0  0  0  0  0  0  0  0  0
    1.3379    0.0002    2.1133 O   0  0  0  0  0  0  0  0  0  0  0  0
   -0.7666    0.7145    2.4656 N   0  0  0  0  0  0  0  0  0  0  0  0
   -1.6971    0.7705    2.0790 H   0  0  0  0  0  0  0  0  0  0  0  0
   -0.5716    1.1232    3.8542 C   0  0  0  0  0  0  0  0  0  0  0  0
    0.3083    1.7643    3.9293 H   0  0  0  0  0  0  0  0  0  0  0  0
   -1.4485    1.6640    4.2131 H   0  0  0  0  0  0  0  0  0  0  0  0
   -0.4137    0.2381    4.4736 H   0  0  0  0  0  0  0  0  0  0  0  0
  5  6  2  0  0  0  0
  5  7  1  0  0  0  0
  2  3  1  0  0  0  0
  2  4  1  0  0  0  0
  2  5  1  0  0  0  0
  1  2  1  0  0  0  0
 20 21  2  0  0  0  0
 20 22  1  0  0  0  0
 17 18  1  0  0  0  0
 17 19  2  0  0  0  0
 14 15  1  0  0  0  0
 14 16  1  0  0  0  0
 14 17  1  0  0  0  0
 11 12  1  0  0  0  0
 11 13  1  0  0  0  0
 11 14  1  0  0  0  0
  9 10  1  0  0  0  0
  9 11  1  0  0  0  0
  9 20  1  0  0  0  0
  7  8  1  0  0  0  0
  7  9  1  0  0  0  0
 24 25  1  0  0  0  0
 24 26  1  0  0  0  0
 24 27  1  0  0  0  0
 22 23  1  0  0  0  0
 22 24  1  0  0  0  0
M  CHG  1  18  -1
M  END
$$$$
default_name
  -OEChem-02102213163D

 27 26  0     1  0  0  0  0  0999 V2000
   -3.2406   -3.5400    1.2326 H   0  0  0  0  0  0  0  0  0  0  0  0
   -3.1436   -2.6190    0.6606 C   0  0  0  0  0  0  0  0  0  0  0  0
   -3.8786   -1.8920    0.9996 H   0  0  0  0  0  0  0  0  0  0  0  0
   -3.2846   -2.8280   -0.3984 H   0  0  0  0  0  0  0  0  0  0  0  0
   -1.7586   -2.0580    0.8686 C   0  0  0  0  0  0  0  0  0  0  0  0
   -0.9666   -2.6340    1.6026 O   0  0  0  0  0  0  0  0  0  0  0  0
   -1.4866   -0.9220    0.2366 N   0  0  0  0  0  0  0  0  0  0  0  0
   -2.2166   -0.4790   -0.2994 H   0  0  0  0  0  0  0  0  0  0  0  0
   -0.1956   -0.2250    0.2596 C   0  0  1  0  0  0  0  0  0  0  0  0
    0.5755   -0.9013   -0.1105 H   0  0  0  0  0  0  0  0  0  0  0  0
   -0.2553    0.9811   -0.6992 C   0  0  0  0  0  0  0  0  0  0  0  0
   -1.3034    1.1702   -0.9367 H   0  0  0  0  0  0  0  0  0  0  0  0
    0.1483    1.8612   -0.1964 H   0  0  0  0  0  0  0  0  0  0  0  0
    0.5097    0.7562   -2.0143 C   0  0  0  0  0  0  0  0  0  0  0  0
   -0.0805    0.1057   -2.6642 H   0  0  0  0  0  0  0  0  0  0  0  0
    0.6216    1.7214   -2.5154 H   0  0  0  0  0  0  0  0  0  0  0  0
    1.8959    0.1259   -1.8138 C   0  0  0  0  0  0  0  0  0  0  0  0
    2.3208   -0.0155   -0.6451 O   0  5  0  0  0  0  0  0  0  0  0  0
    2.5046   -0.2309   -2.8470 O   0  0  0  0  0  0  0  0  0  0  0  0
    0.1881    0.1678    1.7015 C   0  0  0  0  0  0  0  0  0  0  0  0
    1.3379    0.0002    2.1133 O   0  0  0  0  0  0  0  0  0  0  0  0
   -0.7666    0.7145    2.4656 N   0  0  0  0  0  0  0  0  0  0  0  0
   -1.6971    0.7705    2.0790 H   0  0  0  0  0  0  0  0  0  0  0  0
   -0.5716    1.1232    3.8542 C   0  0  0  0  0  0  0  0  0  0  0  0
    0.3083    1.7643    3.9293 H   0  0  0  0  0  0  0  0  0  0  0  0
   -1.4485    1.6640    4.2131 H   0  0  0  0  0  0  0  0  0  0  0  0
   -0.4137    0.2381    4.4736 H   0  0  0  0  0  0  0  0  0  0  0  0
  5  6  2  0  0  0  0
  5  7  1  0  0  0  0
  2  3  1  0  0  0  0
  2  4  1  0  0  0  0
  2  5  1  0  0  0  0
  1  2  1  0  0  0  0
 20 21  2  0  0  0  0
 20 22  1  0  0  0  0
 17 18  1  0  0  0  0
 17 19  2  0  0  0  0
 14 15  1  0  0  0  0
 14 16  1  0  0  0  0
 14 17  1  0  0  0  0
 11 12  1  0  0  0  0
 11 13  1  0  0  0  0
 11 14  1  0  0  0  0
  9 10  1  0  0  0  0
  9 11  1  0  0  0  0
  9 20  1  0  0  0  0
  7  8  1  0  0  0  0
  7  9  1  0  0  0  0
 24 25  1  0  0  0  0
 24 26  1  0  0  0  0
 24 27  1  0  0  0  0
 22 23  1  0  0  0  0
 22 24  1  0  0  0  0
M  CHG  1  18  -1
M  END
$$$$
default_name
  -OEChem-02102213163D

 27 26  0     1  0  0  0  0  0999 V2000
   -3.2406   -3.5400    1.2326 H   0  0  0  0  0  0  0  0  0  0  0  0
   -3.1436   -2.6190    0.6606 C   0  0  0  0  0  0  0  0  0  0  0  0
   -3.8786   -1.8920    0.9996 H   0  0  0  0  0  0  0  0  0  0  0  0
   -3.2846   -2.8280   -0.3984 H   0  0  0  0  0  0  0  0  0  0  0  0
   -1.7586   -2.0580    0.8686 C   0  0  0  0  0  0  0  0  0  0  0  0
   -0.9666   -2.6340    1.6026 O   0  0  0  0  0  0  0  0  0  0  0  0
   -1.4866   -0.9220    0.2366 N   0  0  0  0  0  0  0  0  0  0  0  0
   -2.2166   -0.4790   -0.2994 H   0  0  0  0  0  0  0  0  0  0  0  0
   -0.1956   -0.2250    0.2596 C   0  0  1  0  0  0  0  0  0  0  0  0
    0.5755   -0.9013   -0.1105 H   0  0  0  0  0  0  0  0  0  0  0  0
   -0.2553    0.9811   -0.6992 C   0  0  0  0  0  0  0  0  0  0  0  0
   -1.3034    1.1702   -0.9367 H   0  0  0  0  0  0  0  0  0  0  0  0
    0.1483    1.8612   -0.1964 H   0  0  0  0  0  0  0  0  0  0  0  0
    0.5097    0.7562   -2.0143 C   0  0  0  0  0  0  0  0  0  0  0  0
   -0.1737    0.3403   -2.7585 H   0  0  0  0  0  0  0  0  0  0  0  0
    0.8562    1.7265   -2.3798 H   0  0  0  0  0  0  0  0  0  0  0  0
    1.7119   -0.1882   -1.8671 C   0  0  0  0  0  0  0  0  0  0  0  0
    2.0338   -0.5655   -0.7179 O   0  5  0  0  0  0  0  0  0  0  0  0
    2.2811   -0.5408   -2.9240 O   0  0  0  0  0  0  0  0  0  0  0  0
    0.1881    0.1678    1.7015 C   0  0  0  0  0  0  0  0  0  0  0  0
    1.3379    0.0002    2.1133 O   0  0  0  0  0  0  0  0  0  0  0  0
   -0.7666    0.7145    2.4656 N   0  0  0  0  0  0  0  0  0  0  0  0
   -1.6971    0.7705    2.0790 H   0  0  0  0  0  0  0  0  0  0  0  0
   -0.5716    1.1232    3.8542 C   0  0  0  0  0  0  0  0  0  0  0  0
    0.3083    1.7643    3.9293 H   0  0  0  0  0  0  0  0  0  0  0  0
   -1.4485    1.6640    4.2131 H   0  0  0  0  0  0  0  0  0  0  0  0
   -0.4137    0.2381    4.4736 H   0  0  0  0  0  0  0  0  0  0  0  0
  5  6  2  0  0  0  0
  5  7  1  0  0  0  0
  2  3  1  0  0  0  0
  2  4  1  0  0  0  0
  2  5  1  0  0  0  0
  1  2  1  0  0  0  0
 20 21  2  0  0  0  0
 20 22  1  0  0  0  0
 17 18  1  0  0  0  0
 17 19  2  0  0  0  0
 14 15  1  0  0  0  0
 14 16  1  0  0  0  0
 14 17  1  0  0  0  0
 11 12  1  0  0  0  0
 11 13  1  0  0  0  0
 11 14  1  0  0  0  0
  9 10  1  0  0  0  0
  9 11  1  0  0  0  0
  9 20  1  0  0  0  0
  7  8  1  0  0  0  0
  7  9  1  0  0  0  0
 24 25  1  0  0  0  0
 24 26  1  0  0  0  0
 24 27  1  0  0  0  0
 22 23  1  0  0  0  0
 22 24  1  0  0  0  0
M  CHG  1  18  -1
M  END
$$$$
default_name
  -OEChem-02102213163D

 27 26  0     1  0  0  0  0  0999 V2000
   -3.2406   -3.5400    1.2326 H   0  0  0  0  0  0  0  0  0  0  0  0
   -3.1436   -2.6190    0.6606 C   0  0  0  0  0  0  0  0  0  0  0  0
   -3.8786   -1.8920    0.9996 H   0  0  0  0  0  0  0  0  0  0  0  0
   -3.2846   -2.8280   -0.3984 H   0  0  0  0  0  0  0  0  0  0  0  0
   -1.7586   -2.0580    0.8686 C   0  0  0  0  0  0  0  0  0  0  0  0
   -0.9666   -2.6340    1.6026 O   0  0  0  0  0  0  0  0  0  0  0  0
   -1.4866   -0.9220    0.2366 N   0  0  0  0  0  0  0  0  0  0  0  0
   -2.2166   -0.4790   -0.2994 H   0  0  0  0  0  0  0  0  0  0  0  0
   -0.1956   -0.2250    0.2596 C   0  0  1  0  0  0  0  0  0  0  0  0
    0.5755   -0.9013   -0.1105 H   0  0  0  0  0  0  0  0  0  0  0  0
   -0.2553    0.9811   -0.6992 C   0  0  0  0  0  0  0  0  0  0  0  0
   -1.3034    1.1702   -0.9367 H   0  0  0  0  0  0  0  0  0  0  0  0
    0.1483    1.8612   -0.1964 H   0  0  0  0  0  0  0  0  0  0  0  0
    0.5097    0.7562   -2.0143 C   0  0  0  0  0  0  0  0  0  0  0  0
   -0.2083    0.5998   -2.8230 H   0  0  0  0  0  0  0  0  0  0  0  0
    1.0788    1.6621   -2.2394 H   0  0  0  0  0  0  0  0  0  0  0  0
    1.4667   -0.4441   -1.9660 C   0  0  0  0  0  0  0  0  0  0  0  0
    1.6376   -1.0238   -0.8700 O   0  5  0  0  0  0  0  0  0  0  0  0
    1.9994   -0.7807   -3.0468 O   0  0  0  0  0  0  0  0  0  0  0  0
    0.1881    0.1678    1.7015 C   0  0  0  0  0  0  0  0  0  0  0  0
    1.3379    0.0002    2.1133 O   0  0  0  0  0  0  0  0  0  0  0  0
   -0.7666    0.7145    2.4656 N   0  0  0  0  0  0  0  0  0  0  0  0
   -1.6971    0.7705    2.0790 H   0  0  0  0  0  0  0  0  0  0  0  0
   -0.5716    1.1232    3.8542 C   0  0  0  0  0  0  0  0  0  0  0  0
    0.3083    1.7643    3.9293 H   0  0  0  0  0  0  0  0  0  0  0  0
   -1.4485    1.6640    4.2131 H   0  0  0  0  0  0  0  0  0  0  0  0
   -0.4137    0.2381    4.4736 H   0  0  0  0  0  0  0  0  0  0  0  0
  5  6  2  0  0  0  0
  5  7  1  0  0  0  0
  2  3  1  0  0  0  0
  2  4  1  0  0  0  0
  2  5  1  0  0  0  0
  1  2  1  0  0  0  0
 20 21  2  0  0  0  0
 20 22  1  0  0  0  0
 17 18  1  0  0  0  0
 17 19  2  0  0  0  0
 14 15  1  0  0  0  0
 14 16  1  0  0  0  0
 14 17  1  0  0  0  0
 11 12  1  0  0  0  0
 11 13  1  0  0  0  0
 11 14  1  0  0  0  0
  9 10  1  0  0  0  0
  9 11  1  0  0  0  0
  9 20  1  0  0  0  0
  7  8  1  0  0  0  0
  7  9  1  0  0  0  0
 24 25  1  0  0  0  0
 24 26  1  0  0  0  0
 24 27  1  0  0  0  0
 22 23  1  0  0  0  0
 22 24  1  0  0  0  0
M  CHG  1  18  -1
M  END
$$$$
default_name
  -OEChem-02102213163D

 27 26  0     1  0  0  0  0  0999 V2000
   -3.2406   -3.5400    1.2326 H   0  0  0  0  0  0  0  0  0  0  0  0
   -3.1436   -2.6190    0.6606 C   0  0  0  0  0  0  0  0  0  0  0  0
   -3.8786   -1.8920    0.9996 H   0  0  0  0  0  0  0  0  0  0  0  0
   -3.2846   -2.8280   -0.3984 H   0  0  0  0  0  0  0  0  0  0  0  0
   -1.7586   -2.0580    0.8686 C   0  0  0  0  0  0  0  0  0  0  0  0
   -0.9666   -2.6340    1.6026 O   0  0  0  0  0  0  0  0  0  0  0  0
   -1.4866   -0.9220    0.2366 N   0  0  0  0  0  0  0  0  0  0  0  0
   -2.2166   -0.4790   -0.2994 H   0  0  0  0  0  0  0  0  0  0  0  0
   -0.1956   -0.2250    0.2596 C   0  0  1  0  0  0  0  0  0  0  0  0
    0.5755   -0.9013   -0.1105 H   0  0  0  0  0  0  0  0  0  0  0  0
   -0.2553    0.9811   -0.6992 C   0  0  0  0  0  0  0  0  0  0  0  0
   -1.3034    1.1702   -0.9367 H   0  0  0  0  0  0  0  0  0  0  0  0
    0.1483    1.8612   -0.1964 H   0  0  0  0  0  0  0  0  0  0  0  0
    0.5097    0.7562   -2.0143 C   0  0  0  0  0  0  0  0  0  0  0  0
   -0.1817    0.8663   -2.8532 H   0  0  0  0  0  0  0  0  0  0  0  0
    1.2742    1.5325   -2.1035 H   0  0  0  0  0  0  0  0  0  0  0  0
    1.1770   -0.6243   -2.1037 C   0  0  0  0  0  0  0  0  0  0  0  0
    1.1592   -1.3593   -1.0909 O   0  5  0  0  0  0  0  0  0  0  0  0
    1.6789   -0.9343   -3.2070 O   0  0  0  0  0  0  0  0  0  0  0  0
    0.1881    0.1678    1.7015 C   0  0  0  0  0  0  0  0  0  0  0  0
    1.3379    0.0002    2.1133 O   0  0  0  0  0  0  0  0  0  0  0  0
   -0.7666    0.7145    2.4656 N   0  0  0  0  0  0  0  0  0  0  0  0
   -1.6971    0.7705    2.0790 H   0  0  0  0  0  0  0  0  0  0  0  0
   -0.5716    1.1232    3.8542 C   0  0  0  0  0  0  0  0  0  0  0  0
    0.3083    1.7643    3.9293 H   0  0  0  0  0  0  0  0  0  0  0  0
   -1.4485    1.6640    4.2131 H   0  0  0  0  0  0  0  0  0  0  0  0
   -0.4137    0.2381    4.4736 H   0  0  0  0  0  0  0  0  0  0  0  0
  5  6  2  0  0  0  0
  5  7  1  0  0  0  0
  2  3  1  0  0  0  0
  2  4  1  0  0  0  0
  2  5  1  0  0  0  0
  1  2  1  0  0  0  0
 20 21  2  0  0  0  0
 20 22  1  0  0  0  0
 17 18  1  0  0  0  0
 17 19  2  0  0  0  0
 14 15  1  0  0  0  0
 14 16  1  0  0  0  0
 14 17  1  0  0  0  0
 11 12  1  0  0  0  0
 11 13  1  0  0  0  0
 11 14  1  0  0  0  0
  9 10  1  0  0  0  0
  9 11  1  0  0  0  0
  9 20  1  0  0  0  0
  7  8  1  0  0  0  0
  7  9  1  0  0  0  0
 24 25  1  0  0  0  0
 24 26  1  0  0  0  0
 24 27  1  0  0  0  0
 22 23  1  0  0  0  0
 22 24  1  0  0  0  0
M  CHG  1  18  -1
M  END
$$$$
default_name
  -OEChem-02102213163D

 27 26  0     1  0  0  0  0  0999 V2000
   -3.2406   -3.5400    1.2326 H   0  0  0  0  0  0  0  0  0  0  0  0
   -3.1436   -2.6190    0.6606 C   0  0  0  0  0  0  0  0  0  0  0  0
   -3.8786   -1.8920    0.9996 H   0  0  0  0  0  0  0  0  0  0  0  0
   -3.2846   -2.8280   -0.3984 H   0  0  0  0  0  0  0  0  0  0  0  0
   -1.7586   -2.0580    0.8686 C   0  0  0  0  0  0  0  0  0  0  0  0
   -0.9666   -2.6340    1.6026 O   0  0  0  0  0  0  0  0  0  0  0  0
   -1.4866   -0.9220    0.2366 N   0  0  0  0  0  0  0  0  0  0  0  0
   -2.2166   -0.4790   -0.2994 H   0  0  0  0  0  0  0  0  0  0  0  0
   -0.1956   -0.2250    0.2596 C   0  0  1  0  0  0  0  0  0  0  0  0
    0.5755   -0.9013   -0.1105 H   0  0  0  0  0  0  0  0  0  0  0  0
   -0.2553    0.9811   -0.6992 C   0  0  0  0  0  0  0  0  0  0  0  0
   -1.3034    1.1702   -0.9367 H   0  0  0  0  0  0  0  0  0  0  0  0
    0.1483    1.8612   -0.1964 H   0  0  0  0  0  0  0  0  0  0  0  0
    0.5097    0.7562   -2.0143 C   0  0  0  0  0  0  0  0  0  0  0  0
   -0.0960    1.1218   -2.8470 H   0  0  0  0  0  0  0  0  0  0  0  0
    1.4292    1.3467   -1.9816 H   0  0  0  0  0  0  0  0  0  0  0  0
    0.8624   -0.7164   -2.2709 C   0  0  0  0  0  0  0  0  0  0  0  0
    0.6313   -1.5491   -1.3655 O   0  5  0  0  0  0  0  0  0  0  0  0
    1.3414   -0.9911   -3.3936 O   0  0  0  0  0  0  0  0  0  0  0  0
    0.1881    0.1678    1.7015 C   0  0  0  0  0  0  0  0  0  0  0  0
    1.3379    0.0002    2.1133 O   0  0  0  0  0  0  0  0  0  0  0  0
   -0.7666    0.7145    2.4656 N   0  0  0  0  0  0  0  0  0  0  0  0
   -1.6971    0.7705    2.0790 H   0  0  0  0  0  0  0  0  0  0  0  0
   -0.5716    1.1232    3.8542 C   0  0  0  0  0  0  0  0  0  0  0  0
    0.3083    1.7643    3.9293 H   0  0  0  0  0  0  0  0  0  0  0  0
   -1.4485    1.6640    4.2131 H   0  0  0  0  0  0  0  0  0  0  0  0
   -0.4137    0.2381    4.4736 H   0  0  0  0  0  0  0  0  0  0  0  0
  5  6  2  0  0  0  0
  5  7  1  0  0  0  0
  2  3  1  0  0  0  0
  2  4  1  0  0  0  0
  2  5  1  0  0  0  0
  1  2  1  0  0  0  0
 20 21  2  0  0  0  0
 20 22  1  0  0  0  0
 17 18  1  0  0  0  0
 17 19  2  0  0  0  0
 14 15  1  0  0  0  0
 14 16  1  0  0  0  0
 14 17  1  0  0  0  0
 11 12  1  0  0  0  0
 11 13  1  0  0  0  0
 11 14  1  0  0  0  0
  9 10  1  0  0  0  0
  9 11  1  0  0  0  0
  9 20  1  0  0  0  0
  7  8  1  0  0  0  0
  7  9  1  0  0  0  0
 24 25  1  0  0  0  0
 24 26  1  0  0  0  0
 24 27  1  0  0  0  0
 22 23  1  0  0  0  0
 22 24  1  0  0  0  0
M  CHG  1  18  -1
M  END
$$$$
default_name
  -OEChem-02102213163D

 27 26  0     1  0  0  0  0  0999 V2000
   -3.2406   -3.5400    1.2326 H   0  0  0  0  0  0  0  0  0  0  0  0
   -3.1436   -2.6190    0.6606 C   0  0  0  0  0  0  0  0  0  0  0  0
   -3.8786   -1.8920    0.9996 H   0  0  0  0  0  0  0  0  0  0  0  0
   -3.2846   -2.8280   -0.3984 H   0  0  0  0  0  0  0  0  0  0  0  0
   -1.7586   -2.0580    0.8686 C   0  0  0  0  0  0  0  0  0  0  0  0
   -0.9666   -2.6340    1.6026 O   0  0  0  0  0  0  0  0  0  0  0  0
   -1.4866   -0.9220    0.2366 N   0  0  0  0  0  0  0  0  0  0  0  0
   -2.2166   -0.4790   -0.2994 H   0  0  0  0  0  0  0  0  0  0  0  0
   -0.1956   -0.2250    0.2596 C   0  0  1  0  0  0  0  0  0  0  0  0
    0.5755   -0.9013   -0.1105 H   0  0  0  0  0  0  0  0  0  0  0  0
   -0.2553    0.9811   -0.6992 C   0  0  0  0  0  0  0  0  0  0  0  0
   -1.3034    1.1702   -0.9367 H   0  0  0  0  0  0  0  0  0  0  0  0
    0.1483    1.8612   -0.1964 H   0  0  0  0  0  0  0  0  0  0  0  0
    0.5097    0.7562   -2.0143 C   0  0  0  0  0  0  0  0  0  0  0  0
    0.0431    1.3488   -2.8049 H   0  0  0  0  0  0  0  0  0  0  0  0
    1.5331    1.1171   -1.8819 H   0  0  0  0  0  0  0  0  0  0  0  0
    0.5445   -0.7143   -2.4562 C   0  0  0  0  0  0  0  0  0  0  0  0
    0.0897   -1.5802   -1.6753 O   0  5  0  0  0  0  0  0  0  0  0  0
    1.0099   -0.9473   -3.5939 O   0  0  0  0  0  0  0  0  0  0  0  0
    0.1881    0.1678    1.7015 C   0  0  0  0  0  0  0  0  0  0  0  0
    1.3379    0.0002    2.1133 O   0  0  0  0  0  0  0  0  0  0  0  0
   -0.7666    0.7145    2.4656 N   0  0  0  0  0  0  0  0  0  0  0  0
   -1.6971    0.7705    2.0790 H   0  0  0  0  0  0  0  0  0  0  0  0
   -0.5716    1.1232    3.8542 C   0  0  0  0  0  0  0  0  0  0  0  0
    0.3083    1.7643    3.9293 H   0  0  0  0  0  0  0  0  0  0  0  0
   -1.4485    1.6640    4.2131 H   0  0  0  0  0  0  0  0  0  0  0  0
   -0.4137    0.2381    4.4736 H   0  0  0  0  0  0  0  0  0  0  0  0
  5  6  2  0  0  0  0
  5  7  1  0  0  0  0
  2  3  1  0  0  0  0
  2  4  1  0  0  0  0
  2  5  1  0  0  0  0
  1  2  1  0  0  0  0
 20 21  2  0  0  0  0
 20 22  1  0  0  0  0
 17 18  1  0  0  0  0
 17 19  2  0  0  0  0
 14 15  1  0  0  0  0
 14 16  1  0  0  0  0
 14 17  1  0  0  0  0
 11 12  1  0  0  0  0
 11 13  1  0  0  0  0
 11 14  1  0  0  0  0
  9 10  1  0  0  0  0
  9 11  1  0  0  0  0
  9 20  1  0  0  0  0
  7  8  1  0  0  0  0
  7  9  1  0  0  0  0
 24 25  1  0  0  0  0
 24 26  1  0  0  0  0
 24 27  1  0  0  0  0
 22 23  1  0  0  0  0
 22 24  1  0  0  0  0
M  CHG  1  18  -1
M  END
$$$$
default_name
  -OEChem-02102213163D

 27 26  0     1  0  0  0  0  0999 V2000
   -3.2406   -3.5400    1.2326 H   0  0  0  0  0  0  0  0  0  0  0  0
   -3.1436   -2.6190    0.6606 C   0  0  0  0  0  0  0  0  0  0  0  0
   -3.8786   -1.8920    0.9996 H   0  0  0  0  0  0  0  0  0  0  0  0
   -3.2846   -2.8280   -0.3984 H   0  0  0  0  0  0  0  0  0  0  0  0
   -1.7586   -2.0580    0.8686 C   0  0  0  0  0  0  0  0  0  0  0  0
   -0.9666   -2.6340    1.6026 O   0  0  0  0  0  0  0  0  0  0  0  0
   -1.4866   -0.9220    0.2366 N   0  0  0  0  0  0  0  0  0  0  0  0
   -2.2166   -0.4790   -0.2994 H   0  0  0  0  0  0  0  0  0  0  0  0
   -0.1956   -0.2250    0.2596 C   0  0  1  0  0  0  0  0  0  0  0  0
    0.5755   -0.9013   -0.1105 H   0  0  0  0  0  0  0  0  0  0  0  0
   -0.2553    0.9811   -0.6992 C   0  0  0  0  0  0  0  0  0  0  0  0
   -1.3034    1.1702   -0.9367 H   0  0  0  0  0  0  0  0  0  0  0  0
    0.1483    1.8612   -0.1964 H   0  0  0  0  0  0  0  0  0  0  0  0
    0.5097    0.7562   -2.0143 C   0  0  0  0  0  0  0  0  0  0  0  0
    0.2262    1.5319   -2.7297 H   0  0  0  0  0  0  0  0  0  0  0  0
    1.5789    0.8596   -1.8112 H   0  0  0  0  0  0  0  0  0  0  0  0
    0.2450   -0.6181   -2.6469 C   0  0  0  0  0  0  0  0  0  0  0  0
   -0.4286   -1.4505   -1.9989 O   0  5  0  0  0  0  0  0  0  0  0  0
    0.7070   -0.8058   -3.7943 O   0  0  0  0  0  0  0  0  0  0  0  0
    0.1881    0.1678    1.7015 C   0  0  0  0  0  0  0  0  0  0  0  0
    1.3379    0.0002    2.1133 O   0  0  0  0  0  0  0  0  0  0  0  0
   -0.7666    0.7145    2.4656 N   0  0  0  0  0  0  0  0  0  0  0  0
   -1.6971    0.7705    2.0790 H   0  0  0  0  0  0  0  0  0  0  0  0
   -0.5716    1.1232    3.8542 C   0  0  0  0  0  0  0  0  0  0  0  0
    0.3083    1.7643    3.9293 H   0  0  0  0  0  0  0  0  0  0  0  0
   -1.4485    1.6640    4.2131 H   0  0  0  0  0  0  0  0  0  0  0  0
   -0.4137    0.2381    4.4736 H   0  0  0  0  0  0  0  0  0  0  0  0
  5  6  2  0  0  0  0
  5  7  1  0  0  0  0
  2  3  1  0  0  0  0
  2  4  1  0  0  0  0
  2  5  1  0  0  0  0
  1  2  1  0  0  0  0
 20 21  2  0  0  0  0
 20 22  1  0  0  0  0
 17 18  1  0  0  0  0
 17 19  2  0  0  0  0
 14 15  1  0  0  0  0
 14 16  1  0  0  0  0
 14 17  1  0  0  0  0
 11 12  1  0  0  0  0
 11 13  1  0  0  0  0
 11 14  1  0  0  0  0
  9 10  1  0  0  0  0
  9 11  1  0  0  0  0
  9 20  1  0  0  0  0
  7  8  1  0  0  0  0
  7  9  1  0  0  0  0
 24 25  1  0  0  0  0
 24 26  1  0  0  0  0
 24 27  1  0  0  0  0
 22 23  1  0  0  0  0
 22 24  1  0  0  0  0
M  CHG  1  18  -1
M  END
$$$$
default_name
  -OEChem-02102213163D

 27 26  0     1  0  0  0  0  0999 V2000
   -3.2406   -3.5400    1.2326 H   0  0  0  0  0  0  0  0  0  0  0  0
   -3.1436   -2.6190    0.6606 C   0  0  0  0  0  0  0  0  0  0  0  0
   -3.8786   -1.8920    0.9996 H   0  0  0  0  0  0  0  0  0  0  0  0
   -3.2846   -2.8280   -0.3984 H   0  0  0  0  0  0  0  0  0  0  0  0
   -1.7586   -2.0580    0.8686 C   0  0  0  0  0  0  0  0  0  0  0  0
   -0.9666   -2.6340    1.6026 O   0  0  0  0  0  0  0  0  0  0  0  0
   -1.4866   -0.9220    0.2366 N   0  0  0  0  0  0  0  0  0  0  0  0
   -2.2166   -0.4790   -0.2994 H   0  0  0  0  0  0  0  0  0  0  0  0
   -0.1956   -0.2250    0.2596 C   0  0  1  0  0  0  0  0  0  0  0  0
    0.5755   -0.9013   -0.1105 H   0  0  0  0  0  0  0  0  0  0  0  0
   -0.2553    0.9811   -0.6992 C   0  0  0  0  0  0  0  0  0  0  0  0
   -1.3034    1.1702   -0.9367 H   0  0  0  0  0  0  0  0  0  0  0  0
    0.1483    1.8612   -0.1964 H   0  0  0  0  0  0  0  0  0  0  0  0
    0.5097    0.7562   -2.0143 C   0  0  0  0  0  0  0  0  0  0  0  0
    0.4406    1.6586   -2.6266 H   0  0  0  0  0  0  0  0  0  0  0  0
    1.5635    0.5916   -1.7743 H   0  0  0  0  0  0  0  0  0  0  0  0
   -0.0159   -0.4342   -2.8301 C   0  0  0  0  0  0  0  0  0  0  0  0
   -0.8882   -1.1688   -2.3145 O   0  5  0  0  0  0  0  0  0  0  0  0
    0.4532   -0.5763   -3.9812 O   0  0  0  0  0  0  0  0  0  0  0  0
    0.1881    0.1678    1.7015 C   0  0  0  0  0  0  0  0  0  0  0  0
    1.3379    0.0002    2.1133 O   0  0  0  0  0  0  0  0  0  0  0  0
   -0.7666    0.7145    2.4656 N   0  0  0  0  0  0  0  0  0  0  0  0
   -1.6971    0.7705    2.0790 H   0  0  0  0  0  0  0  0  0  0  0  0
   -0.5716    1.1232    3.8542 C   0  0  0  0  0  0  0  0  0  0  0  0
    0.3083    1.7643    3.9293 H   0  0  0  0  0  0  0  0  0  0  0  0
   -1.4485    1.6640    4.2131 H   0  0  0  0  0  0  0  0  0  0  0  0
   -0.4137    0.2381    4.4736 H   0  0  0  0  0  0  0  0  0  0  0  0
  5  6  2  0  0  0  0
  5  7  1  0  0  0  0
  2  3  1  0  0  0  0
  2  4  1  0  0  0  0
  2  5  1  0  0  0  0
  1  2  1  0  0  0  0
 20 21  2  0  0  0  0
 20 22  1  0  0  0  0
 17 18  1  0  0  0  0
 17 19  2  0  0  0  0
 14 15  1  0  0  0  0
 14 16  1  0  0  0  0
 14 17  1  0  0  0  0
 11 12  1  0  0  0  0
 11 13  1  0  0  0  0
 11 14  1  0  0  0  0
  9 10  1  0  0  0  0
  9 11  1  0  0  0  0
  9 20  1  0  0  0  0
  7  8  1  0  0  0  0
  7  9  1  0  0  0  0
 24 25  1  0  0  0  0
 24 26  1  0  0  0  0
 24 27  1  0  0  0  0
 22 23  1  0  0  0  0
 22 24  1  0  0  0  0
M  CHG  1  18  -1
M  END
$$$$
default_name
  -OEChem-02102213163D

 27 26  0     1  0  0  0  0  0999 V2000
   -3.2406   -3.5400    1.2326 H   0  0  0  0  0  0  0  0  0  0  0  0
   -3.1436   -2.6190    0.6606 C   0  0  0  0  0  0  0  0  0  0  0  0
   -3.8786   -1.8920    0.9996 H   0  0  0  0  0  0  0  0  0  0  0  0
   -3.2846   -2.8280   -0.3984 H   0  0  0  0  0  0  0  0  0  0  0  0
   -1.7586   -2.0580    0.8686 C   0  0  0  0  0  0  0  0  0  0  0  0
   -0.9666   -2.6340    1.6026 O   0  0  0  0  0  0  0  0  0  0  0  0
   -1.4866   -0.9220    0.2366 N   0  0  0  0  0  0  0  0  0  0  0  0
   -2.2166   -0.4790   -0.2994 H   0  0  0  0  0  0  0  0  0  0  0  0
   -0.1956   -0.2250    0.2596 C   0  0  1  0  0  0  0  0  0  0  0  0
    0.5755   -0.9013   -0.1105 H   0  0  0  0  0  0  0  0  0  0  0  0
   -0.2553    0.9811   -0.6992 C   0  0  0  0  0  0  0  0  0  0  0  0
   -1.3034    1.1702   -0.9367 H   0  0  0  0  0  0  0  0  0  0  0  0
    0.1483    1.8612   -0.1964 H   0  0  0  0  0  0  0  0  0  0  0  0
    0.5097    0.7562   -2.0143 C   0  0  0  0  0  0  0  0  0  0  0  0
    0.6719    1.7201   -2.5026 H   0  0  0  0  0  0  0  0  0  0  0  0
    1.4879    0.3314   -1.7738 H   0  0  0  0  0  0  0  0  0  0  0  0
   -0.2202   -0.1754   -2.9932 C   0  0  0  0  0  0  0  0  0  0  0  0
   -1.2579   -0.7544   -2.6004 O   0  5  0  0  0  0  0  0  0  0  0  0
    0.2660   -0.2744   -4.1417 O   0  0  0  0  0  0  0  0  0  0  0  0
    0.1881    0.1678    1.7015 C   0  0  0  0  0  0  0  0  0  0  0  0
    1.3379    0.0002    2.1133 O   0  0  0  0  0  0  0  0  0  0  0  0
   -0.7666    0.7145    2.4656 N   0  0  0  0  0  0  0  0  0  0  0  0
   -1.6971    0.7705    2.0790 H   0  0  0  0  0  0  0  0  0  0  0  0
   -0.5716    1.1232    3.8542 C   0  0  0  0  0  0  0  0  0  0  0  0
    0.3083    1.7643    3.9293 H   0  0  0  0  0  0  0  0  0  0  0  0
   -1.4485    1.6640    4.2131 H   0  0  0  0  0  0  0  0  0  0  0  0
   -0.4137    0.2381    4.4736 H   0  0  0  0  0  0  0  0  0  0  0  0
  5  6  2  0  0  0  0
  5  7  1  0  0  0  0
  2  3  1  0  0  0  0
  2  4  1  0  0  0  0
  2  5  1  0  0  0  0
  1  2  1  0  0  0  0
 20 21  2  0  0  0  0
 20 22  1  0  0  0  0
 17 18  1  0  0  0  0
 17 19  2  0  0  0  0
 14 15  1  0  0  0  0
 14 16  1  0  0  0  0
 14 17  1  0  0  0  0
 11 12  1  0  0  0  0
 11 13  1  0  0  0  0
 11 14  1  0  0  0  0
  9 10  1  0  0  0  0
  9 11  1  0  0  0  0
  9 20  1  0  0  0  0
  7  8  1  0  0  0  0
  7  9  1  0  0  0  0
 24 25  1  0  0  0  0
 24 26  1  0  0  0  0
 24 27  1  0  0  0  0
 22 23  1  0  0  0  0
 22 24  1  0  0  0  0
M  CHG  1  18  -1
M  END
$$$$
default_name
  -OEChem-02102213163D

 27 26  0     1  0  0  0  0  0999 V2000
   -3.2406   -3.5400    1.2326 H   0  0  0  0  0  0  0  0  0  0  0  0
   -3.1436   -2.6190    0.6606 C   0  0  0  0  0  0  0  0  0  0  0  0
   -3.8786   -1.8920    0.9996 H   0  0  0  0  0  0  0  0  0  0  0  0
   -3.2846   -2.8280   -0.3984 H   0  0  0  0  0  0  0  0  0  0  0  0
   -1.7586   -2.0580    0.8686 C   0  0  0  0  0  0  0  0  0  0  0  0
   -0.9666   -2.6340    1.6026 O   0  0  0  0  0  0  0  0  0  0  0  0
   -1.4866   -0.9220    0.2366 N   0  0  0  0  0  0  0  0  0  0  0  0
   -2.2166   -0.4790   -0.2994 H   0  0  0  0  0  0  0  0  0  0  0  0
   -0.1956   -0.2250    0.2596 C   0  0  1  0  0  0  0  0  0  0  0  0
    0.5755   -0.9013   -0.1105 H   0  0  0  0  0  0  0  0  0  0  0  0
   -0.2553    0.9811   -0.6992 C   0  0  0  0  0  0  0  0  0  0  0  0
   -1.3034    1.1702   -0.9367 H   0  0  0  0  0  0  0  0  0  0  0  0
    0.1483    1.8612   -0.1964 H   0  0  0  0  0  0  0  0  0  0  0  0
    0.5097    0.7562   -2.0143 C   0  0  0  0  0  0  0  0  0  0  0  0
    0.9043    1.7125   -2.3662 H   0  0  0  0  0  0  0  0  0  0  0  0
    1.3572    0.0967   -1.8097 H   0  0  0  0  0  0  0  0  0  0  0  0
   -0.3541    0.1409   -3.1252 C   0  0  0  0  0  0  0  0  0  0  0  0
   -1.5125   -0.2355   -2.8372 O   0  5  0  0  0  0  0  0  0  0  0  0
    0.1581    0.0793   -4.2650 O   0  0  0  0  0  0  0  0  0  0  0  0
    0.1881    0.1678    1.7015 C   0  0  0  0  0  0  0  0  0  0  0  0
    1.3379    0.0002    2.1133 O   0  0  0  0  0  0  0  0  0  0  0  0
   -0.7666    0.7145    2.4656 N   0  0  0  0  0  0  0  0  0  0  0  0
   -1.6971    0.7705    2.0790 H   0  0  0  0  0  0  0  0  0  0  0  0
   -0.5716    1.1232    3.8542 C   0  0  0  0  0  0  0  0  0  0  0  0
    0.3083    1.7643    3.9293 H   0  0  0  0  0  0  0  0  0  0  0  0
   -1.4485    1.6640    4.2131 H   0  0  0  0  0  0  0  0  0  0  0  0
   -0.4137    0.2381    4.4736 H   0  0  0  0  0  0  0  0  0  0  0  0
  5  6  2  0  0  0  0
  5  7  1  0  0  0  0
  2  3  1  0  0  0  0
  2  4  1  0  0  0  0
  2  5  1  0  0  0  0
  1  2  1  0  0  0  0
 20 21  2  0  0  0  0
 20 22  1  0  0  0  0
 17 18  1  0  0  0  0
 17 19  2  0  0  0  0
 14 15  1  0  0  0  0
 14 16  1  0  0  0  0
 14 17  1  0  0  0  0
 11 12  1  0  0  0  0
 11 13  1  0  0  0  0
 11 14  1  0  0  0  0
  9 10  1  0  0  0  0
  9 11  1  0  0  0  0
  9 20  1  0  0  0  0
  7  8  1  0  0  0  0
  7  9  1  0  0  0  0
 24 25  1  0  0  0  0
 24 26  1  0  0  0  0
 24 27  1  0  0  0  0
 22 23  1  0  0  0  0
 22 24  1  0  0  0  0
M  CHG  1  18  -1
M  END
$$$$
default_name
  -OEChem-02102213163D

 27 26  0     1  0  0  0  0  0999 V2000
   -3.2406   -3.5400    1.2326 H   0  0  0  0  0  0  0  0  0  0  0  0
   -3.1436   -2.6190    0.6606 C   0  0  0  0  0  0  0  0  0  0  0  0
   -3.8786   -1.8920    0.9996 H   0  0  0  0  0  0  0  0  0  0  0  0
   -3.2846   -2.8280   -0.3984 H   0  0  0  0  0  0  0  0  0  0  0  0
   -1.7586   -2.0580    0.8686 C   0  0  0  0  0  0  0  0  0  0  0  0
   -0.9666   -2.6340    1.6026 O   0  0  0  0  0  0  0  0  0  0  0  0
   -1.4866   -0.9220    0.2366 N   0  0  0  0  0  0  0  0  0  0  0  0
   -2.2166   -0.4790   -0.2994 H   0  0  0  0  0  0  0  0  0  0  0  0
   -0.1956   -0.2250    0.2596 C   0  0  1  0  0  0  0  0  0  0  0  0
    0.5755   -0.9013   -0.1105 H   0  0  0  0  0  0  0  0  0  0  0  0
   -0.2553    0.9811   -0.6992 C   0  0  0  0  0  0  0  0  0  0  0  0
   -1.3034    1.1702   -0.9367 H   0  0  0  0  0  0  0  0  0  0  0  0
    0.1483    1.8612   -0.1964 H   0  0  0  0  0  0  0  0  0  0  0  0
    0.5097    0.7562   -2.0143 C   0  0  0  0  0  0  0  0  0  0  0  0
    1.1218    1.6361   -2.2265 H   0  0  0  0  0  0  0  0  0  0  0  0
    1.1804   -0.0965   -1.8795 H   0  0  0  0  0  0  0  0  0  0  0  0
   -0.4085    0.4930   -3.2170 C   0  0  0  0  0  0  0  0  0  0  0  0
   -1.6346    0.3526   -3.0088 O   0  5  0  0  0  0  0  0  0  0  0  0
    0.1368    0.4607   -4.3426 O   0  0  0  0  0  0  0  0  0  0  0  0
    0.1881    0.1678    1.7015 C   0  0  0  0  0  0  0  0  0  0  0  0
    1.3379    0.0002    2.1133 O   0  0  0  0  0  0  0  0  0  0  0  0
   -0.7666    0.7145    2.4656 N   0  0  0  0  0  0  0  0  0  0  0  0
   -1.6971    0.7705    2.0790 H   0  0  0  0  0  0  0  0  0  0  0  0
   -0.5716    1.1232    3.8542 C   0  0  0  0  0  0  0  0  0  0  0  0
    0.3083    1.7643    3.9293 H   0  0  0  0  0  0  0  0  0  0  0  0
   -1.4485    1.6640    4.2131 H   0  0  0  0  0  0  0  0  0  0  0  0
   -0.4137    0.2381    4.4736 H   0  0  0  0  0  0  0  0  0  0  0  0
  5  6  2  0  0  0  0
  5  7  1  0  0  0  0
  2  3  1  0  0  0  0
  2  4  1  0  0  0  0
  2  5  1  0  0  0  0
  1  2  1  0  0  0  0
 20 21  2  0  0  0  0
 20 22  1  0  0  0  0
 17 18  1  0  0  0  0
 17 19  2  0  0  0  0
 14 15  1  0  0  0  0
 14 16  1  0  0  0  0
 14 17  1  0  0  0  0
 11 12  1  0  0  0  0
 11 13  1  0  0  0  0
 11 14  1  0  0  0  0
  9 10  1  0  0  0  0
  9 11  1  0  0  0  0
  9 20  1  0  0  0  0
  7  8  1  0  0  0  0
  7  9  1  0  0  0  0
 24 25  1  0  0  0  0
 24 26  1  0  0  0  0
 24 27  1  0  0  0  0
 22 23  1  0  0  0  0
 22 24  1  0  0  0  0
M  CHG  1  18  -1
M  END
$$$$
default_name
  -OEChem-02102213163D

 27 26  0     1  0  0  0  0  0999 V2000
   -3.2406   -3.5400    1.2326 H   0  0  0  0  0  0  0  0  0  0  0  0
   -3.1436   -2.6190    0.6606 C   0  0  0  0  0  0  0  0  0  0  0  0
   -3.8786   -1.8920    0.9996 H   0  0  0  0  0  0  0  0  0  0  0  0
   -3.2846   -2.8280   -0.3984 H   0  0  0  0  0  0  0  0  0  0  0  0
   -1.7586   -2.0580    0.8686 C   0  0  0  0  0  0  0  0  0  0  0  0
   -0.9666   -2.6340    1.6026 O   0  0  0  0  0  0  0  0  0  0  0  0
   -1.4866   -0.9220    0.2366 N   0  0  0  0  0  0  0  0  0  0  0  0
   -2.2166   -0.4790   -0.2994 H   0  0  0  0  0  0  0  0  0  0  0  0
   -0.1956   -0.2250    0.2596 C   0  0  1  0  0  0  0  0  0  0  0  0
    0.5755   -0.9013   -0.1105 H   0  0  0  0  0  0  0  0  0  0  0  0
   -0.2553    0.9811   -0.6992 C   0  0  0  0  0  0  0  0  0  0  0  0
   -1.3034    1.1702   -0.9367 H   0  0  0  0  0  0  0  0  0  0  0  0
    0.1483    1.8612   -0.1964 H   0  0  0  0  0  0  0  0  0  0  0  0
    0.5097    0.7562   -2.0143 C   0  0  0  0  0  0  0  0  0  0  0  0
    1.3098    1.4962   -2.0933 H   0  0  0  0  0  0  0  0  0  0  0  0
    0.9696   -0.2349   -1.9784 H   0  0  0  0  0  0  0  0  0  0  0  0
   -0.3796    0.8570   -3.2625 C   0  0  0  0  0  0  0  0  0  0  0  0
   -1.6159    0.9697   -3.1035 O   0  5  0  0  0  0  0  0  0  0  0  0
    0.2036    0.8439   -4.3693 O   0  0  0  0  0  0  0  0  0  0  0  0
    0.1881    0.1678    1.7015 C   0  0  0  0  0  0  0  0  0  0  0  0
    1.3379    0.0002    2.1133 O   0  0  0  0  0  0  0  0  0  0  0  0
   -0.7666    0.7145    2.4656 N   0  0  0  0  0  0  0  0  0  0  0  0
   -1.6971    0.7705    2.0790 H   0  0  0  0  0  0  0  0  0  0  0  0
   -0.5716    1.1232    3.8542 C   0  0  0  0  0  0  0  0  0  0  0  0
    0.3083    1.7643    3.9293 H   0  0  0  0  0  0  0  0  0  0  0  0
   -1.4485    1.6640    4.2131 H   0  0  0  0  0  0  0  0  0  0  0  0
   -0.4137    0.2381    4.4736 H   0  0  0  0  0  0  0  0  0  0  0  0
  5  6  2  0  0  0  0
  5  7  1  0  0  0  0
  2  3  1  0  0  0  0
  2  4  1  0  0  0  0
  2  5  1  0  0  0  0
  1  2  1  0  0  0  0
 20 21  2  0  0  0  0
 20 22  1  0  0  0  0
 17 18  1  0  0  0  0
 17 19  2  0  0  0  0
 14 15  1  0  0  0  0
 14 16  1  0  0  0  0
 14 17  1  0  0  0  0
 11 12  1  0  0  0  0
 11 13  1  0  0  0  0
 11 14  1  0  0  0  0
  9 10  1  0  0  0  0
  9 11  1  0  0  0  0
  9 20  1  0  0  0  0
  7  8  1  0  0  0  0
  7  9  1  0  0  0  0
 24 25  1  0  0  0  0
 24 26  1  0  0  0  0
 24 27  1  0  0  0  0
 22 23  1  0  0  0  0
 22 24  1  0  0  0  0
M  CHG  1  18  -1
M  END
$$$$
default_name
  -OEChem-02102213163D

 27 26  0     1  0  0  0  0  0999 V2000
   -3.2406   -3.5400    1.2326 H   0  0  0  0  0  0  0  0  0  0  0  0
   -3.1436   -2.6190    0.6606 C   0  0  0  0  0  0  0  0  0  0  0  0
   -3.8786   -1.8920    0.9996 H   0  0  0  0  0  0  0  0  0  0  0  0
   -3.2846   -2.8280   -0.3984 H   0  0  0  0  0  0  0  0  0  0  0  0
   -1.7586   -2.0580    0.8686 C   0  0  0  0  0  0  0  0  0  0  0  0
   -0.9666   -2.6340    1.6026 O   0  0  0  0  0  0  0  0  0  0  0  0
   -1.4866   -0.9220    0.2366 N   0  0  0  0  0  0  0  0  0  0  0  0
   -2.2166   -0.4790   -0.2994 H   0  0  0  0  0  0  0  0  0  0  0  0
   -0.1956   -0.2250    0.2596 C   0  0  1  0  0  0  0  0  0  0  0  0
    0.5755   -0.9013   -0.1105 H   0  0  0  0  0  0  0  0  0  0  0  0
   -0.2553    0.9811   -0.6992 C   0  0  0  0  0  0  0  0  0  0  0  0
   -1.3034    1.1702   -0.9367 H   0  0  0  0  0  0  0  0  0  0  0  0
    0.1483    1.8612   -0.1964 H   0  0  0  0  0  0  0  0  0  0  0  0
    0.5097    0.7562   -2.0143 C   0  0  0  0  0  0  0  0  0  0  0  0
    1.4553    1.3023   -1.9754 H   0  0  0  0  0  0  0  0  0  0  0  0
    0.7390   -0.3092   -2.0998 H   0  0  0  0  0  0  0  0  0  0  0  0
   -0.2694    1.2080   -3.2584 C   0  0  0  0  0  0  0  0  0  0  0  0
   -1.4577    1.5739   -3.1148 O   0  5  0  0  0  0  0  0  0  0  0  0
    0.3539    1.2026   -4.3432 O   0  0  0  0  0  0  0  0  0  0  0  0
    0.1881    0.1678    1.7015 C   0  0  0  0  0  0  0  0  0  0  0  0
    1.3379    0.0002    2.1133 O   0  0  0  0  0  0  0  0  0  0  0  0
   -0.7666    0.7145    2.4656 N   0  0  0  0  0  0  0  0  0  0  0  0
   -1.6971    0.7705    2.0790 H   0  0  0  0  0  0  0  0  0  0  0  0
   -0.5716    1.1232    3.8542 C   0  0  0  0  0  0  0  0  0  0  0  0
    0.3083    1.7643    3.9293 H   0  0  0  0  0  0  0  0  0  0  0  0
   -1.4485    1.6640    4.2131 H   0  0  0  0  0  0  0  0  0  0  0  0
   -0.4137    0.2381    4.4736 H   0  0  0  0  0  0  0  0  0  0  0  0
  5  6  2  0  0  0  0
  5  7  1  0  0  0  0
  2  3  1  0  0  0  0
  2  4  1  0  0  0  0
  2  5  1  0  0  0  0
  1  2  1  0  0  0  0
 20 21  2  0  0  0  0
 20 22  1  0  0  0  0
 17 18  1  0  0  0  0
 17 19  2  0  0  0  0
 14 15  1  0  0  0  0
 14 16  1  0  0  0  0
 14 17  1  0  0  0  0
 11 12  1  0  0  0  0
 11 13  1  0  0  0  0
 11 14  1  0  0  0  0
  9 10  1  0  0  0  0
  9 11  1  0  0  0  0
  9 20  1  0  0  0  0
  7  8  1  0  0  0  0
  7  9  1  0  0  0  0
 24 25  1  0  0  0  0
 24 26  1  0  0  0  0
 24 27  1  0  0  0  0
 22 23  1  0  0  0  0
 22 24  1  0  0  0  0
M  CHG  1  18  -1
M  END
$$$$
default_name
  -OEChem-02102213163D

 27 26  0     1  0  0  0  0  0999 V2000
   -3.2406   -3.5400    1.2326 H   0  0  0  0  0  0  0  0  0  0  0  0
   -3.1436   -2.6190    0.6606 C   0  0  0  0  0  0  0  0  0  0  0  0
   -3.8786   -1.8920    0.9996 H   0  0  0  0  0  0  0  0  0  0  0  0
   -3.2846   -2.8280   -0.3984 H   0  0  0  0  0  0  0  0  0  0  0  0
   -1.7586   -2.0580    0.8686 C   0  0  0  0  0  0  0  0  0  0  0  0
   -0.9666   -2.6340    1.6026 O   0  0  0  0  0  0  0  0  0  0  0  0
   -1.4866   -0.9220    0.2366 N   0  0  0  0  0  0  0  0  0  0  0  0
   -2.2166   -0.4790   -0.2994 H   0  0  0  0  0  0  0  0  0  0  0  0
   -0.1956   -0.2250    0.2596 C   0  0  1  0  0  0  0  0  0  0  0  0
    0.5755   -0.9013   -0.1105 H   0  0  0  0  0  0  0  0  0  0  0  0
   -0.2553    0.9811   -0.6992 C   0  0  0  0  0  0  0  0  0  0  0  0
   -1.3034    1.1702   -0.9367 H   0  0  0  0  0  0  0  0  0  0  0  0
    0.1483    1.8612   -0.1964 H   0  0  0  0  0  0  0  0  0  0  0  0
    0.5097    0.7562   -2.0143 C   0  0  0  0  0  0  0  0  0  0  0  0
    1.5486    1.0676   -1.8811 H   0  0  0  0  0  0  0  0  0  0  0  0
    0.5045   -0.3144   -2.2354 H   0  0  0  0  0  0  0  0  0  0  0  0
   -0.0854    1.5222   -3.2051 C   0  0  0  0  0  0  0  0  0  0  0  0
   -1.1707    2.1239   -3.0419 O   0  5  0  0  0  0  0  0  0  0  0  0
    0.5774    1.5125   -4.2662 O   0  0  0  0  0  0  0  0  0  0  0  0
    0.1881    0.1678    1.7015 C   0  0  0  0  0  0  0  0  0  0  0  0
    1.3379    0.0002    2.1133 O   0  0  0  0  0  0  0  0  0  0  0  0
   -0.7666    0.7145    2.4656 N   0  0  0  0  0  0  0  0  0  0  0  0
   -1.6971    0.7705    2.0790 H   0  0  0  0  0  0  0  0  0  0  0  0
   -0.5716    1.1232    3.8542 C   0  0  0  0  0  0  0  0  0  0  0  0
    0.3083    1.7643    3.9293 H   0  0  0  0  0  0  0  0  0  0  0  0
   -1.4485    1.6640    4.2131 H   0  0  0  0  0  0  0  0  0  0  0  0
   -0.4137    0.2381    4.4736 H   0  0  0  0  0  0  0  0  0  0  0  0
  5  6  2  0  0  0  0
  5  7  1  0  0  0  0
  2  3  1  0  0  0  0
  2  4  1  0  0  0  0
  2  5  1  0  0  0  0
  1  2  1  0  0  0  0
 20 21  2  0  0  0  0
 20 22  1  0  0  0  0
 17 18  1  0  0  0  0
 17 19  2  0  0  0  0
 14 15  1  0  0  0  0
 14 16  1  0  0  0  0
 14 17  1  0  0  0  0
 11 12  1  0  0  0  0
 11 13  1  0  0  0  0
 11 14  1  0  0  0  0
  9 10  1  0  0  0  0
  9 11  1  0  0  0  0
  9 20  1  0  0  0  0
  7  8  1  0  0  0  0
  7  9  1  0  0  0  0
 24 25  1  0  0  0  0
 24 26  1  0  0  0  0
 24 27  1  0  0  0  0
 22 23  1  0  0  0  0
 22 24  1  0  0  0  0
M  CHG  1  18  -1
M  END
$$$$
default_name
  -OEChem-02102213163D

 27 26  0     1  0  0  0  0  0999 V2000
   -3.2406   -3.5400    1.2326 H   0  0  0  0  0  0  0  0  0  0  0  0
   -3.1436   -2.6190    0.6606 C   0  0  0  0  0  0  0  0  0  0  0  0
   -3.8786   -1.8920    0.9996 H   0  0  0  0  0  0  0  0  0  0  0  0
   -3.2846   -2.8280   -0.3984 H   0  0  0  0  0  0  0  0  0  0  0  0
   -1.7586   -2.0580    0.8686 C   0  0  0  0  0  0  0  0  0  0  0  0
   -0.9666   -2.6340    1.6026 O   0  0  0  0  0  0  0  0  0  0  0  0
   -1.4866   -0.9220    0.2366 N   0  0  0  0  0  0  0  0  0  0  0  0
   -2.2166   -0.4790   -0.2994 H   0  0  0  0  0  0  0  0  0  0  0  0
   -0.1956   -0.2250    0.2596 C   0  0  1  0  0  0  0  0  0  0  0  0
    0.5755   -0.9013   -0.1105 H   0  0  0  0  0  0  0  0  0  0  0  0
   -0.2553    0.9811   -0.6992 C   0  0  0  0  0  0  0  0  0  0  0  0
   -1.3034    1.1702   -0.9367 H   0  0  0  0  0  0  0  0  0  0  0  0
    0.1483    1.8612   -0.1964 H   0  0  0  0  0  0  0  0  0  0  0  0
    0.5097    0.7562   -2.0143 C   0  0  0  0  0  0  0  0  0  0  0  0
    1.5831    0.8081   -1.8166 H   0  0  0  0  0  0  0  0  0  0  0  0
    0.2819   -0.2500   -2.3759 H   0  0  0  0  0  0  0  0  0  0  0  0
    0.1598    1.7780   -3.1063 C   0  0  0  0  0  0  0  0  0  0  0  0
   -0.7745    2.5822   -2.8898 O   0  5  0  0  0  0  0  0  0  0  0  0
    0.8591    1.7524   -4.1434 O   0  0  0  0  0  0  0  0  0  0  0  0
    0.1881    0.1678    1.7015 C   0  0  0  0  0  0  0  0  0  0  0  0
    1.3379    0.0002    2.1133 O   0  0  0  0  0  0  0  0  0  0  0  0
   -0.7666    0.7145    2.4656 N   0  0  0  0  0  0  0  0  0  0  0  0
   -1.6971    0.7705    2.0790 H   0  0  0  0  0  0  0  0  0  0  0  0
   -0.5716    1.1232    3.8542 C   0  0  0  0  0  0  0  0  0  0  0  0
    0.3083    1.7643    3.9293 H   0  0  0  0  0  0  0  0  0  0  0  0
   -1.4485    1.6640    4.2131 H   0  0  0  0  0  0  0  0  0  0  0  0
   -0.4137    0.2381    4.4736 H   0  0  0  0  0  0  0  0  0  0  0  0
  5  6  2  0  0  0  0
  5  7  1  0  0  0  0
  2  3  1  0  0  0  0
  2  4  1  0  0  0  0
  2  5  1  0  0  0  0
  1  2  1  0  0  0  0
 20 21  2  0  0  0  0
 20 22  1  0  0  0  0
 17 18  1  0  0  0  0
 17 19  2  0  0  0  0
 14 15  1  0  0  0  0
 14 16  1  0  0  0  0
 14 17  1  0  0  0  0
 11 12  1  0  0  0  0
 11 13  1  0  0  0  0
 11 14  1  0  0  0  0
  9 10  1  0  0  0  0
  9 11  1  0  0  0  0
  9 20  1  0  0  0  0
  7  8  1  0  0  0  0
  7  9  1  0  0  0  0
 24 25  1  0  0  0  0
 24 26  1  0  0  0  0
 24 27  1  0  0  0  0
 22 23  1  0  0  0  0
 22 24  1  0  0  0  0
M  CHG  1  18  -1
M  END
$$$$
default_name
  -OEChem-02102213163D

 27 26  0     1  0  0  0  0  0999 V2000
   -3.2406   -3.5400    1.2326 H   0  0  0  0  0  0  0  0  0  0  0  0
   -3.1436   -2.6190    0.6606 C   0  0  0  0  0  0  0  0  0  0  0  0
   -3.8786   -1.8920    0.9996 H   0  0  0  0  0  0  0  0  0  0  0  0
   -3.2846   -2.8280   -0.3984 H   0  0  0  0  0  0  0  0  0  0  0  0
   -1.7586   -2.0580    0.8686 C   0  0  0  0  0  0  0  0  0  0  0  0
   -0.9666   -2.6340    1.6026 O   0  0  0  0  0  0  0  0  0  0  0  0
   -1.4866   -0.9220    0.2366 N   0  0  0  0  0  0  0  0  0  0  0  0
   -2.2166   -0.4790   -0.2994 H   0  0  0  0  0  0  0  0  0  0  0  0
   -0.1956   -0.2250    0.2596 C   0  0  1  0  0  0  0  0  0  0  0  0
    0.5755   -0.9013   -0.1105 H   0  0  0  0  0  0  0  0  0  0  0  0
   -0.2553    0.9811   -0.6992 C   0  0  0  0  0  0  0  0  0  0  0  0
   -1.2857    1.3390   -0.7254 H   0  0  0  0  0  0  0  0  0  0  0  0
    0.3775    1.7809   -0.3117 H   0  0  0  0  0  0  0  0  0  0  0  0
    0.1804    0.6439   -2.1351 C   0  0  0  0  0  0  0  0  0  0  0  0
    1.2036    0.2611   -2.1174 H   0  0  0  0  0  0  0  0  0  0  0  0
   -0.4698   -0.1494   -2.5135 H   0  0  0  0  0  0  0  0  0  0  0  0
    0.1205    1.8460   -3.0892 C   0  0  0  0  0  0  0  0  0  0  0  0
   -0.3855    2.9116   -2.6711 O   0  5  0  0  0  0  0  0  0  0  0  0
    0.6111    1.6829   -4.2285 O   0  0  0  0  0  0  0  0  0  0  0  0
    0.1881    0.1678    1.7015 C   0  0  0  0  0  0  0  0  0  0  0  0
    1.3379    0.0002    2.1133 O   0  0  0  0  0  0  0  0  0  0  0  0
   -0.7666    0.7145    2.4656 N   0  0  0  0  0  0  0  0  0  0  0  0
   -1.6971    0.7705    2.0790 H   0  0  0  0  0  0  0  0  0  0  0  0
   -0.5716    1.1232    3.8542 C   0  0  0  0  0  0  0  0  0  0  0  0
    0.3083    1.7643    3.9293 H   0  0  0  0  0  0  0  0  0  0  0  0
   -1.4485    1.6640    4.2131 H   0  0  0  0  0  0  0  0  0  0  0  0
   -0.4137    0.2381    4.4736 H   0  0  0  0  0  0  0  0  0  0  0  0
  5  6  2  0  0  0  0
  5  7  1  0  0  0  0
  2  3  1  0  0  0  0
  2  4  1  0  0  0  0
  2  5  1  0  0  0  0
  1  2  1  0  0  0  0
 20 21  2  0  0  0  0
 20 22  1  0  0  0  0
 17 18  1  0  0  0  0
 17 19  2  0  0  0  0
 14 15  1  0  0  0  0
 14 16  1  0  0  0  0
 14 17  1  0  0  0  0
 11 12  1  0  0  0  0
 11 13  1  0  0  0  0
 11 14  1  0  0  0  0
  9 10  1  0  0  0  0
  9 11  1  0  0  0  0
  9 20  1  0  0  0  0
  7  8  1  0  0  0  0
  7  9  1  0  0  0  0
 24 25  1  0  0  0  0
 24 26  1  0  0  0  0
 24 27  1  0  0  0  0
 22 23  1  0  0  0  0
 22 24  1  0  0  0  0
M  CHG  1  18  -1
M  END
$$$$
default_name
  -OEChem-02102213163D

 27 26  0     1  0  0  0  0  0999 V2000
   -3.2406   -3.5400    1.2326 H   0  0  0  0  0  0  0  0  0  0  0  0
   -3.1436   -2.6190    0.6606 C   0  0  0  0  0  0  0  0  0  0  0  0
   -3.8786   -1.8920    0.9996 H   0  0  0  0  0  0  0  0  0  0  0  0
   -3.2846   -2.8280   -0.3984 H   0  0  0  0  0  0  0  0  0  0  0  0
   -1.7586   -2.0580    0.8686 C   0  0  0  0  0  0  0  0  0  0  0  0
   -0.9666   -2.6340    1.6026 O   0  0  0  0  0  0  0  0  0  0  0  0
   -1.4866   -0.9220    0.2366 N   0  0  0  0  0  0  0  0  0  0  0  0
   -2.2166   -0.4790   -0.2994 H   0  0  0  0  0  0  0  0  0  0  0  0
   -0.1956   -0.2250    0.2596 C   0  0  1  0  0  0  0  0  0  0  0  0
    0.5755   -0.9013   -0.1105 H   0  0  0  0  0  0  0  0  0  0  0  0
   -0.2553    0.9811   -0.6992 C   0  0  0  0  0  0  0  0  0  0  0  0
   -1.2857    1.3390   -0.7254 H   0  0  0  0  0  0  0  0  0  0  0  0
    0.3775    1.7809   -0.3117 H   0  0  0  0  0  0  0  0  0  0  0  0
    0.1804    0.6439   -2.1351 C   0  0  0  0  0  0  0  0  0  0  0  0
    1.0787    0.0229   -2.0993 H   0  0  0  0  0  0  0  0  0  0  0  0
   -0.6145    0.0600   -2.6065 H   0  0  0  0  0  0  0  0  0  0  0  0
    0.4730    1.8849   -2.9914 C   0  0  0  0  0  0  0  0  0  0  0  0
    0.2107    3.0116   -2.5137 O   0  5  0  0  0  0  0  0  0  0  0  0
    0.9841    1.6831   -4.1154 O   0  0  0  0  0  0  0  0  0  0  0  0
    0.1881    0.1678    1.7015 C   0  0  0  0  0  0  0  0  0  0  0  0
    1.3379    0.0002    2.1133 O   0  0  0  0  0  0  0  0  0  0  0  0
   -0.7666    0.7145    2.4656 N   0  0  0  0  0  0  0  0  0  0  0  0
   -1.6971    0.7705    2.0790 H   0  0  0  0  0  0  0  0  0  0  0  0
   -0.5716    1.1232    3.8542 C   0  0  0  0  0  0  0  0  0  0  0  0
    0.3083    1.7643    3.9293 H   0  0  0  0  0  0  0  0  0  0  0  0
   -1.4485    1.6640    4.2131 H   0  0  0  0  0  0  0  0  0  0  0  0
   -0.4137    0.2381    4.4736 H   0  0  0  0  0  0  0  0  0  0  0  0
  5  6  2  0  0  0  0
  5  7  1  0  0  0  0
  2  3  1  0  0  0  0
  2  4  1  0  0  0  0
  2  5  1  0  0  0  0
  1  2  1  0  0  0  0
 20 21  2  0  0  0  0
 20 22  1  0  0  0  0
 17 18  1  0  0  0  0
 17 19  2  0  0  0  0
 14 15  1  0  0  0  0
 14 16  1  0  0  0  0
 14 17  1  0  0  0  0
 11 12  1  0  0  0  0
 11 13  1  0  0  0  0
 11 14  1  0  0  0  0
  9 10  1  0  0  0  0
  9 11  1  0  0  0  0
  9 20  1  0  0  0  0
  7  8  1  0  0  0  0
  7  9  1  0  0  0  0
 24 25  1  0  0  0  0
 24 26  1  0  0  0  0
 24 27  1  0  0  0  0
 22 23  1  0  0  0  0
 22 24  1  0  0  0  0
M  CHG  1  18  -1
M  END
$$$$
default_name
  -OEChem-02102213163D

 27 26  0     1  0  0  0  0  0999 V2000
   -3.2406   -3.5400    1.2326 H   0  0  0  0  0  0  0  0  0  0  0  0
   -3.1436   -2.6190    0.6606 C   0  0  0  0  0  0  0  0  0  0  0  0
   -3.8786   -1.8920    0.9996 H   0  0  0  0  0  0  0  0  0  0  0  0
   -3.2846   -2.8280   -0.3984 H   0  0  0  0  0  0  0  0  0  0  0  0
   -1.7586   -2.0580    0.8686 C   0  0  0  0  0  0  0  0  0  0  0  0
   -0.9666   -2.6340    1.6026 O   0  0  0  0  0  0  0  0  0  0  0  0
   -1.4866   -0.9220    0.2366 N   0  0  0  0  0  0  0  0  0  0  0  0
   -2.2166   -0.4790   -0.2994 H   0  0  0  0  0  0  0  0  0  0  0  0
   -0.1956   -0.2250    0.2596 C   0  0  1  0  0  0  0  0  0  0  0  0
    0.5755   -0.9013   -0.1105 H   0  0  0  0  0  0  0  0  0  0  0  0
   -0.2553    0.9811   -0.6992 C   0  0  0  0  0  0  0  0  0  0  0  0
   -1.2857    1.3390   -0.7254 H   0  0  0  0  0  0  0  0  0  0  0  0
    0.3775    1.7809   -0.3117 H   0  0  0  0  0  0  0  0  0  0  0  0
    0.1804    0.6439   -2.1351 C   0  0  0  0  0  0  0  0  0  0  0  0
    0.8994   -0.1783   -2.1065 H   0  0  0  0  0  0  0  0  0  0  0  0
   -0.6985    0.3039   -2.6893 H   0  0  0  0  0  0  0  0  0  0  0  0
    0.8174    1.8301   -2.8740 C   0  0  0  0  0  0  0  0  0  0  0  0
    0.8017    2.9525   -2.3205 O   0  5  0  0  0  0  0  0  0  0  0  0
    1.3381    1.5848   -3.9849 O   0  0  0  0  0  0  0  0  0  0  0  0
    0.1881    0.1678    1.7015 C   0  0  0  0  0  0  0  0  0  0  0  0
    1.3379    0.0002    2.1133 O   0  0  0  0  0  0  0  0  0  0  0  0
   -0.7666    0.7145    2.4656 N   0  0  0  0  0  0  0  0  0  0  0  0
   -1.6971    0.7705    2.0790 H   0  0  0  0  0  0  0  0  0  0  0  0
   -0.5716    1.1232    3.8542 C   0  0  0  0  0  0  0  0  0  0  0  0
    0.3083    1.7643    3.9293 H   0  0  0  0  0  0  0  0  0  0  0  0
   -1.4485    1.6640    4.2131 H   0  0  0  0  0  0  0  0  0  0  0  0
   -0.4137    0.2381    4.4736 H   0  0  0  0  0  0  0  0  0  0  0  0
  5  6  2  0  0  0  0
  5  7  1  0  0  0  0
  2  3  1  0  0  0  0
  2  4  1  0  0  0  0
  2  5  1  0  0  0  0
  1  2  1  0  0  0  0
 20 21  2  0  0  0  0
 20 22  1  0  0  0  0
 17 18  1  0  0  0  0
 17 19  2  0  0  0  0
 14 15  1  0  0  0  0
 14 16  1  0  0  0  0
 14 17  1  0  0  0  0
 11 12  1  0  0  0  0
 11 13  1  0  0  0  0
 11 14  1  0  0  0  0
  9 10  1  0  0  0  0
  9 11  1  0  0  0  0
  9 20  1  0  0  0  0
  7  8  1  0  0  0  0
  7  9  1  0  0  0  0
 24 25  1  0  0  0  0
 24 26  1  0  0  0  0
 24 27  1  0  0  0  0
 22 23  1  0  0  0  0
 22 24  1  0  0  0  0
M  CHG  1  18  -1
M  END
$$$$
default_name
  -OEChem-02102213163D

 27 26  0     1  0  0  0  0  0999 V2000
   -3.2406   -3.5400    1.2326 H   0  0  0  0  0  0  0  0  0  0  0  0
   -3.1436   -2.6190    0.6606 C   0  0  0  0  0  0  0  0  0  0  0  0
   -3.8786   -1.8920    0.9996 H   0  0  0  0  0  0  0  0  0  0  0  0
   -3.2846   -2.8280   -0.3984 H   0  0  0  0  0  0  0  0  0  0  0  0
   -1.7586   -2.0580    0.8686 C   0  0  0  0  0  0  0  0  0  0  0  0
   -0.9666   -2.6340    1.6026 O   0  0  0  0  0  0  0  0  0  0  0  0
   -1.4866   -0.9220    0.2366 N   0  0  0  0  0  0  0  0  0  0  0  0
   -2.2166   -0.4790   -0.2994 H   0  0  0  0  0  0  0  0  0  0  0  0
   -0.1956   -0.2250    0.2596 C   0  0  1  0  0  0  0  0  0  0  0  0
    0.5755   -0.9013   -0.1105 H   0  0  0  0  0  0  0  0  0  0  0  0
   -0.2553    0.9811   -0.6992 C   0  0  0  0  0  0  0  0  0  0  0  0
   -1.2857    1.3390   -0.7254 H   0  0  0  0  0  0  0  0  0  0  0  0
    0.3775    1.7809   -0.3117 H   0  0  0  0  0  0  0  0  0  0  0  0
    0.1804    0.6439   -2.1351 C   0  0  0  0  0  0  0  0  0  0  0  0
    0.6781   -0.3288   -2.1383 H   0  0  0  0  0  0  0  0  0  0  0  0
   -0.7159    0.5660   -2.7561 H   0  0  0  0  0  0  0  0  0  0  0  0
    1.1302    1.6854   -2.7451 C   0  0  0  0  0  0  0  0  0  0  0  0
    1.3474    2.7385   -2.1046 O   0  5  0  0  0  0  0  0  0  0  0  0
    1.6488    1.3948   -3.8460 O   0  0  0  0  0  0  0  0  0  0  0  0
    0.1881    0.1678    1.7015 C   0  0  0  0  0  0  0  0  0  0  0  0
    1.3379    0.0002    2.1133 O   0  0  0  0  0  0  0  0  0  0  0  0
   -0.7666    0.7145    2.4656 N   0  0  0  0  0  0  0  0  0  0  0  0
   -1.6971    0.7705    2.0790 H   0  0  0  0  0  0  0  0  0  0  0  0
   -0.5716    1.1232    3.8542 C   0  0  0  0  0  0  0  0  0  0  0  0
    0.3083    1.7643    3.9293 H   0  0  0  0  0  0  0  0  0  0  0  0
   -1.4485    1.6640    4.2131 H   0  0  0  0  0  0  0  0  0  0  0  0
   -0.4137    0.2381    4.4736 H   0  0  0  0  0  0  0  0  0  0  0  0
  5  6  2  0  0  0  0
  5  7  1  0  0  0  0
  2  3  1  0  0  0  0
  2  4  1  0  0  0  0
  2  5  1  0  0  0  0
  1  2  1  0  0  0  0
 20 21  2  0  0  0  0
 20 22  1  0  0  0  0
 17 18  1  0  0  0  0
 17 19  2  0  0  0  0
 14 15  1  0  0  0  0
 14 16  1  0  0  0  0
 14 17  1  0  0  0  0
 11 12  1  0  0  0  0
 11 13  1  0  0  0  0
 11 14  1  0  0  0  0
  9 10  1  0  0  0  0
  9 11  1  0  0  0  0
  9 20  1  0  0  0  0
  7  8  1  0  0  0  0
  7  9  1  0  0  0  0
 24 25  1  0  0  0  0
 24 26  1  0  0  0  0
 24 27  1  0  0  0  0
 22 23  1  0  0  0  0
 22 24  1  0  0  0  0
M  CHG  1  18  -1
M  END
$$$$
default_name
  -OEChem-02102213163D

 27 26  0     1  0  0  0  0  0999 V2000
   -3.2406   -3.5400    1.2326 H   0  0  0  0  0  0  0  0  0  0  0  0
   -3.1436   -2.6190    0.6606 C   0  0  0  0  0  0  0  0  0  0  0  0
   -3.8786   -1.8920    0.9996 H   0  0  0  0  0  0  0  0  0  0  0  0
   -3.2846   -2.8280   -0.3984 H   0  0  0  0  0  0  0  0  0  0  0  0
   -1.7586   -2.0580    0.8686 C   0  0  0  0  0  0  0  0  0  0  0  0
   -0.9666   -2.6340    1.6026 O   0  0  0  0  0  0  0  0  0  0  0  0
   -1.4866   -0.9220    0.2366 N   0  0  0  0  0  0  0  0  0  0  0  0
   -2.2166   -0.4790   -0.2994 H   0  0  0  0  0  0  0  0  0  0  0  0
   -0.1956   -0.2250    0.2596 C   0  0  1  0  0  0  0  0  0  0  0  0
    0.5755   -0.9013   -0.1105 H   0  0  0  0  0  0  0  0  0  0  0  0
   -0.2553    0.9811   -0.6992 C   0  0  0  0  0  0  0  0  0  0  0  0
   -1.2857    1.3390   -0.7254 H   0  0  0  0  0  0  0  0  0  0  0  0
    0.3775    1.7809   -0.3117 H   0  0  0  0  0  0  0  0  0  0  0  0
    0.1804    0.6439   -2.1351 C   0  0  0  0  0  0  0  0  0  0  0  0
    0.4297   -0.4184   -2.1926 H   0  0  0  0  0  0  0  0  0  0  0  0
   -0.6657    0.8282   -2.8025 H   0  0  0  0  0  0  0  0  0  0  0  0
    1.3900    1.4605   -2.6135 C   0  0  0  0  0  0  0  0  0  0  0  0
    1.8105    2.3840   -1.8808 O   0  5  0  0  0  0  0  0  0  0  0  0
    1.8952    1.1260   -3.7081 O   0  0  0  0  0  0  0  0  0  0  0  0
    0.1881    0.1678    1.7015 C   0  0  0  0  0  0  0  0  0  0  0  0
    1.3379    0.0002    2.1133 O   0  0  0  0  0  0  0  0  0  0  0  0
   -0.7666    0.7145    2.4656 N   0  0  0  0  0  0  0  0  0  0  0  0
   -1.6971    0.7705    2.0790 H   0  0  0  0  0  0  0  0  0  0  0  0
   -0.5716    1.1232    3.8542 C   0  0  0  0  0  0  0  0  0  0  0  0
    0.3083    1.7643    3.9293 H   0  0  0  0  0  0  0  0  0  0  0  0
   -1.4485    1.6640    4.2131 H   0  0  0  0  0  0  0  0  0  0  0  0
   -0.4137    0.2381    4.4736 H   0  0  0  0  0  0  0  0  0  0  0  0
  5  6  2  0  0  0  0
  5  7  1  0  0  0  0
  2  3  1  0  0  0  0
  2  4  1  0  0  0  0
  2  5  1  0  0  0  0
  1  2  1  0  0  0  0
 20 21  2  0  0  0  0
 20 22  1  0  0  0  0
 17 18  1  0  0  0  0
 17 19  2  0  0  0  0
 14 15  1  0  0  0  0
 14 16  1  0  0  0  0
 14 17  1  0  0  0  0
 11 12  1  0  0  0  0
 11 13  1  0  0  0  0
 11 14  1  0  0  0  0
  9 10  1  0  0  0  0
  9 11  1  0  0  0  0
  9 20  1  0  0  0  0
  7  8  1  0  0  0  0
  7  9  1  0  0  0  0
 24 25  1  0  0  0  0
 24 26  1  0  0  0  0
 24 27  1  0  0  0  0
 22 23  1  0  0  0  0
 22 24  1  0  0  0  0
M  CHG  1  18  -1
M  END
$$$$
default_name
  -OEChem-02102213163D

 27 26  0     1  0  0  0  0  0999 V2000
   -3.2406   -3.5400    1.2326 H   0  0  0  0  0  0  0  0  0  0  0  0
   -3.1436   -2.6190    0.6606 C   0  0  0  0  0  0  0  0  0  0  0  0
   -3.8786   -1.8920    0.9996 H   0  0  0  0  0  0  0  0  0  0  0  0
   -3.2846   -2.8280   -0.3984 H   0  0  0  0  0  0  0  0  0  0  0  0
   -1.7586   -2.0580    0.8686 C   0  0  0  0  0  0  0  0  0  0  0  0
   -0.9666   -2.6340    1.6026 O   0  0  0  0  0  0  0  0  0  0  0  0
   -1.4866   -0.9220    0.2366 N   0  0  0  0  0  0  0  0  0  0  0  0
   -2.2166   -0.4790   -0.2994 H   0  0  0  0  0  0  0  0  0  0  0  0
   -0.1956   -0.2250    0.2596 C   0  0  1  0  0  0  0  0  0  0  0  0
    0.5755   -0.9013   -0.1105 H   0  0  0  0  0  0  0  0  0  0  0  0
   -0.2553    0.9811   -0.6992 C   0  0  0  0  0  0  0  0  0  0  0  0
   -1.2857    1.3390   -0.7254 H   0  0  0  0  0  0  0  0  0  0  0  0
    0.3775    1.7809   -0.3117 H   0  0  0  0  0  0  0  0  0  0  0  0
    0.1804    0.6439   -2.1351 C   0  0  0  0  0  0  0  0  0  0  0  0
    0.1712   -0.4409   -2.2658 H   0  0  0  0  0  0  0  0  0  0  0  0
   -0.5511    1.0727   -2.8251 H   0  0  0  0  0  0  0  0  0  0  0  0
    1.5792    1.1709   -2.4881 C   0  0  0  0  0  0  0  0  0  0  0  0
    2.1595    1.9134   -1.6644 O   0  5  0  0  0  0  0  0  0  0  0  0
    2.0604    0.7968   -3.5806 O   0  0  0  0  0  0  0  0  0  0  0  0
    0.1881    0.1678    1.7015 C   0  0  0  0  0  0  0  0  0  0  0  0
    1.3379    0.0002    2.1133 O   0  0  0  0  0  0  0  0  0  0  0  0
   -0.7666    0.7145    2.4656 N   0  0  0  0  0  0  0  0  0  0  0  0
   -1.6971    0.7705    2.0790 H   0  0  0  0  0  0  0  0  0  0  0  0
   -0.5716    1.1232    3.8542 C   0  0  0  0  0  0  0  0  0  0  0  0
    0.3083    1.7643    3.9293 H   0  0  0  0  0  0  0  0  0  0  0  0
   -1.4485    1.6640    4.2131 H   0  0  0  0  0  0  0  0  0  0  0  0
   -0.4137    0.2381    4.4736 H   0  0  0  0  0  0  0  0  0  0  0  0
  5  6  2  0  0  0  0
  5  7  1  0  0  0  0
  2  3  1  0  0  0  0
  2  4  1  0  0  0  0
  2  5  1  0  0  0  0
  1  2  1  0  0  0  0
 20 21  2  0  0  0  0
 20 22  1  0  0  0  0
 17 18  1  0  0  0  0
 17 19  2  0  0  0  0
 14 15  1  0  0  0  0
 14 16  1  0  0  0  0
 14 17  1  0  0  0  0
 11 12  1  0  0  0  0
 11 13  1  0  0  0  0
 11 14  1  0  0  0  0
  9 10  1  0  0  0  0
  9 11  1  0  0  0  0
  9 20  1  0  0  0  0
  7  8  1  0  0  0  0
  7  9  1  0  0  0  0
 24 25  1  0  0  0  0
 24 26  1  0  0  0  0
 24 27  1  0  0  0  0
 22 23  1  0  0  0  0
 22 24  1  0  0  0  0
M  CHG  1  18  -1
M  END
$$$$
default_name
  -OEChem-02102213163D

 27 26  0     1  0  0  0  0  0999 V2000
   -3.2406   -3.5400    1.2326 H   0  0  0  0  0  0  0  0  0  0  0  0
   -3.1436   -2.6190    0.6606 C   0  0  0  0  0  0  0  0  0  0  0  0
   -3.8786   -1.8920    0.9996 H   0  0  0  0  0  0  0  0  0  0  0  0
   -3.2846   -2.8280   -0.3984 H   0  0  0  0  0  0  0  0  0  0  0  0
   -1.7586   -2.0580    0.8686 C   0  0  0  0  0  0  0  0  0  0  0  0
   -0.9666   -2.6340    1.6026 O   0  0  0  0  0  0  0  0  0  0  0  0
   -1.4866   -0.9220    0.2366 N   0  0  0  0  0  0  0  0  0  0  0  0
   -2.2166   -0.4790   -0.2994 H   0  0  0  0  0  0  0  0  0  0  0  0
   -0.1956   -0.2250    0.2596 C   0  0  1  0  0  0  0  0  0  0  0  0
    0.5755   -0.9013   -0.1105 H   0  0  0  0  0  0  0  0  0  0  0  0
   -0.2553    0.9811   -0.6992 C   0  0  0  0  0  0  0  0  0  0  0  0
   -1.2857    1.3390   -0.7254 H   0  0  0  0  0  0  0  0  0  0  0  0
    0.3775    1.7809   -0.3117 H   0  0  0  0  0  0  0  0  0  0  0  0
    0.1804    0.6439   -2.1351 C   0  0  0  0  0  0  0  0  0  0  0  0
   -0.0797   -0.3948   -2.3527 H   0  0  0  0  0  0  0  0  0  0  0  0
   -0.3801    1.2829   -2.8226 H   0  0  0  0  0  0  0  0  0  0  0  0
    1.6848    0.8363   -2.3774 C   0  0  0  0  0  0  0  0  0  0  0  0
    2.3706    1.3585   -1.4700 O   0  5  0  0  0  0  0  0  0  0  0  0
    2.1332    0.4294   -3.4723 O   0  0  0  0  0  0  0  0  0  0  0  0
    0.1881    0.1678    1.7015 C   0  0  0  0  0  0  0  0  0  0  0  0
    1.3379    0.0002    2.1133 O   0  0  0  0  0  0  0  0  0  0  0  0
   -0.7666    0.7145    2.4656 N   0  0  0  0  0  0  0  0  0  0  0  0
   -1.6971    0.7705    2.0790 H   0  0  0  0  0  0  0  0  0  0  0  0
   -0.5716    1.1232    3.8542 C   0  0  0  0  0  0  0  0  0  0  0  0
    0.3083    1.7643    3.9293 H   0  0  0  0  0  0  0  0  0  0  0  0
   -1.4485    1.6640    4.2131 H   0  0  0  0  0  0  0  0  0  0  0  0
   -0.4137    0.2381    4.4736 H   0  0  0  0  0  0  0  0  0  0  0  0
  5  6  2  0  0  0  0
  5  7  1  0  0  0  0
  2  3  1  0  0  0  0
  2  4  1  0  0  0  0
  2  5  1  0  0  0  0
  1  2  1  0  0  0  0
 20 21  2  0  0  0  0
 20 22  1  0  0  0  0
 17 18  1  0  0  0  0
 17 19  2  0  0  0  0
 14 15  1  0  0  0  0
 14 16  1  0  0  0  0
 14 17  1  0  0  0  0
 11 12  1  0  0  0  0
 11 13  1  0  0  0  0
 11 14  1  0  0  0  0
  9 10  1  0  0  0  0
  9 11  1  0  0  0  0
  9 20  1  0  0  0  0
  7  8  1  0  0  0  0
  7  9  1  0  0  0  0
 24 25  1  0  0  0  0
 24 26  1  0  0  0  0
 24 27  1  0  0  0  0
 22 23  1  0  0  0  0
 22 24  1  0  0  0  0
M  CHG  1  18  -1
M  END
$$$$
default_name
  -OEChem-02102213163D

 27 26  0     1  0  0  0  0  0999 V2000
   -3.2406   -3.5400    1.2326 H   0  0  0  0  0  0  0  0  0  0  0  0
   -3.1436   -2.6190    0.6606 C   0  0  0  0  0  0  0  0  0  0  0  0
   -3.8786   -1.8920    0.9996 H   0  0  0  0  0  0  0  0  0  0  0  0
   -3.2846   -2.8280   -0.3984 H   0  0  0  0  0  0  0  0  0  0  0  0
   -1.7586   -2.0580    0.8686 C   0  0  0  0  0  0  0  0  0  0  0  0
   -0.9666   -2.6340    1.6026 O   0  0  0  0  0  0  0  0  0  0  0  0
   -1.4866   -0.9220    0.2366 N   0  0  0  0  0  0  0  0  0  0  0  0
   -2.2166   -0.4790   -0.2994 H   0  0  0  0  0  0  0  0  0  0  0  0
   -0.1956   -0.2250    0.2596 C   0  0  1  0  0  0  0  0  0  0  0  0
    0.5755   -0.9013   -0.1105 H   0  0  0  0  0  0  0  0  0  0  0  0
   -0.2553    0.9811   -0.6992 C   0  0  0  0  0  0  0  0  0  0  0  0
   -1.2857    1.3390   -0.7254 H   0  0  0  0  0  0  0  0  0  0  0  0
    0.3775    1.7809   -0.3117 H   0  0  0  0  0  0  0  0  0  0  0  0
    0.1804    0.6439   -2.1351 C   0  0  0  0  0  0  0  0  0  0  0  0
   -0.3061   -0.2833   -2.4476 H   0  0  0  0  0  0  0  0  0  0  0  0
   -0.1643    1.4444   -2.7951 H   0  0  0  0  0  0  0  0  0  0  0  0
    1.6996    0.4794   -2.2891 C   0  0  0  0  0  0  0  0  0  0  0  0
    2.4294    0.7573   -1.3110 O   0  5  0  0  0  0  0  0  0  0  0  0
    2.1085    0.0491   -3.3904 O   0  0  0  0  0  0  0  0  0  0  0  0
    0.1881    0.1678    1.7015 C   0  0  0  0  0  0  0  0  0  0  0  0
    1.3379    0.0002    2.1133 O   0  0  0  0  0  0  0  0  0  0  0  0
   -0.7666    0.7145    2.4656 N   0  0  0  0  0  0  0  0  0  0  0  0
   -1.6971    0.7705    2.0790 H   0  0  0  0  0  0  0  0  0  0  0  0
   -0.5716    1.1232    3.8542 C   0  0  0  0  0  0  0  0  0  0  0  0
    0.3083    1.7643    3.9293 H   0  0  0  0  0  0  0  0  0  0  0  0
   -1.4485    1.6640    4.2131 H   0  0  0  0  0  0  0  0  0  0  0  0
   -0.4137    0.2381    4.4736 H   0  0  0  0  0  0  0  0  0  0  0  0
  5  6  2  0  0  0  0
  5  7  1  0  0  0  0
  2  3  1  0  0  0  0
  2  4  1  0  0  0  0
  2  5  1  0  0  0  0
  1  2  1  0  0  0  0
 20 21  2  0  0  0  0
 20 22  1  0  0  0  0
 17 18  1  0  0  0  0
 17 19  2  0  0  0  0
 14 15  1  0  0  0  0
 14 16  1  0  0  0  0
 14 17  1  0  0  0  0
 11 12  1  0  0  0  0
 11 13  1  0  0  0  0
 11 14  1  0  0  0  0
  9 10  1  0  0  0  0
  9 11  1  0  0  0  0
  9 20  1  0  0  0  0
  7  8  1  0  0  0  0
  7  9  1  0  0  0  0
 24 25  1  0  0  0  0
 24 26  1  0  0  0  0
 24 27  1  0  0  0  0
 22 23  1  0  0  0  0
 22 24  1  0  0  0  0
M  CHG  1  18  -1
M  END
$$$$
default_name
  -OEChem-02102213163D

 27 26  0     1  0  0  0  0  0999 V2000
   -3.2406   -3.5400    1.2326 H   0  0  0  0  0  0  0  0  0  0  0  0
   -3.1436   -2.6190    0.6606 C   0  0  0  0  0  0  0  0  0  0  0  0
   -3.8786   -1.8920    0.9996 H   0  0  0  0  0  0  0  0  0  0  0  0
   -3.2846   -2.8280   -0.3984 H   0  0  0  0  0  0  0  0  0  0  0  0
   -1.7586   -2.0580    0.8686 C   0  0  0  0  0  0  0  0  0  0  0  0
   -0.9666   -2.6340    1.6026 O   0  0  0  0  0  0  0  0  0  0  0  0
   -1.4866   -0.9220    0.2366 N   0  0  0  0  0  0  0  0  0  0  0  0
   -2.2166   -0.4790   -0.2994 H   0  0  0  0  0  0  0  0  0  0  0  0
   -0.1956   -0.2250    0.2596 C   0  0  1  0  0  0  0  0  0  0  0  0
    0.5755   -0.9013   -0.1105 H   0  0  0  0  0  0  0  0  0  0  0  0
   -0.2553    0.9811   -0.6992 C   0  0  0  0  0  0  0  0  0  0  0  0
   -1.2857    1.3390   -0.7254 H   0  0  0  0  0  0  0  0  0  0  0  0
    0.3775    1.7809   -0.3117 H   0  0  0  0  0  0  0  0  0  0  0  0
    0.1804    0.6439   -2.1351 C   0  0  0  0  0  0  0  0  0  0  0  0
   -0.4923   -0.1139   -2.5439 H   0  0  0  0  0  0  0  0  0  0  0  0
    0.0817    1.5462   -2.7444 H   0  0  0  0  0  0  0  0  0  0  0  0
    1.6228    0.1246   -2.2291 C   0  0  0  0  0  0  0  0  0  0  0  0
    2.3319    0.1508   -1.1981 O   0  5  0  0  0  0  0  0  0  0  0  0
    1.9882   -0.3183   -3.3407 O   0  0  0  0  0  0  0  0  0  0  0  0
    0.1881    0.1678    1.7015 C   0  0  0  0  0  0  0  0  0  0  0  0
    1.3379    0.0002    2.1133 O   0  0  0  0  0  0  0  0  0  0  0  0
   -0.7666    0.7145    2.4656 N   0  0  0  0  0  0  0  0  0  0  0  0
   -1.6971    0.7705    2.0790 H   0  0  0  0  0  0  0  0  0  0  0  0
   -0.5716    1.1232    3.8542 C   0  0  0  0  0  0  0  0  0  0  0  0
    0.3083    1.7643    3.9293 H   0  0  0  0  0  0  0  0  0  0  0  0
   -1.4485    1.6640    4.2131 H   0  0  0  0  0  0  0  0  0  0  0  0
   -0.4137    0.2381    4.4736 H   0  0  0  0  0  0  0  0  0  0  0  0
  5  6  2  0  0  0  0
  5  7  1  0  0  0  0
  2  3  1  0  0  0  0
  2  4  1  0  0  0  0
  2  5  1  0  0  0  0
  1  2  1  0  0  0  0
 20 21  2  0  0  0  0
 20 22  1  0  0  0  0
 17 18  1  0  0  0  0
 17 19  2  0  0  0  0
 14 15  1  0  0  0  0
 14 16  1  0  0  0  0
 14 17  1  0  0  0  0
 11 12  1  0  0  0  0
 11 13  1  0  0  0  0
 11 14  1  0  0  0  0
  9 10  1  0  0  0  0
  9 11  1  0  0  0  0
  9 20  1  0  0  0  0
  7  8  1  0  0  0  0
  7  9  1  0  0  0  0
 24 25  1  0  0  0  0
 24 26  1  0  0  0  0
 24 27  1  0  0  0  0
 22 23  1  0  0  0  0
 22 24  1  0  0  0  0
M  CHG  1  18  -1
M  END
$$$$
default_name
  -OEChem-02102213163D

 27 26  0     1  0  0  0  0  0999 V2000
   -3.2406   -3.5400    1.2326 H   0  0  0  0  0  0  0  0  0  0  0  0
   -3.1436   -2.6190    0.6606 C   0  0  0  0  0  0  0  0  0  0  0  0
   -3.8786   -1.8920    0.9996 H   0  0  0  0  0  0  0  0  0  0  0  0
   -3.2846   -2.8280   -0.3984 H   0  0  0  0  0  0  0  0  0  0  0  0
   -1.7586   -2.0580    0.8686 C   0  0  0  0  0  0  0  0  0  0  0  0
   -0.9666   -2.6340    1.6026 O   0  0  0  0  0  0  0  0  0  0  0  0
   -1.4866   -0.9220    0.2366 N   0  0  0  0  0  0  0  0  0  0  0  0
   -2.2166   -0.4790   -0.2994 H   0  0  0  0  0  0  0  0  0  0  0  0
   -0.1956   -0.2250    0.2596 C   0  0  1  0  0  0  0  0  0  0  0  0
    0.5755   -0.9013   -0.1105 H   0  0  0  0  0  0  0  0  0  0  0  0
   -0.2553    0.9811   -0.6992 C   0  0  0  0  0  0  0  0  0  0  0  0
   -1.2857    1.3390   -0.7254 H   0  0  0  0  0  0  0  0  0  0  0  0
    0.3775    1.7809   -0.3117 H   0  0  0  0  0  0  0  0  0  0  0  0
    0.1804    0.6439   -2.1351 C   0  0  0  0  0  0  0  0  0  0  0  0
   -0.6259    0.1018   -2.6351 H   0  0  0  0  0  0  0  0  0  0  0  0
    0.3410    1.5814   -2.6740 H   0  0  0  0  0  0  0  0  0  0  0  0
    1.4594   -0.2039   -2.2015 C   0  0  0  0  0  0  0  0  0  0  0  0
    2.0847   -0.4199   -1.1391 O   0  5  0  0  0  0  0  0  0  0  0  0
    1.7803   -0.6478   -3.3263 O   0  0  0  0  0  0  0  0  0  0  0  0
    0.1881    0.1678    1.7015 C   0  0  0  0  0  0  0  0  0  0  0  0
    1.3379    0.0002    2.1133 O   0  0  0  0  0  0  0  0  0  0  0  0
   -0.7666    0.7145    2.4656 N   0  0  0  0  0  0  0  0  0  0  0  0
   -1.6971    0.7705    2.0790 H   0  0  0  0  0  0  0  0  0  0  0  0
   -0.5716    1.1232    3.8542 C   0  0  0  0  0  0  0  0  0  0  0  0
    0.3083    1.7643    3.9293 H   0  0  0  0  0  0  0  0  0  0  0  0
   -1.4485    1.6640    4.2131 H   0  0  0  0  0  0  0  0  0  0  0  0
   -0.4137    0.2381    4.4736 H   0  0  0  0  0  0  0  0  0  0  0  0
  5  6  2  0  0  0  0
  5  7  1  0  0  0  0
  2  3  1  0  0  0  0
  2  4  1  0  0  0  0
  2  5  1  0  0  0  0
  1  2  1  0  0  0  0
 20 21  2  0  0  0  0
 20 22  1  0  0  0  0
 17 18  1  0  0  0  0
 17 19  2  0  0  0  0
 14 15  1  0  0  0  0
 14 16  1  0  0  0  0
 14 17  1  0  0  0  0
 11 12  1  0  0  0  0
 11 13  1  0  0  0  0
 11 14  1  0  0  0  0
  9 10  1  0  0  0  0
  9 11  1  0  0  0  0
  9 20  1  0  0  0  0
  7  8  1  0  0  0  0
  7  9  1  0  0  0  0
 24 25  1  0  0  0  0
 24 26  1  0  0  0  0
 24 27  1  0  0  0  0
 22 23  1  0  0  0  0
 22 24  1  0  0  0  0
M  CHG  1  18  -1
M  END
$$$$
default_name
  -OEChem-02102213163D

 27 26  0     1  0  0  0  0  0999 V2000
   -3.2406   -3.5400    1.2326 H   0  0  0  0  0  0  0  0  0  0  0  0
   -3.1436   -2.6190    0.6606 C   0  0  0  0  0  0  0  0  0  0  0  0
   -3.8786   -1.8920    0.9996 H   0  0  0  0  0  0  0  0  0  0  0  0
   -3.2846   -2.8280   -0.3984 H   0  0  0  0  0  0  0  0  0  0  0  0
   -1.7586   -2.0580    0.8686 C   0  0  0  0  0  0  0  0  0  0  0  0
   -0.9666   -2.6340    1.6026 O   0  0  0  0  0  0  0  0  0  0  0  0
   -1.4866   -0.9220    0.2366 N   0  0  0  0  0  0  0  0  0  0  0  0
   -2.2166   -0.4790   -0.2994 H   0  0  0  0  0  0  0  0  0  0  0  0
   -0.1956   -0.2250    0.2596 C   0  0  1  0  0  0  0  0  0  0  0  0
    0.5755   -0.9013   -0.1105 H   0  0  0  0  0  0  0  0  0  0  0  0
   -0.2553    0.9811   -0.6992 C   0  0  0  0  0  0  0  0  0  0  0  0
   -1.2857    1.3390   -0.7254 H   0  0  0  0  0  0  0  0  0  0  0  0
    0.3775    1.7809   -0.3117 H   0  0  0  0  0  0  0  0  0  0  0  0
    0.1804    0.6439   -2.1351 C   0  0  0  0  0  0  0  0  0  0  0  0
   -0.6976    0.3491   -2.7149 H   0  0  0  0  0  0  0  0  0  0  0  0
    0.5959    1.5476   -2.5887 H   0  0  0  0  0  0  0  0  0  0  0  0
    1.2206   -0.4837   -2.2083 C   0  0  0  0  0  0  0  0  0  0  0  0
    1.7048   -0.9156   -1.1380 O   0  5  0  0  0  0  0  0  0  0  0  0
    1.4991   -0.9169   -3.3485 O   0  0  0  0  0  0  0  0  0  0  0  0
    0.1881    0.1678    1.7015 C   0  0  0  0  0  0  0  0  0  0  0  0
    1.3379    0.0002    2.1133 O   0  0  0  0  0  0  0  0  0  0  0  0
   -0.7666    0.7145    2.4656 N   0  0  0  0  0  0  0  0  0  0  0  0
   -1.6971    0.7705    2.0790 H   0  0  0  0  0  0  0  0  0  0  0  0
   -0.5716    1.1232    3.8542 C   0  0  0  0  0  0  0  0  0  0  0  0
    0.3083    1.7643    3.9293 H   0  0  0  0  0  0  0  0  0  0  0  0
   -1.4485    1.6640    4.2131 H   0  0  0  0  0  0  0  0  0  0  0  0
   -0.4137    0.2381    4.4736 H   0  0  0  0  0  0  0  0  0  0  0  0
  5  6  2  0  0  0  0
  5  7  1  0  0  0  0
  2  3  1  0  0  0  0
  2  4  1  0  0  0  0
  2  5  1  0  0  0  0
  1  2  1  0  0  0  0
 20 21  2  0  0  0  0
 20 22  1  0  0  0  0
 17 18  1  0  0  0  0
 17 19  2  0  0  0  0
 14 15  1  0  0  0  0
 14 16  1  0  0  0  0
 14 17  1  0  0  0  0
 11 12  1  0  0  0  0
 11 13  1  0  0  0  0
 11 14  1  0  0  0  0
  9 10  1  0  0  0  0
  9 11  1  0  0  0  0
  9 20  1  0  0  0  0
  7  8  1  0  0  0  0
  7  9  1  0  0  0  0
 24 25  1  0  0  0  0
 24 26  1  0  0  0  0
 24 27  1  0  0  0  0
 22 23  1  0  0  0  0
 22 24  1  0  0  0  0
M  CHG  1  18  -1
M  END
$$$$
default_name
  -OEChem-02102213163D

 27 26  0     1  0  0  0  0  0999 V2000
   -3.2406   -3.5400    1.2326 H   0  0  0  0  0  0  0  0  0  0  0  0
   -3.1436   -2.6190    0.6606 C   0  0  0  0  0  0  0  0  0  0  0  0
   -3.8786   -1.8920    0.9996 H   0  0  0  0  0  0  0  0  0  0  0  0
   -3.2846   -2.8280   -0.3984 H   0  0  0  0  0  0  0  0  0  0  0  0
   -1.7586   -2.0580    0.8686 C   0  0  0  0  0  0  0  0  0  0  0  0
   -0.9666   -2.6340    1.6026 O   0  0  0  0  0  0  0  0  0  0  0  0
   -1.4866   -0.9220    0.2366 N   0  0  0  0  0  0  0  0  0  0  0  0
   -2.2166   -0.4790   -0.2994 H   0  0  0  0  0  0  0  0  0  0  0  0
   -0.1956   -0.2250    0.2596 C   0  0  1  0  0  0  0  0  0  0  0  0
    0.5755   -0.9013   -0.1105 H   0  0  0  0  0  0  0  0  0  0  0  0
   -0.2553    0.9811   -0.6992 C   0  0  0  0  0  0  0  0  0  0  0  0
   -1.2857    1.3390   -0.7254 H   0  0  0  0  0  0  0  0  0  0  0  0
    0.3775    1.7809   -0.3117 H   0  0  0  0  0  0  0  0  0  0  0  0
    0.1804    0.6439   -2.1351 C   0  0  0  0  0  0  0  0  0  0  0  0
   -0.7026    0.6111   -2.7780 H   0  0  0  0  0  0  0  0  0  0  0  0
    0.8292    1.4471   -2.4943 H   0  0  0  0  0  0  0  0  0  0  0  0
    0.9227   -0.6959   -2.2488 C   0  0  0  0  0  0  0  0  0  0  0  0
    1.2179   -1.3028   -1.1948 O   0  5  0  0  0  0  0  0  0  0  0  0
    1.1638   -1.1072   -3.4055 O   0  0  0  0  0  0  0  0  0  0  0  0
    0.1881    0.1678    1.7015 C   0  0  0  0  0  0  0  0  0  0  0  0
    1.3379    0.0002    2.1133 O   0  0  0  0  0  0  0  0  0  0  0  0
   -0.7666    0.7145    2.4656 N   0  0  0  0  0  0  0  0  0  0  0  0
   -1.6971    0.7705    2.0790 H   0  0  0  0  0  0  0  0  0  0  0  0
   -0.5716    1.1232    3.8542 C   0  0  0  0  0  0  0  0  0  0  0  0
    0.3083    1.7643    3.9293 H   0  0  0  0  0  0  0  0  0  0  0  0
   -1.4485    1.6640    4.2131 H   0  0  0  0  0  0  0  0  0  0  0  0
   -0.4137    0.2381    4.4736 H   0  0  0  0  0  0  0  0  0  0  0  0
  5  6  2  0  0  0  0
  5  7  1  0  0  0  0
  2  3  1  0  0  0  0
  2  4  1  0  0  0  0
  2  5  1  0  0  0  0
  1  2  1  0  0  0  0
 20 21  2  0  0  0  0
 20 22  1  0  0  0  0
 17 18  1  0  0  0  0
 17 19  2  0  0  0  0
 14 15  1  0  0  0  0
 14 16  1  0  0  0  0
 14 17  1  0  0  0  0
 11 12  1  0  0  0  0
 11 13  1  0  0  0  0
 11 14  1  0  0  0  0
  9 10  1  0  0  0  0
  9 11  1  0  0  0  0
  9 20  1  0  0  0  0
  7  8  1  0  0  0  0
  7  9  1  0  0  0  0
 24 25  1  0  0  0  0
 24 26  1  0  0  0  0
 24 27  1  0  0  0  0
 22 23  1  0  0  0  0
 22 24  1  0  0  0  0
M  CHG  1  18  -1
M  END
$$$$
default_name
  -OEChem-02102213163D

 27 26  0     1  0  0  0  0  0999 V2000
   -3.2406   -3.5400    1.2326 H   0  0  0  0  0  0  0  0  0  0  0  0
   -3.1436   -2.6190    0.6606 C   0  0  0  0  0  0  0  0  0  0  0  0
   -3.8786   -1.8920    0.9996 H   0  0  0  0  0  0  0  0  0  0  0  0
   -3.2846   -2.8280   -0.3984 H   0  0  0  0  0  0  0  0  0  0  0  0
   -1.7586   -2.0580    0.8686 C   0  0  0  0  0  0  0  0  0  0  0  0
   -0.9666   -2.6340    1.6026 O   0  0  0  0  0  0  0  0  0  0  0  0
   -1.4866   -0.9220    0.2366 N   0  0  0  0  0  0  0  0  0  0  0  0
   -2.2166   -0.4790   -0.2994 H   0  0  0  0  0  0  0  0  0  0  0  0
   -0.1956   -0.2250    0.2596 C   0  0  1  0  0  0  0  0  0  0  0  0
    0.5755   -0.9013   -0.1105 H   0  0  0  0  0  0  0  0  0  0  0  0
   -0.2553    0.9811   -0.6992 C   0  0  0  0  0  0  0  0  0  0  0  0
   -1.2857    1.3390   -0.7254 H   0  0  0  0  0  0  0  0  0  0  0  0
    0.3775    1.7809   -0.3117 H   0  0  0  0  0  0  0  0  0  0  0  0
    0.1804    0.6439   -2.1351 C   0  0  0  0  0  0  0  0  0  0  0  0
   -0.6405    0.8700   -2.8199 H   0  0  0  0  0  0  0  0  0  0  0  0
    1.0249    1.2867   -2.3972 H   0  0  0  0  0  0  0  0  0  0  0  0
    0.5860   -0.8258   -2.3205 C   0  0  0  0  0  0  0  0  0  0  0  0
    0.6572   -1.5549   -1.3057 O   0  5  0  0  0  0  0  0  0  0  0  0
    0.7971   -1.2058   -3.4936 O   0  0  0  0  0  0  0  0  0  0  0  0
    0.1881    0.1678    1.7015 C   0  0  0  0  0  0  0  0  0  0  0  0
    1.3379    0.0002    2.1133 O   0  0  0  0  0  0  0  0  0  0  0  0
   -0.7666    0.7145    2.4656 N   0  0  0  0  0  0  0  0  0  0  0  0
   -1.6971    0.7705    2.0790 H   0  0  0  0  0  0  0  0  0  0  0  0
   -0.5716    1.1232    3.8542 C   0  0  0  0  0  0  0  0  0  0  0  0
    0.3083    1.7643    3.9293 H   0  0  0  0  0  0  0  0  0  0  0  0
   -1.4485    1.6640    4.2131 H   0  0  0  0  0  0  0  0  0  0  0  0
   -0.4137    0.2381    4.4736 H   0  0  0  0  0  0  0  0  0  0  0  0
  5  6  2  0  0  0  0
  5  7  1  0  0  0  0
  2  3  1  0  0  0  0
  2  4  1  0  0  0  0
  2  5  1  0  0  0  0
  1  2  1  0  0  0  0
 20 21  2  0  0  0  0
 20 22  1  0  0  0  0
 17 18  1  0  0  0  0
 17 19  2  0  0  0  0
 14 15  1  0  0  0  0
 14 16  1  0  0  0  0
 14 17  1  0  0  0  0
 11 12  1  0  0  0  0
 11 13  1  0  0  0  0
 11 14  1  0  0  0  0
  9 10  1  0  0  0  0
  9 11  1  0  0  0  0
  9 20  1  0  0  0  0
  7  8  1  0  0  0  0
  7  9  1  0  0  0  0
 24 25  1  0  0  0  0
 24 26  1  0  0  0  0
 24 27  1  0  0  0  0
 22 23  1  0  0  0  0
 22 24  1  0  0  0  0
M  CHG  1  18  -1
M  END
$$$$
default_name
  -OEChem-02102213163D

 27 26  0     1  0  0  0  0  0999 V2000
   -3.2406   -3.5400    1.2326 H   0  0  0  0  0  0  0  0  0  0  0  0
   -3.1436   -2.6190    0.6606 C   0  0  0  0  0  0  0  0  0  0  0  0
   -3.8786   -1.8920    0.9996 H   0  0  0  0  0  0  0  0  0  0  0  0
   -3.2846   -2.8280   -0.3984 H   0  0  0  0  0  0  0  0  0  0  0  0
   -1.7586   -2.0580    0.8686 C   0  0  0  0  0  0  0  0  0  0  0  0
   -0.9666   -2.6340    1.6026 O   0  0  0  0  0  0  0  0  0  0  0  0
   -1.4866   -0.9220    0.2366 N   0  0  0  0  0  0  0  0  0  0  0  0
   -2.2166   -0.4790   -0.2994 H   0  0  0  0  0  0  0  0  0  0  0  0
   -0.1956   -0.2250    0.2596 C   0  0  1  0  0  0  0  0  0  0  0  0
    0.5755   -0.9013   -0.1105 H   0  0  0  0  0  0  0  0  0  0  0  0
   -0.2553    0.9811   -0.6992 C   0  0  0  0  0  0  0  0  0  0  0  0
   -1.2857    1.3390   -0.7254 H   0  0  0  0  0  0  0  0  0  0  0  0
    0.3775    1.7809   -0.3117 H   0  0  0  0  0  0  0  0  0  0  0  0
    0.1804    0.6439   -2.1351 C   0  0  0  0  0  0  0  0  0  0  0  0
   -0.5155    1.1082   -2.8380 H   0  0  0  0  0  0  0  0  0  0  0  0
    1.1696    1.0774   -2.3042 H   0  0  0  0  0  0  0  0  0  0  0  0
    0.2335   -0.8647   -2.4183 C   0  0  0  0  0  0  0  0  0  0  0  0
    0.0611   -1.6549   -1.4631 O   0  5  0  0  0  0  0  0  0  0  0  0
    0.4240   -1.2060   -3.6068 O   0  0  0  0  0  0  0  0  0  0  0  0
    0.1881    0.1678    1.7015 C   0  0  0  0  0  0  0  0  0  0  0  0
    1.3379    0.0002    2.1133 O   0  0  0  0  0  0  0  0  0  0  0  0
   -0.7666    0.7145    2.4656 N   0  0  0  0  0  0  0  0  0  0  0  0
   -1.6971    0.7705    2.0790 H   0  0  0  0  0  0  0  0  0  0  0  0
   -0.5716    1.1232    3.8542 C   0  0  0  0  0  0  0  0  0  0  0  0
    0.3083    1.7643    3.9293 H   0  0  0  0  0  0  0  0  0  0  0  0
   -1.4485    1.6640    4.2131 H   0  0  0  0  0  0  0  0  0  0  0  0
   -0.4137    0.2381    4.4736 H   0  0  0  0  0  0  0  0  0  0  0  0
  5  6  2  0  0  0  0
  5  7  1  0  0  0  0
  2  3  1  0  0  0  0
  2  4  1  0  0  0  0
  2  5  1  0  0  0  0
  1  2  1  0  0  0  0
 20 21  2  0  0  0  0
 20 22  1  0  0  0  0
 17 18  1  0  0  0  0
 17 19  2  0  0  0  0
 14 15  1  0  0  0  0
 14 16  1  0  0  0  0
 14 17  1  0  0  0  0
 11 12  1  0  0  0  0
 11 13  1  0  0  0  0
 11 14  1  0  0  0  0
  9 10  1  0  0  0  0
  9 11  1  0  0  0  0
  9 20  1  0  0  0  0
  7  8  1  0  0  0  0
  7  9  1  0  0  0  0
 24 25  1  0  0  0  0
 24 26  1  0  0  0  0
 24 27  1  0  0  0  0
 22 23  1  0  0  0  0
 22 24  1  0  0  0  0
M  CHG  1  18  -1
M  END
$$$$
default_name
  -OEChem-02102213163D

 27 26  0     1  0  0  0  0  0999 V2000
   -3.2406   -3.5400    1.2326 H   0  0  0  0  0  0  0  0  0  0  0  0
   -3.1436   -2.6190    0.6606 C   0  0  0  0  0  0  0  0  0  0  0  0
   -3.8786   -1.8920    0.9996 H   0  0  0  0  0  0  0  0  0  0  0  0
   -3.2846   -2.8280   -0.3984 H   0  0  0  0  0  0  0  0  0  0  0  0
   -1.7586   -2.0580    0.8686 C   0  0  0  0  0  0  0  0  0  0  0  0
   -0.9666   -2.6340    1.6026 O   0  0  0  0  0  0  0  0  0  0  0  0
   -1.4866   -0.9220    0.2366 N   0  0  0  0  0  0  0  0  0  0  0  0
   -2.2166   -0.4790   -0.2994 H   0  0  0  0  0  0  0  0  0  0  0  0
   -0.1956   -0.2250    0.2596 C   0  0  1  0  0  0  0  0  0  0  0  0
    0.5755   -0.9013   -0.1105 H   0  0  0  0  0  0  0  0  0  0  0  0
   -0.2553    0.9811   -0.6992 C   0  0  0  0  0  0  0  0  0  0  0  0
   -1.2857    1.3390   -0.7254 H   0  0  0  0  0  0  0  0  0  0  0  0
    0.3775    1.7809   -0.3117 H   0  0  0  0  0  0  0  0  0  0  0  0
    0.1804    0.6439   -2.1351 C   0  0  0  0  0  0  0  0  0  0  0  0
   -0.3363    1.3094   -2.8308 H   0  0  0  0  0  0  0  0  0  0  0  0
    1.2536    0.8334   -2.2214 H   0  0  0  0  0  0  0  0  0  0  0  0
   -0.1109   -0.8099   -2.5356 C   0  0  0  0  0  0  0  0  0  0  0  0
   -0.5300   -1.5958   -1.6563 O   0  5  0  0  0  0  0  0  0  0  0  0
    0.0701   -1.1078   -3.7372 O   0  0  0  0  0  0  0  0  0  0  0  0
    0.1881    0.1678    1.7015 C   0  0  0  0  0  0  0  0  0  0  0  0
    1.3379    0.0002    2.1133 O   0  0  0  0  0  0  0  0  0  0  0  0
   -0.7666    0.7145    2.4656 N   0  0  0  0  0  0  0  0  0  0  0  0
   -1.6971    0.7705    2.0790 H   0  0  0  0  0  0  0  0  0  0  0  0
   -0.5716    1.1232    3.8542 C   0  0  0  0  0  0  0  0  0  0  0  0
    0.3083    1.7643    3.9293 H   0  0  0  0  0  0  0  0  0  0  0  0
   -1.4485    1.6640    4.2131 H   0  0  0  0  0  0  0  0  0  0  0  0
   -0.4137    0.2381    4.4736 H   0  0  0  0  0  0  0  0  0  0  0  0
  5  6  2  0  0  0  0
  5  7  1  0  0  0  0
  2  3  1  0  0  0  0
  2  4  1  0  0  0  0
  2  5  1  0  0  0  0
  1  2  1  0  0  0  0
 20 21  2  0  0  0  0
 20 22  1  0  0  0  0
 17 18  1  0  0  0  0
 17 19  2  0  0  0  0
 14 15  1  0  0  0  0
 14 16  1  0  0  0  0
 14 17  1  0  0  0  0
 11 12  1  0  0  0  0
 11 13  1  0  0  0  0
 11 14  1  0  0  0  0
  9 10  1  0  0  0  0
  9 11  1  0  0  0  0
  9 20  1  0  0  0  0
  7  8  1  0  0  0  0
  7  9  1  0  0  0  0
 24 25  1  0  0  0  0
 24 26  1  0  0  0  0
 24 27  1  0  0  0  0
 22 23  1  0  0  0  0
 22 24  1  0  0  0  0
M  CHG  1  18  -1
M  END
$$$$
default_name
  -OEChem-02102213163D

 27 26  0     1  0  0  0  0  0999 V2000
   -3.2406   -3.5400    1.2326 H   0  0  0  0  0  0  0  0  0  0  0  0
   -3.1436   -2.6190    0.6606 C   0  0  0  0  0  0  0  0  0  0  0  0
   -3.8786   -1.8920    0.9996 H   0  0  0  0  0  0  0  0  0  0  0  0
   -3.2846   -2.8280   -0.3984 H   0  0  0  0  0  0  0  0  0  0  0  0
   -1.7586   -2.0580    0.8686 C   0  0  0  0  0  0  0  0  0  0  0  0
   -0.9666   -2.6340    1.6026 O   0  0  0  0  0  0  0  0  0  0  0  0
   -1.4866   -0.9220    0.2366 N   0  0  0  0  0  0  0  0  0  0  0  0
   -2.2166   -0.4790   -0.2994 H   0  0  0  0  0  0  0  0  0  0  0  0
   -0.1956   -0.2250    0.2596 C   0  0  1  0  0  0  0  0  0  0  0  0
    0.5755   -0.9013   -0.1105 H   0  0  0  0  0  0  0  0  0  0  0  0
   -0.2553    0.9811   -0.6992 C   0  0  0  0  0  0  0  0  0  0  0  0
   -1.2857    1.3390   -0.7254 H   0  0  0  0  0  0  0  0  0  0  0  0
    0.3775    1.7809   -0.3117 H   0  0  0  0  0  0  0  0  0  0  0  0
    0.1804    0.6439   -2.1351 C   0  0  0  0  0  0  0  0  0  0  0  0
   -0.1149    1.4599   -2.7990 H   0  0  0  0  0  0  0  0  0  0  0  0
    1.2710    0.5714   -2.1545 H   0  0  0  0  0  0  0  0  0  0  0  0
   -0.4237   -0.6652   -2.6645 C   0  0  0  0  0  0  0  0  0  0  0  0
   -1.0757   -1.3818   -1.8721 O   0  5  0  0  0  0  0  0  0  0  0  0
   -0.2407   -0.9178   -3.8761 O   0  0  0  0  0  0  0  0  0  0  0  0
    0.1881    0.1678    1.7015 C   0  0  0  0  0  0  0  0  0  0  0  0
    1.3379    0.0002    2.1133 O   0  0  0  0  0  0  0  0  0  0  0  0
   -0.7666    0.7145    2.4656 N   0  0  0  0  0  0  0  0  0  0  0  0
   -1.6971    0.7705    2.0790 H   0  0  0  0  0  0  0  0  0  0  0  0
   -0.5716    1.1232    3.8542 C   0  0  0  0  0  0  0  0  0  0  0  0
    0.3083    1.7643    3.9293 H   0  0  0  0  0  0  0  0  0  0  0  0
   -1.4485    1.6640    4.2131 H   0  0  0  0  0  0  0  0  0  0  0  0
   -0.4137    0.2381    4.4736 H   0  0  0  0  0  0  0  0  0  0  0  0
  5  6  2  0  0  0  0
  5  7  1  0  0  0  0
  2  3  1  0  0  0  0
  2  4  1  0  0  0  0
  2  5  1  0  0  0  0
  1  2  1  0  0  0  0
 20 21  2  0  0  0  0
 20 22  1  0  0  0  0
 17 18  1  0  0  0  0
 17 19  2  0  0  0  0
 14 15  1  0  0  0  0
 14 16  1  0  0  0  0
 14 17  1  0  0  0  0
 11 12  1  0  0  0  0
 11 13  1  0  0  0  0
 11 14  1  0  0  0  0
  9 10  1  0  0  0  0
  9 11  1  0  0  0  0
  9 20  1  0  0  0  0
  7  8  1  0  0  0  0
  7  9  1  0  0  0  0
 24 25  1  0  0  0  0
 24 26  1  0  0  0  0
 24 27  1  0  0  0  0
 22 23  1  0  0  0  0
 22 24  1  0  0  0  0
M  CHG  1  18  -1
M  END
$$$$
default_name
  -OEChem-02102213163D

 27 26  0     1  0  0  0  0  0999 V2000
   -3.2406   -3.5400    1.2326 H   0  0  0  0  0  0  0  0  0  0  0  0
   -3.1436   -2.6190    0.6606 C   0  0  0  0  0  0  0  0  0  0  0  0
   -3.8786   -1.8920    0.9996 H   0  0  0  0  0  0  0  0  0  0  0  0
   -3.2846   -2.8280   -0.3984 H   0  0  0  0  0  0  0  0  0  0  0  0
   -1.7586   -2.0580    0.8686 C   0  0  0  0  0  0  0  0  0  0  0  0
   -0.9666   -2.6340    1.6026 O   0  0  0  0  0  0  0  0  0  0  0  0
   -1.4866   -0.9220    0.2366 N   0  0  0  0  0  0  0  0  0  0  0  0
   -2.2166   -0.4790   -0.2994 H   0  0  0  0  0  0  0  0  0  0  0  0
   -0.1956   -0.2250    0.2596 C   0  0  1  0  0  0  0  0  0  0  0  0
    0.5755   -0.9013   -0.1105 H   0  0  0  0  0  0  0  0  0  0  0  0
   -0.2553    0.9811   -0.6992 C   0  0  0  0  0  0  0  0  0  0  0  0
   -1.2857    1.3390   -0.7254 H   0  0  0  0  0  0  0  0  0  0  0  0
    0.3775    1.7809   -0.3117 H   0  0  0  0  0  0  0  0  0  0  0  0
    0.1804    0.6439   -2.1351 C   0  0  0  0  0  0  0  0  0  0  0  0
    0.1335    1.5495   -2.7447 H   0  0  0  0  0  0  0  0  0  0  0  0
    1.2208    0.3092   -2.1082 H   0  0  0  0  0  0  0  0  0  0  0  0
   -0.6835   -0.4404   -2.7962 C   0  0  0  0  0  0  0  0  0  0  0  0
   -1.5388   -1.0273   -2.0959 O   0  5  0  0  0  0  0  0  0  0  0  0
   -0.4871   -0.6490   -4.0140 O   0  0  0  0  0  0  0  0  0  0  0  0
    0.1881    0.1678    1.7015 C   0  0  0  0  0  0  0  0  0  0  0  0
    1.3379    0.0002    2.1133 O   0  0  0  0  0  0  0  0  0  0  0  0
   -0.7666    0.7145    2.4656 N   0  0  0  0  0  0  0  0  0  0  0  0
   -1.6971    0.7705    2.0790 H   0  0  0  0  0  0  0  0  0  0  0  0
   -0.5716    1.1232    3.8542 C   0  0  0  0  0  0  0  0  0  0  0  0
    0.3083    1.7643    3.9293 H   0  0  0  0  0  0  0  0  0  0  0  0
   -1.4485    1.6640    4.2131 H   0  0  0  0  0  0  0  0  0  0  0  0
   -0.4137    0.2381    4.4736 H   0  0  0  0  0  0  0  0  0  0  0  0
  5  6  2  0  0  0  0
  5  7  1  0  0  0  0
  2  3  1  0  0  0  0
  2  4  1  0  0  0  0
  2  5  1  0  0  0  0
  1  2  1  0  0  0  0
 20 21  2  0  0  0  0
 20 22  1  0  0  0  0
 17 18  1  0  0  0  0
 17 19  2  0  0  0  0
 14 15  1  0  0  0  0
 14 16  1  0  0  0  0
 14 17  1  0  0  0  0
 11 12  1  0  0  0  0
 11 13  1  0  0  0  0
 11 14  1  0  0  0  0
  9 10  1  0  0  0  0
  9 11  1  0  0  0  0
  9 20  1  0  0  0  0
  7  8  1  0  0  0  0
  7  9  1  0  0  0  0
 24 25  1  0  0  0  0
 24 26  1  0  0  0  0
 24 27  1  0  0  0  0
 22 23  1  0  0  0  0
 22 24  1  0  0  0  0
M  CHG  1  18  -1
M  END
$$$$
default_name
  -OEChem-02102213163D

 27 26  0     1  0  0  0  0  0999 V2000
   -3.2406   -3.5400    1.2326 H   0  0  0  0  0  0  0  0  0  0  0  0
   -3.1436   -2.6190    0.6606 C   0  0  0  0  0  0  0  0  0  0  0  0
   -3.8786   -1.8920    0.9996 H   0  0  0  0  0  0  0  0  0  0  0  0
   -3.2846   -2.8280   -0.3984 H   0  0  0  0  0  0  0  0  0  0  0  0
   -1.7586   -2.0580    0.8686 C   0  0  0  0  0  0  0  0  0  0  0  0
   -0.9666   -2.6340    1.6026 O   0  0  0  0  0  0  0  0  0  0  0  0
   -1.4866   -0.9220    0.2366 N   0  0  0  0  0  0  0  0  0  0  0  0
   -2.2166   -0.4790   -0.2994 H   0  0  0  0  0  0  0  0  0  0  0  0
   -0.1956   -0.2250    0.2596 C   0  0  1  0  0  0  0  0  0  0  0  0
    0.5755   -0.9013   -0.1105 H   0  0  0  0  0  0  0  0  0  0  0  0
   -0.2553    0.9811   -0.6992 C   0  0  0  0  0  0  0  0  0  0  0  0
   -1.2857    1.3390   -0.7254 H   0  0  0  0  0  0  0  0  0  0  0  0
    0.3775    1.7809   -0.3117 H   0  0  0  0  0  0  0  0  0  0  0  0
    0.1804    0.6439   -2.1351 C   0  0  0  0  0  0  0  0  0  0  0  0
    0.3919    1.5720   -2.6715 H   0  0  0  0  0  0  0  0  0  0  0  0
    1.1062    0.0647   -2.0855 H   0  0  0  0  0  0  0  0  0  0  0  0
   -0.8727   -0.1508   -2.9216 C   0  0  0  0  0  0  0  0  0  0  0  0
   -1.8878   -0.5567   -2.3123 O   0  5  0  0  0  0  0  0  0  0  0  0
   -0.6522   -0.3197   -4.1415 O   0  0  0  0  0  0  0  0  0  0  0  0
    0.1881    0.1678    1.7015 C   0  0  0  0  0  0  0  0  0  0  0  0
    1.3379    0.0002    2.1133 O   0  0  0  0  0  0  0  0  0  0  0  0
   -0.7666    0.7145    2.4656 N   0  0  0  0  0  0  0  0  0  0  0  0
   -1.6971    0.7705    2.0790 H   0  0  0  0  0  0  0  0  0  0  0  0
   -0.5716    1.1232    3.8542 C   0  0  0  0  0  0  0  0  0  0  0  0
    0.3083    1.7643    3.9293 H   0  0  0  0  0  0  0  0  0  0  0  0
   -1.4485    1.6640    4.2131 H   0  0  0  0  0  0  0  0  0  0  0  0
   -0.4137    0.2381    4.4736 H   0  0  0  0  0  0  0  0  0  0  0  0
  5  6  2  0  0  0  0
  5  7  1  0  0  0  0
  2  3  1  0  0  0  0
  2  4  1  0  0  0  0
  2  5  1  0  0  0  0
  1  2  1  0  0  0  0
 20 21  2  0  0  0  0
 20 22  1  0  0  0  0
 17 18  1  0  0  0  0
 17 19  2  0  0  0  0
 14 15  1  0  0  0  0
 14 16  1  0  0  0  0
 14 17  1  0  0  0  0
 11 12  1  0  0  0  0
 11 13  1  0  0  0  0
 11 14  1  0  0  0  0
  9 10  1  0  0  0  0
  9 11  1  0  0  0  0
  9 20  1  0  0  0  0
  7  8  1  0  0  0  0
  7  9  1  0  0  0  0
 24 25  1  0  0  0  0
 24 26  1  0  0  0  0
 24 27  1  0  0  0  0
 22 23  1  0  0  0  0
 22 24  1  0  0  0  0
M  CHG  1  18  -1
M  END
$$$$
default_name
  -OEChem-02102213163D

 27 26  0     1  0  0  0  0  0999 V2000
   -3.2406   -3.5400    1.2326 H   0  0  0  0  0  0  0  0  0  0  0  0
   -3.1436   -2.6190    0.6606 C   0  0  0  0  0  0  0  0  0  0  0  0
   -3.8786   -1.8920    0.9996 H   0  0  0  0  0  0  0  0  0  0  0  0
   -3.2846   -2.8280   -0.3984 H   0  0  0  0  0  0  0  0  0  0  0  0
   -1.7586   -2.0580    0.8686 C   0  0  0  0  0  0  0  0  0  0  0  0
   -0.9666   -2.6340    1.6026 O   0  0  0  0  0  0  0  0  0  0  0  0
   -1.4866   -0.9220    0.2366 N   0  0  0  0  0  0  0  0  0  0  0  0
   -2.2166   -0.4790   -0.2994 H   0  0  0  0  0  0  0  0  0  0  0  0
   -0.1956   -0.2250    0.2596 C   0  0  1  0  0  0  0  0  0  0  0  0
    0.5755   -0.9013   -0.1105 H   0  0  0  0  0  0  0  0  0  0  0  0
   -0.2553    0.9811   -0.6992 C   0  0  0  0  0  0  0  0  0  0  0  0
   -1.2857    1.3390   -0.7254 H   0  0  0  0  0  0  0  0  0  0  0  0
    0.3775    1.7809   -0.3117 H   0  0  0  0  0  0  0  0  0  0  0  0
    0.1804    0.6439   -2.1351 C   0  0  0  0  0  0  0  0  0  0  0  0
    0.6429    1.5259   -2.5846 H   0  0  0  0  0  0  0  0  0  0  0  0
    0.9352   -0.1455   -2.0881 H   0  0  0  0  0  0  0  0  0  0  0  0
   -0.9783    0.1839   -3.0322 C   0  0  0  0  0  0  0  0  0  0  0  0
   -2.0989   -0.0018   -2.5067 O   0  5  0  0  0  0  0  0  0  0  0  0
   -0.7250    0.0476   -4.2498 O   0  0  0  0  0  0  0  0  0  0  0  0
    0.1881    0.1678    1.7015 C   0  0  0  0  0  0  0  0  0  0  0  0
    1.3379    0.0002    2.1133 O   0  0  0  0  0  0  0  0  0  0  0  0
   -0.7666    0.7145    2.4656 N   0  0  0  0  0  0  0  0  0  0  0  0
   -1.6971    0.7705    2.0790 H   0  0  0  0  0  0  0  0  0  0  0  0
   -0.5716    1.1232    3.8542 C   0  0  0  0  0  0  0  0  0  0  0  0
    0.3083    1.7643    3.9293 H   0  0  0  0  0  0  0  0  0  0  0  0
   -1.4485    1.6640    4.2131 H   0  0  0  0  0  0  0  0  0  0  0  0
   -0.4137    0.2381    4.4736 H   0  0  0  0  0  0  0  0  0  0  0  0
  5  6  2  0  0  0  0
  5  7  1  0  0  0  0
  2  3  1  0  0  0  0
  2  4  1  0  0  0  0
  2  5  1  0  0  0  0
  1  2  1  0  0  0  0
 20 21  2  0  0  0  0
 20 22  1  0  0  0  0
 17 18  1  0  0  0  0
 17 19  2  0  0  0  0
 14 15  1  0  0  0  0
 14 16  1  0  0  0  0
 14 17  1  0  0  0  0
 11 12  1  0  0  0  0
 11 13  1  0  0  0  0
 11 14  1  0  0  0  0
  9 10  1  0  0  0  0
  9 11  1  0  0  0  0
  9 20  1  0  0  0  0
  7  8  1  0  0  0  0
  7  9  1  0  0  0  0
 24 25  1  0  0  0  0
 24 26  1  0  0  0  0
 24 27  1  0  0  0  0
 22 23  1  0  0  0  0
 22 24  1  0  0  0  0
M  CHG  1  18  -1
M  END
$$$$
default_name
  -OEChem-02102213163D

 27 26  0     1  0  0  0  0  0999 V2000
   -3.2406   -3.5400    1.2326 H   0  0  0  0  0  0  0  0  0  0  0  0
   -3.1436   -2.6190    0.6606 C   0  0  0  0  0  0  0  0  0  0  0  0
   -3.8786   -1.8920    0.9996 H   0  0  0  0  0  0  0  0  0  0  0  0
   -3.2846   -2.8280   -0.3984 H   0  0  0  0  0  0  0  0  0  0  0  0
   -1.7586   -2.0580    0.8686 C   0  0  0  0  0  0  0  0  0  0  0  0
   -0.9666   -2.6340    1.6026 O   0  0  0  0  0  0  0  0  0  0  0  0
   -1.4866   -0.9220    0.2366 N   0  0  0  0  0  0  0  0  0  0  0  0
   -2.2166   -0.4790   -0.2994 H   0  0  0  0  0  0  0  0  0  0  0  0
   -0.1956   -0.2250    0.2596 C   0  0  1  0  0  0  0  0  0  0  0  0
    0.5755   -0.9013   -0.1105 H   0  0  0  0  0  0  0  0  0  0  0  0
   -0.2553    0.9811   -0.6992 C   0  0  0  0  0  0  0  0  0  0  0  0
   -1.2857    1.3390   -0.7254 H   0  0  0  0  0  0  0  0  0  0  0  0
    0.3775    1.7809   -0.3117 H   0  0  0  0  0  0  0  0  0  0  0  0
    0.1804    0.6439   -2.1351 C   0  0  0  0  0  0  0  0  0  0  0  0
    0.8692    1.4144   -2.4897 H   0  0  0  0  0  0  0  0  0  0  0  0
    0.7194   -0.3070   -2.1156 H   0  0  0  0  0  0  0  0  0  0  0  0
   -0.9931    0.5407   -3.1206 C   0  0  0  0  0  0  0  0  0  0  0  0
   -2.1577    0.5994   -2.6657 O   0  5  0  0  0  0  0  0  0  0  0  0
   -0.7004    0.4279   -4.3317 O   0  0  0  0  0  0  0  0  0  0  0  0
    0.1881    0.1678    1.7015 C   0  0  0  0  0  0  0  0  0  0  0  0
    1.3379    0.0002    2.1133 O   0  0  0  0  0  0  0  0  0  0  0  0
   -0.7666    0.7145    2.4656 N   0  0  0  0  0  0  0  0  0  0  0  0
   -1.6971    0.7705    2.0790 H   0  0  0  0  0  0  0  0  0  0  0  0
   -0.5716    1.1232    3.8542 C   0  0  0  0  0  0  0  0  0  0  0  0
    0.3083    1.7643    3.9293 H   0  0  0  0  0  0  0  0  0  0  0  0
   -1.4485    1.6640    4.2131 H   0  0  0  0  0  0  0  0  0  0  0  0
   -0.4137    0.2381    4.4736 H   0  0  0  0  0  0  0  0  0  0  0  0
  5  6  2  0  0  0  0
  5  7  1  0  0  0  0
  2  3  1  0  0  0  0
  2  4  1  0  0  0  0
  2  5  1  0  0  0  0
  1  2  1  0  0  0  0
 20 21  2  0  0  0  0
 20 22  1  0  0  0  0
 17 18  1  0  0  0  0
 17 19  2  0  0  0  0
 14 15  1  0  0  0  0
 14 16  1  0  0  0  0
 14 17  1  0  0  0  0
 11 12  1  0  0  0  0
 11 13  1  0  0  0  0
 11 14  1  0  0  0  0
  9 10  1  0  0  0  0
  9 11  1  0  0  0  0
  9 20  1  0  0  0  0
  7  8  1  0  0  0  0
  7  9  1  0  0  0  0
 24 25  1  0  0  0  0
 24 26  1  0  0  0  0
 24 27  1  0  0  0  0
 22 23  1  0  0  0  0
 22 24  1  0  0  0  0
M  CHG  1  18  -1
M  END
$$$$
default_name
  -OEChem-02102213163D

 27 26  0     1  0  0  0  0  0999 V2000
   -3.2406   -3.5400    1.2326 H   0  0  0  0  0  0  0  0  0  0  0  0
   -3.1436   -2.6190    0.6606 C   0  0  0  0  0  0  0  0  0  0  0  0
   -3.8786   -1.8920    0.9996 H   0  0  0  0  0  0  0  0  0  0  0  0
   -3.2846   -2.8280   -0.3984 H   0  0  0  0  0  0  0  0  0  0  0  0
   -1.7586   -2.0580    0.8686 C   0  0  0  0  0  0  0  0  0  0  0  0
   -0.9666   -2.6340    1.6026 O   0  0  0  0  0  0  0  0  0  0  0  0
   -1.4866   -0.9220    0.2366 N   0  0  0  0  0  0  0  0  0  0  0  0
   -2.2166   -0.4790   -0.2994 H   0  0  0  0  0  0  0  0  0  0  0  0
   -0.1956   -0.2250    0.2596 C   0  0  1  0  0  0  0  0  0  0  0  0
    0.5755   -0.9013   -0.1105 H   0  0  0  0  0  0  0  0  0  0  0  0
   -0.2553    0.9811   -0.6992 C   0  0  0  0  0  0  0  0  0  0  0  0
   -1.2857    1.3390   -0.7254 H   0  0  0  0  0  0  0  0  0  0  0  0
    0.3775    1.7809   -0.3117 H   0  0  0  0  0  0  0  0  0  0  0  0
    0.1804    0.6439   -2.1351 C   0  0  0  0  0  0  0  0  0  0  0  0
    1.0555    1.2450   -2.3934 H   0  0  0  0  0  0  0  0  0  0  0  0
    0.4734   -0.4089   -2.1663 H   0  0  0  0  0  0  0  0  0  0  0  0
   -0.9163    0.8955   -3.1806 C   0  0  0  0  0  0  0  0  0  0  0  0
   -2.0602    1.2060   -2.7786 O   0  5  0  0  0  0  0  0  0  0  0  0
   -0.5800    0.7954   -4.3815 O   0  0  0  0  0  0  0  0  0  0  0  0
    0.1881    0.1678    1.7015 C   0  0  0  0  0  0  0  0  0  0  0  0
    1.3379    0.0002    2.1133 O   0  0  0  0  0  0  0  0  0  0  0  0
   -0.7666    0.7145    2.4656 N   0  0  0  0  0  0  0  0  0  0  0  0
   -1.6971    0.7705    2.0790 H   0  0  0  0  0  0  0  0  0  0  0  0
   -0.5716    1.1232    3.8542 C   0  0  0  0  0  0  0  0  0  0  0  0
    0.3083    1.7643    3.9293 H   0  0  0  0  0  0  0  0  0  0  0  0
   -1.4485    1.6640    4.2131 H   0  0  0  0  0  0  0  0  0  0  0  0
   -0.4137    0.2381    4.4736 H   0  0  0  0  0  0  0  0  0  0  0  0
  5  6  2  0  0  0  0
  5  7  1  0  0  0  0
  2  3  1  0  0  0  0
  2  4  1  0  0  0  0
  2  5  1  0  0  0  0
  1  2  1  0  0  0  0
 20 21  2  0  0  0  0
 20 22  1  0  0  0  0
 17 18  1  0  0  0  0
 17 19  2  0  0  0  0
 14 15  1  0  0  0  0
 14 16  1  0  0  0  0
 14 17  1  0  0  0  0
 11 12  1  0  0  0  0
 11 13  1  0  0  0  0
 11 14  1  0  0  0  0
  9 10  1  0  0  0  0
  9 11  1  0  0  0  0
  9 20  1  0  0  0  0
  7  8  1  0  0  0  0
  7  9  1  0  0  0  0
 24 25  1  0  0  0  0
 24 26  1  0  0  0  0
 24 27  1  0  0  0  0
 22 23  1  0  0  0  0
 22 24  1  0  0  0  0
M  CHG  1  18  -1
M  END
$$$$
default_name
  -OEChem-02102213163D

 27 26  0     1  0  0  0  0  0999 V2000
   -3.2406   -3.5400    1.2326 H   0  0  0  0  0  0  0  0  0  0  0  0
   -3.1436   -2.6190    0.6606 C   0  0  0  0  0  0  0  0  0  0  0  0
   -3.8786   -1.8920    0.9996 H   0  0  0  0  0  0  0  0  0  0  0  0
   -3.2846   -2.8280   -0.3984 H   0  0  0  0  0  0  0  0  0  0  0  0
   -1.7586   -2.0580    0.8686 C   0  0  0  0  0  0  0  0  0  0  0  0
   -0.9666   -2.6340    1.6026 O   0  0  0  0  0  0  0  0  0  0  0  0
   -1.4866   -0.9220    0.2366 N   0  0  0  0  0  0  0  0  0  0  0  0
   -2.2166   -0.4790   -0.2994 H   0  0  0  0  0  0  0  0  0  0  0  0
   -0.1956   -0.2250    0.2596 C   0  0  1  0  0  0  0  0  0  0  0  0
    0.5755   -0.9013   -0.1105 H   0  0  0  0  0  0  0  0  0  0  0  0
   -0.2553    0.9811   -0.6992 C   0  0  0  0  0  0  0  0  0  0  0  0
   -1.2857    1.3390   -0.7254 H   0  0  0  0  0  0  0  0  0  0  0  0
    0.3775    1.7809   -0.3117 H   0  0  0  0  0  0  0  0  0  0  0  0
    0.1804    0.6439   -2.1351 C   0  0  0  0  0  0  0  0  0  0  0  0
    1.1891    1.0293   -2.3022 H   0  0  0  0  0  0  0  0  0  0  0  0
    0.2141   -0.4441   -2.2367 H   0  0  0  0  0  0  0  0  0  0  0  0
   -0.7529    1.2240   -3.2081 C   0  0  0  0  0  0  0  0  0  0  0  0
   -1.8130    1.7766   -2.8376 O   0  5  0  0  0  0  0  0  0  0  0  0
   -0.3722    1.1249   -4.3958 O   0  0  0  0  0  0  0  0  0  0  0  0
    0.1881    0.1678    1.7015 C   0  0  0  0  0  0  0  0  0  0  0  0
    1.3379    0.0002    2.1133 O   0  0  0  0  0  0  0  0  0  0  0  0
   -0.7666    0.7145    2.4656 N   0  0  0  0  0  0  0  0  0  0  0  0
   -1.6971    0.7705    2.0790 H   0  0  0  0  0  0  0  0  0  0  0  0
   -0.5716    1.1232    3.8542 C   0  0  0  0  0  0  0  0  0  0  0  0
    0.3083    1.7643    3.9293 H   0  0  0  0  0  0  0  0  0  0  0  0
   -1.4485    1.6640    4.2131 H   0  0  0  0  0  0  0  0  0  0  0  0
   -0.4137    0.2381    4.4736 H   0  0  0  0  0  0  0  0  0  0  0  0
  5  6  2  0  0  0  0
  5  7  1  0  0  0  0
  2  3  1  0  0  0  0
  2  4  1  0  0  0  0
  2  5  1  0  0  0  0
  1  2  1  0  0  0  0
 20 21  2  0  0  0  0
 20 22  1  0  0  0  0
 17 18  1  0  0  0  0
 17 19  2  0  0  0  0
 14 15  1  0  0  0  0
 14 16  1  0  0  0  0
 14 17  1  0  0  0  0
 11 12  1  0  0  0  0
 11 13  1  0  0  0  0
 11 14  1  0  0  0  0
  9 10  1  0  0  0  0
  9 11  1  0  0  0  0
  9 20  1  0  0  0  0
  7  8  1  0  0  0  0
  7  9  1  0  0  0  0
 24 25  1  0  0  0  0
 24 26  1  0  0  0  0
 24 27  1  0  0  0  0
 22 23  1  0  0  0  0
 22 24  1  0  0  0  0
M  CHG  1  18  -1
M  END
$$$$
default_name
  -OEChem-02102213163D

 27 26  0     1  0  0  0  0  0999 V2000
   -3.2406   -3.5400    1.2326 H   0  0  0  0  0  0  0  0  0  0  0  0
   -3.1436   -2.6190    0.6606 C   0  0  0  0  0  0  0  0  0  0  0  0
   -3.8786   -1.8920    0.9996 H   0  0  0  0  0  0  0  0  0  0  0  0
   -3.2846   -2.8280   -0.3984 H   0  0  0  0  0  0  0  0  0  0  0  0
   -1.7586   -2.0580    0.8686 C   0  0  0  0  0  0  0  0  0  0  0  0
   -0.9666   -2.6340    1.6026 O   0  0  0  0  0  0  0  0  0  0  0  0
   -1.4866   -0.9220    0.2366 N   0  0  0  0  0  0  0  0  0  0  0  0
   -2.2166   -0.4790   -0.2994 H   0  0  0  0  0  0  0  0  0  0  0  0
   -0.1956   -0.2250    0.2596 C   0  0  1  0  0  0  0  0  0  0  0  0
    0.5755   -0.9013   -0.1105 H   0  0  0  0  0  0  0  0  0  0  0  0
   -0.2553    0.9811   -0.6992 C   0  0  0  0  0  0  0  0  0  0  0  0
   -1.2857    1.3390   -0.7254 H   0  0  0  0  0  0  0  0  0  0  0  0
    0.3775    1.7809   -0.3117 H   0  0  0  0  0  0  0  0  0  0  0  0
    0.1804    0.6439   -2.1351 C   0  0  0  0  0  0  0  0  0  0  0  0
    1.2608    0.7820   -2.2224 H   0  0  0  0  0  0  0  0  0  0  0  0
   -0.0408   -0.4103   -2.3220 H   0  0  0  0  0  0  0  0  0  0  0  0
   -0.5141    1.5039   -3.2014 C   0  0  0  0  0  0  0  0  0  0  0  0
   -1.4330    2.2723   -2.8388 O   0  5  0  0  0  0  0  0  0  0  0  0
   -0.0910    1.3939   -4.3737 O   0  0  0  0  0  0  0  0  0  0  0  0
    0.1881    0.1678    1.7015 C   0  0  0  0  0  0  0  0  0  0  0  0
    1.3379    0.0002    2.1133 O   0  0  0  0  0  0  0  0  0  0  0  0
   -0.7666    0.7145    2.4656 N   0  0  0  0  0  0  0  0  0  0  0  0
   -1.6971    0.7705    2.0790 H   0  0  0  0  0  0  0  0  0  0  0  0
   -0.5716    1.1232    3.8542 C   0  0  0  0  0  0  0  0  0  0  0  0
    0.3083    1.7643    3.9293 H   0  0  0  0  0  0  0  0  0  0  0  0
   -1.4485    1.6640    4.2131 H   0  0  0  0  0  0  0  0  0  0  0  0
   -0.4137    0.2381    4.4736 H   0  0  0  0  0  0  0  0  0  0  0  0
  5  6  2  0  0  0  0
  5  7  1  0  0  0  0
  2  3  1  0  0  0  0
  2  4  1  0  0  0  0
  2  5  1  0  0  0  0
  1  2  1  0  0  0  0
 20 21  2  0  0  0  0
 20 22  1  0  0  0  0
 17 18  1  0  0  0  0
 17 19  2  0  0  0  0
 14 15  1  0  0  0  0
 14 16  1  0  0  0  0
 14 17  1  0  0  0  0
 11 12  1  0  0  0  0
 11 13  1  0  0  0  0
 11 14  1  0  0  0  0
  9 10  1  0  0  0  0
  9 11  1  0  0  0  0
  9 20  1  0  0  0  0
  7  8  1  0  0  0  0
  7  9  1  0  0  0  0
 24 25  1  0  0  0  0
 24 26  1  0  0  0  0
 24 27  1  0  0  0  0
 22 23  1  0  0  0  0
 22 24  1  0  0  0  0
M  CHG  1  18  -1
M  END
$$$$
default_name
  -OEChem-02102213163D

 27 26  0     1  0  0  0  0  0999 V2000
   -3.2406   -3.5400    1.2326 H   0  0  0  0  0  0  0  0  0  0  0  0
   -3.1436   -2.6190    0.6606 C   0  0  0  0  0  0  0  0  0  0  0  0
   -3.8786   -1.8920    0.9996 H   0  0  0  0  0  0  0  0  0  0  0  0
   -3.2846   -2.8280   -0.3984 H   0  0  0  0  0  0  0  0  0  0  0  0
   -1.7586   -2.0580    0.8686 C   0  0  0  0  0  0  0  0  0  0  0  0
   -0.9666   -2.6340    1.6026 O   0  0  0  0  0  0  0  0  0  0  0  0
   -1.4866   -0.9220    0.2366 N   0  0  0  0  0  0  0  0  0  0  0  0
   -2.2166   -0.4790   -0.2994 H   0  0  0  0  0  0  0  0  0  0  0  0
   -0.1956   -0.2250    0.2596 C   0  0  1  0  0  0  0  0  0  0  0  0
    0.5755   -0.9013   -0.1105 H   0  0  0  0  0  0  0  0  0  0  0  0
   -0.2553    0.9811   -0.6992 C   0  0  0  0  0  0  0  0  0  0  0  0
   -1.2857    1.3390   -0.7254 H   0  0  0  0  0  0  0  0  0  0  0  0
    0.3775    1.7809   -0.3117 H   0  0  0  0  0  0  0  0  0  0  0  0
    0.1804    0.6439   -2.1351 C   0  0  0  0  0  0  0  0  0  0  0  0
    1.2657    0.5200   -2.1593 H   0  0  0  0  0  0  0  0  0  0  0  0
   -0.2741   -0.3097   -2.4164 H   0  0  0  0  0  0  0  0  0  0  0  0
   -0.2162    1.7160   -3.1608 C   0  0  0  0  0  0  0  0  0  0  0  0
   -0.9461    2.6595   -2.7820 O   0  5  0  0  0  0  0  0  0  0  0  0
    0.2444    1.5843   -4.3166 O   0  0  0  0  0  0  0  0  0  0  0  0
    0.1881    0.1678    1.7015 C   0  0  0  0  0  0  0  0  0  0  0  0
    1.3379    0.0002    2.1133 O   0  0  0  0  0  0  0  0  0  0  0  0
   -0.7666    0.7145    2.4656 N   0  0  0  0  0  0  0  0  0  0  0  0
   -1.6971    0.7705    2.0790 H   0  0  0  0  0  0  0  0  0  0  0  0
   -0.5716    1.1232    3.8542 C   0  0  0  0  0  0  0  0  0  0  0  0
    0.3083    1.7643    3.9293 H   0  0  0  0  0  0  0  0  0  0  0  0
   -1.4485    1.6640    4.2131 H   0  0  0  0  0  0  0  0  0  0  0  0
   -0.4137    0.2381    4.4736 H   0  0  0  0  0  0  0  0  0  0  0  0
  5  6  2  0  0  0  0
  5  7  1  0  0  0  0
  2  3  1  0  0  0  0
  2  4  1  0  0  0  0
  2  5  1  0  0  0  0
  1  2  1  0  0  0  0
 20 21  2  0  0  0  0
 20 22  1  0  0  0  0
 17 18  1  0  0  0  0
 17 19  2  0  0  0  0
 14 15  1  0  0  0  0
 14 16  1  0  0  0  0
 14 17  1  0  0  0  0
 11 12  1  0  0  0  0
 11 13  1  0  0  0  0
 11 14  1  0  0  0  0
  9 10  1  0  0  0  0
  9 11  1  0  0  0  0
  9 20  1  0  0  0  0
  7  8  1  0  0  0  0
  7  9  1  0  0  0  0
 24 25  1  0  0  0  0
 24 26  1  0  0  0  0
 24 27  1  0  0  0  0
 22 23  1  0  0  0  0
 22 24  1  0  0  0  0
M  CHG  1  18  -1
M  END
$$$$
default_name
  -OEChem-02102213163D

 27 26  0     1  0  0  0  0  0999 V2000
   -3.2406   -3.5400    1.2326 H   0  0  0  0  0  0  0  0  0  0  0  0
   -3.1436   -2.6190    0.6606 C   0  0  0  0  0  0  0  0  0  0  0  0
   -3.8786   -1.8920    0.9996 H   0  0  0  0  0  0  0  0  0  0  0  0
   -3.2846   -2.8280   -0.3984 H   0  0  0  0  0  0  0  0  0  0  0  0
   -1.7586   -2.0580    0.8686 C   0  0  0  0  0  0  0  0  0  0  0  0
   -0.9666   -2.6340    1.6026 O   0  0  0  0  0  0  0  0  0  0  0  0
   -1.4866   -0.9220    0.2366 N   0  0  0  0  0  0  0  0  0  0  0  0
   -2.2166   -0.4790   -0.2994 H   0  0  0  0  0  0  0  0  0  0  0  0
   -0.1956   -0.2250    0.2596 C   0  0  1  0  0  0  0  0  0  0  0  0
    0.5755   -0.9013   -0.1105 H   0  0  0  0  0  0  0  0  0  0  0  0
   -0.2553    0.9811   -0.6992 C   0  0  0  0  0  0  0  0  0  0  0  0
   -1.1988    1.5014   -0.5266 H   0  0  0  0  0  0  0  0  0  0  0  0
    0.5626    1.6653   -0.4686 H   0  0  0  0  0  0  0  0  0  0  0  0
   -0.1803    0.5872   -2.1840 C   0  0  0  0  0  0  0  0  0  0  0  0
    0.7506    0.0436   -2.3627 H   0  0  0  0  0  0  0  0  0  0  0  0
   -1.0120   -0.0878   -2.4022 H   0  0  0  0  0  0  0  0  0  0  0  0
   -0.2399    1.7893   -3.1380 C   0  0  0  0  0  0  0  0  0  0  0  0
   -0.4732    2.9201   -2.6550 O   0  5  0  0  0  0  0  0  0  0  0  0
   -0.0236    1.5564   -4.3481 O   0  0  0  0  0  0  0  0  0  0  0  0
    0.1881    0.1678    1.7015 C   0  0  0  0  0  0  0  0  0  0  0  0
    1.3379    0.0002    2.1133 O   0  0  0  0  0  0  0  0  0  0  0  0
   -0.7666    0.7145    2.4656 N   0  0  0  0  0  0  0  0  0  0  0  0
   -1.6971    0.7705    2.0790 H   0  0  0  0  0  0  0  0  0  0  0  0
   -0.5716    1.1232    3.8542 C   0  0  0  0  0  0  0  0  0  0  0  0
    0.3083    1.7643    3.9293 H   0  0  0  0  0  0  0  0  0  0  0  0
   -1.4485    1.6640    4.2131 H   0  0  0  0  0  0  0  0  0  0  0  0
   -0.4137    0.2381    4.4736 H   0  0  0  0  0  0  0  0  0  0  0  0
  5  6  2  0  0  0  0
  5  7  1  0  0  0  0
  2  3  1  0  0  0  0
  2  4  1  0  0  0  0
  2  5  1  0  0  0  0
  1  2  1  0  0  0  0
 20 21  2  0  0  0  0
 20 22  1  0  0  0  0
 17 18  1  0  0  0  0
 17 19  2  0  0  0  0
 14 15  1  0  0  0  0
 14 16  1  0  0  0  0
 14 17  1  0  0  0  0
 11 12  1  0  0  0  0
 11 13  1  0  0  0  0
 11 14  1  0  0  0  0
  9 10  1  0  0  0  0
  9 11  1  0  0  0  0
  9 20  1  0  0  0  0
  7  8  1  0  0  0  0
  7  9  1  0  0  0  0
 24 25  1  0  0  0  0
 24 26  1  0  0  0  0
 24 27  1  0  0  0  0
 22 23  1  0  0  0  0
 22 24  1  0  0  0  0
M  CHG  1  18  -1
M  END
$$$$
default_name
  -OEChem-02102213163D

 27 26  0     1  0  0  0  0  0999 V2000
   -3.2406   -3.5400    1.2326 H   0  0  0  0  0  0  0  0  0  0  0  0
   -3.1436   -2.6190    0.6606 C   0  0  0  0  0  0  0  0  0  0  0  0
   -3.8786   -1.8920    0.9996 H   0  0  0  0  0  0  0  0  0  0  0  0
   -3.2846   -2.8280   -0.3984 H   0  0  0  0  0  0  0  0  0  0  0  0
   -1.7586   -2.0580    0.8686 C   0  0  0  0  0  0  0  0  0  0  0  0
   -0.9666   -2.6340    1.6026 O   0  0  0  0  0  0  0  0  0  0  0  0
   -1.4866   -0.9220    0.2366 N   0  0  0  0  0  0  0  0  0  0  0  0
   -2.2166   -0.4790   -0.2994 H   0  0  0  0  0  0  0  0  0  0  0  0
   -0.1956   -0.2250    0.2596 C   0  0  1  0  0  0  0  0  0  0  0  0
    0.5755   -0.9013   -0.1105 H   0  0  0  0  0  0  0  0  0  0  0  0
   -0.2553    0.9811   -0.6992 C   0  0  0  0  0  0  0  0  0  0  0  0
   -1.1988    1.5014   -0.5266 H   0  0  0  0  0  0  0  0  0  0  0  0
    0.5626    1.6653   -0.4686 H   0  0  0  0  0  0  0  0  0  0  0  0
   -0.1803    0.5872   -2.1840 C   0  0  0  0  0  0  0  0  0  0  0  0
    0.5955   -0.1713   -2.3136 H   0  0  0  0  0  0  0  0  0  0  0  0
   -1.1373    0.1428   -2.4697 H   0  0  0  0  0  0  0  0  0  0  0  0
    0.1268    1.7700   -3.1144 C   0  0  0  0  0  0  0  0  0  0  0  0
    0.1506    2.9211   -2.6237 O   0  5  0  0  0  0  0  0  0  0  0  0
    0.3598    1.4954   -4.3126 O   0  0  0  0  0  0  0  0  0  0  0  0
    0.1881    0.1678    1.7015 C   0  0  0  0  0  0  0  0  0  0  0  0
    1.3379    0.0002    2.1133 O   0  0  0  0  0  0  0  0  0  0  0  0
   -0.7666    0.7145    2.4656 N   0  0  0  0  0  0  0  0  0  0  0  0
   -1.6971    0.7705    2.0790 H   0  0  0  0  0  0  0  0  0  0  0  0
   -0.5716    1.1232    3.8542 C   0  0  0  0  0  0  0  0  0  0  0  0
    0.3083    1.7643    3.9293 H   0  0  0  0  0  0  0  0  0  0  0  0
   -1.4485    1.6640    4.2131 H   0  0  0  0  0  0  0  0  0  0  0  0
   -0.4137    0.2381    4.4736 H   0  0  0  0  0  0  0  0  0  0  0  0
  5  6  2  0  0  0  0
  5  7  1  0  0  0  0
  2  3  1  0  0  0  0
  2  4  1  0  0  0  0
  2  5  1  0  0  0  0
  1  2  1  0  0  0  0
 20 21  2  0  0  0  0
 20 22  1  0  0  0  0
 17 18  1  0  0  0  0
 17 19  2  0  0  0  0
 14 15  1  0  0  0  0
 14 16  1  0  0  0  0
 14 17  1  0  0  0  0
 11 12  1  0  0  0  0
 11 13  1  0  0  0  0
 11 14  1  0  0  0  0
  9 10  1  0  0  0  0
  9 11  1  0  0  0  0
  9 20  1  0  0  0  0
  7  8  1  0  0  0  0
  7  9  1  0  0  0  0
 24 25  1  0  0  0  0
 24 26  1  0  0  0  0
 24 27  1  0  0  0  0
 22 23  1  0  0  0  0
 22 24  1  0  0  0  0
M  CHG  1  18  -1
M  END
$$$$
default_name
  -OEChem-02102213163D

 27 26  0     1  0  0  0  0  0999 V2000
   -3.2406   -3.5400    1.2326 H   0  0  0  0  0  0  0  0  0  0  0  0
   -3.1436   -2.6190    0.6606 C   0  0  0  0  0  0  0  0  0  0  0  0
   -3.8786   -1.8920    0.9996 H   0  0  0  0  0  0  0  0  0  0  0  0
   -3.2846   -2.8280   -0.3984 H   0  0  0  0  0  0  0  0  0  0  0  0
   -1.7586   -2.0580    0.8686 C   0  0  0  0  0  0  0  0  0  0  0  0
   -0.9666   -2.6340    1.6026 O   0  0  0  0  0  0  0  0  0  0  0  0
   -1.4866   -0.9220    0.2366 N   0  0  0  0  0  0  0  0  0  0  0  0
   -2.2166   -0.4790   -0.2994 H   0  0  0  0  0  0  0  0  0  0  0  0
   -0.1956   -0.2250    0.2596 C   0  0  1  0  0  0  0  0  0  0  0  0
    0.5755   -0.9013   -0.1105 H   0  0  0  0  0  0  0  0  0  0  0  0
   -0.2553    0.9811   -0.6992 C   0  0  0  0  0  0  0  0  0  0  0  0
   -1.1988    1.5014   -0.5266 H   0  0  0  0  0  0  0  0  0  0  0  0
    0.5626    1.6653   -0.4686 H   0  0  0  0  0  0  0  0  0  0  0  0
   -0.1803    0.5872   -2.1840 C   0  0  0  0  0  0  0  0  0  0  0  0
    0.3887   -0.3408   -2.2791 H   0  0  0  0  0  0  0  0  0  0  0  0
   -1.1962    0.3977   -2.5403 H   0  0  0  0  0  0  0  0  0  0  0  0
    0.4746    1.6594   -3.0674 C   0  0  0  0  0  0  0  0  0  0  0  0
    0.7514    2.7659   -2.5521 O   0  5  0  0  0  0  0  0  0  0  0  0
    0.7125    1.3403   -4.2536 O   0  0  0  0  0  0  0  0  0  0  0  0
    0.1881    0.1678    1.7015 C   0  0  0  0  0  0  0  0  0  0  0  0
    1.3379    0.0002    2.1133 O   0  0  0  0  0  0  0  0  0  0  0  0
   -0.7666    0.7145    2.4656 N   0  0  0  0  0  0  0  0  0  0  0  0
   -1.6971    0.7705    2.0790 H   0  0  0  0  0  0  0  0  0  0  0  0
   -0.5716    1.1232    3.8542 C   0  0  0  0  0  0  0  0  0  0  0  0
    0.3083    1.7643    3.9293 H   0  0  0  0  0  0  0  0  0  0  0  0
   -1.4485    1.6640    4.2131 H   0  0  0  0  0  0  0  0  0  0  0  0
   -0.4137    0.2381    4.4736 H   0  0  0  0  0  0  0  0  0  0  0  0
  5  6  2  0  0  0  0
  5  7  1  0  0  0  0
  2  3  1  0  0  0  0
  2  4  1  0  0  0  0
  2  5  1  0  0  0  0
  1  2  1  0  0  0  0
 20 21  2  0  0  0  0
 20 22  1  0  0  0  0
 17 18  1  0  0  0  0
 17 19  2  0  0  0  0
 14 15  1  0  0  0  0
 14 16  1  0  0  0  0
 14 17  1  0  0  0  0
 11 12  1  0  0  0  0
 11 13  1  0  0  0  0
 11 14  1  0  0  0  0
  9 10  1  0  0  0  0
  9 11  1  0  0  0  0
  9 20  1  0  0  0  0
  7  8  1  0  0  0  0
  7  9  1  0  0  0  0
 24 25  1  0  0  0  0
 24 26  1  0  0  0  0
 24 27  1  0  0  0  0
 22 23  1  0  0  0  0
 22 24  1  0  0  0  0
M  CHG  1  18  -1
M  END
$$$$
default_name
  -OEChem-02102213163D

 27 26  0     1  0  0  0  0  0999 V2000
   -3.2406   -3.5400    1.2326 H   0  0  0  0  0  0  0  0  0  0  0  0
   -3.1436   -2.6190    0.6606 C   0  0  0  0  0  0  0  0  0  0  0  0
   -3.8786   -1.8920    0.9996 H   0  0  0  0  0  0  0  0  0  0  0  0
   -3.2846   -2.8280   -0.3984 H   0  0  0  0  0  0  0  0  0  0  0  0
   -1.7586   -2.0580    0.8686 C   0  0  0  0  0  0  0  0  0  0  0  0
   -0.9666   -2.6340    1.6026 O   0  0  0  0  0  0  0  0  0  0  0  0
   -1.4866   -0.9220    0.2366 N   0  0  0  0  0  0  0  0  0  0  0  0
   -2.2166   -0.4790   -0.2994 H   0  0  0  0  0  0  0  0  0  0  0  0
   -0.1956   -0.2250    0.2596 C   0  0  1  0  0  0  0  0  0  0  0  0
    0.5755   -0.9013   -0.1105 H   0  0  0  0  0  0  0  0  0  0  0  0
   -0.2553    0.9811   -0.6992 C   0  0  0  0  0  0  0  0  0  0  0  0
   -1.1988    1.5014   -0.5266 H   0  0  0  0  0  0  0  0  0  0  0  0
    0.5626    1.6653   -0.4686 H   0  0  0  0  0  0  0  0  0  0  0  0
   -0.1803    0.5872   -2.1840 C   0  0  0  0  0  0  0  0  0  0  0  0
    0.1443   -0.4533   -2.2616 H   0  0  0  0  0  0  0  0  0  0  0  0
   -1.1848    0.6595   -2.6092 H   0  0  0  0  0  0  0  0  0  0  0  0
    0.7798    1.4650   -3.0005 C   0  0  0  0  0  0  0  0  0  0  0  0
    1.2882    2.4648   -2.4451 O   0  5  0  0  0  0  0  0  0  0  0  0
    1.0105    1.1016   -4.1752 O   0  0  0  0  0  0  0  0  0  0  0  0
    0.1881    0.1678    1.7015 C   0  0  0  0  0  0  0  0  0  0  0  0
    1.3379    0.0002    2.1133 O   0  0  0  0  0  0  0  0  0  0  0  0
   -0.7666    0.7145    2.4656 N   0  0  0  0  0  0  0  0  0  0  0  0
   -1.6971    0.7705    2.0790 H   0  0  0  0  0  0  0  0  0  0  0  0
   -0.5716    1.1232    3.8542 C   0  0  0  0  0  0  0  0  0  0  0  0
    0.3083    1.7643    3.9293 H   0  0  0  0  0  0  0  0  0  0  0  0
   -1.4485    1.6640    4.2131 H   0  0  0  0  0  0  0  0  0  0  0  0
   -0.4137    0.2381    4.4736 H   0  0  0  0  0  0  0  0  0  0  0  0
  5  6  2  0  0  0  0
  5  7  1  0  0  0  0
  2  3  1  0  0  0  0
  2  4  1  0  0  0  0
  2  5  1  0  0  0  0
  1  2  1  0  0  0  0
 20 21  2  0  0  0  0
 20 22  1  0  0  0  0
 17 18  1  0  0  0  0
 17 19  2  0  0  0  0
 14 15  1  0  0  0  0
 14 16  1  0  0  0  0
 14 17  1  0  0  0  0
 11 12  1  0  0  0  0
 11 13  1  0  0  0  0
 11 14  1  0  0  0  0
  9 10  1  0  0  0  0
  9 11  1  0  0  0  0
  9 20  1  0  0  0  0
  7  8  1  0  0  0  0
  7  9  1  0  0  0  0
 24 25  1  0  0  0  0
 24 26  1  0  0  0  0
 24 27  1  0  0  0  0
 22 23  1  0  0  0  0
 22 24  1  0  0  0  0
M  CHG  1  18  -1
M  END
$$$$
default_name
  -OEChem-02102213163D

 27 26  0     1  0  0  0  0  0999 V2000
   -3.2406   -3.5400    1.2326 H   0  0  0  0  0  0  0  0  0  0  0  0
   -3.1436   -2.6190    0.6606 C   0  0  0  0  0  0  0  0  0  0  0  0
   -3.8786   -1.8920    0.9996 H   0  0  0  0  0  0  0  0  0  0  0  0
   -3.2846   -2.8280   -0.3984 H   0  0  0  0  0  0  0  0  0  0  0  0
   -1.7586   -2.0580    0.8686 C   0  0  0  0  0  0  0  0  0  0  0  0
   -0.9666   -2.6340    1.6026 O   0  0  0  0  0  0  0  0  0  0  0  0
   -1.4866   -0.9220    0.2366 N   0  0  0  0  0  0  0  0  0  0  0  0
   -2.2166   -0.4790   -0.2994 H   0  0  0  0  0  0  0  0  0  0  0  0
   -0.1956   -0.2250    0.2596 C   0  0  1  0  0  0  0  0  0  0  0  0
    0.5755   -0.9013   -0.1105 H   0  0  0  0  0  0  0  0  0  0  0  0
   -0.2553    0.9811   -0.6992 C   0  0  0  0  0  0  0  0  0  0  0  0
   -1.1988    1.5014   -0.5266 H   0  0  0  0  0  0  0  0  0  0  0  0
    0.5626    1.6653   -0.4686 H   0  0  0  0  0  0  0  0  0  0  0  0
   -0.1803    0.5872   -2.1840 C   0  0  0  0  0  0  0  0  0  0  0  0
   -0.1210   -0.5011   -2.2623 H   0  0  0  0  0  0  0  0  0  0  0  0
   -1.1037    0.9104   -2.6717 H   0  0  0  0  0  0  0  0  0  0  0  0
    1.0215    1.2002   -2.9180 C   0  0  0  0  0  0  0  0  0  0  0  0
    1.7244    2.0386   -2.3100 O   0  5  0  0  0  0  0  0  0  0  0  0
    1.2336    0.7955   -4.0827 O   0  0  0  0  0  0  0  0  0  0  0  0
    0.1881    0.1678    1.7015 C   0  0  0  0  0  0  0  0  0  0  0  0
    1.3379    0.0002    2.1133 O   0  0  0  0  0  0  0  0  0  0  0  0
   -0.7666    0.7145    2.4656 N   0  0  0  0  0  0  0  0  0  0  0  0
   -1.6971    0.7705    2.0790 H   0  0  0  0  0  0  0  0  0  0  0  0
   -0.5716    1.1232    3.8542 C   0  0  0  0  0  0  0  0  0  0  0  0
    0.3083    1.7643    3.9293 H   0  0  0  0  0  0  0  0  0  0  0  0
   -1.4485    1.6640    4.2131 H   0  0  0  0  0  0  0  0  0  0  0  0
   -0.4137    0.2381    4.4736 H   0  0  0  0  0  0  0  0  0  0  0  0
  5  6  2  0  0  0  0
  5  7  1  0  0  0  0
  2  3  1  0  0  0  0
  2  4  1  0  0  0  0
  2  5  1  0  0  0  0
  1  2  1  0  0  0  0
 20 21  2  0  0  0  0
 20 22  1  0  0  0  0
 17 18  1  0  0  0  0
 17 19  2  0  0  0  0
 14 15  1  0  0  0  0
 14 16  1  0  0  0  0
 14 17  1  0  0  0  0
 11 12  1  0  0  0  0
 11 13  1  0  0  0  0
 11 14  1  0  0  0  0
  9 10  1  0  0  0  0
  9 11  1  0  0  0  0
  9 20  1  0  0  0  0
  7  8  1  0  0  0  0
  7  9  1  0  0  0  0
 24 25  1  0  0  0  0
 24 26  1  0  0  0  0
 24 27  1  0  0  0  0
 22 23  1  0  0  0  0
 22 24  1  0  0  0  0
M  CHG  1  18  -1
M  END
$$$$
default_name
  -OEChem-02102213163D

 27 26  0     1  0  0  0  0  0999 V2000
   -3.2406   -3.5400    1.2326 H   0  0  0  0  0  0  0  0  0  0  0  0
   -3.1436   -2.6190    0.6606 C   0  0  0  0  0  0  0  0  0  0  0  0
   -3.8786   -1.8920    0.9996 H   0  0  0  0  0  0  0  0  0  0  0  0
   -3.2846   -2.8280   -0.3984 H   0  0  0  0  0  0  0  0  0  0  0  0
   -1.7586   -2.0580    0.8686 C   0  0  0  0  0  0  0  0  0  0  0  0
   -0.9666   -2.6340    1.6026 O   0  0  0  0  0  0  0  0  0  0  0  0
   -1.4866   -0.9220    0.2366 N   0  0  0  0  0  0  0  0  0  0  0  0
   -2.2166   -0.4790   -0.2994 H   0  0  0  0  0  0  0  0  0  0  0  0
   -0.1956   -0.2250    0.2596 C   0  0  1  0  0  0  0  0  0  0  0  0
    0.5755   -0.9013   -0.1105 H   0  0  0  0  0  0  0  0  0  0  0  0
   -0.2553    0.9811   -0.6992 C   0  0  0  0  0  0  0  0  0  0  0  0
   -1.1988    1.5014   -0.5266 H   0  0  0  0  0  0  0  0  0  0  0  0
    0.5626    1.6653   -0.4686 H   0  0  0  0  0  0  0  0  0  0  0  0
   -0.1803    0.5872   -2.1840 C   0  0  0  0  0  0  0  0  0  0  0  0
   -0.3891   -0.4809   -2.2812 H   0  0  0  0  0  0  0  0  0  0  0  0
   -0.9586    1.1333   -2.7235 H   0  0  0  0  0  0  0  0  0  0  0  0
    1.1834    0.8830   -2.8256 C   0  0  0  0  0  0  0  0  0  0  0  0
    2.0302    1.5162   -2.1559 O   0  5  0  0  0  0  0  0  0  0  0  0
    1.3664    0.4430   -3.9824 O   0  0  0  0  0  0  0  0  0  0  0  0
    0.1881    0.1678    1.7015 C   0  0  0  0  0  0  0  0  0  0  0  0
    1.3379    0.0002    2.1133 O   0  0  0  0  0  0  0  0  0  0  0  0
   -0.7666    0.7145    2.4656 N   0  0  0  0  0  0  0  0  0  0  0  0
   -1.6971    0.7705    2.0790 H   0  0  0  0  0  0  0  0  0  0  0  0
   -0.5716    1.1232    3.8542 C   0  0  0  0  0  0  0  0  0  0  0  0
    0.3083    1.7643    3.9293 H   0  0  0  0  0  0  0  0  0  0  0  0
   -1.4485    1.6640    4.2131 H   0  0  0  0  0  0  0  0  0  0  0  0
   -0.4137    0.2381    4.4736 H   0  0  0  0  0  0  0  0  0  0  0  0
  5  6  2  0  0  0  0
  5  7  1  0  0  0  0
  2  3  1  0  0  0  0
  2  4  1  0  0  0  0
  2  5  1  0  0  0  0
  1  2  1  0  0  0  0
 20 21  2  0  0  0  0
 20 22  1  0  0  0  0
 17 18  1  0  0  0  0
 17 19  2  0  0  0  0
 14 15  1  0  0  0  0
 14 16  1  0  0  0  0
 14 17  1  0  0  0  0
 11 12  1  0  0  0  0
 11 13  1  0  0  0  0
 11 14  1  0  0  0  0
  9 10  1  0  0  0  0
  9 11  1  0  0  0  0
  9 20  1  0  0  0  0
  7  8  1  0  0  0  0
  7  9  1  0  0  0  0
 24 25  1  0  0  0  0
 24 26  1  0  0  0  0
 24 27  1  0  0  0  0
 22 23  1  0  0  0  0
 22 24  1  0  0  0  0
M  CHG  1  18  -1
M  END
$$$$
default_name
  -OEChem-02102213163D

 27 26  0     1  0  0  0  0  0999 V2000
   -3.2406   -3.5400    1.2326 H   0  0  0  0  0  0  0  0  0  0  0  0
   -3.1436   -2.6190    0.6606 C   0  0  0  0  0  0  0  0  0  0  0  0
   -3.8786   -1.8920    0.9996 H   0  0  0  0  0  0  0  0  0  0  0  0
   -3.2846   -2.8280   -0.3984 H   0  0  0  0  0  0  0  0  0  0  0  0
   -1.7586   -2.0580    0.8686 C   0  0  0  0  0  0  0  0  0  0  0  0
   -0.9666   -2.6340    1.6026 O   0  0  0  0  0  0  0  0  0  0  0  0
   -1.4866   -0.9220    0.2366 N   0  0  0  0  0  0  0  0  0  0  0  0
   -2.2166   -0.4790   -0.2994 H   0  0  0  0  0  0  0  0  0  0  0  0
   -0.1956   -0.2250    0.2596 C   0  0  1  0  0  0  0  0  0  0  0  0
    0.5755   -0.9013   -0.1105 H   0  0  0  0  0  0  0  0  0  0  0  0
   -0.2553    0.9811   -0.6992 C   0  0  0  0  0  0  0  0  0  0  0  0
   -1.1988    1.5014   -0.5266 H   0  0  0  0  0  0  0  0  0  0  0  0
    0.5626    1.6653   -0.4686 H   0  0  0  0  0  0  0  0  0  0  0  0
   -0.1803    0.5872   -2.1840 C   0  0  0  0  0  0  0  0  0  0  0  0
   -0.6418   -0.3942   -2.3170 H   0  0  0  0  0  0  0  0  0  0  0  0
   -0.7592    1.3130   -2.7611 H   0  0  0  0  0  0  0  0  0  0  0  0
    1.2544    0.5350   -2.7297 C   0  0  0  0  0  0  0  0  0  0  0  0
    2.1849    0.9333   -1.9934 O   0  5  0  0  0  0  0  0  0  0  0  0
    1.4000    0.0680   -3.8813 O   0  0  0  0  0  0  0  0  0  0  0  0
    0.1881    0.1678    1.7015 C   0  0  0  0  0  0  0  0  0  0  0  0
    1.3379    0.0002    2.1133 O   0  0  0  0  0  0  0  0  0  0  0  0
   -0.7666    0.7145    2.4656 N   0  0  0  0  0  0  0  0  0  0  0  0
   -1.6971    0.7705    2.0790 H   0  0  0  0  0  0  0  0  0  0  0  0
   -0.5716    1.1232    3.8542 C   0  0  0  0  0  0  0  0  0  0  0  0
    0.3083    1.7643    3.9293 H   0  0  0  0  0  0  0  0  0  0  0  0
   -1.4485    1.6640    4.2131 H   0  0  0  0  0  0  0  0  0  0  0  0
   -0.4137    0.2381    4.4736 H   0  0  0  0  0  0  0  0  0  0  0  0
  5  6  2  0  0  0  0
  5  7  1  0  0  0  0
  2  3  1  0  0  0  0
  2  4  1  0  0  0  0
  2  5  1  0  0  0  0
  1  2  1  0  0  0  0
 20 21  2  0  0  0  0
 20 22  1  0  0  0  0
 17 18  1  0  0  0  0
 17 19  2  0  0  0  0
 14 15  1  0  0  0  0
 14 16  1  0  0  0  0
 14 17  1  0  0  0  0
 11 12  1  0  0  0  0
 11 13  1  0  0  0  0
 11 14  1  0  0  0  0
  9 10  1  0  0  0  0
  9 11  1  0  0  0  0
  9 20  1  0  0  0  0
  7  8  1  0  0  0  0
  7  9  1  0  0  0  0
 24 25  1  0  0  0  0
 24 26  1  0  0  0  0
 24 27  1  0  0  0  0
 22 23  1  0  0  0  0
 22 24  1  0  0  0  0
M  CHG  1  18  -1
M  END
$$$$
default_name
  -OEChem-02102213163D

 27 26  0     1  0  0  0  0  0999 V2000
   -3.2406   -3.5400    1.2326 H   0  0  0  0  0  0  0  0  0  0  0  0
   -3.1436   -2.6190    0.6606 C   0  0  0  0  0  0  0  0  0  0  0  0
   -3.8786   -1.8920    0.9996 H   0  0  0  0  0  0  0  0  0  0  0  0
   -3.2846   -2.8280   -0.3984 H   0  0  0  0  0  0  0  0  0  0  0  0
   -1.7586   -2.0580    0.8686 C   0  0  0  0  0  0  0  0  0  0  0  0
   -0.9666   -2.6340    1.6026 O   0  0  0  0  0  0  0  0  0  0  0  0
   -1.4866   -0.9220    0.2366 N   0  0  0  0  0  0  0  0  0  0  0  0
   -2.2166   -0.4790   -0.2994 H   0  0  0  0  0  0  0  0  0  0  0  0
   -0.1956   -0.2250    0.2596 C   0  0  1  0  0  0  0  0  0  0  0  0
    0.5755   -0.9013   -0.1105 H   0  0  0  0  0  0  0  0  0  0  0  0
   -0.2553    0.9811   -0.6992 C   0  0  0  0  0  0  0  0  0  0  0  0
   -1.1988    1.5014   -0.5266 H   0  0  0  0  0  0  0  0  0  0  0  0
    0.5626    1.6653   -0.4686 H   0  0  0  0  0  0  0  0  0  0  0  0
   -0.1803    0.5872   -2.1840 C   0  0  0  0  0  0  0  0  0  0  0  0
   -0.8619   -0.2469   -2.3672 H   0  0  0  0  0  0  0  0  0  0  0  0
   -0.5193    1.4372   -2.7819 H   0  0  0  0  0  0  0  0  0  0  0  0
    1.2297    0.1798   -2.6367 C   0  0  0  0  0  0  0  0  0  0  0  0
    2.1779    0.3295   -1.8336 O   0  5  0  0  0  0  0  0  0  0  0  0
    1.3320   -0.3038   -3.7860 O   0  0  0  0  0  0  0  0  0  0  0  0
    0.1881    0.1678    1.7015 C   0  0  0  0  0  0  0  0  0  0  0  0
    1.3379    0.0002    2.1133 O   0  0  0  0  0  0  0  0  0  0  0  0
   -0.7666    0.7145    2.4656 N   0  0  0  0  0  0  0  0  0  0  0  0
   -1.6971    0.7705    2.0790 H   0  0  0  0  0  0  0  0  0  0  0  0
   -0.5716    1.1232    3.8542 C   0  0  0  0  0  0  0  0  0  0  0  0
    0.3083    1.7643    3.9293 H   0  0  0  0  0  0  0  0  0  0  0  0
   -1.4485    1.6640    4.2131 H   0  0  0  0  0  0  0  0  0  0  0  0
   -0.4137    0.2381    4.4736 H   0  0  0  0  0  0  0  0  0  0  0  0
  5  6  2  0  0  0  0
  5  7  1  0  0  0  0
  2  3  1  0  0  0  0
  2  4  1  0  0  0  0
  2  5  1  0  0  0  0
  1  2  1  0  0  0  0
 20 21  2  0  0  0  0
 20 22  1  0  0  0  0
 17 18  1  0  0  0  0
 17 19  2  0  0  0  0
 14 15  1  0  0  0  0
 14 16  1  0  0  0  0
 14 17  1  0  0  0  0
 11 12  1  0  0  0  0
 11 13  1  0  0  0  0
 11 14  1  0  0  0  0
  9 10  1  0  0  0  0
  9 11  1  0  0  0  0
  9 20  1  0  0  0  0
  7  8  1  0  0  0  0
  7  9  1  0  0  0  0
 24 25  1  0  0  0  0
 24 26  1  0  0  0  0
 24 27  1  0  0  0  0
 22 23  1  0  0  0  0
 22 24  1  0  0  0  0
M  CHG  1  18  -1
M  END
$$$$
default_name
  -OEChem-02102213163D

 27 26  0     1  0  0  0  0  0999 V2000
   -3.2406   -3.5400    1.2326 H   0  0  0  0  0  0  0  0  0  0  0  0
   -3.1436   -2.6190    0.6606 C   0  0  0  0  0  0  0  0  0  0  0  0
   -3.8786   -1.8920    0.9996 H   0  0  0  0  0  0  0  0  0  0  0  0
   -3.2846   -2.8280   -0.3984 H   0  0  0  0  0  0  0  0  0  0  0  0
   -1.7586   -2.0580    0.8686 C   0  0  0  0  0  0  0  0  0  0  0  0
   -0.9666   -2.6340    1.6026 O   0  0  0  0  0  0  0  0  0  0  0  0
   -1.4866   -0.9220    0.2366 N   0  0  0  0  0  0  0  0  0  0  0  0
   -2.2166   -0.4790   -0.2994 H   0  0  0  0  0  0  0  0  0  0  0  0
   -0.1956   -0.2250    0.2596 C   0  0  1  0  0  0  0  0  0  0  0  0
    0.5755   -0.9013   -0.1105 H   0  0  0  0  0  0  0  0  0  0  0  0
   -0.2553    0.9811   -0.6992 C   0  0  0  0  0  0  0  0  0  0  0  0
   -1.1988    1.5014   -0.5266 H   0  0  0  0  0  0  0  0  0  0  0  0
    0.5626    1.6653   -0.4686 H   0  0  0  0  0  0  0  0  0  0  0  0
   -0.1803    0.5872   -2.1840 C   0  0  0  0  0  0  0  0  0  0  0  0
   -1.0344   -0.0490   -2.4284 H   0  0  0  0  0  0  0  0  0  0  0  0
   -0.2552    1.4975   -2.7846 H   0  0  0  0  0  0  0  0  0  0  0  0
    1.1109   -0.1582   -2.5530 C   0  0  0  0  0  0  0  0  0  0  0  0
    2.0097   -0.2540   -1.6873 O   0  5  0  0  0  0  0  0  0  0  0  0
    1.1671   -0.6472   -3.7032 O   0  0  0  0  0  0  0  0  0  0  0  0
    0.1881    0.1678    1.7015 C   0  0  0  0  0  0  0  0  0  0  0  0
    1.3379    0.0002    2.1133 O   0  0  0  0  0  0  0  0  0  0  0  0
   -0.7666    0.7145    2.4656 N   0  0  0  0  0  0  0  0  0  0  0  0
   -1.6971    0.7705    2.0790 H   0  0  0  0  0  0  0  0  0  0  0  0
   -0.5716    1.1232    3.8542 C   0  0  0  0  0  0  0  0  0  0  0  0
    0.3083    1.7643    3.9293 H   0  0  0  0  0  0  0  0  0  0  0  0
   -1.4485    1.6640    4.2131 H   0  0  0  0  0  0  0  0  0  0  0  0
   -0.4137    0.2381    4.4736 H   0  0  0  0  0  0  0  0  0  0  0  0
  5  6  2  0  0  0  0
  5  7  1  0  0  0  0
  2  3  1  0  0  0  0
  2  4  1  0  0  0  0
  2  5  1  0  0  0  0
  1  2  1  0  0  0  0
 20 21  2  0  0  0  0
 20 22  1  0  0  0  0
 17 18  1  0  0  0  0
 17 19  2  0  0  0  0
 14 15  1  0  0  0  0
 14 16  1  0  0  0  0
 14 17  1  0  0  0  0
 11 12  1  0  0  0  0
 11 13  1  0  0  0  0
 11 14  1  0  0  0  0
  9 10  1  0  0  0  0
  9 11  1  0  0  0  0
  9 20  1  0  0  0  0
  7  8  1  0  0  0  0
  7  9  1  0  0  0  0
 24 25  1  0  0  0  0
 24 26  1  0  0  0  0
 24 27  1  0  0  0  0
 22 23  1  0  0  0  0
 22 24  1  0  0  0  0
M  CHG  1  18  -1
M  END
$$$$
default_name
  -OEChem-02102213163D

 27 26  0     1  0  0  0  0  0999 V2000
   -3.2406   -3.5400    1.2326 H   0  0  0  0  0  0  0  0  0  0  0  0
   -3.1436   -2.6190    0.6606 C   0  0  0  0  0  0  0  0  0  0  0  0
   -3.8786   -1.8920    0.9996 H   0  0  0  0  0  0  0  0  0  0  0  0
   -3.2846   -2.8280   -0.3984 H   0  0  0  0  0  0  0  0  0  0  0  0
   -1.7586   -2.0580    0.8686 C   0  0  0  0  0  0  0  0  0  0  0  0
   -0.9666   -2.6340    1.6026 O   0  0  0  0  0  0  0  0  0  0  0  0
   -1.4866   -0.9220    0.2366 N   0  0  0  0  0  0  0  0  0  0  0  0
   -2.2166   -0.4790   -0.2994 H   0  0  0  0  0  0  0  0  0  0  0  0
   -0.1956   -0.2250    0.2596 C   0  0  1  0  0  0  0  0  0  0  0  0
    0.5755   -0.9013   -0.1105 H   0  0  0  0  0  0  0  0  0  0  0  0
   -0.2553    0.9811   -0.6992 C   0  0  0  0  0  0  0  0  0  0  0  0
   -1.1988    1.5014   -0.5266 H   0  0  0  0  0  0  0  0  0  0  0  0
    0.5626    1.6653   -0.4686 H   0  0  0  0  0  0  0  0  0  0  0  0
   -0.1803    0.5872   -2.1840 C   0  0  0  0  0  0  0  0  0  0  0  0
   -1.1474    0.1861   -2.4965 H   0  0  0  0  0  0  0  0  0  0  0  0
    0.0152    1.4898   -2.7689 H   0  0  0  0  0  0  0  0  0  0  0  0
    0.9061   -0.4561   -2.4843 C   0  0  0  0  0  0  0  0  0  0  0  0
    1.6917   -0.7775   -1.5645 O   0  5  0  0  0  0  0  0  0  0  0  0
    0.9166   -0.9388   -3.6386 O   0  0  0  0  0  0  0  0  0  0  0  0
    0.1881    0.1678    1.7015 C   0  0  0  0  0  0  0  0  0  0  0  0
    1.3379    0.0002    2.1133 O   0  0  0  0  0  0  0  0  0  0  0  0
   -0.7666    0.7145    2.4656 N   0  0  0  0  0  0  0  0  0  0  0  0
   -1.6971    0.7705    2.0790 H   0  0  0  0  0  0  0  0  0  0  0  0
   -0.5716    1.1232    3.8542 C   0  0  0  0  0  0  0  0  0  0  0  0
    0.3083    1.7643    3.9293 H   0  0  0  0  0  0  0  0  0  0  0  0
   -1.4485    1.6640    4.2131 H   0  0  0  0  0  0  0  0  0  0  0  0
   -0.4137    0.2381    4.4736 H   0  0  0  0  0  0  0  0  0  0  0  0
  5  6  2  0  0  0  0
  5  7  1  0  0  0  0
  2  3  1  0  0  0  0
  2  4  1  0  0  0  0
  2  5  1  0  0  0  0
  1  2  1  0  0  0  0
 20 21  2  0  0  0  0
 20 22  1  0  0  0  0
 17 18  1  0  0  0  0
 17 19  2  0  0  0  0
 14 15  1  0  0  0  0
 14 16  1  0  0  0  0
 14 17  1  0  0  0  0
 11 12  1  0  0  0  0
 11 13  1  0  0  0  0
 11 14  1  0  0  0  0
  9 10  1  0  0  0  0
  9 11  1  0  0  0  0
  9 20  1  0  0  0  0
  7  8  1  0  0  0  0
  7  9  1  0  0  0  0
 24 25  1  0  0  0  0
 24 26  1  0  0  0  0
 24 27  1  0  0  0  0
 22 23  1  0  0  0  0
 22 24  1  0  0  0  0
M  CHG  1  18  -1
M  END
$$$$
default_name
  -OEChem-02102213163D

 27 26  0     1  0  0  0  0  0999 V2000
   -3.2406   -3.5400    1.2326 H   0  0  0  0  0  0  0  0  0  0  0  0
   -3.1436   -2.6190    0.6606 C   0  0  0  0  0  0  0  0  0  0  0  0
   -3.8786   -1.8920    0.9996 H   0  0  0  0  0  0  0  0  0  0  0  0
   -3.2846   -2.8280   -0.3984 H   0  0  0  0  0  0  0  0  0  0  0  0
   -1.7586   -2.0580    0.8686 C   0  0  0  0  0  0  0  0  0  0  0  0
   -0.9666   -2.6340    1.6026 O   0  0  0  0  0  0  0  0  0  0  0  0
   -1.4866   -0.9220    0.2366 N   0  0  0  0  0  0  0  0  0  0  0  0
   -2.2166   -0.4790   -0.2994 H   0  0  0  0  0  0  0  0  0  0  0  0
   -0.1956   -0.2250    0.2596 C   0  0  1  0  0  0  0  0  0  0  0  0
    0.5755   -0.9013   -0.1105 H   0  0  0  0  0  0  0  0  0  0  0  0
   -0.2553    0.9811   -0.6992 C   0  0  0  0  0  0  0  0  0  0  0  0
   -1.1988    1.5014   -0.5266 H   0  0  0  0  0  0  0  0  0  0  0  0
    0.5626    1.6653   -0.4686 H   0  0  0  0  0  0  0  0  0  0  0  0
   -0.1803    0.5872   -2.1840 C   0  0  0  0  0  0  0  0  0  0  0  0
   -1.1933    0.4423   -2.5668 H   0  0  0  0  0  0  0  0  0  0  0  0
    0.2735    1.4146   -2.7359 H   0  0  0  0  0  0  0  0  0  0  0  0
    0.6294   -0.6935   -2.4353 C   0  0  0  0  0  0  0  0  0  0  0  0
    1.2456   -1.2051   -1.4735 O   0  5  0  0  0  0  0  0  0  0  0  0
    0.5974   -1.1586   -3.5964 O   0  0  0  0  0  0  0  0  0  0  0  0
    0.1881    0.1678    1.7015 C   0  0  0  0  0  0  0  0  0  0  0  0
    1.3379    0.0002    2.1133 O   0  0  0  0  0  0  0  0  0  0  0  0
   -0.7666    0.7145    2.4656 N   0  0  0  0  0  0  0  0  0  0  0  0
   -1.6971    0.7705    2.0790 H   0  0  0  0  0  0  0  0  0  0  0  0
   -0.5716    1.1232    3.8542 C   0  0  0  0  0  0  0  0  0  0  0  0
    0.3083    1.7643    3.9293 H   0  0  0  0  0  0  0  0  0  0  0  0
   -1.4485    1.6640    4.2131 H   0  0  0  0  0  0  0  0  0  0  0  0
   -0.4137    0.2381    4.4736 H   0  0  0  0  0  0  0  0  0  0  0  0
  5  6  2  0  0  0  0
  5  7  1  0  0  0  0
  2  3  1  0  0  0  0
  2  4  1  0  0  0  0
  2  5  1  0  0  0  0
  1  2  1  0  0  0  0
 20 21  2  0  0  0  0
 20 22  1  0  0  0  0
 17 18  1  0  0  0  0
 17 19  2  0  0  0  0
 14 15  1  0  0  0  0
 14 16  1  0  0  0  0
 14 17  1  0  0  0  0
 11 12  1  0  0  0  0
 11 13  1  0  0  0  0
 11 14  1  0  0  0  0
  9 10  1  0  0  0  0
  9 11  1  0  0  0  0
  9 20  1  0  0  0  0
  7  8  1  0  0  0  0
  7  9  1  0  0  0  0
 24 25  1  0  0  0  0
 24 26  1  0  0  0  0
 24 27  1  0  0  0  0
 22 23  1  0  0  0  0
 22 24  1  0  0  0  0
M  CHG  1  18  -1
M  END
$$$$
default_name
  -OEChem-02102213163D

 27 26  0     1  0  0  0  0  0999 V2000
   -3.2406   -3.5400    1.2326 H   0  0  0  0  0  0  0  0  0  0  0  0
   -3.1436   -2.6190    0.6606 C   0  0  0  0  0  0  0  0  0  0  0  0
   -3.8786   -1.8920    0.9996 H   0  0  0  0  0  0  0  0  0  0  0  0
   -3.2846   -2.8280   -0.3984 H   0  0  0  0  0  0  0  0  0  0  0  0
   -1.7586   -2.0580    0.8686 C   0  0  0  0  0  0  0  0  0  0  0  0
   -0.9666   -2.6340    1.6026 O   0  0  0  0  0  0  0  0  0  0  0  0
   -1.4866   -0.9220    0.2366 N   0  0  0  0  0  0  0  0  0  0  0  0
   -2.2166   -0.4790   -0.2994 H   0  0  0  0  0  0  0  0  0  0  0  0
   -0.1956   -0.2250    0.2596 C   0  0  1  0  0  0  0  0  0  0  0  0
    0.5755   -0.9013   -0.1105 H   0  0  0  0  0  0  0  0  0  0  0  0
   -0.2553    0.9811   -0.6992 C   0  0  0  0  0  0  0  0  0  0  0  0
   -1.1988    1.5014   -0.5266 H   0  0  0  0  0  0  0  0  0  0  0  0
    0.5626    1.6653   -0.4686 H   0  0  0  0  0  0  0  0  0  0  0  0
   -0.1803    0.5872   -2.1840 C   0  0  0  0  0  0  0  0  0  0  0  0
   -1.1691    0.7020   -2.6345 H   0  0  0  0  0  0  0  0  0  0  0  0
    0.5019    1.2770   -2.6878 H   0  0  0  0  0  0  0  0  0  0  0  0
    0.2995   -0.8543   -2.4093 C   0  0  0  0  0  0  0  0  0  0  0  0
    0.7018   -1.5079   -1.4207 O   0  5  0  0  0  0  0  0  0  0  0  0
    0.2314   -1.2917   -3.5795 O   0  0  0  0  0  0  0  0  0  0  0  0
    0.1881    0.1678    1.7015 C   0  0  0  0  0  0  0  0  0  0  0  0
    1.3379    0.0002    2.1133 O   0  0  0  0  0  0  0  0  0  0  0  0
   -0.7666    0.7145    2.4656 N   0  0  0  0  0  0  0  0  0  0  0  0
   -1.6971    0.7705    2.0790 H   0  0  0  0  0  0  0  0  0  0  0  0
   -0.5716    1.1232    3.8542 C   0  0  0  0  0  0  0  0  0  0  0  0
    0.3083    1.7643    3.9293 H   0  0  0  0  0  0  0  0  0  0  0  0
   -1.4485    1.6640    4.2131 H   0  0  0  0  0  0  0  0  0  0  0  0
   -0.4137    0.2381    4.4736 H   0  0  0  0  0  0  0  0  0  0  0  0
  5  6  2  0  0  0  0
  5  7  1  0  0  0  0
  2  3  1  0  0  0  0
  2  4  1  0  0  0  0
  2  5  1  0  0  0  0
  1  2  1  0  0  0  0
 20 21  2  0  0  0  0
 20 22  1  0  0  0  0
 17 18  1  0  0  0  0
 17 19  2  0  0  0  0
 14 15  1  0  0  0  0
 14 16  1  0  0  0  0
 14 17  1  0  0  0  0
 11 12  1  0  0  0  0
 11 13  1  0  0  0  0
 11 14  1  0  0  0  0
  9 10  1  0  0  0  0
  9 11  1  0  0  0  0
  9 20  1  0  0  0  0
  7  8  1  0  0  0  0
  7  9  1  0  0  0  0
 24 25  1  0  0  0  0
 24 26  1  0  0  0  0
 24 27  1  0  0  0  0
 22 23  1  0  0  0  0
 22 24  1  0  0  0  0
M  CHG  1  18  -1
M  END
$$$$
default_name
  -OEChem-02102213163D

 27 26  0     1  0  0  0  0  0999 V2000
   -3.2406   -3.5400    1.2326 H   0  0  0  0  0  0  0  0  0  0  0  0
   -3.1436   -2.6190    0.6606 C   0  0  0  0  0  0  0  0  0  0  0  0
   -3.8786   -1.8920    0.9996 H   0  0  0  0  0  0  0  0  0  0  0  0
   -3.2846   -2.8280   -0.3984 H   0  0  0  0  0  0  0  0  0  0  0  0
   -1.7586   -2.0580    0.8686 C   0  0  0  0  0  0  0  0  0  0  0  0
   -0.9666   -2.6340    1.6026 O   0  0  0  0  0  0  0  0  0  0  0  0
   -1.4866   -0.9220    0.2366 N   0  0  0  0  0  0  0  0  0  0  0  0
   -2.2166   -0.4790   -0.2994 H   0  0  0  0  0  0  0  0  0  0  0  0
   -0.1956   -0.2250    0.2596 C   0  0  1  0  0  0  0  0  0  0  0  0
    0.5755   -0.9013   -0.1105 H   0  0  0  0  0  0  0  0  0  0  0  0
   -0.2553    0.9811   -0.6992 C   0  0  0  0  0  0  0  0  0  0  0  0
   -1.1988    1.5014   -0.5266 H   0  0  0  0  0  0  0  0  0  0  0  0
    0.5626    1.6653   -0.4686 H   0  0  0  0  0  0  0  0  0  0  0  0
   -0.1803    0.5872   -2.1840 C   0  0  0  0  0  0  0  0  0  0  0  0
   -1.0762    0.9478   -2.6950 H   0  0  0  0  0  0  0  0  0  0  0  0
    0.6850    1.0864   -2.6280 H   0  0  0  0  0  0  0  0  0  0  0  0
   -0.0611   -0.9276   -2.4081 C   0  0  0  0  0  0  0  0  0  0  0  0
    0.0974   -1.6652   -1.4095 O   0  5  0  0  0  0  0  0  0  0  0  0
   -0.1565   -1.3291   -3.5892 O   0  0  0  0  0  0  0  0  0  0  0  0
    0.1881    0.1678    1.7015 C   0  0  0  0  0  0  0  0  0  0  0  0
    1.3379    0.0002    2.1133 O   0  0  0  0  0  0  0  0  0  0  0  0
   -0.7666    0.7145    2.4656 N   0  0  0  0  0  0  0  0  0  0  0  0
   -1.6971    0.7705    2.0790 H   0  0  0  0  0  0  0  0  0  0  0  0
   -0.5716    1.1232    3.8542 C   0  0  0  0  0  0  0  0  0  0  0  0
    0.3083    1.7643    3.9293 H   0  0  0  0  0  0  0  0  0  0  0  0
   -1.4485    1.6640    4.2131 H   0  0  0  0  0  0  0  0  0  0  0  0
   -0.4137    0.2381    4.4736 H   0  0  0  0  0  0  0  0  0  0  0  0
  5  6  2  0  0  0  0
  5  7  1  0  0  0  0
  2  3  1  0  0  0  0
  2  4  1  0  0  0  0
  2  5  1  0  0  0  0
  1  2  1  0  0  0  0
 20 21  2  0  0  0  0
 20 22  1  0  0  0  0
 17 18  1  0  0  0  0
 17 19  2  0  0  0  0
 14 15  1  0  0  0  0
 14 16  1  0  0  0  0
 14 17  1  0  0  0  0
 11 12  1  0  0  0  0
 11 13  1  0  0  0  0
 11 14  1  0  0  0  0
  9 10  1  0  0  0  0
  9 11  1  0  0  0  0
  9 20  1  0  0  0  0
  7  8  1  0  0  0  0
  7  9  1  0  0  0  0
 24 25  1  0  0  0  0
 24 26  1  0  0  0  0
 24 27  1  0  0  0  0
 22 23  1  0  0  0  0
 22 24  1  0  0  0  0
M  CHG  1  18  -1
M  END
$$$$
default_name
  -OEChem-02102213163D

 27 26  0     1  0  0  0  0  0999 V2000
   -3.2406   -3.5400    1.2326 H   0  0  0  0  0  0  0  0  0  0  0  0
   -3.1436   -2.6190    0.6606 C   0  0  0  0  0  0  0  0  0  0  0  0
   -3.8786   -1.8920    0.9996 H   0  0  0  0  0  0  0  0  0  0  0  0
   -3.2846   -2.8280   -0.3984 H   0  0  0  0  0  0  0  0  0  0  0  0
   -1.7586   -2.0580    0.8686 C   0  0  0  0  0  0  0  0  0  0  0  0
   -0.9666   -2.6340    1.6026 O   0  0  0  0  0  0  0  0  0  0  0  0
   -1.4866   -0.9220    0.2366 N   0  0  0  0  0  0  0  0  0  0  0  0
   -2.2166   -0.4790   -0.2994 H   0  0  0  0  0  0  0  0  0  0  0  0
   -0.1956   -0.2250    0.2596 C   0  0  1  0  0  0  0  0  0  0  0  0
    0.5755   -0.9013   -0.1105 H   0  0  0  0  0  0  0  0  0  0  0  0
   -0.2553    0.9811   -0.6992 C   0  0  0  0  0  0  0  0  0  0  0  0
   -1.1988    1.5014   -0.5266 H   0  0  0  0  0  0  0  0  0  0  0  0
    0.5626    1.6653   -0.4686 H   0  0  0  0  0  0  0  0  0  0  0  0
   -0.1803    0.5872   -2.1840 C   0  0  0  0  0  0  0  0  0  0  0  0
   -0.9211    1.1627   -2.7442 H   0  0  0  0  0  0  0  0  0  0  0  0
    0.8103    0.8558   -2.5605 H   0  0  0  0  0  0  0  0  0  0  0  0
   -0.4278   -0.9082   -2.4318 C   0  0  0  0  0  0  0  0  0  0  0  0
   -0.5265   -1.6663   -1.4408 O   0  5  0  0  0  0  0  0  0  0  0  0
   -0.5399   -1.2681   -3.6248 O   0  0  0  0  0  0  0  0  0  0  0  0
    0.1881    0.1678    1.7015 C   0  0  0  0  0  0  0  0  0  0  0  0
    1.3379    0.0002    2.1133 O   0  0  0  0  0  0  0  0  0  0  0  0
   -0.7666    0.7145    2.4656 N   0  0  0  0  0  0  0  0  0  0  0  0
   -1.6971    0.7705    2.0790 H   0  0  0  0  0  0  0  0  0  0  0  0
   -0.5716    1.1232    3.8542 C   0  0  0  0  0  0  0  0  0  0  0  0
    0.3083    1.7643    3.9293 H   0  0  0  0  0  0  0  0  0  0  0  0
   -1.4485    1.6640    4.2131 H   0  0  0  0  0  0  0  0  0  0  0  0
   -0.4137    0.2381    4.4736 H   0  0  0  0  0  0  0  0  0  0  0  0
  5  6  2  0  0  0  0
  5  7  1  0  0  0  0
  2  3  1  0  0  0  0
  2  4  1  0  0  0  0
  2  5  1  0  0  0  0
  1  2  1  0  0  0  0
 20 21  2  0  0  0  0
 20 22  1  0  0  0  0
 17 18  1  0  0  0  0
 17 19  2  0  0  0  0
 14 15  1  0  0  0  0
 14 16  1  0  0  0  0
 14 17  1  0  0  0  0
 11 12  1  0  0  0  0
 11 13  1  0  0  0  0
 11 14  1  0  0  0  0
  9 10  1  0  0  0  0
  9 11  1  0  0  0  0
  9 20  1  0  0  0  0
  7  8  1  0  0  0  0
  7  9  1  0  0  0  0
 24 25  1  0  0  0  0
 24 26  1  0  0  0  0
 24 27  1  0  0  0  0
 22 23  1  0  0  0  0
 22 24  1  0  0  0  0
M  CHG  1  18  -1
M  END
$$$$
default_name
  -OEChem-02102213163D

 27 26  0     1  0  0  0  0  0999 V2000
   -3.2406   -3.5400    1.2326 H   0  0  0  0  0  0  0  0  0  0  0  0
   -3.1436   -2.6190    0.6606 C   0  0  0  0  0  0  0  0  0  0  0  0
   -3.8786   -1.8920    0.9996 H   0  0  0  0  0  0  0  0  0  0  0  0
   -3.2846   -2.8280   -0.3984 H   0  0  0  0  0  0  0  0  0  0  0  0
   -1.7586   -2.0580    0.8686 C   0  0  0  0  0  0  0  0  0  0  0  0
   -0.9666   -2.6340    1.6026 O   0  0  0  0  0  0  0  0  0  0  0  0
   -1.4866   -0.9220    0.2366 N   0  0  0  0  0  0  0  0  0  0  0  0
   -2.2166   -0.4790   -0.2994 H   0  0  0  0  0  0  0  0  0  0  0  0
   -0.1956   -0.2250    0.2596 C   0  0  1  0  0  0  0  0  0  0  0  0
    0.5755   -0.9013   -0.1105 H   0  0  0  0  0  0  0  0  0  0  0  0
   -0.2553    0.9811   -0.6992 C   0  0  0  0  0  0  0  0  0  0  0  0
   -1.1988    1.5014   -0.5266 H   0  0  0  0  0  0  0  0  0  0  0  0
    0.5626    1.6653   -0.4686 H   0  0  0  0  0  0  0  0  0  0  0  0
   -0.1803    0.5872   -2.1840 C   0  0  0  0  0  0  0  0  0  0  0  0
   -0.7143    1.3322   -2.7787 H   0  0  0  0  0  0  0  0  0  0  0  0
    0.8692    0.6010   -2.4899 H   0  0  0  0  0  0  0  0  0  0  0  0
   -0.7755   -0.7976   -2.4787 C   0  0  0  0  0  0  0  0  0  0  0  0
   -1.1273   -1.5110   -1.5123 O   0  5  0  0  0  0  0  0  0  0  0  0
   -0.8926   -1.1130   -3.6838 O   0  0  0  0  0  0  0  0  0  0  0  0
    0.1881    0.1678    1.7015 C   0  0  0  0  0  0  0  0  0  0  0  0
    1.3379    0.0002    2.1133 O   0  0  0  0  0  0  0  0  0  0  0  0
   -0.7666    0.7145    2.4656 N   0  0  0  0  0  0  0  0  0  0  0  0
   -1.6971    0.7705    2.0790 H   0  0  0  0  0  0  0  0  0  0  0  0
   -0.5716    1.1232    3.8542 C   0  0  0  0  0  0  0  0  0  0  0  0
    0.3083    1.7643    3.9293 H   0  0  0  0  0  0  0  0  0  0  0  0
   -1.4485    1.6640    4.2131 H   0  0  0  0  0  0  0  0  0  0  0  0
   -0.4137    0.2381    4.4736 H   0  0  0  0  0  0  0  0  0  0  0  0
  5  6  2  0  0  0  0
  5  7  1  0  0  0  0
  2  3  1  0  0  0  0
  2  4  1  0  0  0  0
  2  5  1  0  0  0  0
  1  2  1  0  0  0  0
 20 21  2  0  0  0  0
 20 22  1  0  0  0  0
 17 18  1  0  0  0  0
 17 19  2  0  0  0  0
 14 15  1  0  0  0  0
 14 16  1  0  0  0  0
 14 17  1  0  0  0  0
 11 12  1  0  0  0  0
 11 13  1  0  0  0  0
 11 14  1  0  0  0  0
  9 10  1  0  0  0  0
  9 11  1  0  0  0  0
  9 20  1  0  0  0  0
  7  8  1  0  0  0  0
  7  9  1  0  0  0  0
 24 25  1  0  0  0  0
 24 26  1  0  0  0  0
 24 27  1  0  0  0  0
 22 23  1  0  0  0  0
 22 24  1  0  0  0  0
M  CHG  1  18  -1
M  END
$$$$
default_name
  -OEChem-02102213163D

 27 26  0     1  0  0  0  0  0999 V2000
   -3.2406   -3.5400    1.2326 H   0  0  0  0  0  0  0  0  0  0  0  0
   -3.1436   -2.6190    0.6606 C   0  0  0  0  0  0  0  0  0  0  0  0
   -3.8786   -1.8920    0.9996 H   0  0  0  0  0  0  0  0  0  0  0  0
   -3.2846   -2.8280   -0.3984 H   0  0  0  0  0  0  0  0  0  0  0  0
   -1.7586   -2.0580    0.8686 C   0  0  0  0  0  0  0  0  0  0  0  0
   -0.9666   -2.6340    1.6026 O   0  0  0  0  0  0  0  0  0  0  0  0
   -1.4866   -0.9220    0.2366 N   0  0  0  0  0  0  0  0  0  0  0  0
   -2.2166   -0.4790   -0.2994 H   0  0  0  0  0  0  0  0  0  0  0  0
   -0.1956   -0.2250    0.2596 C   0  0  1  0  0  0  0  0  0  0  0  0
    0.5755   -0.9013   -0.1105 H   0  0  0  0  0  0  0  0  0  0  0  0
   -0.2553    0.9811   -0.6992 C   0  0  0  0  0  0  0  0  0  0  0  0
   -1.1988    1.5014   -0.5266 H   0  0  0  0  0  0  0  0  0  0  0  0
    0.5626    1.6653   -0.4686 H   0  0  0  0  0  0  0  0  0  0  0  0
   -0.1803    0.5872   -2.1840 C   0  0  0  0  0  0  0  0  0  0  0  0
   -0.4700    1.4446   -2.7962 H   0  0  0  0  0  0  0  0  0  0  0  0
    0.8577    0.3391   -2.4210 H   0  0  0  0  0  0  0  0  0  0  0  0
   -1.0807   -0.6033   -2.5457 C   0  0  0  0  0  0  0  0  0  0  0  0
   -1.6640   -1.2100   -1.6193 O   0  5  0  0  0  0  0  0  0  0  0  0
   -1.1906   -0.8743   -3.7622 O   0  0  0  0  0  0  0  0  0  0  0  0
    0.1881    0.1678    1.7015 C   0  0  0  0  0  0  0  0  0  0  0  0
    1.3379    0.0002    2.1133 O   0  0  0  0  0  0  0  0  0  0  0  0
   -0.7666    0.7145    2.4656 N   0  0  0  0  0  0  0  0  0  0  0  0
   -1.6971    0.7705    2.0790 H   0  0  0  0  0  0  0  0  0  0  0  0
   -0.5716    1.1232    3.8542 C   0  0  0  0  0  0  0  0  0  0  0  0
    0.3083    1.7643    3.9293 H   0  0  0  0  0  0  0  0  0  0  0  0
   -1.4485    1.6640    4.2131 H   0  0  0  0  0  0  0  0  0  0  0  0
   -0.4137    0.2381    4.4736 H   0  0  0  0  0  0  0  0  0  0  0  0
  5  6  2  0  0  0  0
  5  7  1  0  0  0  0
  2  3  1  0  0  0  0
  2  4  1  0  0  0  0
  2  5  1  0  0  0  0
  1  2  1  0  0  0  0
 20 21  2  0  0  0  0
 20 22  1  0  0  0  0
 17 18  1  0  0  0  0
 17 19  2  0  0  0  0
 14 15  1  0  0  0  0
 14 16  1  0  0  0  0
 14 17  1  0  0  0  0
 11 12  1  0  0  0  0
 11 13  1  0  0  0  0
 11 14  1  0  0  0  0
  9 10  1  0  0  0  0
  9 11  1  0  0  0  0
  9 20  1  0  0  0  0
  7  8  1  0  0  0  0
  7  9  1  0  0  0  0
 24 25  1  0  0  0  0
 24 26  1  0  0  0  0
 24 27  1  0  0  0  0
 22 23  1  0  0  0  0
 22 24  1  0  0  0  0
M  CHG  1  18  -1
M  END
$$$$
default_name
  -OEChem-02102213163D

 27 26  0     1  0  0  0  0  0999 V2000
   -3.2406   -3.5400    1.2326 H   0  0  0  0  0  0  0  0  0  0  0  0
   -3.1436   -2.6190    0.6606 C   0  0  0  0  0  0  0  0  0  0  0  0
   -3.8786   -1.8920    0.9996 H   0  0  0  0  0  0  0  0  0  0  0  0
   -3.2846   -2.8280   -0.3984 H   0  0  0  0  0  0  0  0  0  0  0  0
   -1.7586   -2.0580    0.8686 C   0  0  0  0  0  0  0  0  0  0  0  0
   -0.9666   -2.6340    1.6026 O   0  0  0  0  0  0  0  0  0  0  0  0
   -1.4866   -0.9220    0.2366 N   0  0  0  0  0  0  0  0  0  0  0  0
   -2.2166   -0.4790   -0.2994 H   0  0  0  0  0  0  0  0  0  0  0  0
   -0.1956   -0.2250    0.2596 C   0  0  1  0  0  0  0  0  0  0  0  0
    0.5755   -0.9013   -0.1105 H   0  0  0  0  0  0  0  0  0  0  0  0
   -0.2553    0.9811   -0.6992 C   0  0  0  0  0  0  0  0  0  0  0  0
   -1.1988    1.5014   -0.5266 H   0  0  0  0  0  0  0  0  0  0  0  0
    0.5626    1.6653   -0.4686 H   0  0  0  0  0  0  0  0  0  0  0  0
   -0.1803    0.5872   -2.1840 C   0  0  0  0  0  0  0  0  0  0  0  0
   -0.2047    1.4924   -2.7954 H   0  0  0  0  0  0  0  0  0  0  0  0
    0.7767    0.0882   -2.3585 H   0  0  0  0  0  0  0  0  0  0  0  0
   -1.3225   -0.3385   -2.6282 C   0  0  0  0  0  0  0  0  0  0  0  0
   -2.1002   -0.7837   -1.7545 O   0  5  0  0  0  0  0  0  0  0  0  0
   -1.4137   -0.5682   -3.8547 O   0  0  0  0  0  0  0  0  0  0  0  0
    0.1881    0.1678    1.7015 C   0  0  0  0  0  0  0  0  0  0  0  0
    1.3379    0.0002    2.1133 O   0  0  0  0  0  0  0  0  0  0  0  0
   -0.7666    0.7145    2.4656 N   0  0  0  0  0  0  0  0  0  0  0  0
   -1.6971    0.7705    2.0790 H   0  0  0  0  0  0  0  0  0  0  0  0
   -0.5716    1.1232    3.8542 C   0  0  0  0  0  0  0  0  0  0  0  0
    0.3083    1.7643    3.9293 H   0  0  0  0  0  0  0  0  0  0  0  0
   -1.4485    1.6640    4.2131 H   0  0  0  0  0  0  0  0  0  0  0  0
   -0.4137    0.2381    4.4736 H   0  0  0  0  0  0  0  0  0  0  0  0
  5  6  2  0  0  0  0
  5  7  1  0  0  0  0
  2  3  1  0  0  0  0
  2  4  1  0  0  0  0
  2  5  1  0  0  0  0
  1  2  1  0  0  0  0
 20 21  2  0  0  0  0
 20 22  1  0  0  0  0
 17 18  1  0  0  0  0
 17 19  2  0  0  0  0
 14 15  1  0  0  0  0
 14 16  1  0  0  0  0
 14 17  1  0  0  0  0
 11 12  1  0  0  0  0
 11 13  1  0  0  0  0
 11 14  1  0  0  0  0
  9 10  1  0  0  0  0
  9 11  1  0  0  0  0
  9 20  1  0  0  0  0
  7  8  1  0  0  0  0
  7  9  1  0  0  0  0
 24 25  1  0  0  0  0
 24 26  1  0  0  0  0
 24 27  1  0  0  0  0
 22 23  1  0  0  0  0
 22 24  1  0  0  0  0
M  CHG  1  18  -1
M  END
$$$$
default_name
  -OEChem-02102213163D

 27 26  0     1  0  0  0  0  0999 V2000
   -3.2406   -3.5400    1.2326 H   0  0  0  0  0  0  0  0  0  0  0  0
   -3.1436   -2.6190    0.6606 C   0  0  0  0  0  0  0  0  0  0  0  0
   -3.8786   -1.8920    0.9996 H   0  0  0  0  0  0  0  0  0  0  0  0
   -3.2846   -2.8280   -0.3984 H   0  0  0  0  0  0  0  0  0  0  0  0
   -1.7586   -2.0580    0.8686 C   0  0  0  0  0  0  0  0  0  0  0  0
   -0.9666   -2.6340    1.6026 O   0  0  0  0  0  0  0  0  0  0  0  0
   -1.4866   -0.9220    0.2366 N   0  0  0  0  0  0  0  0  0  0  0  0
   -2.2166   -0.4790   -0.2994 H   0  0  0  0  0  0  0  0  0  0  0  0
   -0.1956   -0.2250    0.2596 C   0  0  1  0  0  0  0  0  0  0  0  0
    0.5755   -0.9013   -0.1105 H   0  0  0  0  0  0  0  0  0  0  0  0
   -0.2553    0.9811   -0.6992 C   0  0  0  0  0  0  0  0  0  0  0  0
   -1.1988    1.5014   -0.5266 H   0  0  0  0  0  0  0  0  0  0  0  0
    0.5626    1.6653   -0.4686 H   0  0  0  0  0  0  0  0  0  0  0  0
   -0.1803    0.5872   -2.1840 C   0  0  0  0  0  0  0  0  0  0  0  0
    0.0635    1.4723   -2.7765 H   0  0  0  0  0  0  0  0  0  0  0  0
    0.6315   -0.1347   -2.3067 H   0  0  0  0  0  0  0  0  0  0  0  0
   -1.4844   -0.0213   -2.7205 C   0  0  0  0  0  0  0  0  0  0  0  0
   -2.4061   -0.2613   -1.9085 O   0  5  0  0  0  0  0  0  0  0  0  0
   -1.5465   -0.2157   -3.9549 O   0  0  0  0  0  0  0  0  0  0  0  0
    0.1881    0.1678    1.7015 C   0  0  0  0  0  0  0  0  0  0  0  0
    1.3379    0.0002    2.1133 O   0  0  0  0  0  0  0  0  0  0  0  0
   -0.7666    0.7145    2.4656 N   0  0  0  0  0  0  0  0  0  0  0  0
   -1.6971    0.7705    2.0790 H   0  0  0  0  0  0  0  0  0  0  0  0
   -0.5716    1.1232    3.8542 C   0  0  0  0  0  0  0  0  0  0  0  0
    0.3083    1.7643    3.9293 H   0  0  0  0  0  0  0  0  0  0  0  0
   -1.4485    1.6640    4.2131 H   0  0  0  0  0  0  0  0  0  0  0  0
   -0.4137    0.2381    4.4736 H   0  0  0  0  0  0  0  0  0  0  0  0
  5  6  2  0  0  0  0
  5  7  1  0  0  0  0
  2  3  1  0  0  0  0
  2  4  1  0  0  0  0
  2  5  1  0  0  0  0
  1  2  1  0  0  0  0
 20 21  2  0  0  0  0
 20 22  1  0  0  0  0
 17 18  1  0  0  0  0
 17 19  2  0  0  0  0
 14 15  1  0  0  0  0
 14 16  1  0  0  0  0
 14 17  1  0  0  0  0
 11 12  1  0  0  0  0
 11 13  1  0  0  0  0
 11 14  1  0  0  0  0
  9 10  1  0  0  0  0
  9 11  1  0  0  0  0
  9 20  1  0  0  0  0
  7  8  1  0  0  0  0
  7  9  1  0  0  0  0
 24 25  1  0  0  0  0
 24 26  1  0  0  0  0
 24 27  1  0  0  0  0
 22 23  1  0  0  0  0
 22 24  1  0  0  0  0
M  CHG  1  18  -1
M  END
$$$$
default_name
  -OEChem-02102213163D

 27 26  0     1  0  0  0  0  0999 V2000
   -3.2406   -3.5400    1.2326 H   0  0  0  0  0  0  0  0  0  0  0  0
   -3.1436   -2.6190    0.6606 C   0  0  0  0  0  0  0  0  0  0  0  0
   -3.8786   -1.8920    0.9996 H   0  0  0  0  0  0  0  0  0  0  0  0
   -3.2846   -2.8280   -0.3984 H   0  0  0  0  0  0  0  0  0  0  0  0
   -1.7586   -2.0580    0.8686 C   0  0  0  0  0  0  0  0  0  0  0  0
   -0.9666   -2.6340    1.6026 O   0  0  0  0  0  0  0  0  0  0  0  0
   -1.4866   -0.9220    0.2366 N   0  0  0  0  0  0  0  0  0  0  0  0
   -2.2166   -0.4790   -0.2994 H   0  0  0  0  0  0  0  0  0  0  0  0
   -0.1956   -0.2250    0.2596 C   0  0  1  0  0  0  0  0  0  0  0  0
    0.5755   -0.9013   -0.1105 H   0  0  0  0  0  0  0  0  0  0  0  0
   -0.2553    0.9811   -0.6992 C   0  0  0  0  0  0  0  0  0  0  0  0
   -1.1988    1.5014   -0.5266 H   0  0  0  0  0  0  0  0  0  0  0  0
    0.5626    1.6653   -0.4686 H   0  0  0  0  0  0  0  0  0  0  0  0
   -0.1803    0.5872   -2.1840 C   0  0  0  0  0  0  0  0  0  0  0  0
    0.3162    1.3856   -2.7408 H   0  0  0  0  0  0  0  0  0  0  0  0
    0.4322   -0.3143   -2.2691 H   0  0  0  0  0  0  0  0  0  0  0  0
   -1.5554    0.3268   -2.8165 C   0  0  0  0  0  0  0  0  0  0  0  0
   -2.5608    0.3216   -2.0710 O   0  5  0  0  0  0  0  0  0  0  0  0
   -1.5801    0.1593   -4.0561 O   0  0  0  0  0  0  0  0  0  0  0  0
    0.1881    0.1678    1.7015 C   0  0  0  0  0  0  0  0  0  0  0  0
    1.3379    0.0002    2.1133 O   0  0  0  0  0  0  0  0  0  0  0  0
   -0.7666    0.7145    2.4656 N   0  0  0  0  0  0  0  0  0  0  0  0
   -1.6971    0.7705    2.0790 H   0  0  0  0  0  0  0  0  0  0  0  0
   -0.5716    1.1232    3.8542 C   0  0  0  0  0  0  0  0  0  0  0  0
    0.3083    1.7643    3.9293 H   0  0  0  0  0  0  0  0  0  0  0  0
   -1.4485    1.6640    4.2131 H   0  0  0  0  0  0  0  0  0  0  0  0
   -0.4137    0.2381    4.4736 H   0  0  0  0  0  0  0  0  0  0  0  0
  5  6  2  0  0  0  0
  5  7  1  0  0  0  0
  2  3  1  0  0  0  0
  2  4  1  0  0  0  0
  2  5  1  0  0  0  0
  1  2  1  0  0  0  0
 20 21  2  0  0  0  0
 20 22  1  0  0  0  0
 17 18  1  0  0  0  0
 17 19  2  0  0  0  0
 14 15  1  0  0  0  0
 14 16  1  0  0  0  0
 14 17  1  0  0  0  0
 11 12  1  0  0  0  0
 11 13  1  0  0  0  0
 11 14  1  0  0  0  0
  9 10  1  0  0  0  0
  9 11  1  0  0  0  0
  9 20  1  0  0  0  0
  7  8  1  0  0  0  0
  7  9  1  0  0  0  0
 24 25  1  0  0  0  0
 24 26  1  0  0  0  0
 24 27  1  0  0  0  0
 22 23  1  0  0  0  0
 22 24  1  0  0  0  0
M  CHG  1  18  -1
M  END
$$$$
default_name
  -OEChem-02102213163D

 27 26  0     1  0  0  0  0  0999 V2000
   -3.2406   -3.5400    1.2326 H   0  0  0  0  0  0  0  0  0  0  0  0
   -3.1436   -2.6190    0.6606 C   0  0  0  0  0  0  0  0  0  0  0  0
   -3.8786   -1.8920    0.9996 H   0  0  0  0  0  0  0  0  0  0  0  0
   -3.2846   -2.8280   -0.3984 H   0  0  0  0  0  0  0  0  0  0  0  0
   -1.7586   -2.0580    0.8686 C   0  0  0  0  0  0  0  0  0  0  0  0
   -0.9666   -2.6340    1.6026 O   0  0  0  0  0  0  0  0  0  0  0  0
   -1.4866   -0.9220    0.2366 N   0  0  0  0  0  0  0  0  0  0  0  0
   -2.2166   -0.4790   -0.2994 H   0  0  0  0  0  0  0  0  0  0  0  0
   -0.1956   -0.2250    0.2596 C   0  0  1  0  0  0  0  0  0  0  0  0
    0.5755   -0.9013   -0.1105 H   0  0  0  0  0  0  0  0  0  0  0  0
   -0.2553    0.9811   -0.6992 C   0  0  0  0  0  0  0  0  0  0  0  0
   -1.1988    1.5014   -0.5266 H   0  0  0  0  0  0  0  0  0  0  0  0
    0.5626    1.6653   -0.4686 H   0  0  0  0  0  0  0  0  0  0  0  0
   -0.1803    0.5872   -2.1840 C   0  0  0  0  0  0  0  0  0  0  0  0
    0.5363    1.2382   -2.6906 H   0  0  0  0  0  0  0  0  0  0  0  0
    0.1923   -0.4386   -2.2483 H   0  0  0  0  0  0  0  0  0  0  0  0
   -1.5307    0.6819   -2.9095 C   0  0  0  0  0  0  0  0  0  0  0  0
   -2.5538    0.9254   -2.2309 O   0  5  0  0  0  0  0  0  0  0  0  0
   -1.5121    0.5311   -4.1513 O   0  0  0  0  0  0  0  0  0  0  0  0
    0.1881    0.1678    1.7015 C   0  0  0  0  0  0  0  0  0  0  0  0
    1.3379    0.0002    2.1133 O   0  0  0  0  0  0  0  0  0  0  0  0
   -0.7666    0.7145    2.4656 N   0  0  0  0  0  0  0  0  0  0  0  0
   -1.6971    0.7705    2.0790 H   0  0  0  0  0  0  0  0  0  0  0  0
   -0.5716    1.1232    3.8542 C   0  0  0  0  0  0  0  0  0  0  0  0
    0.3083    1.7643    3.9293 H   0  0  0  0  0  0  0  0  0  0  0  0
   -1.4485    1.6640    4.2131 H   0  0  0  0  0  0  0  0  0  0  0  0
   -0.4137    0.2381    4.4736 H   0  0  0  0  0  0  0  0  0  0  0  0
  5  6  2  0  0  0  0
  5  7  1  0  0  0  0
  2  3  1  0  0  0  0
  2  4  1  0  0  0  0
  2  5  1  0  0  0  0
  1  2  1  0  0  0  0
 20 21  2  0  0  0  0
 20 22  1  0  0  0  0
 17 18  1  0  0  0  0
 17 19  2  0  0  0  0
 14 15  1  0  0  0  0
 14 16  1  0  0  0  0
 14 17  1  0  0  0  0
 11 12  1  0  0  0  0
 11 13  1  0  0  0  0
 11 14  1  0  0  0  0
  9 10  1  0  0  0  0
  9 11  1  0  0  0  0
  9 20  1  0  0  0  0
  7  8  1  0  0  0  0
  7  9  1  0  0  0  0
 24 25  1  0  0  0  0
 24 26  1  0  0  0  0
 24 27  1  0  0  0  0
 22 23  1  0  0  0  0
 22 24  1  0  0  0  0
M  CHG  1  18  -1
M  END
$$$$
default_name
  -OEChem-02102213163D

 27 26  0     1  0  0  0  0  0999 V2000
   -3.2406   -3.5400    1.2326 H   0  0  0  0  0  0  0  0  0  0  0  0
   -3.1436   -2.6190    0.6606 C   0  0  0  0  0  0  0  0  0  0  0  0
   -3.8786   -1.8920    0.9996 H   0  0  0  0  0  0  0  0  0  0  0  0
   -3.2846   -2.8280   -0.3984 H   0  0  0  0  0  0  0  0  0  0  0  0
   -1.7586   -2.0580    0.8686 C   0  0  0  0  0  0  0  0  0  0  0  0
   -0.9666   -2.6340    1.6026 O   0  0  0  0  0  0  0  0  0  0  0  0
   -1.4866   -0.9220    0.2366 N   0  0  0  0  0  0  0  0  0  0  0  0
   -2.2166   -0.4790   -0.2994 H   0  0  0  0  0  0  0  0  0  0  0  0
   -0.1956   -0.2250    0.2596 C   0  0  1  0  0  0  0  0  0  0  0  0
    0.5755   -0.9013   -0.1105 H   0  0  0  0  0  0  0  0  0  0  0  0
   -0.2553    0.9811   -0.6992 C   0  0  0  0  0  0  0  0  0  0  0  0
   -1.1988    1.5014   -0.5266 H   0  0  0  0  0  0  0  0  0  0  0  0
    0.5626    1.6653   -0.4686 H   0  0  0  0  0  0  0  0  0  0  0  0
   -0.1803    0.5872   -2.1840 C   0  0  0  0  0  0  0  0  0  0  0  0
    0.7087    1.0403   -2.6293 H   0  0  0  0  0  0  0  0  0  0  0  0
   -0.0719   -0.4989   -2.2456 H   0  0  0  0  0  0  0  0  0  0  0  0
   -1.4119    1.0200   -2.9931 C   0  0  0  0  0  0  0  0  0  0  0  0
   -2.3855    1.5089   -2.3772 O   0  5  0  0  0  0  0  0  0  0  0  0
   -1.3472    0.8745   -4.2341 O   0  0  0  0  0  0  0  0  0  0  0  0
    0.1881    0.1678    1.7015 C   0  0  0  0  0  0  0  0  0  0  0  0
    1.3379    0.0002    2.1133 O   0  0  0  0  0  0  0  0  0  0  0  0
   -0.7666    0.7145    2.4656 N   0  0  0  0  0  0  0  0  0  0  0  0
   -1.6971    0.7705    2.0790 H   0  0  0  0  0  0  0  0  0  0  0  0
   -0.5716    1.1232    3.8542 C   0  0  0  0  0  0  0  0  0  0  0  0
    0.3083    1.7643    3.9293 H   0  0  0  0  0  0  0  0  0  0  0  0
   -1.4485    1.6640    4.2131 H   0  0  0  0  0  0  0  0  0  0  0  0
   -0.4137    0.2381    4.4736 H   0  0  0  0  0  0  0  0  0  0  0  0
  5  6  2  0  0  0  0
  5  7  1  0  0  0  0
  2  3  1  0  0  0  0
  2  4  1  0  0  0  0
  2  5  1  0  0  0  0
  1  2  1  0  0  0  0
 20 21  2  0  0  0  0
 20 22  1  0  0  0  0
 17 18  1  0  0  0  0
 17 19  2  0  0  0  0
 14 15  1  0  0  0  0
 14 16  1  0  0  0  0
 14 17  1  0  0  0  0
 11 12  1  0  0  0  0
 11 13  1  0  0  0  0
 11 14  1  0  0  0  0
  9 10  1  0  0  0  0
  9 11  1  0  0  0  0
  9 20  1  0  0  0  0
  7  8  1  0  0  0  0
  7  9  1  0  0  0  0
 24 25  1  0  0  0  0
 24 26  1  0  0  0  0
 24 27  1  0  0  0  0
 22 23  1  0  0  0  0
 22 24  1  0  0  0  0
M  CHG  1  18  -1
M  END
$$$$
default_name
  -OEChem-02102213163D

 27 26  0     1  0  0  0  0  0999 V2000
   -3.2406   -3.5400    1.2326 H   0  0  0  0  0  0  0  0  0  0  0  0
   -3.1436   -2.6190    0.6606 C   0  0  0  0  0  0  0  0  0  0  0  0
   -3.8786   -1.8920    0.9996 H   0  0  0  0  0  0  0  0  0  0  0  0
   -3.2846   -2.8280   -0.3984 H   0  0  0  0  0  0  0  0  0  0  0  0
   -1.7586   -2.0580    0.8686 C   0  0  0  0  0  0  0  0  0  0  0  0
   -0.9666   -2.6340    1.6026 O   0  0  0  0  0  0  0  0  0  0  0  0
   -1.4866   -0.9220    0.2366 N   0  0  0  0  0  0  0  0  0  0  0  0
   -2.2166   -0.4790   -0.2994 H   0  0  0  0  0  0  0  0  0  0  0  0
   -0.1956   -0.2250    0.2596 C   0  0  1  0  0  0  0  0  0  0  0  0
    0.5755   -0.9013   -0.1105 H   0  0  0  0  0  0  0  0  0  0  0  0
   -0.2553    0.9811   -0.6992 C   0  0  0  0  0  0  0  0  0  0  0  0
   -1.1988    1.5014   -0.5266 H   0  0  0  0  0  0  0  0  0  0  0  0
    0.5626    1.6653   -0.4686 H   0  0  0  0  0  0  0  0  0  0  0  0
   -0.1803    0.5872   -2.1840 C   0  0  0  0  0  0  0  0  0  0  0  0
    0.8218    0.8052   -2.5612 H   0  0  0  0  0  0  0  0  0  0  0  0
   -0.3423   -0.4912   -2.2613 H   0  0  0  0  0  0  0  0  0  0  0  0
   -1.2071    1.3178   -3.0618 C   0  0  0  0  0  0  0  0  0  0  0  0
   -2.0675    2.0323   -2.5000 O   0  5  0  0  0  0  0  0  0  0  0  0
   -1.0967    1.1661   -4.2988 O   0  0  0  0  0  0  0  0  0  0  0  0
    0.1881    0.1678    1.7015 C   0  0  0  0  0  0  0  0  0  0  0  0
    1.3379    0.0002    2.1133 O   0  0  0  0  0  0  0  0  0  0  0  0
   -0.7666    0.7145    2.4656 N   0  0  0  0  0  0  0  0  0  0  0  0
   -1.6971    0.7705    2.0790 H   0  0  0  0  0  0  0  0  0  0  0  0
   -0.5716    1.1232    3.8542 C   0  0  0  0  0  0  0  0  0  0  0  0
    0.3083    1.7643    3.9293 H   0  0  0  0  0  0  0  0  0  0  0  0
   -1.4485    1.6640    4.2131 H   0  0  0  0  0  0  0  0  0  0  0  0
   -0.4137    0.2381    4.4736 H   0  0  0  0  0  0  0  0  0  0  0  0
  5  6  2  0  0  0  0
  5  7  1  0  0  0  0
  2  3  1  0  0  0  0
  2  4  1  0  0  0  0
  2  5  1  0  0  0  0
  1  2  1  0  0  0  0
 20 21  2  0  0  0  0
 20 22  1  0  0  0  0
 17 18  1  0  0  0  0
 17 19  2  0  0  0  0
 14 15  1  0  0  0  0
 14 16  1  0  0  0  0
 14 17  1  0  0  0  0
 11 12  1  0  0  0  0
 11 13  1  0  0  0  0
 11 14  1  0  0  0  0
  9 10  1  0  0  0  0
  9 11  1  0  0  0  0
  9 20  1  0  0  0  0
  7  8  1  0  0  0  0
  7  9  1  0  0  0  0
 24 25  1  0  0  0  0
 24 26  1  0  0  0  0
 24 27  1  0  0  0  0
 22 23  1  0  0  0  0
 22 24  1  0  0  0  0
M  CHG  1  18  -1
M  END
$$$$
default_name
  -OEChem-02102213163D

 27 26  0     1  0  0  0  0  0999 V2000
   -3.2406   -3.5400    1.2326 H   0  0  0  0  0  0  0  0  0  0  0  0
   -3.1436   -2.6190    0.6606 C   0  0  0  0  0  0  0  0  0  0  0  0
   -3.8786   -1.8920    0.9996 H   0  0  0  0  0  0  0  0  0  0  0  0
   -3.2846   -2.8280   -0.3984 H   0  0  0  0  0  0  0  0  0  0  0  0
   -1.7586   -2.0580    0.8686 C   0  0  0  0  0  0  0  0  0  0  0  0
   -0.9666   -2.6340    1.6026 O   0  0  0  0  0  0  0  0  0  0  0  0
   -1.4866   -0.9220    0.2366 N   0  0  0  0  0  0  0  0  0  0  0  0
   -2.2166   -0.4790   -0.2994 H   0  0  0  0  0  0  0  0  0  0  0  0
   -0.1956   -0.2250    0.2596 C   0  0  1  0  0  0  0  0  0  0  0  0
    0.5755   -0.9013   -0.1105 H   0  0  0  0  0  0  0  0  0  0  0  0
   -0.2553    0.9811   -0.6992 C   0  0  0  0  0  0  0  0  0  0  0  0
   -1.1988    1.5014   -0.5266 H   0  0  0  0  0  0  0  0  0  0  0  0
    0.5626    1.6653   -0.4686 H   0  0  0  0  0  0  0  0  0  0  0  0
   -0.1803    0.5872   -2.1840 C   0  0  0  0  0  0  0  0  0  0  0  0
    0.8677    0.5491   -2.4910 H   0  0  0  0  0  0  0  0  0  0  0  0
   -0.6005   -0.4160   -2.2943 H   0  0  0  0  0  0  0  0  0  0  0  0
   -0.9303    1.5553   -3.1108 C   0  0  0  0  0  0  0  0  0  0  0  0
   -1.6214    2.4600   -2.5909 O   0  5  0  0  0  0  0  0  0  0  0  0
   -0.7775    1.3859   -4.3410 O   0  0  0  0  0  0  0  0  0  0  0  0
    0.1881    0.1678    1.7015 C   0  0  0  0  0  0  0  0  0  0  0  0
    1.3379    0.0002    2.1133 O   0  0  0  0  0  0  0  0  0  0  0  0
   -0.7666    0.7145    2.4656 N   0  0  0  0  0  0  0  0  0  0  0  0
   -1.6971    0.7705    2.0790 H   0  0  0  0  0  0  0  0  0  0  0  0
   -0.5716    1.1232    3.8542 C   0  0  0  0  0  0  0  0  0  0  0  0
    0.3083    1.7643    3.9293 H   0  0  0  0  0  0  0  0  0  0  0  0
   -1.4485    1.6640    4.2131 H   0  0  0  0  0  0  0  0  0  0  0  0
   -0.4137    0.2381    4.4736 H   0  0  0  0  0  0  0  0  0  0  0  0
  5  6  2  0  0  0  0
  5  7  1  0  0  0  0
  2  3  1  0  0  0  0
  2  4  1  0  0  0  0
  2  5  1  0  0  0  0
  1  2  1  0  0  0  0
 20 21  2  0  0  0  0
 20 22  1  0  0  0  0
 17 18  1  0  0  0  0
 17 19  2  0  0  0  0
 14 15  1  0  0  0  0
 14 16  1  0  0  0  0
 14 17  1  0  0  0  0
 11 12  1  0  0  0  0
 11 13  1  0  0  0  0
 11 14  1  0  0  0  0
  9 10  1  0  0  0  0
  9 11  1  0  0  0  0
  9 20  1  0  0  0  0
  7  8  1  0  0  0  0
  7  9  1  0  0  0  0
 24 25  1  0  0  0  0
 24 26  1  0  0  0  0
 24 27  1  0  0  0  0
 22 23  1  0  0  0  0
 22 24  1  0  0  0  0
M  CHG  1  18  -1
M  END
$$$$
default_name
  -OEChem-02102213163D

 27 26  0     1  0  0  0  0  0999 V2000
   -3.2406   -3.5400    1.2326 H   0  0  0  0  0  0  0  0  0  0  0  0
   -3.1436   -2.6190    0.6606 C   0  0  0  0  0  0  0  0  0  0  0  0
   -3.8786   -1.8920    0.9996 H   0  0  0  0  0  0  0  0  0  0  0  0
   -3.2846   -2.8280   -0.3984 H   0  0  0  0  0  0  0  0  0  0  0  0
   -1.7586   -2.0580    0.8686 C   0  0  0  0  0  0  0  0  0  0  0  0
   -0.9666   -2.6340    1.6026 O   0  0  0  0  0  0  0  0  0  0  0  0
   -1.4866   -0.9220    0.2366 N   0  0  0  0  0  0  0  0  0  0  0  0
   -2.2166   -0.4790   -0.2994 H   0  0  0  0  0  0  0  0  0  0  0  0
   -0.1956   -0.2250    0.2596 C   0  0  1  0  0  0  0  0  0  0  0  0
    0.5755   -0.9013   -0.1105 H   0  0  0  0  0  0  0  0  0  0  0  0
   -0.2553    0.9811   -0.6992 C   0  0  0  0  0  0  0  0  0  0  0  0
   -1.1988    1.5014   -0.5266 H   0  0  0  0  0  0  0  0  0  0  0  0
    0.5626    1.6653   -0.4686 H   0  0  0  0  0  0  0  0  0  0  0  0
   -0.1803    0.5872   -2.1840 C   0  0  0  0  0  0  0  0  0  0  0  0
    0.8434    0.2893   -2.4233 H   0  0  0  0  0  0  0  0  0  0  0  0
   -0.8289   -0.2784   -2.3424 H   0  0  0  0  0  0  0  0  0  0  0  0
   -0.6004    1.7161   -3.1368 C   0  0  0  0  0  0  0  0  0  0  0  0
   -1.0777    2.7628   -2.6438 O   0  5  0  0  0  0  0  0  0  0  0  0
   -0.4115    1.5190   -4.3578 O   0  0  0  0  0  0  0  0  0  0  0  0
    0.1881    0.1678    1.7015 C   0  0  0  0  0  0  0  0  0  0  0  0
    1.3379    0.0002    2.1133 O   0  0  0  0  0  0  0  0  0  0  0  0
   -0.7666    0.7145    2.4656 N   0  0  0  0  0  0  0  0  0  0  0  0
   -1.6971    0.7705    2.0790 H   0  0  0  0  0  0  0  0  0  0  0  0
   -0.5716    1.1232    3.8542 C   0  0  0  0  0  0  0  0  0  0  0  0
    0.3083    1.7643    3.9293 H   0  0  0  0  0  0  0  0  0  0  0  0
   -1.4485    1.6640    4.2131 H   0  0  0  0  0  0  0  0  0  0  0  0
   -0.4137    0.2381    4.4736 H   0  0  0  0  0  0  0  0  0  0  0  0
  5  6  2  0  0  0  0
  5  7  1  0  0  0  0
  2  3  1  0  0  0  0
  2  4  1  0  0  0  0
  2  5  1  0  0  0  0
  1  2  1  0  0  0  0
 20 21  2  0  0  0  0
 20 22  1  0  0  0  0
 17 18  1  0  0  0  0
 17 19  2  0  0  0  0
 14 15  1  0  0  0  0
 14 16  1  0  0  0  0
 14 17  1  0  0  0  0
 11 12  1  0  0  0  0
 11 13  1  0  0  0  0
 11 14  1  0  0  0  0
  9 10  1  0  0  0  0
  9 11  1  0  0  0  0
  9 20  1  0  0  0  0
  7  8  1  0  0  0  0
  7  9  1  0  0  0  0
 24 25  1  0  0  0  0
 24 26  1  0  0  0  0
 24 27  1  0  0  0  0
 22 23  1  0  0  0  0
 22 24  1  0  0  0  0
M  CHG  1  18  -1
M  END
$$$$
default_name
  -OEChem-02102213163D

 27 26  0     1  0  0  0  0  0999 V2000
   -3.2406   -3.5400    1.2326 H   0  0  0  0  0  0  0  0  0  0  0  0
   -3.1436   -2.6190    0.6606 C   0  0  0  0  0  0  0  0  0  0  0  0
   -3.8786   -1.8920    0.9996 H   0  0  0  0  0  0  0  0  0  0  0  0
   -3.2846   -2.8280   -0.3984 H   0  0  0  0  0  0  0  0  0  0  0  0
   -1.7586   -2.0580    0.8686 C   0  0  0  0  0  0  0  0  0  0  0  0
   -0.9666   -2.6340    1.6026 O   0  0  0  0  0  0  0  0  0  0  0  0
   -1.4866   -0.9220    0.2366 N   0  0  0  0  0  0  0  0  0  0  0  0
   -2.2166   -0.4790   -0.2994 H   0  0  0  0  0  0  0  0  0  0  0  0
   -0.1956   -0.2250    0.2596 C   0  0  1  0  0  0  0  0  0  0  0  0
    0.5755   -0.9013   -0.1105 H   0  0  0  0  0  0  0  0  0  0  0  0
   -0.2553    0.9811   -0.6992 C   0  0  0  0  0  0  0  0  0  0  0  0
   -1.0484    1.6462   -0.3538 H   0  0  0  0  0  0  0  0  0  0  0  0
    0.6911    1.5222   -0.6566 H   0  0  0  0  0  0  0  0  0  0  0  0
   -0.5476    0.5900   -2.1576 C   0  0  0  0  0  0  0  0  0  0  0  0
    0.2283   -0.0961   -2.5059 H   0  0  0  0  0  0  0  0  0  0  0  0
   -1.5034    0.0600   -2.1856 H   0  0  0  0  0  0  0  0  0  0  0  0
   -0.6069    1.7921   -3.1117 C   0  0  0  0  0  0  0  0  0  0  0  0
   -0.5533    2.9426   -2.6217 O   0  5  0  0  0  0  0  0  0  0  0  0
   -0.6813    1.5351   -4.3339 O   0  0  0  0  0  0  0  0  0  0  0  0
    0.1881    0.1678    1.7015 C   0  0  0  0  0  0  0  0  0  0  0  0
    1.3379    0.0002    2.1133 O   0  0  0  0  0  0  0  0  0  0  0  0
   -0.7666    0.7145    2.4656 N   0  0  0  0  0  0  0  0  0  0  0  0
   -1.6971    0.7705    2.0790 H   0  0  0  0  0  0  0  0  0  0  0  0
   -0.5716    1.1232    3.8542 C   0  0  0  0  0  0  0  0  0  0  0  0
    0.3083    1.7643    3.9293 H   0  0  0  0  0  0  0  0  0  0  0  0
   -1.4485    1.6640    4.2131 H   0  0  0  0  0  0  0  0  0  0  0  0
   -0.4137    0.2381    4.4736 H   0  0  0  0  0  0  0  0  0  0  0  0
  5  6  2  0  0  0  0
  5  7  1  0  0  0  0
  2  3  1  0  0  0  0
  2  4  1  0  0  0  0
  2  5  1  0  0  0  0
  1  2  1  0  0  0  0
 20 21  2  0  0  0  0
 20 22  1  0  0  0  0
 17 18  1  0  0  0  0
 17 19  2  0  0  0  0
 14 15  1  0  0  0  0
 14 16  1  0  0  0  0
 14 17  1  0  0  0  0
 11 12  1  0  0  0  0
 11 13  1  0  0  0  0
 11 14  1  0  0  0  0
  9 10  1  0  0  0  0
  9 11  1  0  0  0  0
  9 20  1  0  0  0  0
  7  8  1  0  0  0  0
  7  9  1  0  0  0  0
 24 25  1  0  0  0  0
 24 26  1  0  0  0  0
 24 27  1  0  0  0  0
 22 23  1  0  0  0  0
 22 24  1  0  0  0  0
M  CHG  1  18  -1
M  END
$$$$
default_name
  -OEChem-02102213163D

 27 26  0     1  0  0  0  0  0999 V2000
   -3.2406   -3.5400    1.2326 H   0  0  0  0  0  0  0  0  0  0  0  0
   -3.1436   -2.6190    0.6606 C   0  0  0  0  0  0  0  0  0  0  0  0
   -3.8786   -1.8920    0.9996 H   0  0  0  0  0  0  0  0  0  0  0  0
   -3.2846   -2.8280   -0.3984 H   0  0  0  0  0  0  0  0  0  0  0  0
   -1.7586   -2.0580    0.8686 C   0  0  0  0  0  0  0  0  0  0  0  0
   -0.9666   -2.6340    1.6026 O   0  0  0  0  0  0  0  0  0  0  0  0
   -1.4866   -0.9220    0.2366 N   0  0  0  0  0  0  0  0  0  0  0  0
   -2.2166   -0.4790   -0.2994 H   0  0  0  0  0  0  0  0  0  0  0  0
   -0.1956   -0.2250    0.2596 C   0  0  1  0  0  0  0  0  0  0  0  0
    0.5755   -0.9013   -0.1105 H   0  0  0  0  0  0  0  0  0  0  0  0
   -0.2553    0.9811   -0.6992 C   0  0  0  0  0  0  0  0  0  0  0  0
   -1.0484    1.6462   -0.3538 H   0  0  0  0  0  0  0  0  0  0  0  0
    0.6911    1.5222   -0.6566 H   0  0  0  0  0  0  0  0  0  0  0  0
   -0.5476    0.5900   -2.1576 C   0  0  0  0  0  0  0  0  0  0  0  0
    0.0541   -0.2833   -2.4207 H   0  0  0  0  0  0  0  0  0  0  0  0
   -1.6013    0.3083   -2.2326 H   0  0  0  0  0  0  0  0  0  0  0  0
   -0.2510    1.7134   -3.1619 C   0  0  0  0  0  0  0  0  0  0  0  0
    0.0558    2.8423   -2.7169 O   0  5  0  0  0  0  0  0  0  0  0  0
   -0.3134    1.4126   -4.3747 O   0  0  0  0  0  0  0  0  0  0  0  0
    0.1881    0.1678    1.7015 C   0  0  0  0  0  0  0  0  0  0  0  0
    1.3379    0.0002    2.1133 O   0  0  0  0  0  0  0  0  0  0  0  0
   -0.7666    0.7145    2.4656 N   0  0  0  0  0  0  0  0  0  0  0  0
   -1.6971    0.7705    2.0790 H   0  0  0  0  0  0  0  0  0  0  0  0
   -0.5716    1.1232    3.8542 C   0  0  0  0  0  0  0  0  0  0  0  0
    0.3083    1.7643    3.9293 H   0  0  0  0  0  0  0  0  0  0  0  0
   -1.4485    1.6640    4.2131 H   0  0  0  0  0  0  0  0  0  0  0  0
   -0.4137    0.2381    4.4736 H   0  0  0  0  0  0  0  0  0  0  0  0
  5  6  2  0  0  0  0
  5  7  1  0  0  0  0
  2  3  1  0  0  0  0
  2  4  1  0  0  0  0
  2  5  1  0  0  0  0
  1  2  1  0  0  0  0
 20 21  2  0  0  0  0
 20 22  1  0  0  0  0
 17 18  1  0  0  0  0
 17 19  2  0  0  0  0
 14 15  1  0  0  0  0
 14 16  1  0  0  0  0
 14 17  1  0  0  0  0
 11 12  1  0  0  0  0
 11 13  1  0  0  0  0
 11 14  1  0  0  0  0
  9 10  1  0  0  0  0
  9 11  1  0  0  0  0
  9 20  1  0  0  0  0
  7  8  1  0  0  0  0
  7  9  1  0  0  0  0
 24 25  1  0  0  0  0
 24 26  1  0  0  0  0
 24 27  1  0  0  0  0
 22 23  1  0  0  0  0
 22 24  1  0  0  0  0
M  CHG  1  18  -1
M  END
$$$$
default_name
  -OEChem-02102213163D

 27 26  0     1  0  0  0  0  0999 V2000
   -3.2406   -3.5400    1.2326 H   0  0  0  0  0  0  0  0  0  0  0  0
   -3.1436   -2.6190    0.6606 C   0  0  0  0  0  0  0  0  0  0  0  0
   -3.8786   -1.8920    0.9996 H   0  0  0  0  0  0  0  0  0  0  0  0
   -3.2846   -2.8280   -0.3984 H   0  0  0  0  0  0  0  0  0  0  0  0
   -1.7586   -2.0580    0.8686 C   0  0  0  0  0  0  0  0  0  0  0  0
   -0.9666   -2.6340    1.6026 O   0  0  0  0  0  0  0  0  0  0  0  0
   -1.4866   -0.9220    0.2366 N   0  0  0  0  0  0  0  0  0  0  0  0
   -2.2166   -0.4790   -0.2994 H   0  0  0  0  0  0  0  0  0  0  0  0
   -0.1956   -0.2250    0.2596 C   0  0  1  0  0  0  0  0  0  0  0  0
    0.5755   -0.9013   -0.1105 H   0  0  0  0  0  0  0  0  0  0  0  0
   -0.2553    0.9811   -0.6992 C   0  0  0  0  0  0  0  0  0  0  0  0
   -1.0484    1.6462   -0.3538 H   0  0  0  0  0  0  0  0  0  0  0  0
    0.6911    1.5222   -0.6566 H   0  0  0  0  0  0  0  0  0  0  0  0
   -0.5476    0.5900   -2.1576 C   0  0  0  0  0  0  0  0  0  0  0  0
   -0.1658   -0.4173   -2.3407 H   0  0  0  0  0  0  0  0  0  0  0  0
   -1.6318    0.5699   -2.2966 H   0  0  0  0  0  0  0  0  0  0  0  0
    0.0768    1.5477   -3.1832 C   0  0  0  0  0  0  0  0  0  0  0  0
    0.6259    2.5913   -2.7639 O   0  5  0  0  0  0  0  0  0  0  0  0
    0.0145    1.2021   -4.3840 O   0  0  0  0  0  0  0  0  0  0  0  0
    0.1881    0.1678    1.7015 C   0  0  0  0  0  0  0  0  0  0  0  0
    1.3379    0.0002    2.1133 O   0  0  0  0  0  0  0  0  0  0  0  0
   -0.7666    0.7145    2.4656 N   0  0  0  0  0  0  0  0  0  0  0  0
   -1.6971    0.7705    2.0790 H   0  0  0  0  0  0  0  0  0  0  0  0
   -0.5716    1.1232    3.8542 C   0  0  0  0  0  0  0  0  0  0  0  0
    0.3083    1.7643    3.9293 H   0  0  0  0  0  0  0  0  0  0  0  0
   -1.4485    1.6640    4.2131 H   0  0  0  0  0  0  0  0  0  0  0  0
   -0.4137    0.2381    4.4736 H   0  0  0  0  0  0  0  0  0  0  0  0
  5  6  2  0  0  0  0
  5  7  1  0  0  0  0
  2  3  1  0  0  0  0
  2  4  1  0  0  0  0
  2  5  1  0  0  0  0
  1  2  1  0  0  0  0
 20 21  2  0  0  0  0
 20 22  1  0  0  0  0
 17 18  1  0  0  0  0
 17 19  2  0  0  0  0
 14 15  1  0  0  0  0
 14 16  1  0  0  0  0
 14 17  1  0  0  0  0
 11 12  1  0  0  0  0
 11 13  1  0  0  0  0
 11 14  1  0  0  0  0
  9 10  1  0  0  0  0
  9 11  1  0  0  0  0
  9 20  1  0  0  0  0
  7  8  1  0  0  0  0
  7  9  1  0  0  0  0
 24 25  1  0  0  0  0
 24 26  1  0  0  0  0
 24 27  1  0  0  0  0
 22 23  1  0  0  0  0
 22 24  1  0  0  0  0
M  CHG  1  18  -1
M  END
$$$$
default_name
  -OEChem-02102213163D

 27 26  0     1  0  0  0  0  0999 V2000
   -3.2406   -3.5400    1.2326 H   0  0  0  0  0  0  0  0  0  0  0  0
   -3.1436   -2.6190    0.6606 C   0  0  0  0  0  0  0  0  0  0  0  0
   -3.8786   -1.8920    0.9996 H   0  0  0  0  0  0  0  0  0  0  0  0
   -3.2846   -2.8280   -0.3984 H   0  0  0  0  0  0  0  0  0  0  0  0
   -1.7586   -2.0580    0.8686 C   0  0  0  0  0  0  0  0  0  0  0  0
   -0.9666   -2.6340    1.6026 O   0  0  0  0  0  0  0  0  0  0  0  0
   -1.4866   -0.9220    0.2366 N   0  0  0  0  0  0  0  0  0  0  0  0
   -2.2166   -0.4790   -0.2994 H   0  0  0  0  0  0  0  0  0  0  0  0
   -0.1956   -0.2250    0.2596 C   0  0  1  0  0  0  0  0  0  0  0  0
    0.5755   -0.9013   -0.1105 H   0  0  0  0  0  0  0  0  0  0  0  0
   -0.2553    0.9811   -0.6992 C   0  0  0  0  0  0  0  0  0  0  0  0
   -1.0484    1.6462   -0.3538 H   0  0  0  0  0  0  0  0  0  0  0  0
    0.6911    1.5222   -0.6566 H   0  0  0  0  0  0  0  0  0  0  0  0
   -0.5476    0.5900   -2.1576 C   0  0  0  0  0  0  0  0  0  0  0  0
   -0.4162   -0.4888   -2.2713 H   0  0  0  0  0  0  0  0  0  0  0  0
   -1.5928    0.8268   -2.3733 H   0  0  0  0  0  0  0  0  0  0  0  0
    0.3541    1.3061   -3.1739 C   0  0  0  0  0  0  0  0  0  0  0  0
    1.1180    2.2067   -2.7593 O   0  5  0  0  0  0  0  0  0  0  0  0
    0.2801    0.9177   -4.3609 O   0  0  0  0  0  0  0  0  0  0  0  0
    0.1881    0.1678    1.7015 C   0  0  0  0  0  0  0  0  0  0  0  0
    1.3379    0.0002    2.1133 O   0  0  0  0  0  0  0  0  0  0  0  0
   -0.7666    0.7145    2.4656 N   0  0  0  0  0  0  0  0  0  0  0  0
   -1.6971    0.7705    2.0790 H   0  0  0  0  0  0  0  0  0  0  0  0
   -0.5716    1.1232    3.8542 C   0  0  0  0  0  0  0  0  0  0  0  0
    0.3083    1.7643    3.9293 H   0  0  0  0  0  0  0  0  0  0  0  0
   -1.4485    1.6640    4.2131 H   0  0  0  0  0  0  0  0  0  0  0  0
   -0.4137    0.2381    4.4736 H   0  0  0  0  0  0  0  0  0  0  0  0
  5  6  2  0  0  0  0
  5  7  1  0  0  0  0
  2  3  1  0  0  0  0
  2  4  1  0  0  0  0
  2  5  1  0  0  0  0
  1  2  1  0  0  0  0
 20 21  2  0  0  0  0
 20 22  1  0  0  0  0
 17 18  1  0  0  0  0
 17 19  2  0  0  0  0
 14 15  1  0  0  0  0
 14 16  1  0  0  0  0
 14 17  1  0  0  0  0
 11 12  1  0  0  0  0
 11 13  1  0  0  0  0
 11 14  1  0  0  0  0
  9 10  1  0  0  0  0
  9 11  1  0  0  0  0
  9 20  1  0  0  0  0
  7  8  1  0  0  0  0
  7  9  1  0  0  0  0
 24 25  1  0  0  0  0
 24 26  1  0  0  0  0
 24 27  1  0  0  0  0
 22 23  1  0  0  0  0
 22 24  1  0  0  0  0
M  CHG  1  18  -1
M  END
$$$$
default_name
  -OEChem-02102213163D

 27 26  0     1  0  0  0  0  0999 V2000
   -3.2406   -3.5400    1.2326 H   0  0  0  0  0  0  0  0  0  0  0  0
   -3.1436   -2.6190    0.6606 C   0  0  0  0  0  0  0  0  0  0  0  0
   -3.8786   -1.8920    0.9996 H   0  0  0  0  0  0  0  0  0  0  0  0
   -3.2846   -2.8280   -0.3984 H   0  0  0  0  0  0  0  0  0  0  0  0
   -1.7586   -2.0580    0.8686 C   0  0  0  0  0  0  0  0  0  0  0  0
   -0.9666   -2.6340    1.6026 O   0  0  0  0  0  0  0  0  0  0  0  0
   -1.4866   -0.9220    0.2366 N   0  0  0  0  0  0  0  0  0  0  0  0
   -2.2166   -0.4790   -0.2994 H   0  0  0  0  0  0  0  0  0  0  0  0
   -0.1956   -0.2250    0.2596 C   0  0  1  0  0  0  0  0  0  0  0  0
    0.5755   -0.9013   -0.1105 H   0  0  0  0  0  0  0  0  0  0  0  0
   -0.2553    0.9811   -0.6992 C   0  0  0  0  0  0  0  0  0  0  0  0
   -1.0484    1.6462   -0.3538 H   0  0  0  0  0  0  0  0  0  0  0  0
    0.6911    1.5222   -0.6566 H   0  0  0  0  0  0  0  0  0  0  0  0
   -0.5476    0.5900   -2.1576 C   0  0  0  0  0  0  0  0  0  0  0  0
   -0.6803   -0.4930   -2.2173 H   0  0  0  0  0  0  0  0  0  0  0  0
   -1.4871    1.0617   -2.4575 H   0  0  0  0  0  0  0  0  0  0  0  0
    0.5621    1.0051   -3.1349 C   0  0  0  0  0  0  0  0  0  0  0  0
    1.4987    1.7145   -2.7036 O   0  5  0  0  0  0  0  0  0  0  0  0
    0.4654    0.5790   -4.3072 O   0  0  0  0  0  0  0  0  0  0  0  0
    0.1881    0.1678    1.7015 C   0  0  0  0  0  0  0  0  0  0  0  0
    1.3379    0.0002    2.1133 O   0  0  0  0  0  0  0  0  0  0  0  0
   -0.7666    0.7145    2.4656 N   0  0  0  0  0  0  0  0  0  0  0  0
   -1.6971    0.7705    2.0790 H   0  0  0  0  0  0  0  0  0  0  0  0
   -0.5716    1.1232    3.8542 C   0  0  0  0  0  0  0  0  0  0  0  0
    0.3083    1.7643    3.9293 H   0  0  0  0  0  0  0  0  0  0  0  0
   -1.4485    1.6640    4.2131 H   0  0  0  0  0  0  0  0  0  0  0  0
   -0.4137    0.2381    4.4736 H   0  0  0  0  0  0  0  0  0  0  0  0
  5  6  2  0  0  0  0
  5  7  1  0  0  0  0
  2  3  1  0  0  0  0
  2  4  1  0  0  0  0
  2  5  1  0  0  0  0
  1  2  1  0  0  0  0
 20 21  2  0  0  0  0
 20 22  1  0  0  0  0
 17 18  1  0  0  0  0
 17 19  2  0  0  0  0
 14 15  1  0  0  0  0
 14 16  1  0  0  0  0
 14 17  1  0  0  0  0
 11 12  1  0  0  0  0
 11 13  1  0  0  0  0
 11 14  1  0  0  0  0
  9 10  1  0  0  0  0
  9 11  1  0  0  0  0
  9 20  1  0  0  0  0
  7  8  1  0  0  0  0
  7  9  1  0  0  0  0
 24 25  1  0  0  0  0
 24 26  1  0  0  0  0
 24 27  1  0  0  0  0
 22 23  1  0  0  0  0
 22 24  1  0  0  0  0
M  CHG  1  18  -1
M  END
$$$$
default_name
  -OEChem-02102213163D

 27 26  0     1  0  0  0  0  0999 V2000
   -3.2406   -3.5400    1.2326 H   0  0  0  0  0  0  0  0  0  0  0  0
   -3.1436   -2.6190    0.6606 C   0  0  0  0  0  0  0  0  0  0  0  0
   -3.8786   -1.8920    0.9996 H   0  0  0  0  0  0  0  0  0  0  0  0
   -3.2846   -2.8280   -0.3984 H   0  0  0  0  0  0  0  0  0  0  0  0
   -1.7586   -2.0580    0.8686 C   0  0  0  0  0  0  0  0  0  0  0  0
   -0.9666   -2.6340    1.6026 O   0  0  0  0  0  0  0  0  0  0  0  0
   -1.4866   -0.9220    0.2366 N   0  0  0  0  0  0  0  0  0  0  0  0
   -2.2166   -0.4790   -0.2994 H   0  0  0  0  0  0  0  0  0  0  0  0
   -0.1956   -0.2250    0.2596 C   0  0  1  0  0  0  0  0  0  0  0  0
    0.5755   -0.9013   -0.1105 H   0  0  0  0  0  0  0  0  0  0  0  0
   -0.2553    0.9811   -0.6992 C   0  0  0  0  0  0  0  0  0  0  0  0
   -1.0484    1.6462   -0.3538 H   0  0  0  0  0  0  0  0  0  0  0  0
    0.6911    1.5222   -0.6566 H   0  0  0  0  0  0  0  0  0  0  0  0
   -0.5476    0.5900   -2.1576 C   0  0  0  0  0  0  0  0  0  0  0  0
   -0.9399   -0.4296   -2.1823 H   0  0  0  0  0  0  0  0  0  0  0  0
   -1.3218    1.2584   -2.5434 H   0  0  0  0  0  0  0  0  0  0  0  0
    0.6865    0.6652   -3.0687 C   0  0  0  0  0  0  0  0  0  0  0  0
    1.7419    1.1485   -2.6006 O   0  5  0  0  0  0  0  0  0  0  0  0
    0.5578    0.2089   -4.2265 O   0  0  0  0  0  0  0  0  0  0  0  0
    0.1881    0.1678    1.7015 C   0  0  0  0  0  0  0  0  0  0  0  0
    1.3379    0.0002    2.1133 O   0  0  0  0  0  0  0  0  0  0  0  0
   -0.7666    0.7145    2.4656 N   0  0  0  0  0  0  0  0  0  0  0  0
   -1.6971    0.7705    2.0790 H   0  0  0  0  0  0  0  0  0  0  0  0
   -0.5716    1.1232    3.8542 C   0  0  0  0  0  0  0  0  0  0  0  0
    0.3083    1.7643    3.9293 H   0  0  0  0  0  0  0  0  0  0  0  0
   -1.4485    1.6640    4.2131 H   0  0  0  0  0  0  0  0  0  0  0  0
   -0.4137    0.2381    4.4736 H   0  0  0  0  0  0  0  0  0  0  0  0
  5  6  2  0  0  0  0
  5  7  1  0  0  0  0
  2  3  1  0  0  0  0
  2  4  1  0  0  0  0
  2  5  1  0  0  0  0
  1  2  1  0  0  0  0
 20 21  2  0  0  0  0
 20 22  1  0  0  0  0
 17 18  1  0  0  0  0
 17 19  2  0  0  0  0
 14 15  1  0  0  0  0
 14 16  1  0  0  0  0
 14 17  1  0  0  0  0
 11 12  1  0  0  0  0
 11 13  1  0  0  0  0
 11 14  1  0  0  0  0
  9 10  1  0  0  0  0
  9 11  1  0  0  0  0
  9 20  1  0  0  0  0
  7  8  1  0  0  0  0
  7  9  1  0  0  0  0
 24 25  1  0  0  0  0
 24 26  1  0  0  0  0
 24 27  1  0  0  0  0
 22 23  1  0  0  0  0
 22 24  1  0  0  0  0
M  CHG  1  18  -1
M  END
$$$$
default_name
  -OEChem-02102213163D

 27 26  0     1  0  0  0  0  0999 V2000
   -3.2406   -3.5400    1.2326 H   0  0  0  0  0  0  0  0  0  0  0  0
   -3.1436   -2.6190    0.6606 C   0  0  0  0  0  0  0  0  0  0  0  0
   -3.8786   -1.8920    0.9996 H   0  0  0  0  0  0  0  0  0  0  0  0
   -3.2846   -2.8280   -0.3984 H   0  0  0  0  0  0  0  0  0  0  0  0
   -1.7586   -2.0580    0.8686 C   0  0  0  0  0  0  0  0  0  0  0  0
   -0.9666   -2.6340    1.6026 O   0  0  0  0  0  0  0  0  0  0  0  0
   -1.4866   -0.9220    0.2366 N   0  0  0  0  0  0  0  0  0  0  0  0
   -2.2166   -0.4790   -0.2994 H   0  0  0  0  0  0  0  0  0  0  0  0
   -0.1956   -0.2250    0.2596 C   0  0  1  0  0  0  0  0  0  0  0  0
    0.5755   -0.9013   -0.1105 H   0  0  0  0  0  0  0  0  0  0  0  0
   -0.2553    0.9811   -0.6992 C   0  0  0  0  0  0  0  0  0  0  0  0
   -1.0484    1.6462   -0.3538 H   0  0  0  0  0  0  0  0  0  0  0  0
    0.6911    1.5222   -0.6566 H   0  0  0  0  0  0  0  0  0  0  0  0
   -0.5476    0.5900   -2.1576 C   0  0  0  0  0  0  0  0  0  0  0  0
   -1.1775   -0.3028   -2.1686 H   0  0  0  0  0  0  0  0  0  0  0  0
   -1.1082    1.4037   -2.6252 H   0  0  0  0  0  0  0  0  0  0  0  0
    0.7190    0.3096   -2.9798 C   0  0  0  0  0  0  0  0  0  0  0  0
    1.8312    0.5471   -2.4572 O   0  5  0  0  0  0  0  0  0  0  0  0
    0.5508   -0.1672   -4.1242 O   0  0  0  0  0  0  0  0  0  0  0  0
    0.1881    0.1678    1.7015 C   0  0  0  0  0  0  0  0  0  0  0  0
    1.3379    0.0002    2.1133 O   0  0  0  0  0  0  0  0  0  0  0  0
   -0.7666    0.7145    2.4656 N   0  0  0  0  0  0  0  0  0  0  0  0
   -1.6971    0.7705    2.0790 H   0  0  0  0  0  0  0  0  0  0  0  0
   -0.5716    1.1232    3.8542 C   0  0  0  0  0  0  0  0  0  0  0  0
    0.3083    1.7643    3.9293 H   0  0  0  0  0  0  0  0  0  0  0  0
   -1.4485    1.6640    4.2131 H   0  0  0  0  0  0  0  0  0  0  0  0
   -0.4137    0.2381    4.4736 H   0  0  0  0  0  0  0  0  0  0  0  0
  5  6  2  0  0  0  0
  5  7  1  0  0  0  0
  2  3  1  0  0  0  0
  2  4  1  0  0  0  0
  2  5  1  0  0  0  0
  1  2  1  0  0  0  0
 20 21  2  0  0  0  0
 20 22  1  0  0  0  0
 17 18  1  0  0  0  0
 17 19  2  0  0  0  0
 14 15  1  0  0  0  0
 14 16  1  0  0  0  0
 14 17  1  0  0  0  0
 11 12  1  0  0  0  0
 11 13  1  0  0  0  0
 11 14  1  0  0  0  0
  9 10  1  0  0  0  0
  9 11  1  0  0  0  0
  9 20  1  0  0  0  0
  7  8  1  0  0  0  0
  7  9  1  0  0  0  0
 24 25  1  0  0  0  0
 24 26  1  0  0  0  0
 24 27  1  0  0  0  0
 22 23  1  0  0  0  0
 22 24  1  0  0  0  0
M  CHG  1  18  -1
M  END
$$$$
default_name
  -OEChem-02102213163D

 27 26  0     1  0  0  0  0  0999 V2000
   -3.2406   -3.5400    1.2326 H   0  0  0  0  0  0  0  0  0  0  0  0
   -3.1436   -2.6190    0.6606 C   0  0  0  0  0  0  0  0  0  0  0  0
   -3.8786   -1.8920    0.9996 H   0  0  0  0  0  0  0  0  0  0  0  0
   -3.2846   -2.8280   -0.3984 H   0  0  0  0  0  0  0  0  0  0  0  0
   -1.7586   -2.0580    0.8686 C   0  0  0  0  0  0  0  0  0  0  0  0
   -0.9666   -2.6340    1.6026 O   0  0  0  0  0  0  0  0  0  0  0  0
   -1.4866   -0.9220    0.2366 N   0  0  0  0  0  0  0  0  0  0  0  0
   -2.2166   -0.4790   -0.2994 H   0  0  0  0  0  0  0  0  0  0  0  0
   -0.1956   -0.2250    0.2596 C   0  0  1  0  0  0  0  0  0  0  0  0
    0.5755   -0.9013   -0.1105 H   0  0  0  0  0  0  0  0  0  0  0  0
   -0.2553    0.9811   -0.6992 C   0  0  0  0  0  0  0  0  0  0  0  0
   -1.0484    1.6462   -0.3538 H   0  0  0  0  0  0  0  0  0  0  0  0
    0.6911    1.5222   -0.6566 H   0  0  0  0  0  0  0  0  0  0  0  0
   -0.5476    0.5900   -2.1576 C   0  0  0  0  0  0  0  0  0  0  0  0
   -1.3767   -0.1215   -2.1773 H   0  0  0  0  0  0  0  0  0  0  0  0
   -0.8608    1.4876   -2.6973 H   0  0  0  0  0  0  0  0  0  0  0  0
    0.6572   -0.0374   -2.8743 C   0  0  0  0  0  0  0  0  0  0  0  0
    1.7603   -0.0486   -2.2832 O   0  5  0  0  0  0  0  0  0  0  0  0
    0.4451   -0.5237   -4.0074 O   0  0  0  0  0  0  0  0  0  0  0  0
    0.1881    0.1678    1.7015 C   0  0  0  0  0  0  0  0  0  0  0  0
    1.3379    0.0002    2.1133 O   0  0  0  0  0  0  0  0  0  0  0  0
   -0.7666    0.7145    2.4656 N   0  0  0  0  0  0  0  0  0  0  0  0
   -1.6971    0.7705    2.0790 H   0  0  0  0  0  0  0  0  0  0  0  0
   -0.5716    1.1232    3.8542 C   0  0  0  0  0  0  0  0  0  0  0  0
    0.3083    1.7643    3.9293 H   0  0  0  0  0  0  0  0  0  0  0  0
   -1.4485    1.6640    4.2131 H   0  0  0  0  0  0  0  0  0  0  0  0
   -0.4137    0.2381    4.4736 H   0  0  0  0  0  0  0  0  0  0  0  0
  5  6  2  0  0  0  0
  5  7  1  0  0  0  0
  2  3  1  0  0  0  0
  2  4  1  0  0  0  0
  2  5  1  0  0  0  0
  1  2  1  0  0  0  0
 20 21  2  0  0  0  0
 20 22  1  0  0  0  0
 17 18  1  0  0  0  0
 17 19  2  0  0  0  0
 14 15  1  0  0  0  0
 14 16  1  0  0  0  0
 14 17  1  0  0  0  0
 11 12  1  0  0  0  0
 11 13  1  0  0  0  0
 11 14  1  0  0  0  0
  9 10  1  0  0  0  0
  9 11  1  0  0  0  0
  9 20  1  0  0  0  0
  7  8  1  0  0  0  0
  7  9  1  0  0  0  0
 24 25  1  0  0  0  0
 24 26  1  0  0  0  0
 24 27  1  0  0  0  0
 22 23  1  0  0  0  0
 22 24  1  0  0  0  0
M  CHG  1  18  -1
M  END
$$$$
default_name
  -OEChem-02102213163D

 27 26  0     1  0  0  0  0  0999 V2000
   -3.2406   -3.5400    1.2326 H   0  0  0  0  0  0  0  0  0  0  0  0
   -3.1436   -2.6190    0.6606 C   0  0  0  0  0  0  0  0  0  0  0  0
   -3.8786   -1.8920    0.9996 H   0  0  0  0  0  0  0  0  0  0  0  0
   -3.2846   -2.8280   -0.3984 H   0  0  0  0  0  0  0  0  0  0  0  0
   -1.7586   -2.0580    0.8686 C   0  0  0  0  0  0  0  0  0  0  0  0
   -0.9666   -2.6340    1.6026 O   0  0  0  0  0  0  0  0  0  0  0  0
   -1.4866   -0.9220    0.2366 N   0  0  0  0  0  0  0  0  0  0  0  0
   -2.2166   -0.4790   -0.2994 H   0  0  0  0  0  0  0  0  0  0  0  0
   -0.1956   -0.2250    0.2596 C   0  0  1  0  0  0  0  0  0  0  0  0
    0.5755   -0.9013   -0.1105 H   0  0  0  0  0  0  0  0  0  0  0  0
   -0.2553    0.9811   -0.6992 C   0  0  0  0  0  0  0  0  0  0  0  0
   -1.0484    1.6462   -0.3538 H   0  0  0  0  0  0  0  0  0  0  0  0
    0.6911    1.5222   -0.6566 H   0  0  0  0  0  0  0  0  0  0  0  0
   -0.5476    0.5900   -2.1576 C   0  0  0  0  0  0  0  0  0  0  0  0
   -1.5241    0.1022   -2.2078 H   0  0  0  0  0  0  0  0  0  0  0  0
   -0.5965    1.5043   -2.7548 H   0  0  0  0  0  0  0  0  0  0  0  0
    0.5054   -0.3523   -2.7595 C   0  0  0  0  0  0  0  0  0  0  0  0
    1.5343   -0.5981   -2.0905 O   0  5  0  0  0  0  0  0  0  0  0  0
    0.2477   -0.8364   -3.8840 O   0  0  0  0  0  0  0  0  0  0  0  0
    0.1881    0.1678    1.7015 C   0  0  0  0  0  0  0  0  0  0  0  0
    1.3379    0.0002    2.1133 O   0  0  0  0  0  0  0  0  0  0  0  0
   -0.7666    0.7145    2.4656 N   0  0  0  0  0  0  0  0  0  0  0  0
   -1.6971    0.7705    2.0790 H   0  0  0  0  0  0  0  0  0  0  0  0
   -0.5716    1.1232    3.8542 C   0  0  0  0  0  0  0  0  0  0  0  0
    0.3083    1.7643    3.9293 H   0  0  0  0  0  0  0  0  0  0  0  0
   -1.4485    1.6640    4.2131 H   0  0  0  0  0  0  0  0  0  0  0  0
   -0.4137    0.2381    4.4736 H   0  0  0  0  0  0  0  0  0  0  0  0
  5  6  2  0  0  0  0
  5  7  1  0  0  0  0
  2  3  1  0  0  0  0
  2  4  1  0  0  0  0
  2  5  1  0  0  0  0
  1  2  1  0  0  0  0
 20 21  2  0  0  0  0
 20 22  1  0  0  0  0
 17 18  1  0  0  0  0
 17 19  2  0  0  0  0
 14 15  1  0  0  0  0
 14 16  1  0  0  0  0
 14 17  1  0  0  0  0
 11 12  1  0  0  0  0
 11 13  1  0  0  0  0
 11 14  1  0  0  0  0
  9 10  1  0  0  0  0
  9 11  1  0  0  0  0
  9 20  1  0  0  0  0
  7  8  1  0  0  0  0
  7  9  1  0  0  0  0
 24 25  1  0  0  0  0
 24 26  1  0  0  0  0
 24 27  1  0  0  0  0
 22 23  1  0  0  0  0
 22 24  1  0  0  0  0
M  CHG  1  18  -1
M  END
$$$$
default_name
  -OEChem-02102213163D

 27 26  0     1  0  0  0  0  0999 V2000
   -3.2406   -3.5400    1.2326 H   0  0  0  0  0  0  0  0  0  0  0  0
   -3.1436   -2.6190    0.6606 C   0  0  0  0  0  0  0  0  0  0  0  0
   -3.8786   -1.8920    0.9996 H   0  0  0  0  0  0  0  0  0  0  0  0
   -3.2846   -2.8280   -0.3984 H   0  0  0  0  0  0  0  0  0  0  0  0
   -1.7586   -2.0580    0.8686 C   0  0  0  0  0  0  0  0  0  0  0  0
   -0.9666   -2.6340    1.6026 O   0  0  0  0  0  0  0  0  0  0  0  0
   -1.4866   -0.9220    0.2366 N   0  0  0  0  0  0  0  0  0  0  0  0
   -2.2166   -0.4790   -0.2994 H   0  0  0  0  0  0  0  0  0  0  0  0
   -0.1956   -0.2250    0.2596 C   0  0  1  0  0  0  0  0  0  0  0  0
    0.5755   -0.9013   -0.1105 H   0  0  0  0  0  0  0  0  0  0  0  0
   -0.2553    0.9811   -0.6992 C   0  0  0  0  0  0  0  0  0  0  0  0
   -1.0484    1.6462   -0.3538 H   0  0  0  0  0  0  0  0  0  0  0  0
    0.6911    1.5222   -0.6566 H   0  0  0  0  0  0  0  0  0  0  0  0
   -0.5476    0.5900   -2.1576 C   0  0  0  0  0  0  0  0  0  0  0  0
   -1.6095    0.3529   -2.2579 H   0  0  0  0  0  0  0  0  0  0  0  0
   -0.3334    1.4528   -2.7937 H   0  0  0  0  0  0  0  0  0  0  0  0
    0.2739   -0.6135   -2.6430 C   0  0  0  0  0  0  0  0  0  0  0  0
    1.1683   -1.0639   -1.8922 O   0  5  0  0  0  0  0  0  0  0  0  0
   -0.0278   -1.0839   -3.7623 O   0  0  0  0  0  0  0  0  0  0  0  0
    0.1881    0.1678    1.7015 C   0  0  0  0  0  0  0  0  0  0  0  0
    1.3379    0.0002    2.1133 O   0  0  0  0  0  0  0  0  0  0  0  0
   -0.7666    0.7145    2.4656 N   0  0  0  0  0  0  0  0  0  0  0  0
   -1.6971    0.7705    2.0790 H   0  0  0  0  0  0  0  0  0  0  0  0
   -0.5716    1.1232    3.8542 C   0  0  0  0  0  0  0  0  0  0  0  0
    0.3083    1.7643    3.9293 H   0  0  0  0  0  0  0  0  0  0  0  0
   -1.4485    1.6640    4.2131 H   0  0  0  0  0  0  0  0  0  0  0  0
   -0.4137    0.2381    4.4736 H   0  0  0  0  0  0  0  0  0  0  0  0
  5  6  2  0  0  0  0
  5  7  1  0  0  0  0
  2  3  1  0  0  0  0
  2  4  1  0  0  0  0
  2  5  1  0  0  0  0
  1  2  1  0  0  0  0
 20 21  2  0  0  0  0
 20 22  1  0  0  0  0
 17 18  1  0  0  0  0
 17 19  2  0  0  0  0
 14 15  1  0  0  0  0
 14 16  1  0  0  0  0
 14 17  1  0  0  0  0
 11 12  1  0  0  0  0
 11 13  1  0  0  0  0
 11 14  1  0  0  0  0
  9 10  1  0  0  0  0
  9 11  1  0  0  0  0
  9 20  1  0  0  0  0
  7  8  1  0  0  0  0
  7  9  1  0  0  0  0
 24 25  1  0  0  0  0
 24 26  1  0  0  0  0
 24 27  1  0  0  0  0
 22 23  1  0  0  0  0
 22 24  1  0  0  0  0
M  CHG  1  18  -1
M  END
$$$$
default_name
  -OEChem-02102213163D

 27 26  0     1  0  0  0  0  0999 V2000
   -3.2406   -3.5400    1.2326 H   0  0  0  0  0  0  0  0  0  0  0  0
   -3.1436   -2.6190    0.6606 C   0  0  0  0  0  0  0  0  0  0  0  0
   -3.8786   -1.8920    0.9996 H   0  0  0  0  0  0  0  0  0  0  0  0
   -3.2846   -2.8280   -0.3984 H   0  0  0  0  0  0  0  0  0  0  0  0
   -1.7586   -2.0580    0.8686 C   0  0  0  0  0  0  0  0  0  0  0  0
   -0.9666   -2.6340    1.6026 O   0  0  0  0  0  0  0  0  0  0  0  0
   -1.4866   -0.9220    0.2366 N   0  0  0  0  0  0  0  0  0  0  0  0
   -2.2166   -0.4790   -0.2994 H   0  0  0  0  0  0  0  0  0  0  0  0
   -0.1956   -0.2250    0.2596 C   0  0  1  0  0  0  0  0  0  0  0  0
    0.5755   -0.9013   -0.1105 H   0  0  0  0  0  0  0  0  0  0  0  0
   -0.2553    0.9811   -0.6992 C   0  0  0  0  0  0  0  0  0  0  0  0
   -1.0484    1.6462   -0.3538 H   0  0  0  0  0  0  0  0  0  0  0  0
    0.6911    1.5222   -0.6566 H   0  0  0  0  0  0  0  0  0  0  0  0
   -0.5476    0.5900   -2.1576 C   0  0  0  0  0  0  0  0  0  0  0  0
   -1.6272    0.6135   -2.3243 H   0  0  0  0  0  0  0  0  0  0  0  0
   -0.0892    1.3366   -2.8115 H   0  0  0  0  0  0  0  0  0  0  0  0
   -0.0214   -0.8033   -2.5329 C   0  0  0  0  0  0  0  0  0  0  0  0
    0.6875   -1.4143   -1.7018 O   0  5  0  0  0  0  0  0  0  0  0  0
   -0.3627   -1.2495   -3.6508 O   0  0  0  0  0  0  0  0  0  0  0  0
    0.1881    0.1678    1.7015 C   0  0  0  0  0  0  0  0  0  0  0  0
    1.3379    0.0002    2.1133 O   0  0  0  0  0  0  0  0  0  0  0  0
   -0.7666    0.7145    2.4656 N   0  0  0  0  0  0  0  0  0  0  0  0
   -1.6971    0.7705    2.0790 H   0  0  0  0  0  0  0  0  0  0  0  0
   -0.5716    1.1232    3.8542 C   0  0  0  0  0  0  0  0  0  0  0  0
    0.3083    1.7643    3.9293 H   0  0  0  0  0  0  0  0  0  0  0  0
   -1.4485    1.6640    4.2131 H   0  0  0  0  0  0  0  0  0  0  0  0
   -0.4137    0.2381    4.4736 H   0  0  0  0  0  0  0  0  0  0  0  0
  5  6  2  0  0  0  0
  5  7  1  0  0  0  0
  2  3  1  0  0  0  0
  2  4  1  0  0  0  0
  2  5  1  0  0  0  0
  1  2  1  0  0  0  0
 20 21  2  0  0  0  0
 20 22  1  0  0  0  0
 17 18  1  0  0  0  0
 17 19  2  0  0  0  0
 14 15  1  0  0  0  0
 14 16  1  0  0  0  0
 14 17  1  0  0  0  0
 11 12  1  0  0  0  0
 11 13  1  0  0  0  0
 11 14  1  0  0  0  0
  9 10  1  0  0  0  0
  9 11  1  0  0  0  0
  9 20  1  0  0  0  0
  7  8  1  0  0  0  0
  7  9  1  0  0  0  0
 24 25  1  0  0  0  0
 24 26  1  0  0  0  0
 24 27  1  0  0  0  0
 22 23  1  0  0  0  0
 22 24  1  0  0  0  0
M  CHG  1  18  -1
M  END
$$$$
default_name
  -OEChem-02102213163D

 27 26  0     1  0  0  0  0  0999 V2000
   -3.2406   -3.5400    1.2326 H   0  0  0  0  0  0  0  0  0  0  0  0
   -3.1436   -2.6190    0.6606 C   0  0  0  0  0  0  0  0  0  0  0  0
   -3.8786   -1.8920    0.9996 H   0  0  0  0  0  0  0  0  0  0  0  0
   -3.2846   -2.8280   -0.3984 H   0  0  0  0  0  0  0  0  0  0  0  0
   -1.7586   -2.0580    0.8686 C   0  0  0  0  0  0  0  0  0  0  0  0
   -0.9666   -2.6340    1.6026 O   0  0  0  0  0  0  0  0  0  0  0  0
   -1.4866   -0.9220    0.2366 N   0  0  0  0  0  0  0  0  0  0  0  0
   -2.2166   -0.4790   -0.2994 H   0  0  0  0  0  0  0  0  0  0  0  0
   -0.1956   -0.2250    0.2596 C   0  0  1  0  0  0  0  0  0  0  0  0
    0.5755   -0.9013   -0.1105 H   0  0  0  0  0  0  0  0  0  0  0  0
   -0.2553    0.9811   -0.6992 C   0  0  0  0  0  0  0  0  0  0  0  0
   -1.0484    1.6462   -0.3538 H   0  0  0  0  0  0  0  0  0  0  0  0
    0.6911    1.5222   -0.6566 H   0  0  0  0  0  0  0  0  0  0  0  0
   -0.5476    0.5900   -2.1576 C   0  0  0  0  0  0  0  0  0  0  0  0
   -1.5760    0.8664   -2.4024 H   0  0  0  0  0  0  0  0  0  0  0  0
    0.1192    1.1635   -2.8068 H   0  0  0  0  0  0  0  0  0  0  0  0
   -0.3605   -0.9087   -2.4366 C   0  0  0  0  0  0  0  0  0  0  0  0
    0.1246   -1.6253   -1.5324 O   0  5  0  0  0  0  0  0  0  0  0  0
   -0.7341   -1.3217   -3.5570 O   0  0  0  0  0  0  0  0  0  0  0  0
    0.1881    0.1678    1.7015 C   0  0  0  0  0  0  0  0  0  0  0  0
    1.3379    0.0002    2.1133 O   0  0  0  0  0  0  0  0  0  0  0  0
   -0.7666    0.7145    2.4656 N   0  0  0  0  0  0  0  0  0  0  0  0
   -1.6971    0.7705    2.0790 H   0  0  0  0  0  0  0  0  0  0  0  0
   -0.5716    1.1232    3.8542 C   0  0  0  0  0  0  0  0  0  0  0  0
    0.3083    1.7643    3.9293 H   0  0  0  0  0  0  0  0  0  0  0  0
   -1.4485    1.6640    4.2131 H   0  0  0  0  0  0  0  0  0  0  0  0
   -0.4137    0.2381    4.4736 H   0  0  0  0  0  0  0  0  0  0  0  0
  5  6  2  0  0  0  0
  5  7  1  0  0  0  0
  2  3  1  0  0  0  0
  2  4  1  0  0  0  0
  2  5  1  0  0  0  0
  1  2  1  0  0  0  0
 20 21  2  0  0  0  0
 20 22  1  0  0  0  0
 17 18  1  0  0  0  0
 17 19  2  0  0  0  0
 14 15  1  0  0  0  0
 14 16  1  0  0  0  0
 14 17  1  0  0  0  0
 11 12  1  0  0  0  0
 11 13  1  0  0  0  0
 11 14  1  0  0  0  0
  9 10  1  0  0  0  0
  9 11  1  0  0  0  0
  9 20  1  0  0  0  0
  7  8  1  0  0  0  0
  7  9  1  0  0  0  0
 24 25  1  0  0  0  0
 24 26  1  0  0  0  0
 24 27  1  0  0  0  0
 22 23  1  0  0  0  0
 22 24  1  0  0  0  0
M  CHG  1  18  -1
M  END
$$$$
default_name
  -OEChem-02102213163D

 27 26  0     1  0  0  0  0  0999 V2000
   -3.2406   -3.5400    1.2326 H   0  0  0  0  0  0  0  0  0  0  0  0
   -3.1436   -2.6190    0.6606 C   0  0  0  0  0  0  0  0  0  0  0  0
   -3.8786   -1.8920    0.9996 H   0  0  0  0  0  0  0  0  0  0  0  0
   -3.2846   -2.8280   -0.3984 H   0  0  0  0  0  0  0  0  0  0  0  0
   -1.7586   -2.0580    0.8686 C   0  0  0  0  0  0  0  0  0  0  0  0
   -0.9666   -2.6340    1.6026 O   0  0  0  0  0  0  0  0  0  0  0  0
   -1.4866   -0.9220    0.2366 N   0  0  0  0  0  0  0  0  0  0  0  0
   -2.2166   -0.4790   -0.2994 H   0  0  0  0  0  0  0  0  0  0  0  0
   -0.1956   -0.2250    0.2596 C   0  0  1  0  0  0  0  0  0  0  0  0
    0.5755   -0.9013   -0.1105 H   0  0  0  0  0  0  0  0  0  0  0  0
   -0.2553    0.9811   -0.6992 C   0  0  0  0  0  0  0  0  0  0  0  0
   -1.0484    1.6462   -0.3538 H   0  0  0  0  0  0  0  0  0  0  0  0
    0.6911    1.5222   -0.6566 H   0  0  0  0  0  0  0  0  0  0  0  0
   -0.5476    0.5900   -2.1576 C   0  0  0  0  0  0  0  0  0  0  0  0
   -1.4593    1.0942   -2.4869 H   0  0  0  0  0  0  0  0  0  0  0  0
    0.2778    0.9454   -2.7801 H   0  0  0  0  0  0  0  0  0  0  0  0
   -0.7203   -0.9226   -2.3608 C   0  0  0  0  0  0  0  0  0  0  0  0
   -0.4822   -1.6827   -1.3954 O   0  5  0  0  0  0  0  0  0  0  0  0
   -1.1167   -1.2956   -3.4873 O   0  0  0  0  0  0  0  0  0  0  0  0
    0.1881    0.1678    1.7015 C   0  0  0  0  0  0  0  0  0  0  0  0
    1.3379    0.0002    2.1133 O   0  0  0  0  0  0  0  0  0  0  0  0
   -0.7666    0.7145    2.4656 N   0  0  0  0  0  0  0  0  0  0  0  0
   -1.6971    0.7705    2.0790 H   0  0  0  0  0  0  0  0  0  0  0  0
   -0.5716    1.1232    3.8542 C   0  0  0  0  0  0  0  0  0  0  0  0
    0.3083    1.7643    3.9293 H   0  0  0  0  0  0  0  0  0  0  0  0
   -1.4485    1.6640    4.2131 H   0  0  0  0  0  0  0  0  0  0  0  0
   -0.4137    0.2381    4.4736 H   0  0  0  0  0  0  0  0  0  0  0  0
  5  6  2  0  0  0  0
  5  7  1  0  0  0  0
  2  3  1  0  0  0  0
  2  4  1  0  0  0  0
  2  5  1  0  0  0  0
  1  2  1  0  0  0  0
 20 21  2  0  0  0  0
 20 22  1  0  0  0  0
 17 18  1  0  0  0  0
 17 19  2  0  0  0  0
 14 15  1  0  0  0  0
 14 16  1  0  0  0  0
 14 17  1  0  0  0  0
 11 12  1  0  0  0  0
 11 13  1  0  0  0  0
 11 14  1  0  0  0  0
  9 10  1  0  0  0  0
  9 11  1  0  0  0  0
  9 20  1  0  0  0  0
  7  8  1  0  0  0  0
  7  9  1  0  0  0  0
 24 25  1  0  0  0  0
 24 26  1  0  0  0  0
 24 27  1  0  0  0  0
 22 23  1  0  0  0  0
 22 24  1  0  0  0  0
M  CHG  1  18  -1
M  END
$$$$
default_name
  -OEChem-02102213163D

 27 26  0     1  0  0  0  0  0999 V2000
   -3.2406   -3.5400    1.2326 H   0  0  0  0  0  0  0  0  0  0  0  0
   -3.1436   -2.6190    0.6606 C   0  0  0  0  0  0  0  0  0  0  0  0
   -3.8786   -1.8920    0.9996 H   0  0  0  0  0  0  0  0  0  0  0  0
   -3.2846   -2.8280   -0.3984 H   0  0  0  0  0  0  0  0  0  0  0  0
   -1.7586   -2.0580    0.8686 C   0  0  0  0  0  0  0  0  0  0  0  0
   -0.9666   -2.6340    1.6026 O   0  0  0  0  0  0  0  0  0  0  0  0
   -1.4866   -0.9220    0.2366 N   0  0  0  0  0  0  0  0  0  0  0  0
   -2.2166   -0.4790   -0.2994 H   0  0  0  0  0  0  0  0  0  0  0  0
   -0.1956   -0.2250    0.2596 C   0  0  1  0  0  0  0  0  0  0  0  0
    0.5755   -0.9013   -0.1105 H   0  0  0  0  0  0  0  0  0  0  0  0
   -0.2553    0.9811   -0.6992 C   0  0  0  0  0  0  0  0  0  0  0  0
   -1.0484    1.6462   -0.3538 H   0  0  0  0  0  0  0  0  0  0  0  0
    0.6911    1.5222   -0.6566 H   0  0  0  0  0  0  0  0  0  0  0  0
   -0.5476    0.5900   -2.1576 C   0  0  0  0  0  0  0  0  0  0  0  0
   -1.2851    1.2815   -2.5720 H   0  0  0  0  0  0  0  0  0  0  0  0
    0.3756    0.6971   -2.7331 H   0  0  0  0  0  0  0  0  0  0  0  0
   -1.0762   -0.8440   -2.3106 C   0  0  0  0  0  0  0  0  0  0  0  0
   -1.0913   -1.5825   -1.3002 O   0  5  0  0  0  0  0  0  0  0  0  0
   -1.4845   -1.1731   -3.4464 O   0  0  0  0  0  0  0  0  0  0  0  0
    0.1881    0.1678    1.7015 C   0  0  0  0  0  0  0  0  0  0  0  0
    1.3379    0.0002    2.1133 O   0  0  0  0  0  0  0  0  0  0  0  0
   -0.7666    0.7145    2.4656 N   0  0  0  0  0  0  0  0  0  0  0  0
   -1.6971    0.7705    2.0790 H   0  0  0  0  0  0  0  0  0  0  0  0
   -0.5716    1.1232    3.8542 C   0  0  0  0  0  0  0  0  0  0  0  0
    0.3083    1.7643    3.9293 H   0  0  0  0  0  0  0  0  0  0  0  0
   -1.4485    1.6640    4.2131 H   0  0  0  0  0  0  0  0  0  0  0  0
   -0.4137    0.2381    4.4736 H   0  0  0  0  0  0  0  0  0  0  0  0
  5  6  2  0  0  0  0
  5  7  1  0  0  0  0
  2  3  1  0  0  0  0
  2  4  1  0  0  0  0
  2  5  1  0  0  0  0
  1  2  1  0  0  0  0
 20 21  2  0  0  0  0
 20 22  1  0  0  0  0
 17 18  1  0  0  0  0
 17 19  2  0  0  0  0
 14 15  1  0  0  0  0
 14 16  1  0  0  0  0
 14 17  1  0  0  0  0
 11 12  1  0  0  0  0
 11 13  1  0  0  0  0
 11 14  1  0  0  0  0
  9 10  1  0  0  0  0
  9 11  1  0  0  0  0
  9 20  1  0  0  0  0
  7  8  1  0  0  0  0
  7  9  1  0  0  0  0
 24 25  1  0  0  0  0
 24 26  1  0  0  0  0
 24 27  1  0  0  0  0
 22 23  1  0  0  0  0
 22 24  1  0  0  0  0
M  CHG  1  18  -1
M  END
$$$$
default_name
  -OEChem-02102213163D

 27 26  0     1  0  0  0  0  0999 V2000
   -3.2406   -3.5400    1.2326 H   0  0  0  0  0  0  0  0  0  0  0  0
   -3.1436   -2.6190    0.6606 C   0  0  0  0  0  0  0  0  0  0  0  0
   -3.8786   -1.8920    0.9996 H   0  0  0  0  0  0  0  0  0  0  0  0
   -3.2846   -2.8280   -0.3984 H   0  0  0  0  0  0  0  0  0  0  0  0
   -1.7586   -2.0580    0.8686 C   0  0  0  0  0  0  0  0  0  0  0  0
   -0.9666   -2.6340    1.6026 O   0  0  0  0  0  0  0  0  0  0  0  0
   -1.4866   -0.9220    0.2366 N   0  0  0  0  0  0  0  0  0  0  0  0
   -2.2166   -0.4790   -0.2994 H   0  0  0  0  0  0  0  0  0  0  0  0
   -0.1956   -0.2250    0.2596 C   0  0  1  0  0  0  0  0  0  0  0  0
    0.5755   -0.9013   -0.1105 H   0  0  0  0  0  0  0  0  0  0  0  0
   -0.2553    0.9811   -0.6992 C   0  0  0  0  0  0  0  0  0  0  0  0
   -1.0484    1.6462   -0.3538 H   0  0  0  0  0  0  0  0  0  0  0  0
    0.6911    1.5222   -0.6566 H   0  0  0  0  0  0  0  0  0  0  0  0
   -0.5476    0.5900   -2.1576 C   0  0  0  0  0  0  0  0  0  0  0  0
   -1.0653    1.4155   -2.6520 H   0  0  0  0  0  0  0  0  0  0  0  0
    0.4061    0.4356   -2.6691 H   0  0  0  0  0  0  0  0  0  0  0  0
   -1.4040   -0.6782   -2.2893 C   0  0  0  0  0  0  0  0  0  0  0  0
   -1.6614   -1.3315   -1.2532 O   0  5  0  0  0  0  0  0  0  0  0  0
   -1.8124   -0.9625   -3.4372 O   0  0  0  0  0  0  0  0  0  0  0  0
    0.1881    0.1678    1.7015 C   0  0  0  0  0  0  0  0  0  0  0  0
    1.3379    0.0002    2.1133 O   0  0  0  0  0  0  0  0  0  0  0  0
   -0.7666    0.7145    2.4656 N   0  0  0  0  0  0  0  0  0  0  0  0
   -1.6971    0.7705    2.0790 H   0  0  0  0  0  0  0  0  0  0  0  0
   -0.5716    1.1232    3.8542 C   0  0  0  0  0  0  0  0  0  0  0  0
    0.3083    1.7643    3.9293 H   0  0  0  0  0  0  0  0  0  0  0  0
   -1.4485    1.6640    4.2131 H   0  0  0  0  0  0  0  0  0  0  0  0
   -0.4137    0.2381    4.4736 H   0  0  0  0  0  0  0  0  0  0  0  0
  5  6  2  0  0  0  0
  5  7  1  0  0  0  0
  2  3  1  0  0  0  0
  2  4  1  0  0  0  0
  2  5  1  0  0  0  0
  1  2  1  0  0  0  0
 20 21  2  0  0  0  0
 20 22  1  0  0  0  0
 17 18  1  0  0  0  0
 17 19  2  0  0  0  0
 14 15  1  0  0  0  0
 14 16  1  0  0  0  0
 14 17  1  0  0  0  0
 11 12  1  0  0  0  0
 11 13  1  0  0  0  0
 11 14  1  0  0  0  0
  9 10  1  0  0  0  0
  9 11  1  0  0  0  0
  9 20  1  0  0  0  0
  7  8  1  0  0  0  0
  7  9  1  0  0  0  0
 24 25  1  0  0  0  0
 24 26  1  0  0  0  0
 24 27  1  0  0  0  0
 22 23  1  0  0  0  0
 22 24  1  0  0  0  0
M  CHG  1  18  -1
M  END
$$$$
default_name
  -OEChem-02102213163D

 27 26  0     1  0  0  0  0  0999 V2000
   -3.2406   -3.5400    1.2326 H   0  0  0  0  0  0  0  0  0  0  0  0
   -3.1436   -2.6190    0.6606 C   0  0  0  0  0  0  0  0  0  0  0  0
   -3.8786   -1.8920    0.9996 H   0  0  0  0  0  0  0  0  0  0  0  0
   -3.2846   -2.8280   -0.3984 H   0  0  0  0  0  0  0  0  0  0  0  0
   -1.7586   -2.0580    0.8686 C   0  0  0  0  0  0  0  0  0  0  0  0
   -0.9666   -2.6340    1.6026 O   0  0  0  0  0  0  0  0  0  0  0  0
   -1.4866   -0.9220    0.2366 N   0  0  0  0  0  0  0  0  0  0  0  0
   -2.2166   -0.4790   -0.2994 H   0  0  0  0  0  0  0  0  0  0  0  0
   -0.1956   -0.2250    0.2596 C   0  0  1  0  0  0  0  0  0  0  0  0
    0.5755   -0.9013   -0.1105 H   0  0  0  0  0  0  0  0  0  0  0  0
   -0.2553    0.9811   -0.6992 C   0  0  0  0  0  0  0  0  0  0  0  0
   -1.0484    1.6462   -0.3538 H   0  0  0  0  0  0  0  0  0  0  0  0
    0.6911    1.5222   -0.6566 H   0  0  0  0  0  0  0  0  0  0  0  0
   -0.5476    0.5900   -2.1576 C   0  0  0  0  0  0  0  0  0  0  0  0
   -0.8148    1.4870   -2.7214 H   0  0  0  0  0  0  0  0  0  0  0  0
    0.3672    0.1786   -2.5923 H   0  0  0  0  0  0  0  0  0  0  0  0
   -1.6813   -0.4366   -2.2985 C   0  0  0  0  0  0  0  0  0  0  0  0
   -2.1535   -0.9468   -1.2578 O   0  5  0  0  0  0  0  0  0  0  0  0
   -2.0781   -0.6782   -3.4602 O   0  0  0  0  0  0  0  0  0  0  0  0
    0.1881    0.1678    1.7015 C   0  0  0  0  0  0  0  0  0  0  0  0
    1.3379    0.0002    2.1133 O   0  0  0  0  0  0  0  0  0  0  0  0
   -0.7666    0.7145    2.4656 N   0  0  0  0  0  0  0  0  0  0  0  0
   -1.6971    0.7705    2.0790 H   0  0  0  0  0  0  0  0  0  0  0  0
   -0.5716    1.1232    3.8542 C   0  0  0  0  0  0  0  0  0  0  0  0
    0.3083    1.7643    3.9293 H   0  0  0  0  0  0  0  0  0  0  0  0
   -1.4485    1.6640    4.2131 H   0  0  0  0  0  0  0  0  0  0  0  0
   -0.4137    0.2381    4.4736 H   0  0  0  0  0  0  0  0  0  0  0  0
  5  6  2  0  0  0  0
  5  7  1  0  0  0  0
  2  3  1  0  0  0  0
  2  4  1  0  0  0  0
  2  5  1  0  0  0  0
  1  2  1  0  0  0  0
 20 21  2  0  0  0  0
 20 22  1  0  0  0  0
 17 18  1  0  0  0  0
 17 19  2  0  0  0  0
 14 15  1  0  0  0  0
 14 16  1  0  0  0  0
 14 17  1  0  0  0  0
 11 12  1  0  0  0  0
 11 13  1  0  0  0  0
 11 14  1  0  0  0  0
  9 10  1  0  0  0  0
  9 11  1  0  0  0  0
  9 20  1  0  0  0  0
  7  8  1  0  0  0  0
  7  9  1  0  0  0  0
 24 25  1  0  0  0  0
 24 26  1  0  0  0  0
 24 27  1  0  0  0  0
 22 23  1  0  0  0  0
 22 24  1  0  0  0  0
M  CHG  1  18  -1
M  END
$$$$
default_name
  -OEChem-02102213163D

 27 26  0     1  0  0  0  0  0999 V2000
   -3.2406   -3.5400    1.2326 H   0  0  0  0  0  0  0  0  0  0  0  0
   -3.1436   -2.6190    0.6606 C   0  0  0  0  0  0  0  0  0  0  0  0
   -3.8786   -1.8920    0.9996 H   0  0  0  0  0  0  0  0  0  0  0  0
   -3.2846   -2.8280   -0.3984 H   0  0  0  0  0  0  0  0  0  0  0  0
   -1.7586   -2.0580    0.8686 C   0  0  0  0  0  0  0  0  0  0  0  0
   -0.9666   -2.6340    1.6026 O   0  0  0  0  0  0  0  0  0  0  0  0
   -1.4866   -0.9220    0.2366 N   0  0  0  0  0  0  0  0  0  0  0  0
   -2.2166   -0.4790   -0.2994 H   0  0  0  0  0  0  0  0  0  0  0  0
   -0.1956   -0.2250    0.2596 C   0  0  1  0  0  0  0  0  0  0  0  0
    0.5755   -0.9013   -0.1105 H   0  0  0  0  0  0  0  0  0  0  0  0
   -0.2553    0.9811   -0.6992 C   0  0  0  0  0  0  0  0  0  0  0  0
   -1.0484    1.6462   -0.3538 H   0  0  0  0  0  0  0  0  0  0  0  0
    0.6911    1.5222   -0.6566 H   0  0  0  0  0  0  0  0  0  0  0  0
   -0.5476    0.5900   -2.1576 C   0  0  0  0  0  0  0  0  0  0  0  0
   -0.5508    1.4912   -2.7754 H   0  0  0  0  0  0  0  0  0  0  0  0
    0.2615   -0.0562   -2.5082 H   0  0  0  0  0  0  0  0  0  0  0  0
   -1.8893   -0.1356   -2.3376 C   0  0  0  0  0  0  0  0  0  0  0  0
   -2.5342   -0.4547   -1.3135 O   0  5  0  0  0  0  0  0  0  0  0  0
   -2.2634   -0.3395   -3.5139 O   0  0  0  0  0  0  0  0  0  0  0  0
    0.1881    0.1678    1.7015 C   0  0  0  0  0  0  0  0  0  0  0  0
    1.3379    0.0002    2.1133 O   0  0  0  0  0  0  0  0  0  0  0  0
   -0.7666    0.7145    2.4656 N   0  0  0  0  0  0  0  0  0  0  0  0
   -1.6971    0.7705    2.0790 H   0  0  0  0  0  0  0  0  0  0  0  0
   -0.5716    1.1232    3.8542 C   0  0  0  0  0  0  0  0  0  0  0  0
    0.3083    1.7643    3.9293 H   0  0  0  0  0  0  0  0  0  0  0  0
   -1.4485    1.6640    4.2131 H   0  0  0  0  0  0  0  0  0  0  0  0
   -0.4137    0.2381    4.4736 H   0  0  0  0  0  0  0  0  0  0  0  0
  5  6  2  0  0  0  0
  5  7  1  0  0  0  0
  2  3  1  0  0  0  0
  2  4  1  0  0  0  0
  2  5  1  0  0  0  0
  1  2  1  0  0  0  0
 20 21  2  0  0  0  0
 20 22  1  0  0  0  0
 17 18  1  0  0  0  0
 17 19  2  0  0  0  0
 14 15  1  0  0  0  0
 14 16  1  0  0  0  0
 14 17  1  0  0  0  0
 11 12  1  0  0  0  0
 11 13  1  0  0  0  0
 11 14  1  0  0  0  0
  9 10  1  0  0  0  0
  9 11  1  0  0  0  0
  9 20  1  0  0  0  0
  7  8  1  0  0  0  0
  7  9  1  0  0  0  0
 24 25  1  0  0  0  0
 24 26  1  0  0  0  0
 24 27  1  0  0  0  0
 22 23  1  0  0  0  0
 22 24  1  0  0  0  0
M  CHG  1  18  -1
M  END
$$$$
default_name
  -OEChem-02102213163D

 27 26  0     1  0  0  0  0  0999 V2000
   -3.2406   -3.5400    1.2326 H   0  0  0  0  0  0  0  0  0  0  0  0
   -3.1436   -2.6190    0.6606 C   0  0  0  0  0  0  0  0  0  0  0  0
   -3.8786   -1.8920    0.9996 H   0  0  0  0  0  0  0  0  0  0  0  0
   -3.2846   -2.8280   -0.3984 H   0  0  0  0  0  0  0  0  0  0  0  0
   -1.7586   -2.0580    0.8686 C   0  0  0  0  0  0  0  0  0  0  0  0
   -0.9666   -2.6340    1.6026 O   0  0  0  0  0  0  0  0  0  0  0  0
   -1.4866   -0.9220    0.2366 N   0  0  0  0  0  0  0  0  0  0  0  0
   -2.2166   -0.4790   -0.2994 H   0  0  0  0  0  0  0  0  0  0  0  0
   -0.1956   -0.2250    0.2596 C   0  0  1  0  0  0  0  0  0  0  0  0
    0.5755   -0.9013   -0.1105 H   0  0  0  0  0  0  0  0  0  0  0  0
   -0.2553    0.9811   -0.6992 C   0  0  0  0  0  0  0  0  0  0  0  0
   -1.0484    1.6462   -0.3538 H   0  0  0  0  0  0  0  0  0  0  0  0
    0.6911    1.5222   -0.6566 H   0  0  0  0  0  0  0  0  0  0  0  0
   -0.5476    0.5900   -2.1576 C   0  0  0  0  0  0  0  0  0  0  0  0
   -0.2911    1.4277   -2.8105 H   0  0  0  0  0  0  0  0  0  0  0  0
    0.0962   -0.2530   -2.4222 H   0  0  0  0  0  0  0  0  0  0  0  0
   -2.0138    0.2043   -2.4038 C   0  0  0  0  0  0  0  0  0  0  0  0
   -2.7774    0.1113   -1.4165 O   0  5  0  0  0  0  0  0  0  0  0  0
   -2.3557    0.0306   -3.5947 O   0  0  0  0  0  0  0  0  0  0  0  0
    0.1881    0.1678    1.7015 C   0  0  0  0  0  0  0  0  0  0  0  0
    1.3379    0.0002    2.1133 O   0  0  0  0  0  0  0  0  0  0  0  0
   -0.7666    0.7145    2.4656 N   0  0  0  0  0  0  0  0  0  0  0  0
   -1.6971    0.7705    2.0790 H   0  0  0  0  0  0  0  0  0  0  0  0
   -0.5716    1.1232    3.8542 C   0  0  0  0  0  0  0  0  0  0  0  0
    0.3083    1.7643    3.9293 H   0  0  0  0  0  0  0  0  0  0  0  0
   -1.4485    1.6640    4.2131 H   0  0  0  0  0  0  0  0  0  0  0  0
   -0.4137    0.2381    4.4736 H   0  0  0  0  0  0  0  0  0  0  0  0
  5  6  2  0  0  0  0
  5  7  1  0  0  0  0
  2  3  1  0  0  0  0
  2  4  1  0  0  0  0
  2  5  1  0  0  0  0
  1  2  1  0  0  0  0
 20 21  2  0  0  0  0
 20 22  1  0  0  0  0
 17 18  1  0  0  0  0
 17 19  2  0  0  0  0
 14 15  1  0  0  0  0
 14 16  1  0  0  0  0
 14 17  1  0  0  0  0
 11 12  1  0  0  0  0
 11 13  1  0  0  0  0
 11 14  1  0  0  0  0
  9 10  1  0  0  0  0
  9 11  1  0  0  0  0
  9 20  1  0  0  0  0
  7  8  1  0  0  0  0
  7  9  1  0  0  0  0
 24 25  1  0  0  0  0
 24 26  1  0  0  0  0
 24 27  1  0  0  0  0
 22 23  1  0  0  0  0
 22 24  1  0  0  0  0
M  CHG  1  18  -1
M  END
$$$$
default_name
  -OEChem-02102213163D

 27 26  0     1  0  0  0  0  0999 V2000
   -3.2406   -3.5400    1.2326 H   0  0  0  0  0  0  0  0  0  0  0  0
   -3.1436   -2.6190    0.6606 C   0  0  0  0  0  0  0  0  0  0  0  0
   -3.8786   -1.8920    0.9996 H   0  0  0  0  0  0  0  0  0  0  0  0
   -3.2846   -2.8280   -0.3984 H   0  0  0  0  0  0  0  0  0  0  0  0
   -1.7586   -2.0580    0.8686 C   0  0  0  0  0  0  0  0  0  0  0  0
   -0.9666   -2.6340    1.6026 O   0  0  0  0  0  0  0  0  0  0  0  0
   -1.4866   -0.9220    0.2366 N   0  0  0  0  0  0  0  0  0  0  0  0
   -2.2166   -0.4790   -0.2994 H   0  0  0  0  0  0  0  0  0  0  0  0
   -0.1956   -0.2250    0.2596 C   0  0  1  0  0  0  0  0  0  0  0  0
    0.5755   -0.9013   -0.1105 H   0  0  0  0  0  0  0  0  0  0  0  0
   -0.2553    0.9811   -0.6992 C   0  0  0  0  0  0  0  0  0  0  0  0
   -1.0484    1.6462   -0.3538 H   0  0  0  0  0  0  0  0  0  0  0  0
    0.6911    1.5222   -0.6566 H   0  0  0  0  0  0  0  0  0  0  0  0
   -0.5476    0.5900   -2.1576 C   0  0  0  0  0  0  0  0  0  0  0  0
   -0.0536    1.3010   -2.8241 H   0  0  0  0  0  0  0  0  0  0  0  0
   -0.1175   -0.3983   -2.3405 H   0  0  0  0  0  0  0  0  0  0  0  0
   -2.0462    0.5599   -2.4927 C   0  0  0  0  0  0  0  0  0  0  0  0
   -2.8667    0.7127   -1.5600 O   0  5  0  0  0  0  0  0  0  0  0  0
   -2.3488    0.4067   -3.6969 O   0  0  0  0  0  0  0  0  0  0  0  0
    0.1881    0.1678    1.7015 C   0  0  0  0  0  0  0  0  0  0  0  0
    1.3379    0.0002    2.1133 O   0  0  0  0  0  0  0  0  0  0  0  0
   -0.7666    0.7145    2.4656 N   0  0  0  0  0  0  0  0  0  0  0  0
   -1.6971    0.7705    2.0790 H   0  0  0  0  0  0  0  0  0  0  0  0
   -0.5716    1.1232    3.8542 C   0  0  0  0  0  0  0  0  0  0  0  0
    0.3083    1.7643    3.9293 H   0  0  0  0  0  0  0  0  0  0  0  0
   -1.4485    1.6640    4.2131 H   0  0  0  0  0  0  0  0  0  0  0  0
   -0.4137    0.2381    4.4736 H   0  0  0  0  0  0  0  0  0  0  0  0
  5  6  2  0  0  0  0
  5  7  1  0  0  0  0
  2  3  1  0  0  0  0
  2  4  1  0  0  0  0
  2  5  1  0  0  0  0
  1  2  1  0  0  0  0
 20 21  2  0  0  0  0
 20 22  1  0  0  0  0
 17 18  1  0  0  0  0
 17 19  2  0  0  0  0
 14 15  1  0  0  0  0
 14 16  1  0  0  0  0
 14 17  1  0  0  0  0
 11 12  1  0  0  0  0
 11 13  1  0  0  0  0
 11 14  1  0  0  0  0
  9 10  1  0  0  0  0
  9 11  1  0  0  0  0
  9 20  1  0  0  0  0
  7  8  1  0  0  0  0
  7  9  1  0  0  0  0
 24 25  1  0  0  0  0
 24 26  1  0  0  0  0
 24 27  1  0  0  0  0
 22 23  1  0  0  0  0
 22 24  1  0  0  0  0
M  CHG  1  18  -1
M  END
$$$$
default_name
  -OEChem-02102213163D

 27 26  0     1  0  0  0  0  0999 V2000
   -3.2406   -3.5400    1.2326 H   0  0  0  0  0  0  0  0  0  0  0  0
   -3.1436   -2.6190    0.6606 C   0  0  0  0  0  0  0  0  0  0  0  0
   -3.8786   -1.8920    0.9996 H   0  0  0  0  0  0  0  0  0  0  0  0
   -3.2846   -2.8280   -0.3984 H   0  0  0  0  0  0  0  0  0  0  0  0
   -1.7586   -2.0580    0.8686 C   0  0  0  0  0  0  0  0  0  0  0  0
   -0.9666   -2.6340    1.6026 O   0  0  0  0  0  0  0  0  0  0  0  0
   -1.4866   -0.9220    0.2366 N   0  0  0  0  0  0  0  0  0  0  0  0
   -2.2166   -0.4790   -0.2994 H   0  0  0  0  0  0  0  0  0  0  0  0
   -0.1956   -0.2250    0.2596 C   0  0  1  0  0  0  0  0  0  0  0  0
    0.5755   -0.9013   -0.1105 H   0  0  0  0  0  0  0  0  0  0  0  0
   -0.2553    0.9811   -0.6992 C   0  0  0  0  0  0  0  0  0  0  0  0
   -1.0484    1.6462   -0.3538 H   0  0  0  0  0  0  0  0  0  0  0  0
    0.6911    1.5222   -0.6566 H   0  0  0  0  0  0  0  0  0  0  0  0
   -0.5476    0.5900   -2.1576 C   0  0  0  0  0  0  0  0  0  0  0  0
    0.1456    1.1197   -2.8154 H   0  0  0  0  0  0  0  0  0  0  0  0
   -0.3648   -0.4822   -2.2684 H   0  0  0  0  0  0  0  0  0  0  0  0
   -1.9844    0.9069   -2.5981 C   0  0  0  0  0  0  0  0  0  0  0  0
   -2.7958    1.3084   -1.7339 O   0  5  0  0  0  0  0  0  0  0  0  0
   -2.2430    0.7632   -3.8138 O   0  0  0  0  0  0  0  0  0  0  0  0
    0.1881    0.1678    1.7015 C   0  0  0  0  0  0  0  0  0  0  0  0
    1.3379    0.0002    2.1133 O   0  0  0  0  0  0  0  0  0  0  0  0
   -0.7666    0.7145    2.4656 N   0  0  0  0  0  0  0  0  0  0  0  0
   -1.6971    0.7705    2.0790 H   0  0  0  0  0  0  0  0  0  0  0  0
   -0.5716    1.1232    3.8542 C   0  0  0  0  0  0  0  0  0  0  0  0
    0.3083    1.7643    3.9293 H   0  0  0  0  0  0  0  0  0  0  0  0
   -1.4485    1.6640    4.2131 H   0  0  0  0  0  0  0  0  0  0  0  0
   -0.4137    0.2381    4.4736 H   0  0  0  0  0  0  0  0  0  0  0  0
  5  6  2  0  0  0  0
  5  7  1  0  0  0  0
  2  3  1  0  0  0  0
  2  4  1  0  0  0  0
  2  5  1  0  0  0  0
  1  2  1  0  0  0  0
 20 21  2  0  0  0  0
 20 22  1  0  0  0  0
 17 18  1  0  0  0  0
 17 19  2  0  0  0  0
 14 15  1  0  0  0  0
 14 16  1  0  0  0  0
 14 17  1  0  0  0  0
 11 12  1  0  0  0  0
 11 13  1  0  0  0  0
 11 14  1  0  0  0  0
  9 10  1  0  0  0  0
  9 11  1  0  0  0  0
  9 20  1  0  0  0  0
  7  8  1  0  0  0  0
  7  9  1  0  0  0  0
 24 25  1  0  0  0  0
 24 26  1  0  0  0  0
 24 27  1  0  0  0  0
 22 23  1  0  0  0  0
 22 24  1  0  0  0  0
M  CHG  1  18  -1
M  END
$$$$
default_name
  -OEChem-02102213163D

 27 26  0     1  0  0  0  0  0999 V2000
   -3.2406   -3.5400    1.2326 H   0  0  0  0  0  0  0  0  0  0  0  0
   -3.1436   -2.6190    0.6606 C   0  0  0  0  0  0  0  0  0  0  0  0
   -3.8786   -1.8920    0.9996 H   0  0  0  0  0  0  0  0  0  0  0  0
   -3.2846   -2.8280   -0.3984 H   0  0  0  0  0  0  0  0  0  0  0  0
   -1.7586   -2.0580    0.8686 C   0  0  0  0  0  0  0  0  0  0  0  0
   -0.9666   -2.6340    1.6026 O   0  0  0  0  0  0  0  0  0  0  0  0
   -1.4866   -0.9220    0.2366 N   0  0  0  0  0  0  0  0  0  0  0  0
   -2.2166   -0.4790   -0.2994 H   0  0  0  0  0  0  0  0  0  0  0  0
   -0.1956   -0.2250    0.2596 C   0  0  1  0  0  0  0  0  0  0  0  0
    0.5755   -0.9013   -0.1105 H   0  0  0  0  0  0  0  0  0  0  0  0
   -0.2553    0.9811   -0.6992 C   0  0  0  0  0  0  0  0  0  0  0  0
   -1.0484    1.6462   -0.3538 H   0  0  0  0  0  0  0  0  0  0  0  0
    0.6911    1.5222   -0.6566 H   0  0  0  0  0  0  0  0  0  0  0  0
   -0.5476    0.5900   -2.1576 C   0  0  0  0  0  0  0  0  0  0  0  0
    0.2930    0.8960   -2.7849 H   0  0  0  0  0  0  0  0  0  0  0  0
   -0.6291   -0.4989   -2.2109 H   0  0  0  0  0  0  0  0  0  0  0  0
   -1.8326    1.2218   -2.7130 C   0  0  0  0  0  0  0  0  0  0  0  0
   -2.5698    1.8579   -1.9266 O   0  5  0  0  0  0  0  0  0  0  0  0
   -2.0457    1.0759   -3.9372 O   0  0  0  0  0  0  0  0  0  0  0  0
    0.1881    0.1678    1.7015 C   0  0  0  0  0  0  0  0  0  0  0  0
    1.3379    0.0002    2.1133 O   0  0  0  0  0  0  0  0  0  0  0  0
   -0.7666    0.7145    2.4656 N   0  0  0  0  0  0  0  0  0  0  0  0
   -1.6971    0.7705    2.0790 H   0  0  0  0  0  0  0  0  0  0  0  0
   -0.5716    1.1232    3.8542 C   0  0  0  0  0  0  0  0  0  0  0  0
    0.3083    1.7643    3.9293 H   0  0  0  0  0  0  0  0  0  0  0  0
   -1.4485    1.6640    4.2131 H   0  0  0  0  0  0  0  0  0  0  0  0
   -0.4137    0.2381    4.4736 H   0  0  0  0  0  0  0  0  0  0  0  0
  5  6  2  0  0  0  0
  5  7  1  0  0  0  0
  2  3  1  0  0  0  0
  2  4  1  0  0  0  0
  2  5  1  0  0  0  0
  1  2  1  0  0  0  0
 20 21  2  0  0  0  0
 20 22  1  0  0  0  0
 17 18  1  0  0  0  0
 17 19  2  0  0  0  0
 14 15  1  0  0  0  0
 14 16  1  0  0  0  0
 14 17  1  0  0  0  0
 11 12  1  0  0  0  0
 11 13  1  0  0  0  0
 11 14  1  0  0  0  0
  9 10  1  0  0  0  0
  9 11  1  0  0  0  0
  9 20  1  0  0  0  0
  7  8  1  0  0  0  0
  7  9  1  0  0  0  0
 24 25  1  0  0  0  0
 24 26  1  0  0  0  0
 24 27  1  0  0  0  0
 22 23  1  0  0  0  0
 22 24  1  0  0  0  0
M  CHG  1  18  -1
M  END
$$$$
default_name
  -OEChem-02102213163D

 27 26  0     1  0  0  0  0  0999 V2000
   -3.2406   -3.5400    1.2326 H   0  0  0  0  0  0  0  0  0  0  0  0
   -3.1436   -2.6190    0.6606 C   0  0  0  0  0  0  0  0  0  0  0  0
   -3.8786   -1.8920    0.9996 H   0  0  0  0  0  0  0  0  0  0  0  0
   -3.2846   -2.8280   -0.3984 H   0  0  0  0  0  0  0  0  0  0  0  0
   -1.7586   -2.0580    0.8686 C   0  0  0  0  0  0  0  0  0  0  0  0
   -0.9666   -2.6340    1.6026 O   0  0  0  0  0  0  0  0  0  0  0  0
   -1.4866   -0.9220    0.2366 N   0  0  0  0  0  0  0  0  0  0  0  0
   -2.2166   -0.4790   -0.2994 H   0  0  0  0  0  0  0  0  0  0  0  0
   -0.1956   -0.2250    0.2596 C   0  0  1  0  0  0  0  0  0  0  0  0
    0.5755   -0.9013   -0.1105 H   0  0  0  0  0  0  0  0  0  0  0  0
   -0.2553    0.9811   -0.6992 C   0  0  0  0  0  0  0  0  0  0  0  0
   -1.0484    1.6462   -0.3538 H   0  0  0  0  0  0  0  0  0  0  0  0
    0.6911    1.5222   -0.6566 H   0  0  0  0  0  0  0  0  0  0  0  0
   -0.5476    0.5900   -2.1576 C   0  0  0  0  0  0  0  0  0  0  0  0
    0.3785    0.6453   -2.7348 H   0  0  0  0  0  0  0  0  0  0  0  0
   -0.8923   -0.4474   -2.1720 H   0  0  0  0  0  0  0  0  0  0  0  0
   -1.6012    1.4830   -2.8295 C   0  0  0  0  0  0  0  0  0  0  0  0
   -2.2039    2.3237   -2.1249 O   0  5  0  0  0  0  0  0  0  0  0  0
   -1.7702    1.3235   -4.0588 O   0  0  0  0  0  0  0  0  0  0  0  0
    0.1881    0.1678    1.7015 C   0  0  0  0  0  0  0  0  0  0  0  0
    1.3379    0.0002    2.1133 O   0  0  0  0  0  0  0  0  0  0  0  0
   -0.7666    0.7145    2.4656 N   0  0  0  0  0  0  0  0  0  0  0  0
   -1.6971    0.7705    2.0790 H   0  0  0  0  0  0  0  0  0  0  0  0
   -0.5716    1.1232    3.8542 C   0  0  0  0  0  0  0  0  0  0  0  0
    0.3083    1.7643    3.9293 H   0  0  0  0  0  0  0  0  0  0  0  0
   -1.4485    1.6640    4.2131 H   0  0  0  0  0  0  0  0  0  0  0  0
   -0.4137    0.2381    4.4736 H   0  0  0  0  0  0  0  0  0  0  0  0
  5  6  2  0  0  0  0
  5  7  1  0  0  0  0
  2  3  1  0  0  0  0
  2  4  1  0  0  0  0
  2  5  1  0  0  0  0
  1  2  1  0  0  0  0
 20 21  2  0  0  0  0
 20 22  1  0  0  0  0
 17 18  1  0  0  0  0
 17 19  2  0  0  0  0
 14 15  1  0  0  0  0
 14 16  1  0  0  0  0
 14 17  1  0  0  0  0
 11 12  1  0  0  0  0
 11 13  1  0  0  0  0
 11 14  1  0  0  0  0
  9 10  1  0  0  0  0
  9 11  1  0  0  0  0
  9 20  1  0  0  0  0
  7  8  1  0  0  0  0
  7  9  1  0  0  0  0
 24 25  1  0  0  0  0
 24 26  1  0  0  0  0
 24 27  1  0  0  0  0
 22 23  1  0  0  0  0
 22 24  1  0  0  0  0
M  CHG  1  18  -1
M  END
$$$$
default_name
  -OEChem-02102213163D

 27 26  0     1  0  0  0  0  0999 V2000
   -3.2406   -3.5400    1.2326 H   0  0  0  0  0  0  0  0  0  0  0  0
   -3.1436   -2.6190    0.6606 C   0  0  0  0  0  0  0  0  0  0  0  0
   -3.8786   -1.8920    0.9996 H   0  0  0  0  0  0  0  0  0  0  0  0
   -3.2846   -2.8280   -0.3984 H   0  0  0  0  0  0  0  0  0  0  0  0
   -1.7586   -2.0580    0.8686 C   0  0  0  0  0  0  0  0  0  0  0  0
   -0.9666   -2.6340    1.6026 O   0  0  0  0  0  0  0  0  0  0  0  0
   -1.4866   -0.9220    0.2366 N   0  0  0  0  0  0  0  0  0  0  0  0
   -2.2166   -0.4790   -0.2994 H   0  0  0  0  0  0  0  0  0  0  0  0
   -0.1956   -0.2250    0.2596 C   0  0  1  0  0  0  0  0  0  0  0  0
    0.5755   -0.9013   -0.1105 H   0  0  0  0  0  0  0  0  0  0  0  0
   -0.2553    0.9811   -0.6992 C   0  0  0  0  0  0  0  0  0  0  0  0
   -1.0484    1.6462   -0.3538 H   0  0  0  0  0  0  0  0  0  0  0  0
    0.6911    1.5222   -0.6566 H   0  0  0  0  0  0  0  0  0  0  0  0
   -0.5476    0.5900   -2.1576 C   0  0  0  0  0  0  0  0  0  0  0  0
    0.3962    0.3846   -2.6684 H   0  0  0  0  0  0  0  0  0  0  0  0
   -1.1364   -0.3311   -2.1542 H   0  0  0  0  0  0  0  0  0  0  0  0
   -1.3058    1.6728   -2.9396 C   0  0  0  0  0  0  0  0  0  0  0  0
   -1.7230    2.6741   -2.3153 O   0  5  0  0  0  0  0  0  0  0  0  0
   -1.4353    1.4890   -4.1703 O   0  0  0  0  0  0  0  0  0  0  0  0
    0.1881    0.1678    1.7015 C   0  0  0  0  0  0  0  0  0  0  0  0
    1.3379    0.0002    2.1133 O   0  0  0  0  0  0  0  0  0  0  0  0
   -0.7666    0.7145    2.4656 N   0  0  0  0  0  0  0  0  0  0  0  0
   -1.6971    0.7705    2.0790 H   0  0  0  0  0  0  0  0  0  0  0  0
   -0.5716    1.1232    3.8542 C   0  0  0  0  0  0  0  0  0  0  0  0
    0.3083    1.7643    3.9293 H   0  0  0  0  0  0  0  0  0  0  0  0
   -1.4485    1.6640    4.2131 H   0  0  0  0  0  0  0  0  0  0  0  0
   -0.4137    0.2381    4.4736 H   0  0  0  0  0  0  0  0  0  0  0  0
  5  6  2  0  0  0  0
  5  7  1  0  0  0  0
  2  3  1  0  0  0  0
  2  4  1  0  0  0  0
  2  5  1  0  0  0  0
  1  2  1  0  0  0  0
 20 21  2  0  0  0  0
 20 22  1  0  0  0  0
 17 18  1  0  0  0  0
 17 19  2  0  0  0  0
 14 15  1  0  0  0  0
 14 16  1  0  0  0  0
 14 17  1  0  0  0  0
 11 12  1  0  0  0  0
 11 13  1  0  0  0  0
 11 14  1  0  0  0  0
  9 10  1  0  0  0  0
  9 11  1  0  0  0  0
  9 20  1  0  0  0  0
  7  8  1  0  0  0  0
  7  9  1  0  0  0  0
 24 25  1  0  0  0  0
 24 26  1  0  0  0  0
 24 27  1  0  0  0  0
 22 23  1  0  0  0  0
 22 24  1  0  0  0  0
M  CHG  1  18  -1
M  END
$$$$
default_name
  -OEChem-02102213163D

 27 26  0     1  0  0  0  0  0999 V2000
   -3.2406   -3.5400    1.2326 H   0  0  0  0  0  0  0  0  0  0  0  0
   -3.1436   -2.6190    0.6606 C   0  0  0  0  0  0  0  0  0  0  0  0
   -3.8786   -1.8920    0.9996 H   0  0  0  0  0  0  0  0  0  0  0  0
   -3.2846   -2.8280   -0.3984 H   0  0  0  0  0  0  0  0  0  0  0  0
   -1.7586   -2.0580    0.8686 C   0  0  0  0  0  0  0  0  0  0  0  0
   -0.9666   -2.6340    1.6026 O   0  0  0  0  0  0  0  0  0  0  0  0
   -1.4866   -0.9220    0.2366 N   0  0  0  0  0  0  0  0  0  0  0  0
   -2.2166   -0.4790   -0.2994 H   0  0  0  0  0  0  0  0  0  0  0  0
   -0.1956   -0.2250    0.2596 C   0  0  1  0  0  0  0  0  0  0  0  0
    0.5755   -0.9013   -0.1105 H   0  0  0  0  0  0  0  0  0  0  0  0
   -0.2553    0.9811   -0.6992 C   0  0  0  0  0  0  0  0  0  0  0  0
   -1.0484    1.6462   -0.3538 H   0  0  0  0  0  0  0  0  0  0  0  0
    0.6911    1.5222   -0.6566 H   0  0  0  0  0  0  0  0  0  0  0  0
   -0.5476    0.5900   -2.1576 C   0  0  0  0  0  0  0  0  0  0  0  0
    0.3449    0.1318   -2.5904 H   0  0  0  0  0  0  0  0  0  0  0  0
   -1.3449   -0.1581   -2.1589 H   0  0  0  0  0  0  0  0  0  0  0  0
   -0.9667    1.7782   -3.0358 C   0  0  0  0  0  0  0  0  0  0  0  0
   -1.1601    2.8852   -2.4847 O   0  5  0  0  0  0  0  0  0  0  0  0
   -1.0639    1.5612   -4.2641 O   0  0  0  0  0  0  0  0  0  0  0  0
    0.1881    0.1678    1.7015 C   0  0  0  0  0  0  0  0  0  0  0  0
    1.3379    0.0002    2.1133 O   0  0  0  0  0  0  0  0  0  0  0  0
   -0.7666    0.7145    2.4656 N   0  0  0  0  0  0  0  0  0  0  0  0
   -1.6971    0.7705    2.0790 H   0  0  0  0  0  0  0  0  0  0  0  0
   -0.5716    1.1232    3.8542 C   0  0  0  0  0  0  0  0  0  0  0  0
    0.3083    1.7643    3.9293 H   0  0  0  0  0  0  0  0  0  0  0  0
   -1.4485    1.6640    4.2131 H   0  0  0  0  0  0  0  0  0  0  0  0
   -0.4137    0.2381    4.4736 H   0  0  0  0  0  0  0  0  0  0  0  0
  5  6  2  0  0  0  0
  5  7  1  0  0  0  0
  2  3  1  0  0  0  0
  2  4  1  0  0  0  0
  2  5  1  0  0  0  0
  1  2  1  0  0  0  0
 20 21  2  0  0  0  0
 20 22  1  0  0  0  0
 17 18  1  0  0  0  0
 17 19  2  0  0  0  0
 14 15  1  0  0  0  0
 14 16  1  0  0  0  0
 14 17  1  0  0  0  0
 11 12  1  0  0  0  0
 11 13  1  0  0  0  0
 11 14  1  0  0  0  0
  9 10  1  0  0  0  0
  9 11  1  0  0  0  0
  9 20  1  0  0  0  0
  7  8  1  0  0  0  0
  7  9  1  0  0  0  0
 24 25  1  0  0  0  0
 24 26  1  0  0  0  0
 24 27  1  0  0  0  0
 22 23  1  0  0  0  0
 22 24  1  0  0  0  0
M  CHG  1  18  -1
M  END
$$$$
default_name
  -OEChem-02102213163D

 27 26  0     1  0  0  0  0  0999 V2000
   -3.2406   -3.5400    1.2326 H   0  0  0  0  0  0  0  0  0  0  0  0
   -3.1436   -2.6190    0.6606 C   0  0  0  0  0  0  0  0  0  0  0  0
   -3.8786   -1.8920    0.9996 H   0  0  0  0  0  0  0  0  0  0  0  0
   -3.2846   -2.8280   -0.3984 H   0  0  0  0  0  0  0  0  0  0  0  0
   -1.7586   -2.0580    0.8686 C   0  0  0  0  0  0  0  0  0  0  0  0
   -0.9666   -2.6340    1.6026 O   0  0  0  0  0  0  0  0  0  0  0  0
   -1.4866   -0.9220    0.2366 N   0  0  0  0  0  0  0  0  0  0  0  0
   -2.2166   -0.4790   -0.2994 H   0  0  0  0  0  0  0  0  0  0  0  0
   -0.1956   -0.2250    0.2596 C   0  0  1  0  0  0  0  0  0  0  0  0
    0.5755   -0.9013   -0.1105 H   0  0  0  0  0  0  0  0  0  0  0  0
   -0.2553    0.9811   -0.6992 C   0  0  0  0  0  0  0  0  0  0  0  0
   -0.8449    1.7636   -0.2188 H   0  0  0  0  0  0  0  0  0  0  0  0
    0.7540    1.3615   -0.8627 H   0  0  0  0  0  0  0  0  0  0  0  0
   -0.8967    0.6520   -2.0577 C   0  0  0  0  0  0  0  0  0  0  0  0
   -0.3277   -0.1483   -2.5369 H   0  0  0  0  0  0  0  0  0  0  0  0
   -1.9104    0.2841   -1.8784 H   0  0  0  0  0  0  0  0  0  0  0  0
   -0.9557    1.8541   -3.0119 C   0  0  0  0  0  0  0  0  0  0  0  0
   -0.6204    2.9775   -2.5736 O   0  5  0  0  0  0  0  0  0  0  0  0
   -1.3170    1.6206   -4.1867 O   0  0  0  0  0  0  0  0  0  0  0  0
    0.1881    0.1678    1.7015 C   0  0  0  0  0  0  0  0  0  0  0  0
    1.3379    0.0002    2.1133 O   0  0  0  0  0  0  0  0  0  0  0  0
   -0.7666    0.7145    2.4656 N   0  0  0  0  0  0  0  0  0  0  0  0
   -1.6971    0.7705    2.0790 H   0  0  0  0  0  0  0  0  0  0  0  0
   -0.5716    1.1232    3.8542 C   0  0  0  0  0  0  0  0  0  0  0  0
    0.3083    1.7643    3.9293 H   0  0  0  0  0  0  0  0  0  0  0  0
   -1.4485    1.6640    4.2131 H   0  0  0  0  0  0  0  0  0  0  0  0
   -0.4137    0.2381    4.4736 H   0  0  0  0  0  0  0  0  0  0  0  0
  5  6  2  0  0  0  0
  5  7  1  0  0  0  0
  2  3  1  0  0  0  0
  2  4  1  0  0  0  0
  2  5  1  0  0  0  0
  1  2  1  0  0  0  0
 20 21  2  0  0  0  0
 20 22  1  0  0  0  0
 17 18  1  0  0  0  0
 17 19  2  0  0  0  0
 14 15  1  0  0  0  0
 14 16  1  0  0  0  0
 14 17  1  0  0  0  0
 11 12  1  0  0  0  0
 11 13  1  0  0  0  0
 11 14  1  0  0  0  0
  9 10  1  0  0  0  0
  9 11  1  0  0  0  0
  9 20  1  0  0  0  0
  7  8  1  0  0  0  0
  7  9  1  0  0  0  0
 24 25  1  0  0  0  0
 24 26  1  0  0  0  0
 24 27  1  0  0  0  0
 22 23  1  0  0  0  0
 22 24  1  0  0  0  0
M  CHG  1  18  -1
M  END
$$$$
default_name
  -OEChem-02102213163D

 27 26  0     1  0  0  0  0  0999 V2000
   -3.2406   -3.5400    1.2326 H   0  0  0  0  0  0  0  0  0  0  0  0
   -3.1436   -2.6190    0.6606 C   0  0  0  0  0  0  0  0  0  0  0  0
   -3.8786   -1.8920    0.9996 H   0  0  0  0  0  0  0  0  0  0  0  0
   -3.2846   -2.8280   -0.3984 H   0  0  0  0  0  0  0  0  0  0  0  0
   -1.7586   -2.0580    0.8686 C   0  0  0  0  0  0  0  0  0  0  0  0
   -0.9666   -2.6340    1.6026 O   0  0  0  0  0  0  0  0  0  0  0  0
   -1.4866   -0.9220    0.2366 N   0  0  0  0  0  0  0  0  0  0  0  0
   -2.2166   -0.4790   -0.2994 H   0  0  0  0  0  0  0  0  0  0  0  0
   -0.1956   -0.2250    0.2596 C   0  0  1  0  0  0  0  0  0  0  0  0
    0.5755   -0.9013   -0.1105 H   0  0  0  0  0  0  0  0  0  0  0  0
   -0.2553    0.9811   -0.6992 C   0  0  0  0  0  0  0  0  0  0  0  0
   -0.8449    1.7636   -0.2188 H   0  0  0  0  0  0  0  0  0  0  0  0
    0.7540    1.3615   -0.8627 H   0  0  0  0  0  0  0  0  0  0  0  0
   -0.8967    0.6520   -2.0577 C   0  0  0  0  0  0  0  0  0  0  0  0
   -0.5086   -0.3055   -2.4135 H   0  0  0  0  0  0  0  0  0  0  0  0
   -1.9748    0.5453   -1.9112 H   0  0  0  0  0  0  0  0  0  0  0  0
   -0.6347    1.7192   -3.1308 C   0  0  0  0  0  0  0  0  0  0  0  0
   -0.0673    2.7805   -2.7870 O   0  5  0  0  0  0  0  0  0  0  0  0
   -0.9896    1.4404   -4.2977 O   0  0  0  0  0  0  0  0  0  0  0  0
    0.1881    0.1678    1.7015 C   0  0  0  0  0  0  0  0  0  0  0  0
    1.3379    0.0002    2.1133 O   0  0  0  0  0  0  0  0  0  0  0  0
   -0.7666    0.7145    2.4656 N   0  0  0  0  0  0  0  0  0  0  0  0
   -1.6971    0.7705    2.0790 H   0  0  0  0  0  0  0  0  0  0  0  0
   -0.5716    1.1232    3.8542 C   0  0  0  0  0  0  0  0  0  0  0  0
    0.3083    1.7643    3.9293 H   0  0  0  0  0  0  0  0  0  0  0  0
   -1.4485    1.6640    4.2131 H   0  0  0  0  0  0  0  0  0  0  0  0
   -0.4137    0.2381    4.4736 H   0  0  0  0  0  0  0  0  0  0  0  0
  5  6  2  0  0  0  0
  5  7  1  0  0  0  0
  2  3  1  0  0  0  0
  2  4  1  0  0  0  0
  2  5  1  0  0  0  0
  1  2  1  0  0  0  0
 20 21  2  0  0  0  0
 20 22  1  0  0  0  0
 17 18  1  0  0  0  0
 17 19  2  0  0  0  0
 14 15  1  0  0  0  0
 14 16  1  0  0  0  0
 14 17  1  0  0  0  0
 11 12  1  0  0  0  0
 11 13  1  0  0  0  0
 11 14  1  0  0  0  0
  9 10  1  0  0  0  0
  9 11  1  0  0  0  0
  9 20  1  0  0  0  0
  7  8  1  0  0  0  0
  7  9  1  0  0  0  0
 24 25  1  0  0  0  0
 24 26  1  0  0  0  0
 24 27  1  0  0  0  0
 22 23  1  0  0  0  0
 22 24  1  0  0  0  0
M  CHG  1  18  -1
M  END
$$$$
default_name
  -OEChem-02102213163D

 27 26  0     1  0  0  0  0  0999 V2000
   -3.2406   -3.5400    1.2326 H   0  0  0  0  0  0  0  0  0  0  0  0
   -3.1436   -2.6190    0.6606 C   0  0  0  0  0  0  0  0  0  0  0  0
   -3.8786   -1.8920    0.9996 H   0  0  0  0  0  0  0  0  0  0  0  0
   -3.2846   -2.8280   -0.3984 H   0  0  0  0  0  0  0  0  0  0  0  0
   -1.7586   -2.0580    0.8686 C   0  0  0  0  0  0  0  0  0  0  0  0
   -0.9666   -2.6340    1.6026 O   0  0  0  0  0  0  0  0  0  0  0  0
   -1.4866   -0.9220    0.2366 N   0  0  0  0  0  0  0  0  0  0  0  0
   -2.2166   -0.4790   -0.2994 H   0  0  0  0  0  0  0  0  0  0  0  0
   -0.1956   -0.2250    0.2596 C   0  0  1  0  0  0  0  0  0  0  0  0
    0.5755   -0.9013   -0.1105 H   0  0  0  0  0  0  0  0  0  0  0  0
   -0.2553    0.9811   -0.6992 C   0  0  0  0  0  0  0  0  0  0  0  0
   -0.8449    1.7636   -0.2188 H   0  0  0  0  0  0  0  0  0  0  0  0
    0.7540    1.3615   -0.8627 H   0  0  0  0  0  0  0  0  0  0  0  0
   -0.8967    0.6520   -2.0577 C   0  0  0  0  0  0  0  0  0  0  0  0
   -0.7261   -0.4026   -2.2873 H   0  0  0  0  0  0  0  0  0  0  0  0
   -1.9754    0.8087   -1.9747 H   0  0  0  0  0  0  0  0  0  0  0  0
   -0.3489    1.5027   -3.2133 C   0  0  0  0  0  0  0  0  0  0  0  0
    0.4337    2.4408   -2.9412 O   0  5  0  0  0  0  0  0  0  0  0  0
   -0.7084    1.1796   -4.3672 O   0  0  0  0  0  0  0  0  0  0  0  0
    0.1881    0.1678    1.7015 C   0  0  0  0  0  0  0  0  0  0  0  0
    1.3379    0.0002    2.1133 O   0  0  0  0  0  0  0  0  0  0  0  0
   -0.7666    0.7145    2.4656 N   0  0  0  0  0  0  0  0  0  0  0  0
   -1.6971    0.7705    2.0790 H   0  0  0  0  0  0  0  0  0  0  0  0
   -0.5716    1.1232    3.8542 C   0  0  0  0  0  0  0  0  0  0  0  0
    0.3083    1.7643    3.9293 H   0  0  0  0  0  0  0  0  0  0  0  0
   -1.4485    1.6640    4.2131 H   0  0  0  0  0  0  0  0  0  0  0  0
   -0.4137    0.2381    4.4736 H   0  0  0  0  0  0  0  0  0  0  0  0
  5  6  2  0  0  0  0
  5  7  1  0  0  0  0
  2  3  1  0  0  0  0
  2  4  1  0  0  0  0
  2  5  1  0  0  0  0
  1  2  1  0  0  0  0
 20 21  2  0  0  0  0
 20 22  1  0  0  0  0
 17 18  1  0  0  0  0
 17 19  2  0  0  0  0
 14 15  1  0  0  0  0
 14 16  1  0  0  0  0
 14 17  1  0  0  0  0
 11 12  1  0  0  0  0
 11 13  1  0  0  0  0
 11 14  1  0  0  0  0
  9 10  1  0  0  0  0
  9 11  1  0  0  0  0
  9 20  1  0  0  0  0
  7  8  1  0  0  0  0
  7  9  1  0  0  0  0
 24 25  1  0  0  0  0
 24 26  1  0  0  0  0
 24 27  1  0  0  0  0
 22 23  1  0  0  0  0
 22 24  1  0  0  0  0
M  CHG  1  18  -1
M  END
$$$$
default_name
  -OEChem-02102213163D

 27 26  0     1  0  0  0  0  0999 V2000
   -3.2406   -3.5400    1.2326 H   0  0  0  0  0  0  0  0  0  0  0  0
   -3.1436   -2.6190    0.6606 C   0  0  0  0  0  0  0  0  0  0  0  0
   -3.8786   -1.8920    0.9996 H   0  0  0  0  0  0  0  0  0  0  0  0
   -3.2846   -2.8280   -0.3984 H   0  0  0  0  0  0  0  0  0  0  0  0
   -1.7586   -2.0580    0.8686 C   0  0  0  0  0  0  0  0  0  0  0  0
   -0.9666   -2.6340    1.6026 O   0  0  0  0  0  0  0  0  0  0  0  0
   -1.4866   -0.9220    0.2366 N   0  0  0  0  0  0  0  0  0  0  0  0
   -2.2166   -0.4790   -0.2994 H   0  0  0  0  0  0  0  0  0  0  0  0
   -0.1956   -0.2250    0.2596 C   0  0  1  0  0  0  0  0  0  0  0  0
    0.5755   -0.9013   -0.1105 H   0  0  0  0  0  0  0  0  0  0  0  0
   -0.2553    0.9811   -0.6992 C   0  0  0  0  0  0  0  0  0  0  0  0
   -0.8449    1.7636   -0.2188 H   0  0  0  0  0  0  0  0  0  0  0  0
    0.7540    1.3615   -0.8627 H   0  0  0  0  0  0  0  0  0  0  0  0
   -0.8967    0.6520   -2.0577 C   0  0  0  0  0  0  0  0  0  0  0  0
   -0.9654   -0.4330   -2.1669 H   0  0  0  0  0  0  0  0  0  0  0  0
   -1.9123    1.0564   -2.0646 H   0  0  0  0  0  0  0  0  0  0  0  0
   -0.1177    1.2192   -3.2537 C   0  0  0  0  0  0  0  0  0  0  0  0
    0.8485    1.9815   -3.0258 O   0  5  0  0  0  0  0  0  0  0  0  0
   -0.4926    0.8558   -4.3907 O   0  0  0  0  0  0  0  0  0  0  0  0
    0.1881    0.1678    1.7015 C   0  0  0  0  0  0  0  0  0  0  0  0
    1.3379    0.0002    2.1133 O   0  0  0  0  0  0  0  0  0  0  0  0
   -0.7666    0.7145    2.4656 N   0  0  0  0  0  0  0  0  0  0  0  0
   -1.6971    0.7705    2.0790 H   0  0  0  0  0  0  0  0  0  0  0  0
   -0.5716    1.1232    3.8542 C   0  0  0  0  0  0  0  0  0  0  0  0
    0.3083    1.7643    3.9293 H   0  0  0  0  0  0  0  0  0  0  0  0
   -1.4485    1.6640    4.2131 H   0  0  0  0  0  0  0  0  0  0  0  0
   -0.4137    0.2381    4.4736 H   0  0  0  0  0  0  0  0  0  0  0  0
  5  6  2  0  0  0  0
  5  7  1  0  0  0  0
  2  3  1  0  0  0  0
  2  4  1  0  0  0  0
  2  5  1  0  0  0  0
  1  2  1  0  0  0  0
 20 21  2  0  0  0  0
 20 22  1  0  0  0  0
 17 18  1  0  0  0  0
 17 19  2  0  0  0  0
 14 15  1  0  0  0  0
 14 16  1  0  0  0  0
 14 17  1  0  0  0  0
 11 12  1  0  0  0  0
 11 13  1  0  0  0  0
 11 14  1  0  0  0  0
  9 10  1  0  0  0  0
  9 11  1  0  0  0  0
  9 20  1  0  0  0  0
  7  8  1  0  0  0  0
  7  9  1  0  0  0  0
 24 25  1  0  0  0  0
 24 26  1  0  0  0  0
 24 27  1  0  0  0  0
 22 23  1  0  0  0  0
 22 24  1  0  0  0  0
M  CHG  1  18  -1
M  END
$$$$
default_name
  -OEChem-02102213163D

 27 26  0     1  0  0  0  0  0999 V2000
   -3.2406   -3.5400    1.2326 H   0  0  0  0  0  0  0  0  0  0  0  0
   -3.1436   -2.6190    0.6606 C   0  0  0  0  0  0  0  0  0  0  0  0
   -3.8786   -1.8920    0.9996 H   0  0  0  0  0  0  0  0  0  0  0  0
   -3.2846   -2.8280   -0.3984 H   0  0  0  0  0  0  0  0  0  0  0  0
   -1.7586   -2.0580    0.8686 C   0  0  0  0  0  0  0  0  0  0  0  0
   -0.9666   -2.6340    1.6026 O   0  0  0  0  0  0  0  0  0  0  0  0
   -1.4866   -0.9220    0.2366 N   0  0  0  0  0  0  0  0  0  0  0  0
   -2.2166   -0.4790   -0.2994 H   0  0  0  0  0  0  0  0  0  0  0  0
   -0.1956   -0.2250    0.2596 C   0  0  1  0  0  0  0  0  0  0  0  0
    0.5755   -0.9013   -0.1105 H   0  0  0  0  0  0  0  0  0  0  0  0
   -0.2553    0.9811   -0.6992 C   0  0  0  0  0  0  0  0  0  0  0  0
   -0.8449    1.7636   -0.2188 H   0  0  0  0  0  0  0  0  0  0  0  0
    0.7540    1.3615   -0.8627 H   0  0  0  0  0  0  0  0  0  0  0  0
   -0.8967    0.6520   -2.0577 C   0  0  0  0  0  0  0  0  0  0  0  0
   -1.2101   -0.3947   -2.0606 H   0  0  0  0  0  0  0  0  0  0  0  0
   -1.7898    1.2716   -2.1746 H   0  0  0  0  0  0  0  0  0  0  0  0
    0.0430    0.8883   -3.2494 C   0  0  0  0  0  0  0  0  0  0  0  0
    1.1488    1.4339   -3.0349 O   0  5  0  0  0  0  0  0  0  0  0  0
   -0.3568    0.4912   -4.3665 O   0  0  0  0  0  0  0  0  0  0  0  0
    0.1881    0.1678    1.7015 C   0  0  0  0  0  0  0  0  0  0  0  0
    1.3379    0.0002    2.1133 O   0  0  0  0  0  0  0  0  0  0  0  0
   -0.7666    0.7145    2.4656 N   0  0  0  0  0  0  0  0  0  0  0  0
   -1.6971    0.7705    2.0790 H   0  0  0  0  0  0  0  0  0  0  0  0
   -0.5716    1.1232    3.8542 C   0  0  0  0  0  0  0  0  0  0  0  0
    0.3083    1.7643    3.9293 H   0  0  0  0  0  0  0  0  0  0  0  0
   -1.4485    1.6640    4.2131 H   0  0  0  0  0  0  0  0  0  0  0  0
   -0.4137    0.2381    4.4736 H   0  0  0  0  0  0  0  0  0  0  0  0
  5  6  2  0  0  0  0
  5  7  1  0  0  0  0
  2  3  1  0  0  0  0
  2  4  1  0  0  0  0
  2  5  1  0  0  0  0
  1  2  1  0  0  0  0
 20 21  2  0  0  0  0
 20 22  1  0  0  0  0
 17 18  1  0  0  0  0
 17 19  2  0  0  0  0
 14 15  1  0  0  0  0
 14 16  1  0  0  0  0
 14 17  1  0  0  0  0
 11 12  1  0  0  0  0
 11 13  1  0  0  0  0
 11 14  1  0  0  0  0
  9 10  1  0  0  0  0
  9 11  1  0  0  0  0
  9 20  1  0  0  0  0
  7  8  1  0  0  0  0
  7  9  1  0  0  0  0
 24 25  1  0  0  0  0
 24 26  1  0  0  0  0
 24 27  1  0  0  0  0
 22 23  1  0  0  0  0
 22 24  1  0  0  0  0
M  CHG  1  18  -1
M  END
$$$$
default_name
  -OEChem-02102213163D

 27 26  0     1  0  0  0  0  0999 V2000
   -3.2406   -3.5400    1.2326 H   0  0  0  0  0  0  0  0  0  0  0  0
   -3.1436   -2.6190    0.6606 C   0  0  0  0  0  0  0  0  0  0  0  0
   -3.8786   -1.8920    0.9996 H   0  0  0  0  0  0  0  0  0  0  0  0
   -3.2846   -2.8280   -0.3984 H   0  0  0  0  0  0  0  0  0  0  0  0
   -1.7586   -2.0580    0.8686 C   0  0  0  0  0  0  0  0  0  0  0  0
   -0.9666   -2.6340    1.6026 O   0  0  0  0  0  0  0  0  0  0  0  0
   -1.4866   -0.9220    0.2366 N   0  0  0  0  0  0  0  0  0  0  0  0
   -2.2166   -0.4790   -0.2994 H   0  0  0  0  0  0  0  0  0  0  0  0
   -0.1956   -0.2250    0.2596 C   0  0  1  0  0  0  0  0  0  0  0  0
    0.5755   -0.9013   -0.1105 H   0  0  0  0  0  0  0  0  0  0  0  0
   -0.2553    0.9811   -0.6992 C   0  0  0  0  0  0  0  0  0  0  0  0
   -0.8449    1.7636   -0.2188 H   0  0  0  0  0  0  0  0  0  0  0  0
    0.7540    1.3615   -0.8627 H   0  0  0  0  0  0  0  0  0  0  0  0
   -0.8967    0.6520   -2.0577 C   0  0  0  0  0  0  0  0  0  0  0  0
   -1.4437   -0.2903   -1.9757 H   0  0  0  0  0  0  0  0  0  0  0  0
   -1.6161    1.4396   -2.2972 H   0  0  0  0  0  0  0  0  0  0  0  0
    0.1223    0.5323   -3.2007 C   0  0  0  0  0  0  0  0  0  0  0  0
    1.3142    0.8353   -2.9680 O   0  5  0  0  0  0  0  0  0  0  0  0
   -0.3104    0.1106   -4.2962 O   0  0  0  0  0  0  0  0  0  0  0  0
    0.1881    0.1678    1.7015 C   0  0  0  0  0  0  0  0  0  0  0  0
    1.3379    0.0002    2.1133 O   0  0  0  0  0  0  0  0  0  0  0  0
   -0.7666    0.7145    2.4656 N   0  0  0  0  0  0  0  0  0  0  0  0
   -1.6971    0.7705    2.0790 H   0  0  0  0  0  0  0  0  0  0  0  0
   -0.5716    1.1232    3.8542 C   0  0  0  0  0  0  0  0  0  0  0  0
    0.3083    1.7643    3.9293 H   0  0  0  0  0  0  0  0  0  0  0  0
   -1.4485    1.6640    4.2131 H   0  0  0  0  0  0  0  0  0  0  0  0
   -0.4137    0.2381    4.4736 H   0  0  0  0  0  0  0  0  0  0  0  0
  5  6  2  0  0  0  0
  5  7  1  0  0  0  0
  2  3  1  0  0  0  0
  2  4  1  0  0  0  0
  2  5  1  0  0  0  0
  1  2  1  0  0  0  0
 20 21  2  0  0  0  0
 20 22  1  0  0  0  0
 17 18  1  0  0  0  0
 17 19  2  0  0  0  0
 14 15  1  0  0  0  0
 14 16  1  0  0  0  0
 14 17  1  0  0  0  0
 11 12  1  0  0  0  0
 11 13  1  0  0  0  0
 11 14  1  0  0  0  0
  9 10  1  0  0  0  0
  9 11  1  0  0  0  0
  9 20  1  0  0  0  0
  7  8  1  0  0  0  0
  7  9  1  0  0  0  0
 24 25  1  0  0  0  0
 24 26  1  0  0  0  0
 24 27  1  0  0  0  0
 22 23  1  0  0  0  0
 22 24  1  0  0  0  0
M  CHG  1  18  -1
M  END
$$$$
default_name
  -OEChem-02102213163D

 27 26  0     1  0  0  0  0  0999 V2000
   -3.2406   -3.5400    1.2326 H   0  0  0  0  0  0  0  0  0  0  0  0
   -3.1436   -2.6190    0.6606 C   0  0  0  0  0  0  0  0  0  0  0  0
   -3.8786   -1.8920    0.9996 H   0  0  0  0  0  0  0  0  0  0  0  0
   -3.2846   -2.8280   -0.3984 H   0  0  0  0  0  0  0  0  0  0  0  0
   -1.7586   -2.0580    0.8686 C   0  0  0  0  0  0  0  0  0  0  0  0
   -0.9666   -2.6340    1.6026 O   0  0  0  0  0  0  0  0  0  0  0  0
   -1.4866   -0.9220    0.2366 N   0  0  0  0  0  0  0  0  0  0  0  0
   -2.2166   -0.4790   -0.2994 H   0  0  0  0  0  0  0  0  0  0  0  0
   -0.1956   -0.2250    0.2596 C   0  0  1  0  0  0  0  0  0  0  0  0
    0.5755   -0.9013   -0.1105 H   0  0  0  0  0  0  0  0  0  0  0  0
   -0.2553    0.9811   -0.6992 C   0  0  0  0  0  0  0  0  0  0  0  0
   -0.8449    1.7636   -0.2188 H   0  0  0  0  0  0  0  0  0  0  0  0
    0.7540    1.3615   -0.8627 H   0  0  0  0  0  0  0  0  0  0  0  0
   -0.8967    0.6520   -2.0577 C   0  0  0  0  0  0  0  0  0  0  0  0
   -1.6501   -0.1269   -1.9178 H   0  0  0  0  0  0  0  0  0  0  0  0
   -1.4031    1.5489   -2.4242 H   0  0  0  0  0  0  0  0  0  0  0  0
    0.1149    0.1756   -3.1107 C   0  0  0  0  0  0  0  0  0  0  0  0
    1.3334    0.2265   -2.8296 O   0  5  0  0  0  0  0  0  0  0  0  0
   -0.3565   -0.2601   -4.1846 O   0  0  0  0  0  0  0  0  0  0  0  0
    0.1881    0.1678    1.7015 C   0  0  0  0  0  0  0  0  0  0  0  0
    1.3379    0.0002    2.1133 O   0  0  0  0  0  0  0  0  0  0  0  0
   -0.7666    0.7145    2.4656 N   0  0  0  0  0  0  0  0  0  0  0  0
   -1.6971    0.7705    2.0790 H   0  0  0  0  0  0  0  0  0  0  0  0
   -0.5716    1.1232    3.8542 C   0  0  0  0  0  0  0  0  0  0  0  0
    0.3083    1.7643    3.9293 H   0  0  0  0  0  0  0  0  0  0  0  0
   -1.4485    1.6640    4.2131 H   0  0  0  0  0  0  0  0  0  0  0  0
   -0.4137    0.2381    4.4736 H   0  0  0  0  0  0  0  0  0  0  0  0
  5  6  2  0  0  0  0
  5  7  1  0  0  0  0
  2  3  1  0  0  0  0
  2  4  1  0  0  0  0
  2  5  1  0  0  0  0
  1  2  1  0  0  0  0
 20 21  2  0  0  0  0
 20 22  1  0  0  0  0
 17 18  1  0  0  0  0
 17 19  2  0  0  0  0
 14 15  1  0  0  0  0
 14 16  1  0  0  0  0
 14 17  1  0  0  0  0
 11 12  1  0  0  0  0
 11 13  1  0  0  0  0
 11 14  1  0  0  0  0
  9 10  1  0  0  0  0
  9 11  1  0  0  0  0
  9 20  1  0  0  0  0
  7  8  1  0  0  0  0
  7  9  1  0  0  0  0
 24 25  1  0  0  0  0
 24 26  1  0  0  0  0
 24 27  1  0  0  0  0
 22 23  1  0  0  0  0
 22 24  1  0  0  0  0
M  CHG  1  18  -1
M  END
$$$$
default_name
  -OEChem-02102213163D

 27 26  0     1  0  0  0  0  0999 V2000
   -3.2406   -3.5400    1.2326 H   0  0  0  0  0  0  0  0  0  0  0  0
   -3.1436   -2.6190    0.6606 C   0  0  0  0  0  0  0  0  0  0  0  0
   -3.8786   -1.8920    0.9996 H   0  0  0  0  0  0  0  0  0  0  0  0
   -3.2846   -2.8280   -0.3984 H   0  0  0  0  0  0  0  0  0  0  0  0
   -1.7586   -2.0580    0.8686 C   0  0  0  0  0  0  0  0  0  0  0  0
   -0.9666   -2.6340    1.6026 O   0  0  0  0  0  0  0  0  0  0  0  0
   -1.4866   -0.9220    0.2366 N   0  0  0  0  0  0  0  0  0  0  0  0
   -2.2166   -0.4790   -0.2994 H   0  0  0  0  0  0  0  0  0  0  0  0
   -0.1956   -0.2250    0.2596 C   0  0  1  0  0  0  0  0  0  0  0  0
    0.5755   -0.9013   -0.1105 H   0  0  0  0  0  0  0  0  0  0  0  0
   -0.2553    0.9811   -0.6992 C   0  0  0  0  0  0  0  0  0  0  0  0
   -0.8449    1.7636   -0.2188 H   0  0  0  0  0  0  0  0  0  0  0  0
    0.7540    1.3615   -0.8627 H   0  0  0  0  0  0  0  0  0  0  0  0
   -0.8967    0.6520   -2.0577 C   0  0  0  0  0  0  0  0  0  0  0  0
   -1.8153    0.0844   -1.8910 H   0  0  0  0  0  0  0  0  0  0  0  0
   -1.1654    1.5920   -2.5469 H   0  0  0  0  0  0  0  0  0  0  0  0
    0.0211   -0.1575   -2.9858 C   0  0  0  0  0  0  0  0  0  0  0  0
    1.2051   -0.3511   -2.6291 O   0  5  0  0  0  0  0  0  0  0  0  0
   -0.4919   -0.5956   -4.0394 O   0  0  0  0  0  0  0  0  0  0  0  0
    0.1881    0.1678    1.7015 C   0  0  0  0  0  0  0  0  0  0  0  0
    1.3379    0.0002    2.1133 O   0  0  0  0  0  0  0  0  0  0  0  0
   -0.7666    0.7145    2.4656 N   0  0  0  0  0  0  0  0  0  0  0  0
   -1.6971    0.7705    2.0790 H   0  0  0  0  0  0  0  0  0  0  0  0
   -0.5716    1.1232    3.8542 C   0  0  0  0  0  0  0  0  0  0  0  0
    0.3083    1.7643    3.9293 H   0  0  0  0  0  0  0  0  0  0  0  0
   -1.4485    1.6640    4.2131 H   0  0  0  0  0  0  0  0  0  0  0  0
   -0.4137    0.2381    4.4736 H   0  0  0  0  0  0  0  0  0  0  0  0
  5  6  2  0  0  0  0
  5  7  1  0  0  0  0
  2  3  1  0  0  0  0
  2  4  1  0  0  0  0
  2  5  1  0  0  0  0
  1  2  1  0  0  0  0
 20 21  2  0  0  0  0
 20 22  1  0  0  0  0
 17 18  1  0  0  0  0
 17 19  2  0  0  0  0
 14 15  1  0  0  0  0
 14 16  1  0  0  0  0
 14 17  1  0  0  0  0
 11 12  1  0  0  0  0
 11 13  1  0  0  0  0
 11 14  1  0  0  0  0
  9 10  1  0  0  0  0
  9 11  1  0  0  0  0
  9 20  1  0  0  0  0
  7  8  1  0  0  0  0
  7  9  1  0  0  0  0
 24 25  1  0  0  0  0
 24 26  1  0  0  0  0
 24 27  1  0  0  0  0
 22 23  1  0  0  0  0
 22 24  1  0  0  0  0
M  CHG  1  18  -1
M  END
$$$$
default_name
  -OEChem-02102213163D

 27 26  0     1  0  0  0  0  0999 V2000
   -3.2406   -3.5400    1.2326 H   0  0  0  0  0  0  0  0  0  0  0  0
   -3.1436   -2.6190    0.6606 C   0  0  0  0  0  0  0  0  0  0  0  0
   -3.8786   -1.8920    0.9996 H   0  0  0  0  0  0  0  0  0  0  0  0
   -3.2846   -2.8280   -0.3984 H   0  0  0  0  0  0  0  0  0  0  0  0
   -1.7586   -2.0580    0.8686 C   0  0  0  0  0  0  0  0  0  0  0  0
   -0.9666   -2.6340    1.6026 O   0  0  0  0  0  0  0  0  0  0  0  0
   -1.4866   -0.9220    0.2366 N   0  0  0  0  0  0  0  0  0  0  0  0
   -2.2166   -0.4790   -0.2994 H   0  0  0  0  0  0  0  0  0  0  0  0
   -0.1956   -0.2250    0.2596 C   0  0  1  0  0  0  0  0  0  0  0  0
    0.5755   -0.9013   -0.1105 H   0  0  0  0  0  0  0  0  0  0  0  0
   -0.2553    0.9811   -0.6992 C   0  0  0  0  0  0  0  0  0  0  0  0
   -0.8449    1.7636   -0.2188 H   0  0  0  0  0  0  0  0  0  0  0  0
    0.7540    1.3615   -0.8627 H   0  0  0  0  0  0  0  0  0  0  0  0
   -0.8967    0.6520   -2.0577 C   0  0  0  0  0  0  0  0  0  0  0  0
   -1.9281    0.3292   -1.8971 H   0  0  0  0  0  0  0  0  0  0  0  0
   -0.9191    1.5661   -2.6569 H   0  0  0  0  0  0  0  0  0  0  0  0
   -0.1525   -0.4444   -2.8343 C   0  0  0  0  0  0  0  0  0  0  0  0
    0.9380   -0.8579   -2.3802 O   0  5  0  0  0  0  0  0  0  0  0  0
   -0.7074   -0.8730   -3.8705 O   0  0  0  0  0  0  0  0  0  0  0  0
    0.1881    0.1678    1.7015 C   0  0  0  0  0  0  0  0  0  0  0  0
    1.3379    0.0002    2.1133 O   0  0  0  0  0  0  0  0  0  0  0  0
   -0.7666    0.7145    2.4656 N   0  0  0  0  0  0  0  0  0  0  0  0
   -1.6971    0.7705    2.0790 H   0  0  0  0  0  0  0  0  0  0  0  0
   -0.5716    1.1232    3.8542 C   0  0  0  0  0  0  0  0  0  0  0  0
    0.3083    1.7643    3.9293 H   0  0  0  0  0  0  0  0  0  0  0  0
   -1.4485    1.6640    4.2131 H   0  0  0  0  0  0  0  0  0  0  0  0
   -0.4137    0.2381    4.4736 H   0  0  0  0  0  0  0  0  0  0  0  0
  5  6  2  0  0  0  0
  5  7  1  0  0  0  0
  2  3  1  0  0  0  0
  2  4  1  0  0  0  0
  2  5  1  0  0  0  0
  1  2  1  0  0  0  0
 20 21  2  0  0  0  0
 20 22  1  0  0  0  0
 17 18  1  0  0  0  0
 17 19  2  0  0  0  0
 14 15  1  0  0  0  0
 14 16  1  0  0  0  0
 14 17  1  0  0  0  0
 11 12  1  0  0  0  0
 11 13  1  0  0  0  0
 11 14  1  0  0  0  0
  9 10  1  0  0  0  0
  9 11  1  0  0  0  0
  9 20  1  0  0  0  0
  7  8  1  0  0  0  0
  7  9  1  0  0  0  0
 24 25  1  0  0  0  0
 24 26  1  0  0  0  0
 24 27  1  0  0  0  0
 22 23  1  0  0  0  0
 22 24  1  0  0  0  0
M  CHG  1  18  -1
M  END
$$$$
default_name
  -OEChem-02102213163D

 27 26  0     1  0  0  0  0  0999 V2000
   -3.2406   -3.5400    1.2326 H   0  0  0  0  0  0  0  0  0  0  0  0
   -3.1436   -2.6190    0.6606 C   0  0  0  0  0  0  0  0  0  0  0  0
   -3.8786   -1.8920    0.9996 H   0  0  0  0  0  0  0  0  0  0  0  0
   -3.2846   -2.8280   -0.3984 H   0  0  0  0  0  0  0  0  0  0  0  0
   -1.7586   -2.0580    0.8686 C   0  0  0  0  0  0  0  0  0  0  0  0
   -0.9666   -2.6340    1.6026 O   0  0  0  0  0  0  0  0  0  0  0  0
   -1.4866   -0.9220    0.2366 N   0  0  0  0  0  0  0  0  0  0  0  0
   -2.2166   -0.4790   -0.2994 H   0  0  0  0  0  0  0  0  0  0  0  0
   -0.1956   -0.2250    0.2596 C   0  0  1  0  0  0  0  0  0  0  0  0
    0.5755   -0.9013   -0.1105 H   0  0  0  0  0  0  0  0  0  0  0  0
   -0.2553    0.9811   -0.6992 C   0  0  0  0  0  0  0  0  0  0  0  0
   -0.8449    1.7636   -0.2188 H   0  0  0  0  0  0  0  0  0  0  0  0
    0.7540    1.3615   -0.8627 H   0  0  0  0  0  0  0  0  0  0  0  0
   -0.8967    0.6520   -2.0577 C   0  0  0  0  0  0  0  0  0  0  0  0
   -1.9808    0.5907   -1.9356 H   0  0  0  0  0  0  0  0  0  0  0  0
   -0.6810    1.4729   -2.7467 H   0  0  0  0  0  0  0  0  0  0  0  0
   -0.3942   -0.6654   -2.6667 C   0  0  0  0  0  0  0  0  0  0  0  0
    0.5504   -1.2596   -2.0999 O   0  5  0  0  0  0  0  0  0  0  0  0
   -0.9884   -1.0734   -3.6893 O   0  0  0  0  0  0  0  0  0  0  0  0
    0.1881    0.1678    1.7015 C   0  0  0  0  0  0  0  0  0  0  0  0
    1.3379    0.0002    2.1133 O   0  0  0  0  0  0  0  0  0  0  0  0
   -0.7666    0.7145    2.4656 N   0  0  0  0  0  0  0  0  0  0  0  0
   -1.6971    0.7705    2.0790 H   0  0  0  0  0  0  0  0  0  0  0  0
   -0.5716    1.1232    3.8542 C   0  0  0  0  0  0  0  0  0  0  0  0
    0.3083    1.7643    3.9293 H   0  0  0  0  0  0  0  0  0  0  0  0
   -1.4485    1.6640    4.2131 H   0  0  0  0  0  0  0  0  0  0  0  0
   -0.4137    0.2381    4.4736 H   0  0  0  0  0  0  0  0  0  0  0  0
  5  6  2  0  0  0  0
  5  7  1  0  0  0  0
  2  3  1  0  0  0  0
  2  4  1  0  0  0  0
  2  5  1  0  0  0  0
  1  2  1  0  0  0  0
 20 21  2  0  0  0  0
 20 22  1  0  0  0  0
 17 18  1  0  0  0  0
 17 19  2  0  0  0  0
 14 15  1  0  0  0  0
 14 16  1  0  0  0  0
 14 17  1  0  0  0  0
 11 12  1  0  0  0  0
 11 13  1  0  0  0  0
 11 14  1  0  0  0  0
  9 10  1  0  0  0  0
  9 11  1  0  0  0  0
  9 20  1  0  0  0  0
  7  8  1  0  0  0  0
  7  9  1  0  0  0  0
 24 25  1  0  0  0  0
 24 26  1  0  0  0  0
 24 27  1  0  0  0  0
 22 23  1  0  0  0  0
 22 24  1  0  0  0  0
M  CHG  1  18  -1
M  END
$$$$
default_name
  -OEChem-02102213163D

 27 26  0     1  0  0  0  0  0999 V2000
   -3.2406   -3.5400    1.2326 H   0  0  0  0  0  0  0  0  0  0  0  0
   -3.1436   -2.6190    0.6606 C   0  0  0  0  0  0  0  0  0  0  0  0
   -3.8786   -1.8920    0.9996 H   0  0  0  0  0  0  0  0  0  0  0  0
   -3.2846   -2.8280   -0.3984 H   0  0  0  0  0  0  0  0  0  0  0  0
   -1.7586   -2.0580    0.8686 C   0  0  0  0  0  0  0  0  0  0  0  0
   -0.9666   -2.6340    1.6026 O   0  0  0  0  0  0  0  0  0  0  0  0
   -1.4866   -0.9220    0.2366 N   0  0  0  0  0  0  0  0  0  0  0  0
   -2.2166   -0.4790   -0.2994 H   0  0  0  0  0  0  0  0  0  0  0  0
   -0.1956   -0.2250    0.2596 C   0  0  1  0  0  0  0  0  0  0  0  0
    0.5755   -0.9013   -0.1105 H   0  0  0  0  0  0  0  0  0  0  0  0
   -0.2553    0.9811   -0.6992 C   0  0  0  0  0  0  0  0  0  0  0  0
   -0.8449    1.7636   -0.2188 H   0  0  0  0  0  0  0  0  0  0  0  0
    0.7540    1.3615   -0.8627 H   0  0  0  0  0  0  0  0  0  0  0  0
   -0.8967    0.6520   -2.0577 C   0  0  0  0  0  0  0  0  0  0  0  0
   -1.9697    0.8512   -2.0039 H   0  0  0  0  0  0  0  0  0  0  0  0
   -0.4674    1.3188   -2.8103 H   0  0  0  0  0  0  0  0  0  0  0  0
   -0.6875   -0.8056   -2.4942 C   0  0  0  0  0  0  0  0  0  0  0  0
    0.0686   -1.5287   -1.8073 O   0  5  0  0  0  0  0  0  0  0  0  0
   -1.3157   -1.1832   -3.5082 O   0  0  0  0  0  0  0  0  0  0  0  0
    0.1881    0.1678    1.7015 C   0  0  0  0  0  0  0  0  0  0  0  0
    1.3379    0.0002    2.1133 O   0  0  0  0  0  0  0  0  0  0  0  0
   -0.7666    0.7145    2.4656 N   0  0  0  0  0  0  0  0  0  0  0  0
   -1.6971    0.7705    2.0790 H   0  0  0  0  0  0  0  0  0  0  0  0
   -0.5716    1.1232    3.8542 C   0  0  0  0  0  0  0  0  0  0  0  0
    0.3083    1.7643    3.9293 H   0  0  0  0  0  0  0  0  0  0  0  0
   -1.4485    1.6640    4.2131 H   0  0  0  0  0  0  0  0  0  0  0  0
   -0.4137    0.2381    4.4736 H   0  0  0  0  0  0  0  0  0  0  0  0
  5  6  2  0  0  0  0
  5  7  1  0  0  0  0
  2  3  1  0  0  0  0
  2  4  1  0  0  0  0
  2  5  1  0  0  0  0
  1  2  1  0  0  0  0
 20 21  2  0  0  0  0
 20 22  1  0  0  0  0
 17 18  1  0  0  0  0
 17 19  2  0  0  0  0
 14 15  1  0  0  0  0
 14 16  1  0  0  0  0
 14 17  1  0  0  0  0
 11 12  1  0  0  0  0
 11 13  1  0  0  0  0
 11 14  1  0  0  0  0
  9 10  1  0  0  0  0
  9 11  1  0  0  0  0
  9 20  1  0  0  0  0
  7  8  1  0  0  0  0
  7  9  1  0  0  0  0
 24 25  1  0  0  0  0
 24 26  1  0  0  0  0
 24 27  1  0  0  0  0
 22 23  1  0  0  0  0
 22 24  1  0  0  0  0
M  CHG  1  18  -1
M  END
$$$$
default_name
  -OEChem-02102213163D

 27 26  0     1  0  0  0  0  0999 V2000
   -3.2406   -3.5400    1.2326 H   0  0  0  0  0  0  0  0  0  0  0  0
   -3.1436   -2.6190    0.6606 C   0  0  0  0  0  0  0  0  0  0  0  0
   -3.8786   -1.8920    0.9996 H   0  0  0  0  0  0  0  0  0  0  0  0
   -3.2846   -2.8280   -0.3984 H   0  0  0  0  0  0  0  0  0  0  0  0
   -1.7586   -2.0580    0.8686 C   0  0  0  0  0  0  0  0  0  0  0  0
   -0.9666   -2.6340    1.6026 O   0  0  0  0  0  0  0  0  0  0  0  0
   -1.4866   -0.9220    0.2366 N   0  0  0  0  0  0  0  0  0  0  0  0
   -2.2166   -0.4790   -0.2994 H   0  0  0  0  0  0  0  0  0  0  0  0
   -0.1956   -0.2250    0.2596 C   0  0  1  0  0  0  0  0  0  0  0  0
    0.5755   -0.9013   -0.1105 H   0  0  0  0  0  0  0  0  0  0  0  0
   -0.2553    0.9811   -0.6992 C   0  0  0  0  0  0  0  0  0  0  0  0
   -0.8449    1.7636   -0.2188 H   0  0  0  0  0  0  0  0  0  0  0  0
    0.7540    1.3615   -0.8627 H   0  0  0  0  0  0  0  0  0  0  0  0
   -0.8967    0.6520   -2.0577 C   0  0  0  0  0  0  0  0  0  0  0  0
   -1.8956    1.0930   -2.0974 H   0  0  0  0  0  0  0  0  0  0  0  0
   -0.2928    1.1142   -2.8431 H   0  0  0  0  0  0  0  0  0  0  0  0
   -1.0123   -0.8553   -2.3288 C   0  0  0  0  0  0  0  0  0  0  0  0
   -0.4745   -1.6469   -1.5222 O   0  5  0  0  0  0  0  0  0  0  0  0
   -1.6669   -1.1950   -3.3395 O   0  0  0  0  0  0  0  0  0  0  0  0
    0.1881    0.1678    1.7015 C   0  0  0  0  0  0  0  0  0  0  0  0
    1.3379    0.0002    2.1133 O   0  0  0  0  0  0  0  0  0  0  0  0
   -0.7666    0.7145    2.4656 N   0  0  0  0  0  0  0  0  0  0  0  0
   -1.6971    0.7705    2.0790 H   0  0  0  0  0  0  0  0  0  0  0  0
   -0.5716    1.1232    3.8542 C   0  0  0  0  0  0  0  0  0  0  0  0
    0.3083    1.7643    3.9293 H   0  0  0  0  0  0  0  0  0  0  0  0
   -1.4485    1.6640    4.2131 H   0  0  0  0  0  0  0  0  0  0  0  0
   -0.4137    0.2381    4.4736 H   0  0  0  0  0  0  0  0  0  0  0  0
  5  6  2  0  0  0  0
  5  7  1  0  0  0  0
  2  3  1  0  0  0  0
  2  4  1  0  0  0  0
  2  5  1  0  0  0  0
  1  2  1  0  0  0  0
 20 21  2  0  0  0  0
 20 22  1  0  0  0  0
 17 18  1  0  0  0  0
 17 19  2  0  0  0  0
 14 15  1  0  0  0  0
 14 16  1  0  0  0  0
 14 17  1  0  0  0  0
 11 12  1  0  0  0  0
 11 13  1  0  0  0  0
 11 14  1  0  0  0  0
  9 10  1  0  0  0  0
  9 11  1  0  0  0  0
  9 20  1  0  0  0  0
  7  8  1  0  0  0  0
  7  9  1  0  0  0  0
 24 25  1  0  0  0  0
 24 26  1  0  0  0  0
 24 27  1  0  0  0  0
 22 23  1  0  0  0  0
 22 24  1  0  0  0  0
M  CHG  1  18  -1
M  END
$$$$
default_name
  -OEChem-02102213163D

 27 26  0     1  0  0  0  0  0999 V2000
   -3.2406   -3.5400    1.2326 H   0  0  0  0  0  0  0  0  0  0  0  0
   -3.1436   -2.6190    0.6606 C   0  0  0  0  0  0  0  0  0  0  0  0
   -3.8786   -1.8920    0.9996 H   0  0  0  0  0  0  0  0  0  0  0  0
   -3.2846   -2.8280   -0.3984 H   0  0  0  0  0  0  0  0  0  0  0  0
   -1.7586   -2.0580    0.8686 C   0  0  0  0  0  0  0  0  0  0  0  0
   -0.9666   -2.6340    1.6026 O   0  0  0  0  0  0  0  0  0  0  0  0
   -1.4866   -0.9220    0.2366 N   0  0  0  0  0  0  0  0  0  0  0  0
   -2.2166   -0.4790   -0.2994 H   0  0  0  0  0  0  0  0  0  0  0  0
   -0.1956   -0.2250    0.2596 C   0  0  1  0  0  0  0  0  0  0  0  0
    0.5755   -0.9013   -0.1105 H   0  0  0  0  0  0  0  0  0  0  0  0
   -0.2553    0.9811   -0.6992 C   0  0  0  0  0  0  0  0  0  0  0  0
   -0.8449    1.7636   -0.2188 H   0  0  0  0  0  0  0  0  0  0  0  0
    0.7540    1.3615   -0.8627 H   0  0  0  0  0  0  0  0  0  0  0  0
   -0.8967    0.6520   -2.0577 C   0  0  0  0  0  0  0  0  0  0  0  0
   -1.7637    1.2994   -2.2097 H   0  0  0  0  0  0  0  0  0  0  0  0
   -0.1691    0.8731   -2.8431 H   0  0  0  0  0  0  0  0  0  0  0  0
   -1.3467   -0.8112   -2.1817 C   0  0  0  0  0  0  0  0  0  0  0  0
   -1.0419   -1.6062   -1.2642 O   0  5  0  0  0  0  0  0  0  0  0  0
   -2.0182   -1.1077   -3.1948 O   0  0  0  0  0  0  0  0  0  0  0  0
    0.1881    0.1678    1.7015 C   0  0  0  0  0  0  0  0  0  0  0  0
    1.3379    0.0002    2.1133 O   0  0  0  0  0  0  0  0  0  0  0  0
   -0.7666    0.7145    2.4656 N   0  0  0  0  0  0  0  0  0  0  0  0
   -1.6971    0.7705    2.0790 H   0  0  0  0  0  0  0  0  0  0  0  0
   -0.5716    1.1232    3.8542 C   0  0  0  0  0  0  0  0  0  0  0  0
    0.3083    1.7643    3.9293 H   0  0  0  0  0  0  0  0  0  0  0  0
   -1.4485    1.6640    4.2131 H   0  0  0  0  0  0  0  0  0  0  0  0
   -0.4137    0.2381    4.4736 H   0  0  0  0  0  0  0  0  0  0  0  0
  5  6  2  0  0  0  0
  5  7  1  0  0  0  0
  2  3  1  0  0  0  0
  2  4  1  0  0  0  0
  2  5  1  0  0  0  0
  1  2  1  0  0  0  0
 20 21  2  0  0  0  0
 20 22  1  0  0  0  0
 17 18  1  0  0  0  0
 17 19  2  0  0  0  0
 14 15  1  0  0  0  0
 14 16  1  0  0  0  0
 14 17  1  0  0  0  0
 11 12  1  0  0  0  0
 11 13  1  0  0  0  0
 11 14  1  0  0  0  0
  9 10  1  0  0  0  0
  9 11  1  0  0  0  0
  9 20  1  0  0  0  0
  7  8  1  0  0  0  0
  7  9  1  0  0  0  0
 24 25  1  0  0  0  0
 24 26  1  0  0  0  0
 24 27  1  0  0  0  0
 22 23  1  0  0  0  0
 22 24  1  0  0  0  0
M  CHG  1  18  -1
M  END
$$$$
default_name
  -OEChem-02102213163D

 27 26  0     1  0  0  0  0  0999 V2000
   -3.2406   -3.5400    1.2326 H   0  0  0  0  0  0  0  0  0  0  0  0
   -3.1436   -2.6190    0.6606 C   0  0  0  0  0  0  0  0  0  0  0  0
   -3.8786   -1.8920    0.9996 H   0  0  0  0  0  0  0  0  0  0  0  0
   -3.2846   -2.8280   -0.3984 H   0  0  0  0  0  0  0  0  0  0  0  0
   -1.7586   -2.0580    0.8686 C   0  0  0  0  0  0  0  0  0  0  0  0
   -0.9666   -2.6340    1.6026 O   0  0  0  0  0  0  0  0  0  0  0  0
   -1.4866   -0.9220    0.2366 N   0  0  0  0  0  0  0  0  0  0  0  0
   -2.2166   -0.4790   -0.2994 H   0  0  0  0  0  0  0  0  0  0  0  0
   -0.1956   -0.2250    0.2596 C   0  0  1  0  0  0  0  0  0  0  0  0
    0.5755   -0.9013   -0.1105 H   0  0  0  0  0  0  0  0  0  0  0  0
   -0.2553    0.9811   -0.6992 C   0  0  0  0  0  0  0  0  0  0  0  0
   -0.8449    1.7636   -0.2188 H   0  0  0  0  0  0  0  0  0  0  0  0
    0.7540    1.3615   -0.8627 H   0  0  0  0  0  0  0  0  0  0  0  0
   -0.8967    0.6520   -2.0577 C   0  0  0  0  0  0  0  0  0  0  0  0
   -1.5828    1.4566   -2.3332 H   0  0  0  0  0  0  0  0  0  0  0  0
   -0.1047    0.6120   -2.8103 H   0  0  0  0  0  0  0  0  0  0  0  0
   -1.6677   -0.6763   -2.0628 C   0  0  0  0  0  0  0  0  0  0  0  0
   -1.5950   -1.4092   -1.0508 O   0  5  0  0  0  0  0  0  0  0  0  0
   -2.3456   -0.9276   -3.0839 O   0  0  0  0  0  0  0  0  0  0  0  0
    0.1881    0.1678    1.7015 C   0  0  0  0  0  0  0  0  0  0  0  0
    1.3379    0.0002    2.1133 O   0  0  0  0  0  0  0  0  0  0  0  0
   -0.7666    0.7145    2.4656 N   0  0  0  0  0  0  0  0  0  0  0  0
   -1.6971    0.7705    2.0790 H   0  0  0  0  0  0  0  0  0  0  0  0
   -0.5716    1.1232    3.8542 C   0  0  0  0  0  0  0  0  0  0  0  0
    0.3083    1.7643    3.9293 H   0  0  0  0  0  0  0  0  0  0  0  0
   -1.4485    1.6640    4.2131 H   0  0  0  0  0  0  0  0  0  0  0  0
   -0.4137    0.2381    4.4736 H   0  0  0  0  0  0  0  0  0  0  0  0
  5  6  2  0  0  0  0
  5  7  1  0  0  0  0
  2  3  1  0  0  0  0
  2  4  1  0  0  0  0
  2  5  1  0  0  0  0
  1  2  1  0  0  0  0
 20 21  2  0  0  0  0
 20 22  1  0  0  0  0
 17 18  1  0  0  0  0
 17 19  2  0  0  0  0
 14 15  1  0  0  0  0
 14 16  1  0  0  0  0
 14 17  1  0  0  0  0
 11 12  1  0  0  0  0
 11 13  1  0  0  0  0
 11 14  1  0  0  0  0
  9 10  1  0  0  0  0
  9 11  1  0  0  0  0
  9 20  1  0  0  0  0
  7  8  1  0  0  0  0
  7  9  1  0  0  0  0
 24 25  1  0  0  0  0
 24 26  1  0  0  0  0
 24 27  1  0  0  0  0
 22 23  1  0  0  0  0
 22 24  1  0  0  0  0
M  CHG  1  18  -1
M  END
$$$$
default_name
  -OEChem-02102213163D

 27 26  0     1  0  0  0  0  0999 V2000
   -3.2406   -3.5400    1.2326 H   0  0  0  0  0  0  0  0  0  0  0  0
   -3.1436   -2.6190    0.6606 C   0  0  0  0  0  0  0  0  0  0  0  0
   -3.8786   -1.8920    0.9996 H   0  0  0  0  0  0  0  0  0  0  0  0
   -3.2846   -2.8280   -0.3984 H   0  0  0  0  0  0  0  0  0  0  0  0
   -1.7586   -2.0580    0.8686 C   0  0  0  0  0  0  0  0  0  0  0  0
   -0.9666   -2.6340    1.6026 O   0  0  0  0  0  0  0  0  0  0  0  0
   -1.4866   -0.9220    0.2366 N   0  0  0  0  0  0  0  0  0  0  0  0
   -2.2166   -0.4790   -0.2994 H   0  0  0  0  0  0  0  0  0  0  0  0
   -0.1956   -0.2250    0.2596 C   0  0  1  0  0  0  0  0  0  0  0  0
    0.5755   -0.9013   -0.1105 H   0  0  0  0  0  0  0  0  0  0  0  0
   -0.2553    0.9811   -0.6992 C   0  0  0  0  0  0  0  0  0  0  0  0
   -0.8449    1.7636   -0.2188 H   0  0  0  0  0  0  0  0  0  0  0  0
    0.7540    1.3615   -0.8627 H   0  0  0  0  0  0  0  0  0  0  0  0
   -0.8967    0.6520   -2.0577 C   0  0  0  0  0  0  0  0  0  0  0  0
   -1.3653    1.5537   -2.4594 H   0  0  0  0  0  0  0  0  0  0  0  0
   -0.1040    0.3485   -2.7468 H   0  0  0  0  0  0  0  0  0  0  0  0
   -1.9535   -0.4598   -1.9803 C   0  0  0  0  0  0  0  0  0  0  0  0
   -2.0960   -1.0695   -0.8966 O   0  5  0  0  0  0  0  0  0  0  0  0
   -2.6268   -0.6667   -3.0143 O   0  0  0  0  0  0  0  0  0  0  0  0
    0.1881    0.1678    1.7015 C   0  0  0  0  0  0  0  0  0  0  0  0
    1.3379    0.0002    2.1133 O   0  0  0  0  0  0  0  0  0  0  0  0
   -0.7666    0.7145    2.4656 N   0  0  0  0  0  0  0  0  0  0  0  0
   -1.6971    0.7705    2.0790 H   0  0  0  0  0  0  0  0  0  0  0  0
   -0.5716    1.1232    3.8542 C   0  0  0  0  0  0  0  0  0  0  0  0
    0.3083    1.7643    3.9293 H   0  0  0  0  0  0  0  0  0  0  0  0
   -1.4485    1.6640    4.2131 H   0  0  0  0  0  0  0  0  0  0  0  0
   -0.4137    0.2381    4.4736 H   0  0  0  0  0  0  0  0  0  0  0  0
  5  6  2  0  0  0  0
  5  7  1  0  0  0  0
  2  3  1  0  0  0  0
  2  4  1  0  0  0  0
  2  5  1  0  0  0  0
  1  2  1  0  0  0  0
 20 21  2  0  0  0  0
 20 22  1  0  0  0  0
 17 18  1  0  0  0  0
 17 19  2  0  0  0  0
 14 15  1  0  0  0  0
 14 16  1  0  0  0  0
 14 17  1  0  0  0  0
 11 12  1  0  0  0  0
 11 13  1  0  0  0  0
 11 14  1  0  0  0  0
  9 10  1  0  0  0  0
  9 11  1  0  0  0  0
  9 20  1  0  0  0  0
  7  8  1  0  0  0  0
  7  9  1  0  0  0  0
 24 25  1  0  0  0  0
 24 26  1  0  0  0  0
 24 27  1  0  0  0  0
 22 23  1  0  0  0  0
 22 24  1  0  0  0  0
M  CHG  1  18  -1
M  END
$$$$
default_name
  -OEChem-02102213163D

 27 26  0     1  0  0  0  0  0999 V2000
   -3.2406   -3.5400    1.2326 H   0  0  0  0  0  0  0  0  0  0  0  0
   -3.1436   -2.6190    0.6606 C   0  0  0  0  0  0  0  0  0  0  0  0
   -3.8786   -1.8920    0.9996 H   0  0  0  0  0  0  0  0  0  0  0  0
   -3.2846   -2.8280   -0.3984 H   0  0  0  0  0  0  0  0  0  0  0  0
   -1.7586   -2.0580    0.8686 C   0  0  0  0  0  0  0  0  0  0  0  0
   -0.9666   -2.6340    1.6026 O   0  0  0  0  0  0  0  0  0  0  0  0
   -1.4866   -0.9220    0.2366 N   0  0  0  0  0  0  0  0  0  0  0  0
   -2.2166   -0.4790   -0.2994 H   0  0  0  0  0  0  0  0  0  0  0  0
   -0.1956   -0.2250    0.2596 C   0  0  1  0  0  0  0  0  0  0  0  0
    0.5755   -0.9013   -0.1105 H   0  0  0  0  0  0  0  0  0  0  0  0
   -0.2553    0.9811   -0.6992 C   0  0  0  0  0  0  0  0  0  0  0  0
   -0.8449    1.7636   -0.2188 H   0  0  0  0  0  0  0  0  0  0  0  0
    0.7540    1.3615   -0.8627 H   0  0  0  0  0  0  0  0  0  0  0  0
   -0.8967    0.6520   -2.0577 C   0  0  0  0  0  0  0  0  0  0  0  0
   -1.1260    1.5841   -2.5798 H   0  0  0  0  0  0  0  0  0  0  0  0
   -0.1671    0.1008   -2.6569 H   0  0  0  0  0  0  0  0  0  0  0  0
   -2.1846   -0.1764   -1.9399 C   0  0  0  0  0  0  0  0  0  0  0  0
   -2.5108   -0.6102   -0.8121 O   0  5  0  0  0  0  0  0  0  0  0  0
   -2.8427   -0.3429   -2.9908 O   0  0  0  0  0  0  0  0  0  0  0  0
    0.1881    0.1678    1.7015 C   0  0  0  0  0  0  0  0  0  0  0  0
    1.3379    0.0002    2.1133 O   0  0  0  0  0  0  0  0  0  0  0  0
   -0.7666    0.7145    2.4656 N   0  0  0  0  0  0  0  0  0  0  0  0
   -1.6971    0.7705    2.0790 H   0  0  0  0  0  0  0  0  0  0  0  0
   -0.5716    1.1232    3.8542 C   0  0  0  0  0  0  0  0  0  0  0  0
    0.3083    1.7643    3.9293 H   0  0  0  0  0  0  0  0  0  0  0  0
   -1.4485    1.6640    4.2131 H   0  0  0  0  0  0  0  0  0  0  0  0
   -0.4137    0.2381    4.4736 H   0  0  0  0  0  0  0  0  0  0  0  0
  5  6  2  0  0  0  0
  5  7  1  0  0  0  0
  2  3  1  0  0  0  0
  2  4  1  0  0  0  0
  2  5  1  0  0  0  0
  1  2  1  0  0  0  0
 20 21  2  0  0  0  0
 20 22  1  0  0  0  0
 17 18  1  0  0  0  0
 17 19  2  0  0  0  0
 14 15  1  0  0  0  0
 14 16  1  0  0  0  0
 14 17  1  0  0  0  0
 11 12  1  0  0  0  0
 11 13  1  0  0  0  0
 11 14  1  0  0  0  0
  9 10  1  0  0  0  0
  9 11  1  0  0  0  0
  9 20  1  0  0  0  0
  7  8  1  0  0  0  0
  7  9  1  0  0  0  0
 24 25  1  0  0  0  0
 24 26  1  0  0  0  0
 24 27  1  0  0  0  0
 22 23  1  0  0  0  0
 22 24  1  0  0  0  0
M  CHG  1  18  -1
M  END
$$$$
default_name
  -OEChem-02102213163D

 27 26  0     1  0  0  0  0  0999 V2000
   -3.2406   -3.5400    1.2326 H   0  0  0  0  0  0  0  0  0  0  0  0
   -3.1436   -2.6190    0.6606 C   0  0  0  0  0  0  0  0  0  0  0  0
   -3.8786   -1.8920    0.9996 H   0  0  0  0  0  0  0  0  0  0  0  0
   -3.2846   -2.8280   -0.3984 H   0  0  0  0  0  0  0  0  0  0  0  0
   -1.7586   -2.0580    0.8686 C   0  0  0  0  0  0  0  0  0  0  0  0
   -0.9666   -2.6340    1.6026 O   0  0  0  0  0  0  0  0  0  0  0  0
   -1.4866   -0.9220    0.2366 N   0  0  0  0  0  0  0  0  0  0  0  0
   -2.2166   -0.4790   -0.2994 H   0  0  0  0  0  0  0  0  0  0  0  0
   -0.1956   -0.2250    0.2596 C   0  0  1  0  0  0  0  0  0  0  0  0
    0.5755   -0.9013   -0.1105 H   0  0  0  0  0  0  0  0  0  0  0  0
   -0.2553    0.9811   -0.6992 C   0  0  0  0  0  0  0  0  0  0  0  0
   -0.8449    1.7636   -0.2188 H   0  0  0  0  0  0  0  0  0  0  0  0
    0.7540    1.3615   -0.8627 H   0  0  0  0  0  0  0  0  0  0  0  0
   -0.8967    0.6520   -2.0577 C   0  0  0  0  0  0  0  0  0  0  0  0
   -0.8812    1.5459   -2.6860 H   0  0  0  0  0  0  0  0  0  0  0  0
   -0.2897   -0.1144   -2.5470 H   0  0  0  0  0  0  0  0  0  0  0  0
   -2.3453    0.1546   -1.9442 C   0  0  0  0  0  0  0  0  0  0  0  0
   -2.8111   -0.0626   -0.8029 O   0  5  0  0  0  0  0  0  0  0  0  0
   -2.9784    0.0217   -3.0151 O   0  0  0  0  0  0  0  0  0  0  0  0
    0.1881    0.1678    1.7015 C   0  0  0  0  0  0  0  0  0  0  0  0
    1.3379    0.0002    2.1133 O   0  0  0  0  0  0  0  0  0  0  0  0
   -0.7666    0.7145    2.4656 N   0  0  0  0  0  0  0  0  0  0  0  0
   -1.6971    0.7705    2.0790 H   0  0  0  0  0  0  0  0  0  0  0  0
   -0.5716    1.1232    3.8542 C   0  0  0  0  0  0  0  0  0  0  0  0
    0.3083    1.7643    3.9293 H   0  0  0  0  0  0  0  0  0  0  0  0
   -1.4485    1.6640    4.2131 H   0  0  0  0  0  0  0  0  0  0  0  0
   -0.4137    0.2381    4.4736 H   0  0  0  0  0  0  0  0  0  0  0  0
  5  6  2  0  0  0  0
  5  7  1  0  0  0  0
  2  3  1  0  0  0  0
  2  4  1  0  0  0  0
  2  5  1  0  0  0  0
  1  2  1  0  0  0  0
 20 21  2  0  0  0  0
 20 22  1  0  0  0  0
 17 18  1  0  0  0  0
 17 19  2  0  0  0  0
 14 15  1  0  0  0  0
 14 16  1  0  0  0  0
 14 17  1  0  0  0  0
 11 12  1  0  0  0  0
 11 13  1  0  0  0  0
 11 14  1  0  0  0  0
  9 10  1  0  0  0  0
  9 11  1  0  0  0  0
  9 20  1  0  0  0  0
  7  8  1  0  0  0  0
  7  9  1  0  0  0  0
 24 25  1  0  0  0  0
 24 26  1  0  0  0  0
 24 27  1  0  0  0  0
 22 23  1  0  0  0  0
 22 24  1  0  0  0  0
M  CHG  1  18  -1
M  END
$$$$
default_name
  -OEChem-02102213163D

 27 26  0     1  0  0  0  0  0999 V2000
   -3.2406   -3.5400    1.2326 H   0  0  0  0  0  0  0  0  0  0  0  0
   -3.1436   -2.6190    0.6606 C   0  0  0  0  0  0  0  0  0  0  0  0
   -3.8786   -1.8920    0.9996 H   0  0  0  0  0  0  0  0  0  0  0  0
   -3.2846   -2.8280   -0.3984 H   0  0  0  0  0  0  0  0  0  0  0  0
   -1.7586   -2.0580    0.8686 C   0  0  0  0  0  0  0  0  0  0  0  0
   -0.9666   -2.6340    1.6026 O   0  0  0  0  0  0  0  0  0  0  0  0
   -1.4866   -0.9220    0.2366 N   0  0  0  0  0  0  0  0  0  0  0  0
   -2.2166   -0.4790   -0.2994 H   0  0  0  0  0  0  0  0  0  0  0  0
   -0.1956   -0.2250    0.2596 C   0  0  1  0  0  0  0  0  0  0  0  0
    0.5755   -0.9013   -0.1105 H   0  0  0  0  0  0  0  0  0  0  0  0
   -0.2553    0.9811   -0.6992 C   0  0  0  0  0  0  0  0  0  0  0  0
   -0.8449    1.7636   -0.2188 H   0  0  0  0  0  0  0  0  0  0  0  0
    0.7540    1.3615   -0.8627 H   0  0  0  0  0  0  0  0  0  0  0  0
   -0.8967    0.6520   -2.0577 C   0  0  0  0  0  0  0  0  0  0  0  0
   -0.6477    1.4414   -2.7710 H   0  0  0  0  0  0  0  0  0  0  0  0
   -0.4634   -0.2823   -2.4243 H   0  0  0  0  0  0  0  0  0  0  0  0
   -2.4247    0.5105   -1.9930 C   0  0  0  0  0  0  0  0  0  0  0  0
   -2.9765    0.5360   -0.8699 O   0  5  0  0  0  0  0  0  0  0  0  0
   -3.0249    0.4023   -3.0854 O   0  0  0  0  0  0  0  0  0  0  0  0
    0.1881    0.1678    1.7015 C   0  0  0  0  0  0  0  0  0  0  0  0
    1.3379    0.0002    2.1133 O   0  0  0  0  0  0  0  0  0  0  0  0
   -0.7666    0.7145    2.4656 N   0  0  0  0  0  0  0  0  0  0  0  0
   -1.6971    0.7705    2.0790 H   0  0  0  0  0  0  0  0  0  0  0  0
   -0.5716    1.1232    3.8542 C   0  0  0  0  0  0  0  0  0  0  0  0
    0.3083    1.7643    3.9293 H   0  0  0  0  0  0  0  0  0  0  0  0
   -1.4485    1.6640    4.2131 H   0  0  0  0  0  0  0  0  0  0  0  0
   -0.4137    0.2381    4.4736 H   0  0  0  0  0  0  0  0  0  0  0  0
  5  6  2  0  0  0  0
  5  7  1  0  0  0  0
  2  3  1  0  0  0  0
  2  4  1  0  0  0  0
  2  5  1  0  0  0  0
  1  2  1  0  0  0  0
 20 21  2  0  0  0  0
 20 22  1  0  0  0  0
 17 18  1  0  0  0  0
 17 19  2  0  0  0  0
 14 15  1  0  0  0  0
 14 16  1  0  0  0  0
 14 17  1  0  0  0  0
 11 12  1  0  0  0  0
 11 13  1  0  0  0  0
 11 14  1  0  0  0  0
  9 10  1  0  0  0  0
  9 11  1  0  0  0  0
  9 20  1  0  0  0  0
  7  8  1  0  0  0  0
  7  9  1  0  0  0  0
 24 25  1  0  0  0  0
 24 26  1  0  0  0  0
 24 27  1  0  0  0  0
 22 23  1  0  0  0  0
 22 24  1  0  0  0  0
M  CHG  1  18  -1
M  END
$$$$
default_name
  -OEChem-02102213163D

 27 26  0     1  0  0  0  0  0999 V2000
   -3.2406   -3.5400    1.2326 H   0  0  0  0  0  0  0  0  0  0  0  0
   -3.1436   -2.6190    0.6606 C   0  0  0  0  0  0  0  0  0  0  0  0
   -3.8786   -1.8920    0.9996 H   0  0  0  0  0  0  0  0  0  0  0  0
   -3.2846   -2.8280   -0.3984 H   0  0  0  0  0  0  0  0  0  0  0  0
   -1.7586   -2.0580    0.8686 C   0  0  0  0  0  0  0  0  0  0  0  0
   -0.9666   -2.6340    1.6026 O   0  0  0  0  0  0  0  0  0  0  0  0
   -1.4866   -0.9220    0.2366 N   0  0  0  0  0  0  0  0  0  0  0  0
   -2.2166   -0.4790   -0.2994 H   0  0  0  0  0  0  0  0  0  0  0  0
   -0.1956   -0.2250    0.2596 C   0  0  1  0  0  0  0  0  0  0  0  0
    0.5755   -0.9013   -0.1105 H   0  0  0  0  0  0  0  0  0  0  0  0
   -0.2553    0.9811   -0.6992 C   0  0  0  0  0  0  0  0  0  0  0  0
   -0.8449    1.7636   -0.2188 H   0  0  0  0  0  0  0  0  0  0  0  0
    0.7540    1.3615   -0.8627 H   0  0  0  0  0  0  0  0  0  0  0  0
   -0.8967    0.6520   -2.0577 C   0  0  0  0  0  0  0  0  0  0  0  0
   -0.4413    1.2780   -2.8289 H   0  0  0  0  0  0  0  0  0  0  0  0
   -0.6764   -0.3916   -2.2973 H   0  0  0  0  0  0  0  0  0  0  0  0
   -2.4172    0.8672   -2.0829 C   0  0  0  0  0  0  0  0  0  0  0  0
   -2.9957    1.1448   -1.0083 O   0  5  0  0  0  0  0  0  0  0  0  0
   -2.9788    0.7730   -3.1969 O   0  0  0  0  0  0  0  0  0  0  0  0
    0.1881    0.1678    1.7015 C   0  0  0  0  0  0  0  0  0  0  0  0
    1.3379    0.0002    2.1133 O   0  0  0  0  0  0  0  0  0  0  0  0
   -0.7666    0.7145    2.4656 N   0  0  0  0  0  0  0  0  0  0  0  0
   -1.6971    0.7705    2.0790 H   0  0  0  0  0  0  0  0  0  0  0  0
   -0.5716    1.1232    3.8542 C   0  0  0  0  0  0  0  0  0  0  0  0
    0.3083    1.7643    3.9293 H   0  0  0  0  0  0  0  0  0  0  0  0
   -1.4485    1.6640    4.2131 H   0  0  0  0  0  0  0  0  0  0  0  0
   -0.4137    0.2381    4.4736 H   0  0  0  0  0  0  0  0  0  0  0  0
  5  6  2  0  0  0  0
  5  7  1  0  0  0  0
  2  3  1  0  0  0  0
  2  4  1  0  0  0  0
  2  5  1  0  0  0  0
  1  2  1  0  0  0  0
 20 21  2  0  0  0  0
 20 22  1  0  0  0  0
 17 18  1  0  0  0  0
 17 19  2  0  0  0  0
 14 15  1  0  0  0  0
 14 16  1  0  0  0  0
 14 17  1  0  0  0  0
 11 12  1  0  0  0  0
 11 13  1  0  0  0  0
 11 14  1  0  0  0  0
  9 10  1  0  0  0  0
  9 11  1  0  0  0  0
  9 20  1  0  0  0  0
  7  8  1  0  0  0  0
  7  9  1  0  0  0  0
 24 25  1  0  0  0  0
 24 26  1  0  0  0  0
 24 27  1  0  0  0  0
 22 23  1  0  0  0  0
 22 24  1  0  0  0  0
M  CHG  1  18  -1
M  END
$$$$
default_name
  -OEChem-02102213163D

 27 26  0     1  0  0  0  0  0999 V2000
   -3.2406   -3.5400    1.2326 H   0  0  0  0  0  0  0  0  0  0  0  0
   -3.1436   -2.6190    0.6606 C   0  0  0  0  0  0  0  0  0  0  0  0
   -3.8786   -1.8920    0.9996 H   0  0  0  0  0  0  0  0  0  0  0  0
   -3.2846   -2.8280   -0.3984 H   0  0  0  0  0  0  0  0  0  0  0  0
   -1.7586   -2.0580    0.8686 C   0  0  0  0  0  0  0  0  0  0  0  0
   -0.9666   -2.6340    1.6026 O   0  0  0  0  0  0  0  0  0  0  0  0
   -1.4866   -0.9220    0.2366 N   0  0  0  0  0  0  0  0  0  0  0  0
   -2.2166   -0.4790   -0.2994 H   0  0  0  0  0  0  0  0  0  0  0  0
   -0.1956   -0.2250    0.2596 C   0  0  1  0  0  0  0  0  0  0  0  0
    0.5755   -0.9013   -0.1105 H   0  0  0  0  0  0  0  0  0  0  0  0
   -0.2553    0.9811   -0.6992 C   0  0  0  0  0  0  0  0  0  0  0  0
   -0.8449    1.7636   -0.2188 H   0  0  0  0  0  0  0  0  0  0  0  0
    0.7540    1.3615   -0.8627 H   0  0  0  0  0  0  0  0  0  0  0  0
   -0.8967    0.6520   -2.0577 C   0  0  0  0  0  0  0  0  0  0  0  0
   -0.2760    1.0667   -2.8557 H   0  0  0  0  0  0  0  0  0  0  0  0
   -0.9141   -0.4348   -2.1746 H   0  0  0  0  0  0  0  0  0  0  0  0
   -2.3235    1.2004   -2.2078 C   0  0  0  0  0  0  0  0  0  0  0  0
   -2.8674    1.7224   -1.2088 O   0  5  0  0  0  0  0  0  0  0  0  0
   -2.8434    1.1084   -3.3421 O   0  0  0  0  0  0  0  0  0  0  0  0
    0.1881    0.1678    1.7015 C   0  0  0  0  0  0  0  0  0  0  0  0
    1.3379    0.0002    2.1133 O   0  0  0  0  0  0  0  0  0  0  0  0
   -0.7666    0.7145    2.4656 N   0  0  0  0  0  0  0  0  0  0  0  0
   -1.6971    0.7705    2.0790 H   0  0  0  0  0  0  0  0  0  0  0  0
   -0.5716    1.1232    3.8542 C   0  0  0  0  0  0  0  0  0  0  0  0
    0.3083    1.7643    3.9293 H   0  0  0  0  0  0  0  0  0  0  0  0
   -1.4485    1.6640    4.2131 H   0  0  0  0  0  0  0  0  0  0  0  0
   -0.4137    0.2381    4.4736 H   0  0  0  0  0  0  0  0  0  0  0  0
  5  6  2  0  0  0  0
  5  7  1  0  0  0  0
  2  3  1  0  0  0  0
  2  4  1  0  0  0  0
  2  5  1  0  0  0  0
  1  2  1  0  0  0  0
 20 21  2  0  0  0  0
 20 22  1  0  0  0  0
 17 18  1  0  0  0  0
 17 19  2  0  0  0  0
 14 15  1  0  0  0  0
 14 16  1  0  0  0  0
 14 17  1  0  0  0  0
 11 12  1  0  0  0  0
 11 13  1  0  0  0  0
 11 14  1  0  0  0  0
  9 10  1  0  0  0  0
  9 11  1  0  0  0  0
  9 20  1  0  0  0  0
  7  8  1  0  0  0  0
  7  9  1  0  0  0  0
 24 25  1  0  0  0  0
 24 26  1  0  0  0  0
 24 27  1  0  0  0  0
 22 23  1  0  0  0  0
 22 24  1  0  0  0  0
M  CHG  1  18  -1
M  END
$$$$
default_name
  -OEChem-02102213163D

 27 26  0     1  0  0  0  0  0999 V2000
   -3.2406   -3.5400    1.2326 H   0  0  0  0  0  0  0  0  0  0  0  0
   -3.1436   -2.6190    0.6606 C   0  0  0  0  0  0  0  0  0  0  0  0
   -3.8786   -1.8920    0.9996 H   0  0  0  0  0  0  0  0  0  0  0  0
   -3.2846   -2.8280   -0.3984 H   0  0  0  0  0  0  0  0  0  0  0  0
   -1.7586   -2.0580    0.8686 C   0  0  0  0  0  0  0  0  0  0  0  0
   -0.9666   -2.6340    1.6026 O   0  0  0  0  0  0  0  0  0  0  0  0
   -1.4866   -0.9220    0.2366 N   0  0  0  0  0  0  0  0  0  0  0  0
   -2.2166   -0.4790   -0.2994 H   0  0  0  0  0  0  0  0  0  0  0  0
   -0.1956   -0.2250    0.2596 C   0  0  1  0  0  0  0  0  0  0  0  0
    0.5755   -0.9013   -0.1105 H   0  0  0  0  0  0  0  0  0  0  0  0
   -0.2553    0.9811   -0.6992 C   0  0  0  0  0  0  0  0  0  0  0  0
   -0.8449    1.7636   -0.2188 H   0  0  0  0  0  0  0  0  0  0  0  0
    0.7540    1.3615   -0.8627 H   0  0  0  0  0  0  0  0  0  0  0  0
   -0.8967    0.6520   -2.0577 C   0  0  0  0  0  0  0  0  0  0  0  0
   -0.1632    0.8220   -2.8496 H   0  0  0  0  0  0  0  0  0  0  0  0
   -1.1604   -0.4089   -2.0646 H   0  0  0  0  0  0  0  0  0  0  0  0
   -2.1498    1.4872   -2.3593 C   0  0  0  0  0  0  0  0  0  0  0  0
   -2.6003    2.2292   -1.4576 O   0  5  0  0  0  0  0  0  0  0  0  0
   -2.6278    1.3858   -3.5111 O   0  0  0  0  0  0  0  0  0  0  0  0
    0.1881    0.1678    1.7015 C   0  0  0  0  0  0  0  0  0  0  0  0
    1.3379    0.0002    2.1133 O   0  0  0  0  0  0  0  0  0  0  0  0
   -0.7666    0.7145    2.4656 N   0  0  0  0  0  0  0  0  0  0  0  0
   -1.6971    0.7705    2.0790 H   0  0  0  0  0  0  0  0  0  0  0  0
   -0.5716    1.1232    3.8542 C   0  0  0  0  0  0  0  0  0  0  0  0
    0.3083    1.7643    3.9293 H   0  0  0  0  0  0  0  0  0  0  0  0
   -1.4485    1.6640    4.2131 H   0  0  0  0  0  0  0  0  0  0  0  0
   -0.4137    0.2381    4.4736 H   0  0  0  0  0  0  0  0  0  0  0  0
  5  6  2  0  0  0  0
  5  7  1  0  0  0  0
  2  3  1  0  0  0  0
  2  4  1  0  0  0  0
  2  5  1  0  0  0  0
  1  2  1  0  0  0  0
 20 21  2  0  0  0  0
 20 22  1  0  0  0  0
 17 18  1  0  0  0  0
 17 19  2  0  0  0  0
 14 15  1  0  0  0  0
 14 16  1  0  0  0  0
 14 17  1  0  0  0  0
 11 12  1  0  0  0  0
 11 13  1  0  0  0  0
 11 14  1  0  0  0  0
  9 10  1  0  0  0  0
  9 11  1  0  0  0  0
  9 20  1  0  0  0  0
  7  8  1  0  0  0  0
  7  9  1  0  0  0  0
 24 25  1  0  0  0  0
 24 26  1  0  0  0  0
 24 27  1  0  0  0  0
 22 23  1  0  0  0  0
 22 24  1  0  0  0  0
M  CHG  1  18  -1
M  END
$$$$
default_name
  -OEChem-02102213163D

 27 26  0     1  0  0  0  0  0999 V2000
   -3.2406   -3.5400    1.2326 H   0  0  0  0  0  0  0  0  0  0  0  0
   -3.1436   -2.6190    0.6606 C   0  0  0  0  0  0  0  0  0  0  0  0
   -3.8786   -1.8920    0.9996 H   0  0  0  0  0  0  0  0  0  0  0  0
   -3.2846   -2.8280   -0.3984 H   0  0  0  0  0  0  0  0  0  0  0  0
   -1.7586   -2.0580    0.8686 C   0  0  0  0  0  0  0  0  0  0  0  0
   -0.9666   -2.6340    1.6026 O   0  0  0  0  0  0  0  0  0  0  0  0
   -1.4866   -0.9220    0.2366 N   0  0  0  0  0  0  0  0  0  0  0  0
   -2.2166   -0.4790   -0.2994 H   0  0  0  0  0  0  0  0  0  0  0  0
   -0.1956   -0.2250    0.2596 C   0  0  1  0  0  0  0  0  0  0  0  0
    0.5755   -0.9013   -0.1105 H   0  0  0  0  0  0  0  0  0  0  0  0
   -0.2553    0.9811   -0.6992 C   0  0  0  0  0  0  0  0  0  0  0  0
   -0.8449    1.7636   -0.2188 H   0  0  0  0  0  0  0  0  0  0  0  0
    0.7540    1.3615   -0.8627 H   0  0  0  0  0  0  0  0  0  0  0  0
   -0.8967    0.6520   -2.0577 C   0  0  0  0  0  0  0  0  0  0  0  0
   -0.1106    0.5604   -2.8111 H   0  0  0  0  0  0  0  0  0  0  0  0
   -1.3984   -0.3157   -1.9748 H   0  0  0  0  0  0  0  0  0  0  0  0
   -1.9082    1.7083   -2.5269 C   0  0  0  0  0  0  0  0  0  0  0  0
   -2.2127    2.6309   -1.7379 O   0  5  0  0  0  0  0  0  0  0  0  0
   -2.3469    1.5863   -3.6923 O   0  0  0  0  0  0  0  0  0  0  0  0
    0.1881    0.1678    1.7015 C   0  0  0  0  0  0  0  0  0  0  0  0
    1.3379    0.0002    2.1133 O   0  0  0  0  0  0  0  0  0  0  0  0
   -0.7666    0.7145    2.4656 N   0  0  0  0  0  0  0  0  0  0  0  0
   -1.6971    0.7705    2.0790 H   0  0  0  0  0  0  0  0  0  0  0  0
   -0.5716    1.1232    3.8542 C   0  0  0  0  0  0  0  0  0  0  0  0
    0.3083    1.7643    3.9293 H   0  0  0  0  0  0  0  0  0  0  0  0
   -1.4485    1.6640    4.2131 H   0  0  0  0  0  0  0  0  0  0  0  0
   -0.4137    0.2381    4.4736 H   0  0  0  0  0  0  0  0  0  0  0  0
  5  6  2  0  0  0  0
  5  7  1  0  0  0  0
  2  3  1  0  0  0  0
  2  4  1  0  0  0  0
  2  5  1  0  0  0  0
  1  2  1  0  0  0  0
 20 21  2  0  0  0  0
 20 22  1  0  0  0  0
 17 18  1  0  0  0  0
 17 19  2  0  0  0  0
 14 15  1  0  0  0  0
 14 16  1  0  0  0  0
 14 17  1  0  0  0  0
 11 12  1  0  0  0  0
 11 13  1  0  0  0  0
 11 14  1  0  0  0  0
  9 10  1  0  0  0  0
  9 11  1  0  0  0  0
  9 20  1  0  0  0  0
  7  8  1  0  0  0  0
  7  9  1  0  0  0  0
 24 25  1  0  0  0  0
 24 26  1  0  0  0  0
 24 27  1  0  0  0  0
 22 23  1  0  0  0  0
 22 24  1  0  0  0  0
M  CHG  1  18  -1
M  END
$$$$
default_name
  -OEChem-02102213163D

 27 26  0     1  0  0  0  0  0999 V2000
   -3.2406   -3.5400    1.2326 H   0  0  0  0  0  0  0  0  0  0  0  0
   -3.1436   -2.6190    0.6606 C   0  0  0  0  0  0  0  0  0  0  0  0
   -3.8786   -1.8920    0.9996 H   0  0  0  0  0  0  0  0  0  0  0  0
   -3.2846   -2.8280   -0.3984 H   0  0  0  0  0  0  0  0  0  0  0  0
   -1.7586   -2.0580    0.8686 C   0  0  0  0  0  0  0  0  0  0  0  0
   -0.9666   -2.6340    1.6026 O   0  0  0  0  0  0  0  0  0  0  0  0
   -1.4866   -0.9220    0.2366 N   0  0  0  0  0  0  0  0  0  0  0  0
   -2.2166   -0.4790   -0.2994 H   0  0  0  0  0  0  0  0  0  0  0  0
   -0.1956   -0.2250    0.2596 C   0  0  1  0  0  0  0  0  0  0  0  0
    0.5755   -0.9013   -0.1105 H   0  0  0  0  0  0  0  0  0  0  0  0
   -0.2553    0.9811   -0.6992 C   0  0  0  0  0  0  0  0  0  0  0  0
   -0.8449    1.7636   -0.2188 H   0  0  0  0  0  0  0  0  0  0  0  0
    0.7540    1.3615   -0.8627 H   0  0  0  0  0  0  0  0  0  0  0  0
   -0.8967    0.6520   -2.0577 C   0  0  0  0  0  0  0  0  0  0  0  0
   -0.1217    0.2999   -2.7428 H   0  0  0  0  0  0  0  0  0  0  0  0
   -1.6120   -0.1616   -1.9113 H   0  0  0  0  0  0  0  0  0  0  0  0
   -1.6149    1.8485   -2.6994 C   0  0  0  0  0  0  0  0  0  0  0  0
   -1.7309    2.9000   -2.0306 O   0  5  0  0  0  0  0  0  0  0  0  0
   -2.0196    1.6961   -3.8734 O   0  0  0  0  0  0  0  0  0  0  0  0
    0.1881    0.1678    1.7015 C   0  0  0  0  0  0  0  0  0  0  0  0
    1.3379    0.0002    2.1133 O   0  0  0  0  0  0  0  0  0  0  0  0
   -0.7666    0.7145    2.4656 N   0  0  0  0  0  0  0  0  0  0  0  0
   -1.6971    0.7705    2.0790 H   0  0  0  0  0  0  0  0  0  0  0  0
   -0.5716    1.1232    3.8542 C   0  0  0  0  0  0  0  0  0  0  0  0
    0.3083    1.7643    3.9293 H   0  0  0  0  0  0  0  0  0  0  0  0
   -1.4485    1.6640    4.2131 H   0  0  0  0  0  0  0  0  0  0  0  0
   -0.4137    0.2381    4.4736 H   0  0  0  0  0  0  0  0  0  0  0  0
  5  6  2  0  0  0  0
  5  7  1  0  0  0  0
  2  3  1  0  0  0  0
  2  4  1  0  0  0  0
  2  5  1  0  0  0  0
  1  2  1  0  0  0  0
 20 21  2  0  0  0  0
 20 22  1  0  0  0  0
 17 18  1  0  0  0  0
 17 19  2  0  0  0  0
 14 15  1  0  0  0  0
 14 16  1  0  0  0  0
 14 17  1  0  0  0  0
 11 12  1  0  0  0  0
 11 13  1  0  0  0  0
 11 14  1  0  0  0  0
  9 10  1  0  0  0  0
  9 11  1  0  0  0  0
  9 20  1  0  0  0  0
  7  8  1  0  0  0  0
  7  9  1  0  0  0  0
 24 25  1  0  0  0  0
 24 26  1  0  0  0  0
 24 27  1  0  0  0  0
 22 23  1  0  0  0  0
 22 24  1  0  0  0  0
M  CHG  1  18  -1
M  END
$$$$
default_name
  -OEChem-02102213163D

 27 26  0     1  0  0  0  0  0999 V2000
   -3.2406   -3.5400    1.2326 H   0  0  0  0  0  0  0  0  0  0  0  0
   -3.1436   -2.6190    0.6606 C   0  0  0  0  0  0  0  0  0  0  0  0
   -3.8786   -1.8920    0.9996 H   0  0  0  0  0  0  0  0  0  0  0  0
   -3.2846   -2.8280   -0.3984 H   0  0  0  0  0  0  0  0  0  0  0  0
   -1.7586   -2.0580    0.8686 C   0  0  0  0  0  0  0  0  0  0  0  0
   -0.9666   -2.6340    1.6026 O   0  0  0  0  0  0  0  0  0  0  0  0
   -1.4866   -0.9220    0.2366 N   0  0  0  0  0  0  0  0  0  0  0  0
   -2.2166   -0.4790   -0.2994 H   0  0  0  0  0  0  0  0  0  0  0  0
   -0.1956   -0.2250    0.2596 C   0  0  1  0  0  0  0  0  0  0  0  0
    0.5755   -0.9013   -0.1105 H   0  0  0  0  0  0  0  0  0  0  0  0
   -0.2553    0.9811   -0.6992 C   0  0  0  0  0  0  0  0  0  0  0  0
   -0.8449    1.7636   -0.2188 H   0  0  0  0  0  0  0  0  0  0  0  0
    0.7540    1.3615   -0.8627 H   0  0  0  0  0  0  0  0  0  0  0  0
   -0.8967    0.6520   -2.0577 C   0  0  0  0  0  0  0  0  0  0  0  0
   -0.1957    0.0582   -2.6493 H   0  0  0  0  0  0  0  0  0  0  0  0
   -1.7867    0.0430   -1.8784 H   0  0  0  0  0  0  0  0  0  0  0  0
   -1.2900    1.8982   -2.8648 C   0  0  0  0  0  0  0  0  0  0  0  0
   -1.1878    3.0182   -2.3156 O   0  5  0  0  0  0  0  0  0  0  0  0
   -1.6683    1.7078   -4.0420 O   0  0  0  0  0  0  0  0  0  0  0  0
    0.1881    0.1678    1.7015 C   0  0  0  0  0  0  0  0  0  0  0  0
    1.3379    0.0002    2.1133 O   0  0  0  0  0  0  0  0  0  0  0  0
   -0.7666    0.7145    2.4656 N   0  0  0  0  0  0  0  0  0  0  0  0
   -1.6971    0.7705    2.0790 H   0  0  0  0  0  0  0  0  0  0  0  0
   -0.5716    1.1232    3.8542 C   0  0  0  0  0  0  0  0  0  0  0  0
    0.3083    1.7643    3.9293 H   0  0  0  0  0  0  0  0  0  0  0  0
   -1.4485    1.6640    4.2131 H   0  0  0  0  0  0  0  0  0  0  0  0
   -0.4137    0.2381    4.4736 H   0  0  0  0  0  0  0  0  0  0  0  0
  5  6  2  0  0  0  0
  5  7  1  0  0  0  0
  2  3  1  0  0  0  0
  2  4  1  0  0  0  0
  2  5  1  0  0  0  0
  1  2  1  0  0  0  0
 20 21  2  0  0  0  0
 20 22  1  0  0  0  0
 17 18  1  0  0  0  0
 17 19  2  0  0  0  0
 14 15  1  0  0  0  0
 14 16  1  0  0  0  0
 14 17  1  0  0  0  0
 11 12  1  0  0  0  0
 11 13  1  0  0  0  0
 11 14  1  0  0  0  0
  9 10  1  0  0  0  0
  9 11  1  0  0  0  0
  9 20  1  0  0  0  0
  7  8  1  0  0  0  0
  7  9  1  0  0  0  0
 24 25  1  0  0  0  0
 24 26  1  0  0  0  0
 24 27  1  0  0  0  0
 22 23  1  0  0  0  0
 22 24  1  0  0  0  0
M  CHG  1  18  -1
M  END
$$$$
default_name
  -OEChem-02102213163D

 27 26  0     1  0  0  0  0  0999 V2000
   -3.2406   -3.5400    1.2326 H   0  0  0  0  0  0  0  0  0  0  0  0
   -3.1436   -2.6190    0.6606 C   0  0  0  0  0  0  0  0  0  0  0  0
   -3.8786   -1.8920    0.9996 H   0  0  0  0  0  0  0  0  0  0  0  0
   -3.2846   -2.8280   -0.3984 H   0  0  0  0  0  0  0  0  0  0  0  0
   -1.7586   -2.0580    0.8686 C   0  0  0  0  0  0  0  0  0  0  0  0
   -0.9666   -2.6340    1.6026 O   0  0  0  0  0  0  0  0  0  0  0  0
   -1.4866   -0.9220    0.2366 N   0  0  0  0  0  0  0  0  0  0  0  0
   -2.2166   -0.4790   -0.2994 H   0  0  0  0  0  0  0  0  0  0  0  0
   -0.1956   -0.2250    0.2596 C   0  0  1  0  0  0  0  0  0  0  0  0
    0.5755   -0.9013   -0.1105 H   0  0  0  0  0  0  0  0  0  0  0  0
   -0.2553    0.9811   -0.6992 C   0  0  0  0  0  0  0  0  0  0  0  0
   -0.6021    1.8456   -0.1308 H   0  0  0  0  0  0  0  0  0  0  0  0
    0.7473    1.1941   -1.0729 H   0  0  0  0  0  0  0  0  0  0  0  0
   -1.2037    0.7691   -1.8913 C   0  0  0  0  0  0  0  0  0  0  0  0
   -0.8794   -0.1096   -2.4539 H   0  0  0  0  0  0  0  0  0  0  0  0
   -2.2052    0.5691   -1.5015 H   0  0  0  0  0  0  0  0  0  0  0  0
   -1.2624    1.9711   -2.8456 C   0  0  0  0  0  0  0  0  0  0  0  0
   -0.6698    3.0225   -2.5139 O   0  5  0  0  0  0  0  0  0  0  0  0
   -1.8876    1.8069   -3.9168 O   0  0  0  0  0  0  0  0  0  0  0  0
    0.1881    0.1678    1.7015 C   0  0  0  0  0  0  0  0  0  0  0  0
    1.3379    0.0002    2.1133 O   0  0  0  0  0  0  0  0  0  0  0  0
   -0.7666    0.7145    2.4656 N   0  0  0  0  0  0  0  0  0  0  0  0
   -1.6971    0.7705    2.0790 H   0  0  0  0  0  0  0  0  0  0  0  0
   -0.5716    1.1232    3.8542 C   0  0  0  0  0  0  0  0  0  0  0  0
    0.3083    1.7643    3.9293 H   0  0  0  0  0  0  0  0  0  0  0  0
   -1.4485    1.6640    4.2131 H   0  0  0  0  0  0  0  0  0  0  0  0
   -0.4137    0.2381    4.4736 H   0  0  0  0  0  0  0  0  0  0  0  0
  5  6  2  0  0  0  0
  5  7  1  0  0  0  0
  2  3  1  0  0  0  0
  2  4  1  0  0  0  0
  2  5  1  0  0  0  0
  1  2  1  0  0  0  0
 20 21  2  0  0  0  0
 20 22  1  0  0  0  0
 17 18  1  0  0  0  0
 17 19  2  0  0  0  0
 14 15  1  0  0  0  0
 14 16  1  0  0  0  0
 14 17  1  0  0  0  0
 11 12  1  0  0  0  0
 11 13  1  0  0  0  0
 11 14  1  0  0  0  0
  9 10  1  0  0  0  0
  9 11  1  0  0  0  0
  9 20  1  0  0  0  0
  7  8  1  0  0  0  0
  7  9  1  0  0  0  0
 24 25  1  0  0  0  0
 24 26  1  0  0  0  0
 24 27  1  0  0  0  0
 22 23  1  0  0  0  0
 22 24  1  0  0  0  0
M  CHG  1  18  -1
M  END
$$$$
default_name
  -OEChem-02102213163D

 27 26  0     1  0  0  0  0  0999 V2000
   -3.2406   -3.5400    1.2326 H   0  0  0  0  0  0  0  0  0  0  0  0
   -3.1436   -2.6190    0.6606 C   0  0  0  0  0  0  0  0  0  0  0  0
   -3.8786   -1.8920    0.9996 H   0  0  0  0  0  0  0  0  0  0  0  0
   -3.2846   -2.8280   -0.3984 H   0  0  0  0  0  0  0  0  0  0  0  0
   -1.7586   -2.0580    0.8686 C   0  0  0  0  0  0  0  0  0  0  0  0
   -0.9666   -2.6340    1.6026 O   0  0  0  0  0  0  0  0  0  0  0  0
   -1.4866   -0.9220    0.2366 N   0  0  0  0  0  0  0  0  0  0  0  0
   -2.2166   -0.4790   -0.2994 H   0  0  0  0  0  0  0  0  0  0  0  0
   -0.1956   -0.2250    0.2596 C   0  0  1  0  0  0  0  0  0  0  0  0
    0.5755   -0.9013   -0.1105 H   0  0  0  0  0  0  0  0  0  0  0  0
   -0.2553    0.9811   -0.6992 C   0  0  0  0  0  0  0  0  0  0  0  0
   -0.6021    1.8456   -0.1308 H   0  0  0  0  0  0  0  0  0  0  0  0
    0.7473    1.1941   -1.0729 H   0  0  0  0  0  0  0  0  0  0  0  0
   -1.2037    0.7691   -1.8913 C   0  0  0  0  0  0  0  0  0  0  0  0
   -1.0542   -0.2362   -2.2923 H   0  0  0  0  0  0  0  0  0  0  0  0
   -2.2323    0.8374   -1.5276 H   0  0  0  0  0  0  0  0  0  0  0  0
   -0.9980    1.7868   -3.0231 C   0  0  0  0  0  0  0  0  0  0  0  0
   -0.2104    2.7399   -2.8291 O   0  5  0  0  0  0  0  0  0  0  0  0
   -1.6227    1.5768   -4.0866 O   0  0  0  0  0  0  0  0  0  0  0  0
    0.1881    0.1678    1.7015 C   0  0  0  0  0  0  0  0  0  0  0  0
    1.3379    0.0002    2.1133 O   0  0  0  0  0  0  0  0  0  0  0  0
   -0.7666    0.7145    2.4656 N   0  0  0  0  0  0  0  0  0  0  0  0
   -1.6971    0.7705    2.0790 H   0  0  0  0  0  0  0  0  0  0  0  0
   -0.5716    1.1232    3.8542 C   0  0  0  0  0  0  0  0  0  0  0  0
    0.3083    1.7643    3.9293 H   0  0  0  0  0  0  0  0  0  0  0  0
   -1.4485    1.6640    4.2131 H   0  0  0  0  0  0  0  0  0  0  0  0
   -0.4137    0.2381    4.4736 H   0  0  0  0  0  0  0  0  0  0  0  0
  5  6  2  0  0  0  0
  5  7  1  0  0  0  0
  2  3  1  0  0  0  0
  2  4  1  0  0  0  0
  2  5  1  0  0  0  0
  1  2  1  0  0  0  0
 20 21  2  0  0  0  0
 20 22  1  0  0  0  0
 17 18  1  0  0  0  0
 17 19  2  0  0  0  0
 14 15  1  0  0  0  0
 14 16  1  0  0  0  0
 14 17  1  0  0  0  0
 11 12  1  0  0  0  0
 11 13  1  0  0  0  0
 11 14  1  0  0  0  0
  9 10  1  0  0  0  0
  9 11  1  0  0  0  0
  9 20  1  0  0  0  0
  7  8  1  0  0  0  0
  7  9  1  0  0  0  0
 24 25  1  0  0  0  0
 24 26  1  0  0  0  0
 24 27  1  0  0  0  0
 22 23  1  0  0  0  0
 22 24  1  0  0  0  0
M  CHG  1  18  -1
M  END
$$$$
default_name
  -OEChem-02102213163D

 27 26  0     1  0  0  0  0  0999 V2000
   -3.2406   -3.5400    1.2326 H   0  0  0  0  0  0  0  0  0  0  0  0
   -3.1436   -2.6190    0.6606 C   0  0  0  0  0  0  0  0  0  0  0  0
   -3.8786   -1.8920    0.9996 H   0  0  0  0  0  0  0  0  0  0  0  0
   -3.2846   -2.8280   -0.3984 H   0  0  0  0  0  0  0  0  0  0  0  0
   -1.7586   -2.0580    0.8686 C   0  0  0  0  0  0  0  0  0  0  0  0
   -0.9666   -2.6340    1.6026 O   0  0  0  0  0  0  0  0  0  0  0  0
   -1.4866   -0.9220    0.2366 N   0  0  0  0  0  0  0  0  0  0  0  0
   -2.2166   -0.4790   -0.2994 H   0  0  0  0  0  0  0  0  0  0  0  0
   -0.1956   -0.2250    0.2596 C   0  0  1  0  0  0  0  0  0  0  0  0
    0.5755   -0.9013   -0.1105 H   0  0  0  0  0  0  0  0  0  0  0  0
   -0.2553    0.9811   -0.6992 C   0  0  0  0  0  0  0  0  0  0  0  0
   -0.6021    1.8456   -0.1308 H   0  0  0  0  0  0  0  0  0  0  0  0
    0.7473    1.1941   -1.0729 H   0  0  0  0  0  0  0  0  0  0  0  0
   -1.2037    0.7691   -1.8913 C   0  0  0  0  0  0  0  0  0  0  0  0
   -1.2541   -0.2976   -2.1223 H   0  0  0  0  0  0  0  0  0  0  0  0
   -2.2038    1.0979   -1.5967 H   0  0  0  0  0  0  0  0  0  0  0  0
   -0.7733    1.5274   -3.1557 C   0  0  0  0  0  0  0  0  0  0  0  0
    0.1879    2.3246   -3.0721 O   0  5  0  0  0  0  0  0  0  0  0  0
   -1.4069    1.2743   -4.2045 O   0  0  0  0  0  0  0  0  0  0  0  0
    0.1881    0.1678    1.7015 C   0  0  0  0  0  0  0  0  0  0  0  0
    1.3379    0.0002    2.1133 O   0  0  0  0  0  0  0  0  0  0  0  0
   -0.7666    0.7145    2.4656 N   0  0  0  0  0  0  0  0  0  0  0  0
   -1.6971    0.7705    2.0790 H   0  0  0  0  0  0  0  0  0  0  0  0
   -0.5716    1.1232    3.8542 C   0  0  0  0  0  0  0  0  0  0  0  0
    0.3083    1.7643    3.9293 H   0  0  0  0  0  0  0  0  0  0  0  0
   -1.4485    1.6640    4.2131 H   0  0  0  0  0  0  0  0  0  0  0  0
   -0.4137    0.2381    4.4736 H   0  0  0  0  0  0  0  0  0  0  0  0
  5  6  2  0  0  0  0
  5  7  1  0  0  0  0
  2  3  1  0  0  0  0
  2  4  1  0  0  0  0
  2  5  1  0  0  0  0
  1  2  1  0  0  0  0
 20 21  2  0  0  0  0
 20 22  1  0  0  0  0
 17 18  1  0  0  0  0
 17 19  2  0  0  0  0
 14 15  1  0  0  0  0
 14 16  1  0  0  0  0
 14 17  1  0  0  0  0
 11 12  1  0  0  0  0
 11 13  1  0  0  0  0
 11 14  1  0  0  0  0
  9 10  1  0  0  0  0
  9 11  1  0  0  0  0
  9 20  1  0  0  0  0
  7  8  1  0  0  0  0
  7  9  1  0  0  0  0
 24 25  1  0  0  0  0
 24 26  1  0  0  0  0
 24 27  1  0  0  0  0
 22 23  1  0  0  0  0
 22 24  1  0  0  0  0
M  CHG  1  18  -1
M  END
$$$$
default_name
  -OEChem-02102213163D

 27 26  0     1  0  0  0  0  0999 V2000
   -3.2406   -3.5400    1.2326 H   0  0  0  0  0  0  0  0  0  0  0  0
   -3.1436   -2.6190    0.6606 C   0  0  0  0  0  0  0  0  0  0  0  0
   -3.8786   -1.8920    0.9996 H   0  0  0  0  0  0  0  0  0  0  0  0
   -3.2846   -2.8280   -0.3984 H   0  0  0  0  0  0  0  0  0  0  0  0
   -1.7586   -2.0580    0.8686 C   0  0  0  0  0  0  0  0  0  0  0  0
   -0.9666   -2.6340    1.6026 O   0  0  0  0  0  0  0  0  0  0  0  0
   -1.4866   -0.9220    0.2366 N   0  0  0  0  0  0  0  0  0  0  0  0
   -2.2166   -0.4790   -0.2994 H   0  0  0  0  0  0  0  0  0  0  0  0
   -0.1956   -0.2250    0.2596 C   0  0  1  0  0  0  0  0  0  0  0  0
    0.5755   -0.9013   -0.1105 H   0  0  0  0  0  0  0  0  0  0  0  0
   -0.2553    0.9811   -0.6992 C   0  0  0  0  0  0  0  0  0  0  0  0
   -0.6021    1.8456   -0.1308 H   0  0  0  0  0  0  0  0  0  0  0  0
    0.7473    1.1941   -1.0729 H   0  0  0  0  0  0  0  0  0  0  0  0
   -1.2037    0.7691   -1.8913 C   0  0  0  0  0  0  0  0  0  0  0  0
   -1.4657   -0.2897   -1.9555 H   0  0  0  0  0  0  0  0  0  0  0  0
   -2.1215    1.3328   -1.7039 H   0  0  0  0  0  0  0  0  0  0  0  0
   -0.6036    1.2105   -3.2344 C   0  0  0  0  0  0  0  0  0  0  0  0
    0.4979    1.8047   -3.2263 O   0  5  0  0  0  0  0  0  0  0  0  0
   -1.2549    0.9200   -4.2624 O   0  0  0  0  0  0  0  0  0  0  0  0
    0.1881    0.1678    1.7015 C   0  0  0  0  0  0  0  0  0  0  0  0
    1.3379    0.0002    2.1133 O   0  0  0  0  0  0  0  0  0  0  0  0
   -0.7666    0.7145    2.4656 N   0  0  0  0  0  0  0  0  0  0  0  0
   -1.6971    0.7705    2.0790 H   0  0  0  0  0  0  0  0  0  0  0  0
   -0.5716    1.1232    3.8542 C   0  0  0  0  0  0  0  0  0  0  0  0
    0.3083    1.7643    3.9293 H   0  0  0  0  0  0  0  0  0  0  0  0
   -1.4485    1.6640    4.2131 H   0  0  0  0  0  0  0  0  0  0  0  0
   -0.4137    0.2381    4.4736 H   0  0  0  0  0  0  0  0  0  0  0  0
  5  6  2  0  0  0  0
  5  7  1  0  0  0  0
  2  3  1  0  0  0  0
  2  4  1  0  0  0  0
  2  5  1  0  0  0  0
  1  2  1  0  0  0  0
 20 21  2  0  0  0  0
 20 22  1  0  0  0  0
 17 18  1  0  0  0  0
 17 19  2  0  0  0  0
 14 15  1  0  0  0  0
 14 16  1  0  0  0  0
 14 17  1  0  0  0  0
 11 12  1  0  0  0  0
 11 13  1  0  0  0  0
 11 14  1  0  0  0  0
  9 10  1  0  0  0  0
  9 11  1  0  0  0  0
  9 20  1  0  0  0  0
  7  8  1  0  0  0  0
  7  9  1  0  0  0  0
 24 25  1  0  0  0  0
 24 26  1  0  0  0  0
 24 27  1  0  0  0  0
 22 23  1  0  0  0  0
 22 24  1  0  0  0  0
M  CHG  1  18  -1
M  END
$$$$
default_name
  -OEChem-02102213163D

 27 26  0     1  0  0  0  0  0999 V2000
   -3.2406   -3.5400    1.2326 H   0  0  0  0  0  0  0  0  0  0  0  0
   -3.1436   -2.6190    0.6606 C   0  0  0  0  0  0  0  0  0  0  0  0
   -3.8786   -1.8920    0.9996 H   0  0  0  0  0  0  0  0  0  0  0  0
   -3.2846   -2.8280   -0.3984 H   0  0  0  0  0  0  0  0  0  0  0  0
   -1.7586   -2.0580    0.8686 C   0  0  0  0  0  0  0  0  0  0  0  0
   -0.9666   -2.6340    1.6026 O   0  0  0  0  0  0  0  0  0  0  0  0
   -1.4866   -0.9220    0.2366 N   0  0  0  0  0  0  0  0  0  0  0  0
   -2.2166   -0.4790   -0.2994 H   0  0  0  0  0  0  0  0  0  0  0  0
   -0.1956   -0.2250    0.2596 C   0  0  1  0  0  0  0  0  0  0  0  0
    0.5755   -0.9013   -0.1105 H   0  0  0  0  0  0  0  0  0  0  0  0
   -0.2553    0.9811   -0.6992 C   0  0  0  0  0  0  0  0  0  0  0  0
   -0.6021    1.8456   -0.1308 H   0  0  0  0  0  0  0  0  0  0  0  0
    0.7473    1.1941   -1.0729 H   0  0  0  0  0  0  0  0  0  0  0  0
   -1.2037    0.7691   -1.8913 C   0  0  0  0  0  0  0  0  0  0  0  0
   -1.6744   -0.2130   -1.8031 H   0  0  0  0  0  0  0  0  0  0  0  0
   -1.9910    1.5260   -1.8420 H   0  0  0  0  0  0  0  0  0  0  0  0
   -0.5004    0.8579   -3.2538 C   0  0  0  0  0  0  0  0  0  0  0  0
    0.6986    1.2158   -3.2813 O   0  5  0  0  0  0  0  0  0  0  0  0
   -1.1772    0.5381   -4.2563 O   0  0  0  0  0  0  0  0  0  0  0  0
    0.1881    0.1678    1.7015 C   0  0  0  0  0  0  0  0  0  0  0  0
    1.3379    0.0002    2.1133 O   0  0  0  0  0  0  0  0  0  0  0  0
   -0.7666    0.7145    2.4656 N   0  0  0  0  0  0  0  0  0  0  0  0
   -1.6971    0.7705    2.0790 H   0  0  0  0  0  0  0  0  0  0  0  0
   -0.5716    1.1232    3.8542 C   0  0  0  0  0  0  0  0  0  0  0  0
    0.3083    1.7643    3.9293 H   0  0  0  0  0  0  0  0  0  0  0  0
   -1.4485    1.6640    4.2131 H   0  0  0  0  0  0  0  0  0  0  0  0
   -0.4137    0.2381    4.4736 H   0  0  0  0  0  0  0  0  0  0  0  0
  5  6  2  0  0  0  0
  5  7  1  0  0  0  0
  2  3  1  0  0  0  0
  2  4  1  0  0  0  0
  2  5  1  0  0  0  0
  1  2  1  0  0  0  0
 20 21  2  0  0  0  0
 20 22  1  0  0  0  0
 17 18  1  0  0  0  0
 17 19  2  0  0  0  0
 14 15  1  0  0  0  0
 14 16  1  0  0  0  0
 14 17  1  0  0  0  0
 11 12  1  0  0  0  0
 11 13  1  0  0  0  0
 11 14  1  0  0  0  0
  9 10  1  0  0  0  0
  9 11  1  0  0  0  0
  9 20  1  0  0  0  0
  7  8  1  0  0  0  0
  7  9  1  0  0  0  0
 24 25  1  0  0  0  0
 24 26  1  0  0  0  0
 24 27  1  0  0  0  0
 22 23  1  0  0  0  0
 22 24  1  0  0  0  0
M  CHG  1  18  -1
M  END
$$$$
default_name
  -OEChem-02102213163D

 27 26  0     1  0  0  0  0  0999 V2000
   -3.2406   -3.5400    1.2326 H   0  0  0  0  0  0  0  0  0  0  0  0
   -3.1436   -2.6190    0.6606 C   0  0  0  0  0  0  0  0  0  0  0  0
   -3.8786   -1.8920    0.9996 H   0  0  0  0  0  0  0  0  0  0  0  0
   -3.2846   -2.8280   -0.3984 H   0  0  0  0  0  0  0  0  0  0  0  0
   -1.7586   -2.0580    0.8686 C   0  0  0  0  0  0  0  0  0  0  0  0
   -0.9666   -2.6340    1.6026 O   0  0  0  0  0  0  0  0  0  0  0  0
   -1.4866   -0.9220    0.2366 N   0  0  0  0  0  0  0  0  0  0  0  0
   -2.2166   -0.4790   -0.2994 H   0  0  0  0  0  0  0  0  0  0  0  0
   -0.1956   -0.2250    0.2596 C   0  0  1  0  0  0  0  0  0  0  0  0
    0.5755   -0.9013   -0.1105 H   0  0  0  0  0  0  0  0  0  0  0  0
   -0.2553    0.9811   -0.6992 C   0  0  0  0  0  0  0  0  0  0  0  0
   -0.6021    1.8456   -0.1308 H   0  0  0  0  0  0  0  0  0  0  0  0
    0.7473    1.1941   -1.0729 H   0  0  0  0  0  0  0  0  0  0  0  0
   -1.2037    0.7691   -1.8913 C   0  0  0  0  0  0  0  0  0  0  0  0
   -1.8660   -0.0727   -1.6756 H   0  0  0  0  0  0  0  0  0  0  0  0
   -1.8213    1.6644   -2.0017 H   0  0  0  0  0  0  0  0  0  0  0  0
   -0.4708    0.4935   -3.2126 C   0  0  0  0  0  0  0  0  0  0  0  0
    0.7763    0.5978   -3.2332 O   0  5  0  0  0  0  0  0  0  0  0  0
   -1.1789    0.1545   -4.1867 O   0  0  0  0  0  0  0  0  0  0  0  0
    0.1881    0.1678    1.7015 C   0  0  0  0  0  0  0  0  0  0  0  0
    1.3379    0.0002    2.1133 O   0  0  0  0  0  0  0  0  0  0  0  0
   -0.7666    0.7145    2.4656 N   0  0  0  0  0  0  0  0  0  0  0  0
   -1.6971    0.7705    2.0790 H   0  0  0  0  0  0  0  0  0  0  0  0
   -0.5716    1.1232    3.8542 C   0  0  0  0  0  0  0  0  0  0  0  0
    0.3083    1.7643    3.9293 H   0  0  0  0  0  0  0  0  0  0  0  0
   -1.4485    1.6640    4.2131 H   0  0  0  0  0  0  0  0  0  0  0  0
   -0.4137    0.2381    4.4736 H   0  0  0  0  0  0  0  0  0  0  0  0
  5  6  2  0  0  0  0
  5  7  1  0  0  0  0
  2  3  1  0  0  0  0
  2  4  1  0  0  0  0
  2  5  1  0  0  0  0
  1  2  1  0  0  0  0
 20 21  2  0  0  0  0
 20 22  1  0  0  0  0
 17 18  1  0  0  0  0
 17 19  2  0  0  0  0
 14 15  1  0  0  0  0
 14 16  1  0  0  0  0
 14 17  1  0  0  0  0
 11 12  1  0  0  0  0
 11 13  1  0  0  0  0
 11 14  1  0  0  0  0
  9 10  1  0  0  0  0
  9 11  1  0  0  0  0
  9 20  1  0  0  0  0
  7  8  1  0  0  0  0
  7  9  1  0  0  0  0
 24 25  1  0  0  0  0
 24 26  1  0  0  0  0
 24 27  1  0  0  0  0
 22 23  1  0  0  0  0
 22 24  1  0  0  0  0
M  CHG  1  18  -1
M  END
$$$$
default_name
  -OEChem-02102213163D

 27 26  0     1  0  0  0  0  0999 V2000
   -3.2406   -3.5400    1.2326 H   0  0  0  0  0  0  0  0  0  0  0  0
   -3.1436   -2.6190    0.6606 C   0  0  0  0  0  0  0  0  0  0  0  0
   -3.8786   -1.8920    0.9996 H   0  0  0  0  0  0  0  0  0  0  0  0
   -3.2846   -2.8280   -0.3984 H   0  0  0  0  0  0  0  0  0  0  0  0
   -1.7586   -2.0580    0.8686 C   0  0  0  0  0  0  0  0  0  0  0  0
   -0.9666   -2.6340    1.6026 O   0  0  0  0  0  0  0  0  0  0  0  0
   -1.4866   -0.9220    0.2366 N   0  0  0  0  0  0  0  0  0  0  0  0
   -2.2166   -0.4790   -0.2994 H   0  0  0  0  0  0  0  0  0  0  0  0
   -0.1956   -0.2250    0.2596 C   0  0  1  0  0  0  0  0  0  0  0  0
    0.5755   -0.9013   -0.1105 H   0  0  0  0  0  0  0  0  0  0  0  0
   -0.2553    0.9811   -0.6992 C   0  0  0  0  0  0  0  0  0  0  0  0
   -0.6021    1.8456   -0.1308 H   0  0  0  0  0  0  0  0  0  0  0  0
    0.7473    1.1941   -1.0729 H   0  0  0  0  0  0  0  0  0  0  0  0
   -1.2037    0.7691   -1.8913 C   0  0  0  0  0  0  0  0  0  0  0  0
   -2.0275    0.1216   -1.5816 H   0  0  0  0  0  0  0  0  0  0  0  0
   -1.6240    1.7386   -2.1719 H   0  0  0  0  0  0  0  0  0  0  0  0
   -0.5167    0.1421   -3.1135 C   0  0  0  0  0  0  0  0  0  0  0  0
    0.7256   -0.0069   -3.0853 O   0  5  0  0  0  0  0  0  0  0  0  0
   -1.2600   -0.2045   -4.0584 O   0  0  0  0  0  0  0  0  0  0  0  0
    0.1881    0.1678    1.7015 C   0  0  0  0  0  0  0  0  0  0  0  0
    1.3379    0.0002    2.1133 O   0  0  0  0  0  0  0  0  0  0  0  0
   -0.7666    0.7145    2.4656 N   0  0  0  0  0  0  0  0  0  0  0  0
   -1.6971    0.7705    2.0790 H   0  0  0  0  0  0  0  0  0  0  0  0
   -0.5716    1.1232    3.8542 C   0  0  0  0  0  0  0  0  0  0  0  0
    0.3083    1.7643    3.9293 H   0  0  0  0  0  0  0  0  0  0  0  0
   -1.4485    1.6640    4.2131 H   0  0  0  0  0  0  0  0  0  0  0  0
   -0.4137    0.2381    4.4736 H   0  0  0  0  0  0  0  0  0  0  0  0
  5  6  2  0  0  0  0
  5  7  1  0  0  0  0
  2  3  1  0  0  0  0
  2  4  1  0  0  0  0
  2  5  1  0  0  0  0
  1  2  1  0  0  0  0
 20 21  2  0  0  0  0
 20 22  1  0  0  0  0
 17 18  1  0  0  0  0
 17 19  2  0  0  0  0
 14 15  1  0  0  0  0
 14 16  1  0  0  0  0
 14 17  1  0  0  0  0
 11 12  1  0  0  0  0
 11 13  1  0  0  0  0
 11 14  1  0  0  0  0
  9 10  1  0  0  0  0
  9 11  1  0  0  0  0
  9 20  1  0  0  0  0
  7  8  1  0  0  0  0
  7  9  1  0  0  0  0
 24 25  1  0  0  0  0
 24 26  1  0  0  0  0
 24 27  1  0  0  0  0
 22 23  1  0  0  0  0
 22 24  1  0  0  0  0
M  CHG  1  18  -1
M  END
$$$$
default_name
  -OEChem-02102213163D

 27 26  0     1  0  0  0  0  0999 V2000
   -3.2406   -3.5400    1.2326 H   0  0  0  0  0  0  0  0  0  0  0  0
   -3.1436   -2.6190    0.6606 C   0  0  0  0  0  0  0  0  0  0  0  0
   -3.8786   -1.8920    0.9996 H   0  0  0  0  0  0  0  0  0  0  0  0
   -3.2846   -2.8280   -0.3984 H   0  0  0  0  0  0  0  0  0  0  0  0
   -1.7586   -2.0580    0.8686 C   0  0  0  0  0  0  0  0  0  0  0  0
   -0.9666   -2.6340    1.6026 O   0  0  0  0  0  0  0  0  0  0  0  0
   -1.4866   -0.9220    0.2366 N   0  0  0  0  0  0  0  0  0  0  0  0
   -2.2166   -0.4790   -0.2994 H   0  0  0  0  0  0  0  0  0  0  0  0
   -0.1956   -0.2250    0.2596 C   0  0  1  0  0  0  0  0  0  0  0  0
    0.5755   -0.9013   -0.1105 H   0  0  0  0  0  0  0  0  0  0  0  0
   -0.2553    0.9811   -0.6992 C   0  0  0  0  0  0  0  0  0  0  0  0
   -0.6021    1.8456   -0.1308 H   0  0  0  0  0  0  0  0  0  0  0  0
    0.7473    1.1941   -1.0729 H   0  0  0  0  0  0  0  0  0  0  0  0
   -1.2037    0.7691   -1.8913 C   0  0  0  0  0  0  0  0  0  0  0  0
   -2.1479    0.3567   -1.5277 H   0  0  0  0  0  0  0  0  0  0  0  0
   -1.4124    1.7434   -2.3411 H   0  0  0  0  0  0  0  0  0  0  0  0
   -0.6352   -0.1723   -2.9634 C   0  0  0  0  0  0  0  0  0  0  0  0
    0.5501   -0.5574   -2.8478 O   0  5  0  0  0  0  0  0  0  0  0  0
   -1.4149   -0.5146   -3.8800 O   0  0  0  0  0  0  0  0  0  0  0  0
    0.1881    0.1678    1.7015 C   0  0  0  0  0  0  0  0  0  0  0  0
    1.3379    0.0002    2.1133 O   0  0  0  0  0  0  0  0  0  0  0  0
   -0.7666    0.7145    2.4656 N   0  0  0  0  0  0  0  0  0  0  0  0
   -1.6971    0.7705    2.0790 H   0  0  0  0  0  0  0  0  0  0  0  0
   -0.5716    1.1232    3.8542 C   0  0  0  0  0  0  0  0  0  0  0  0
    0.3083    1.7643    3.9293 H   0  0  0  0  0  0  0  0  0  0  0  0
   -1.4485    1.6640    4.2131 H   0  0  0  0  0  0  0  0  0  0  0  0
   -0.4137    0.2381    4.4736 H   0  0  0  0  0  0  0  0  0  0  0  0
  5  6  2  0  0  0  0
  5  7  1  0  0  0  0
  2  3  1  0  0  0  0
  2  4  1  0  0  0  0
  2  5  1  0  0  0  0
  1  2  1  0  0  0  0
 20 21  2  0  0  0  0
 20 22  1  0  0  0  0
 17 18  1  0  0  0  0
 17 19  2  0  0  0  0
 14 15  1  0  0  0  0
 14 16  1  0  0  0  0
 14 17  1  0  0  0  0
 11 12  1  0  0  0  0
 11 13  1  0  0  0  0
 11 14  1  0  0  0  0
  9 10  1  0  0  0  0
  9 11  1  0  0  0  0
  9 20  1  0  0  0  0
  7  8  1  0  0  0  0
  7  9  1  0  0  0  0
 24 25  1  0  0  0  0
 24 26  1  0  0  0  0
 24 27  1  0  0  0  0
 22 23  1  0  0  0  0
 22 24  1  0  0  0  0
M  CHG  1  18  -1
M  END
$$$$
default_name
  -OEChem-02102213163D

 27 26  0     1  0  0  0  0  0999 V2000
   -3.2406   -3.5400    1.2326 H   0  0  0  0  0  0  0  0  0  0  0  0
   -3.1436   -2.6190    0.6606 C   0  0  0  0  0  0  0  0  0  0  0  0
   -3.8786   -1.8920    0.9996 H   0  0  0  0  0  0  0  0  0  0  0  0
   -3.2846   -2.8280   -0.3984 H   0  0  0  0  0  0  0  0  0  0  0  0
   -1.7586   -2.0580    0.8686 C   0  0  0  0  0  0  0  0  0  0  0  0
   -0.9666   -2.6340    1.6026 O   0  0  0  0  0  0  0  0  0  0  0  0
   -1.4866   -0.9220    0.2366 N   0  0  0  0  0  0  0  0  0  0  0  0
   -2.2166   -0.4790   -0.2994 H   0  0  0  0  0  0  0  0  0  0  0  0
   -0.1956   -0.2250    0.2596 C   0  0  1  0  0  0  0  0  0  0  0  0
    0.5755   -0.9013   -0.1105 H   0  0  0  0  0  0  0  0  0  0  0  0
   -0.2553    0.9811   -0.6992 C   0  0  0  0  0  0  0  0  0  0  0  0
   -0.6021    1.8456   -0.1308 H   0  0  0  0  0  0  0  0  0  0  0  0
    0.7473    1.1941   -1.0729 H   0  0  0  0  0  0  0  0  0  0  0  0
   -1.2037    0.7691   -1.8913 C   0  0  0  0  0  0  0  0  0  0  0  0
   -2.2190    0.6166   -1.5174 H   0  0  0  0  0  0  0  0  0  0  0  0
   -1.2009    1.6787   -2.4977 H   0  0  0  0  0  0  0  0  0  0  0  0
   -0.8180   -0.4282   -2.7725 C   0  0  0  0  0  0  0  0  0  0  0  0
    0.2617   -1.0159   -2.5368 O   0  5  0  0  0  0  0  0  0  0  0  0
   -1.6332   -0.7545   -3.6637 O   0  0  0  0  0  0  0  0  0  0  0  0
    0.1881    0.1678    1.7015 C   0  0  0  0  0  0  0  0  0  0  0  0
    1.3379    0.0002    2.1133 O   0  0  0  0  0  0  0  0  0  0  0  0
   -0.7666    0.7145    2.4656 N   0  0  0  0  0  0  0  0  0  0  0  0
   -1.6971    0.7705    2.0790 H   0  0  0  0  0  0  0  0  0  0  0  0
   -0.5716    1.1232    3.8542 C   0  0  0  0  0  0  0  0  0  0  0  0
    0.3083    1.7643    3.9293 H   0  0  0  0  0  0  0  0  0  0  0  0
   -1.4485    1.6640    4.2131 H   0  0  0  0  0  0  0  0  0  0  0  0
   -0.4137    0.2381    4.4736 H   0  0  0  0  0  0  0  0  0  0  0  0
  5  6  2  0  0  0  0
  5  7  1  0  0  0  0
  2  3  1  0  0  0  0
  2  4  1  0  0  0  0
  2  5  1  0  0  0  0
  1  2  1  0  0  0  0
 20 21  2  0  0  0  0
 20 22  1  0  0  0  0
 17 18  1  0  0  0  0
 17 19  2  0  0  0  0
 14 15  1  0  0  0  0
 14 16  1  0  0  0  0
 14 17  1  0  0  0  0
 11 12  1  0  0  0  0
 11 13  1  0  0  0  0
 11 14  1  0  0  0  0
  9 10  1  0  0  0  0
  9 11  1  0  0  0  0
  9 20  1  0  0  0  0
  7  8  1  0  0  0  0
  7  9  1  0  0  0  0
 24 25  1  0  0  0  0
 24 26  1  0  0  0  0
 24 27  1  0  0  0  0
 22 23  1  0  0  0  0
 22 24  1  0  0  0  0
M  CHG  1  18  -1
M  END
$$$$
default_name
  -OEChem-02102213163D

 27 26  0     1  0  0  0  0  0999 V2000
   -3.2406   -3.5400    1.2326 H   0  0  0  0  0  0  0  0  0  0  0  0
   -3.1436   -2.6190    0.6606 C   0  0  0  0  0  0  0  0  0  0  0  0
   -3.8786   -1.8920    0.9996 H   0  0  0  0  0  0  0  0  0  0  0  0
   -3.2846   -2.8280   -0.3984 H   0  0  0  0  0  0  0  0  0  0  0  0
   -1.7586   -2.0580    0.8686 C   0  0  0  0  0  0  0  0  0  0  0  0
   -0.9666   -2.6340    1.6026 O   0  0  0  0  0  0  0  0  0  0  0  0
   -1.4866   -0.9220    0.2366 N   0  0  0  0  0  0  0  0  0  0  0  0
   -2.2166   -0.4790   -0.2994 H   0  0  0  0  0  0  0  0  0  0  0  0
   -0.1956   -0.2250    0.2596 C   0  0  1  0  0  0  0  0  0  0  0  0
    0.5755   -0.9013   -0.1105 H   0  0  0  0  0  0  0  0  0  0  0  0
   -0.2553    0.9811   -0.6992 C   0  0  0  0  0  0  0  0  0  0  0  0
   -0.6021    1.8456   -0.1308 H   0  0  0  0  0  0  0  0  0  0  0  0
    0.7473    1.1941   -1.0729 H   0  0  0  0  0  0  0  0  0  0  0  0
   -1.2037    0.7691   -1.8913 C   0  0  0  0  0  0  0  0  0  0  0  0
   -2.2358    0.8834   -1.5514 H   0  0  0  0  0  0  0  0  0  0  0  0
   -1.0041    1.5488   -2.6312 H   0  0  0  0  0  0  0  0  0  0  0  0
   -1.0527   -0.6083   -2.5537 C   0  0  0  0  0  0  0  0  0  0  0  0
   -0.1200   -1.3513   -2.1735 O   0  5  0  0  0  0  0  0  0  0  0  0
   -1.8998   -0.9080   -3.4243 O   0  0  0  0  0  0  0  0  0  0  0  0
    0.1881    0.1678    1.7015 C   0  0  0  0  0  0  0  0  0  0  0  0
    1.3379    0.0002    2.1133 O   0  0  0  0  0  0  0  0  0  0  0  0
   -0.7666    0.7145    2.4656 N   0  0  0  0  0  0  0  0  0  0  0  0
   -1.6971    0.7705    2.0790 H   0  0  0  0  0  0  0  0  0  0  0  0
   -0.5716    1.1232    3.8542 C   0  0  0  0  0  0  0  0  0  0  0  0
    0.3083    1.7643    3.9293 H   0  0  0  0  0  0  0  0  0  0  0  0
   -1.4485    1.6640    4.2131 H   0  0  0  0  0  0  0  0  0  0  0  0
   -0.4137    0.2381    4.4736 H   0  0  0  0  0  0  0  0  0  0  0  0
  5  6  2  0  0  0  0
  5  7  1  0  0  0  0
  2  3  1  0  0  0  0
  2  4  1  0  0  0  0
  2  5  1  0  0  0  0
  1  2  1  0  0  0  0
 20 21  2  0  0  0  0
 20 22  1  0  0  0  0
 17 18  1  0  0  0  0
 17 19  2  0  0  0  0
 14 15  1  0  0  0  0
 14 16  1  0  0  0  0
 14 17  1  0  0  0  0
 11 12  1  0  0  0  0
 11 13  1  0  0  0  0
 11 14  1  0  0  0  0
  9 10  1  0  0  0  0
  9 11  1  0  0  0  0
  9 20  1  0  0  0  0
  7  8  1  0  0  0  0
  7  9  1  0  0  0  0
 24 25  1  0  0  0  0
 24 26  1  0  0  0  0
 24 27  1  0  0  0  0
 22 23  1  0  0  0  0
 22 24  1  0  0  0  0
M  CHG  1  18  -1
M  END
$$$$
default_name
  -OEChem-02102213163D

 27 26  0     1  0  0  0  0  0999 V2000
   -3.2406   -3.5400    1.2326 H   0  0  0  0  0  0  0  0  0  0  0  0
   -3.1436   -2.6190    0.6606 C   0  0  0  0  0  0  0  0  0  0  0  0
   -3.8786   -1.8920    0.9996 H   0  0  0  0  0  0  0  0  0  0  0  0
   -3.2846   -2.8280   -0.3984 H   0  0  0  0  0  0  0  0  0  0  0  0
   -1.7586   -2.0580    0.8686 C   0  0  0  0  0  0  0  0  0  0  0  0
   -0.9666   -2.6340    1.6026 O   0  0  0  0  0  0  0  0  0  0  0  0
   -1.4866   -0.9220    0.2366 N   0  0  0  0  0  0  0  0  0  0  0  0
   -2.2166   -0.4790   -0.2994 H   0  0  0  0  0  0  0  0  0  0  0  0
   -0.1956   -0.2250    0.2596 C   0  0  1  0  0  0  0  0  0  0  0  0
    0.5755   -0.9013   -0.1105 H   0  0  0  0  0  0  0  0  0  0  0  0
   -0.2553    0.9811   -0.6992 C   0  0  0  0  0  0  0  0  0  0  0  0
   -0.6021    1.8456   -0.1308 H   0  0  0  0  0  0  0  0  0  0  0  0
    0.7473    1.1941   -1.0729 H   0  0  0  0  0  0  0  0  0  0  0  0
   -1.2037    0.7691   -1.8913 C   0  0  0  0  0  0  0  0  0  0  0  0
   -2.1973    1.1392   -1.6275 H   0  0  0  0  0  0  0  0  0  0  0  0
   -0.8353    1.3625   -2.7323 H   0  0  0  0  0  0  0  0  0  0  0  0
   -1.3233   -0.7002   -2.3221 C   0  0  0  0  0  0  0  0  0  0  0  0
   -0.5690   -1.5407   -1.7826 O   0  5  0  0  0  0  0  0  0  0  0  0
   -2.1967   -0.9645   -3.1781 O   0  0  0  0  0  0  0  0  0  0  0  0
    0.1881    0.1678    1.7015 C   0  0  0  0  0  0  0  0  0  0  0  0
    1.3379    0.0002    2.1133 O   0  0  0  0  0  0  0  0  0  0  0  0
   -0.7666    0.7145    2.4656 N   0  0  0  0  0  0  0  0  0  0  0  0
   -1.6971    0.7705    2.0790 H   0  0  0  0  0  0  0  0  0  0  0  0
   -0.5716    1.1232    3.8542 C   0  0  0  0  0  0  0  0  0  0  0  0
    0.3083    1.7643    3.9293 H   0  0  0  0  0  0  0  0  0  0  0  0
   -1.4485    1.6640    4.2131 H   0  0  0  0  0  0  0  0  0  0  0  0
   -0.4137    0.2381    4.4736 H   0  0  0  0  0  0  0  0  0  0  0  0
  5  6  2  0  0  0  0
  5  7  1  0  0  0  0
  2  3  1  0  0  0  0
  2  4  1  0  0  0  0
  2  5  1  0  0  0  0
  1  2  1  0  0  0  0
 20 21  2  0  0  0  0
 20 22  1  0  0  0  0
 17 18  1  0  0  0  0
 17 19  2  0  0  0  0
 14 15  1  0  0  0  0
 14 16  1  0  0  0  0
 14 17  1  0  0  0  0
 11 12  1  0  0  0  0
 11 13  1  0  0  0  0
 11 14  1  0  0  0  0
  9 10  1  0  0  0  0
  9 11  1  0  0  0  0
  9 20  1  0  0  0  0
  7  8  1  0  0  0  0
  7  9  1  0  0  0  0
 24 25  1  0  0  0  0
 24 26  1  0  0  0  0
 24 27  1  0  0  0  0
 22 23  1  0  0  0  0
 22 24  1  0  0  0  0
M  CHG  1  18  -1
M  END
$$$$
default_name
  -OEChem-02102213163D

 27 26  0     1  0  0  0  0  0999 V2000
   -3.2406   -3.5400    1.2326 H   0  0  0  0  0  0  0  0  0  0  0  0
   -3.1436   -2.6190    0.6606 C   0  0  0  0  0  0  0  0  0  0  0  0
   -3.8786   -1.8920    0.9996 H   0  0  0  0  0  0  0  0  0  0  0  0
   -3.2846   -2.8280   -0.3984 H   0  0  0  0  0  0  0  0  0  0  0  0
   -1.7586   -2.0580    0.8686 C   0  0  0  0  0  0  0  0  0  0  0  0
   -0.9666   -2.6340    1.6026 O   0  0  0  0  0  0  0  0  0  0  0  0
   -1.4866   -0.9220    0.2366 N   0  0  0  0  0  0  0  0  0  0  0  0
   -2.2166   -0.4790   -0.2994 H   0  0  0  0  0  0  0  0  0  0  0  0
   -0.1956   -0.2250    0.2596 C   0  0  1  0  0  0  0  0  0  0  0  0
    0.5755   -0.9013   -0.1105 H   0  0  0  0  0  0  0  0  0  0  0  0
   -0.2553    0.9811   -0.6992 C   0  0  0  0  0  0  0  0  0  0  0  0
   -0.6021    1.8456   -0.1308 H   0  0  0  0  0  0  0  0  0  0  0  0
    0.7473    1.1941   -1.0729 H   0  0  0  0  0  0  0  0  0  0  0  0
   -1.2037    0.7691   -1.8913 C   0  0  0  0  0  0  0  0  0  0  0  0
   -2.1062    1.3663   -1.7404 H   0  0  0  0  0  0  0  0  0  0  0  0
   -0.7061    1.1326   -2.7943 H   0  0  0  0  0  0  0  0  0  0  0  0
   -1.6115   -0.6978   -2.0933 C   0  0  0  0  0  0  0  0  0  0  0  0
   -1.0546   -1.5713   -1.3909 O   0  5  0  0  0  0  0  0  0  0  0  0
   -2.5036   -0.9203   -2.9418 O   0  0  0  0  0  0  0  0  0  0  0  0
    0.1881    0.1678    1.7015 C   0  0  0  0  0  0  0  0  0  0  0  0
    1.3379    0.0002    2.1133 O   0  0  0  0  0  0  0  0  0  0  0  0
   -0.7666    0.7145    2.4656 N   0  0  0  0  0  0  0  0  0  0  0  0
   -1.6971    0.7705    2.0790 H   0  0  0  0  0  0  0  0  0  0  0  0
   -0.5716    1.1232    3.8542 C   0  0  0  0  0  0  0  0  0  0  0  0
    0.3083    1.7643    3.9293 H   0  0  0  0  0  0  0  0  0  0  0  0
   -1.4485    1.6640    4.2131 H   0  0  0  0  0  0  0  0  0  0  0  0
   -0.4137    0.2381    4.4736 H   0  0  0  0  0  0  0  0  0  0  0  0
  5  6  2  0  0  0  0
  5  7  1  0  0  0  0
  2  3  1  0  0  0  0
  2  4  1  0  0  0  0
  2  5  1  0  0  0  0
  1  2  1  0  0  0  0
 20 21  2  0  0  0  0
 20 22  1  0  0  0  0
 17 18  1  0  0  0  0
 17 19  2  0  0  0  0
 14 15  1  0  0  0  0
 14 16  1  0  0  0  0
 14 17  1  0  0  0  0
 11 12  1  0  0  0  0
 11 13  1  0  0  0  0
 11 14  1  0  0  0  0
  9 10  1  0  0  0  0
  9 11  1  0  0  0  0
  9 20  1  0  0  0  0
  7  8  1  0  0  0  0
  7  9  1  0  0  0  0
 24 25  1  0  0  0  0
 24 26  1  0  0  0  0
 24 27  1  0  0  0  0
 22 23  1  0  0  0  0
 22 24  1  0  0  0  0
M  CHG  1  18  -1
M  END
$$$$
default_name
  -OEChem-02102213163D

 27 26  0     1  0  0  0  0  0999 V2000
   -3.2406   -3.5400    1.2326 H   0  0  0  0  0  0  0  0  0  0  0  0
   -3.1436   -2.6190    0.6606 C   0  0  0  0  0  0  0  0  0  0  0  0
   -3.8786   -1.8920    0.9996 H   0  0  0  0  0  0  0  0  0  0  0  0
   -3.2846   -2.8280   -0.3984 H   0  0  0  0  0  0  0  0  0  0  0  0
   -1.7586   -2.0580    0.8686 C   0  0  0  0  0  0  0  0  0  0  0  0
   -0.9666   -2.6340    1.6026 O   0  0  0  0  0  0  0  0  0  0  0  0
   -1.4866   -0.9220    0.2366 N   0  0  0  0  0  0  0  0  0  0  0  0
   -2.2166   -0.4790   -0.2994 H   0  0  0  0  0  0  0  0  0  0  0  0
   -0.1956   -0.2250    0.2596 C   0  0  1  0  0  0  0  0  0  0  0  0
    0.5755   -0.9013   -0.1105 H   0  0  0  0  0  0  0  0  0  0  0  0
   -0.2553    0.9811   -0.6992 C   0  0  0  0  0  0  0  0  0  0  0  0
   -0.6021    1.8456   -0.1308 H   0  0  0  0  0  0  0  0  0  0  0  0
    0.7473    1.1941   -1.0729 H   0  0  0  0  0  0  0  0  0  0  0  0
   -1.2037    0.7691   -1.8913 C   0  0  0  0  0  0  0  0  0  0  0  0
   -1.9685    1.5494   -1.8825 H   0  0  0  0  0  0  0  0  0  0  0  0
   -0.6251    0.8746   -2.8128 H   0  0  0  0  0  0  0  0  0  0  0  0
   -1.8975   -0.6011   -1.8830 C   0  0  0  0  0  0  0  0  0  0  0  0
   -1.5437   -1.4408   -1.0250 O   0  5  0  0  0  0  0  0  0  0  0  0
   -2.7995   -0.7783   -2.7316 O   0  0  0  0  0  0  0  0  0  0  0  0
    0.1881    0.1678    1.7015 C   0  0  0  0  0  0  0  0  0  0  0  0
    1.3379    0.0002    2.1133 O   0  0  0  0  0  0  0  0  0  0  0  0
   -0.7666    0.7145    2.4656 N   0  0  0  0  0  0  0  0  0  0  0  0
   -1.6971    0.7705    2.0790 H   0  0  0  0  0  0  0  0  0  0  0  0
   -0.5716    1.1232    3.8542 C   0  0  0  0  0  0  0  0  0  0  0  0
    0.3083    1.7643    3.9293 H   0  0  0  0  0  0  0  0  0  0  0  0
   -1.4485    1.6640    4.2131 H   0  0  0  0  0  0  0  0  0  0  0  0
   -0.4137    0.2381    4.4736 H   0  0  0  0  0  0  0  0  0  0  0  0
  5  6  2  0  0  0  0
  5  7  1  0  0  0  0
  2  3  1  0  0  0  0
  2  4  1  0  0  0  0
  2  5  1  0  0  0  0
  1  2  1  0  0  0  0
 20 21  2  0  0  0  0
 20 22  1  0  0  0  0
 17 18  1  0  0  0  0
 17 19  2  0  0  0  0
 14 15  1  0  0  0  0
 14 16  1  0  0  0  0
 14 17  1  0  0  0  0
 11 12  1  0  0  0  0
 11 13  1  0  0  0  0
 11 14  1  0  0  0  0
  9 10  1  0  0  0  0
  9 11  1  0  0  0  0
  9 20  1  0  0  0  0
  7  8  1  0  0  0  0
  7  9  1  0  0  0  0
 24 25  1  0  0  0  0
 24 26  1  0  0  0  0
 24 27  1  0  0  0  0
 22 23  1  0  0  0  0
 22 24  1  0  0  0  0
M  CHG  1  18  -1
M  END
$$$$
default_name
  -OEChem-02102213163D

 27 26  0     1  0  0  0  0  0999 V2000
   -3.2406   -3.5400    1.2326 H   0  0  0  0  0  0  0  0  0  0  0  0
   -3.1436   -2.6190    0.6606 C   0  0  0  0  0  0  0  0  0  0  0  0
   -3.8786   -1.8920    0.9996 H   0  0  0  0  0  0  0  0  0  0  0  0
   -3.2846   -2.8280   -0.3984 H   0  0  0  0  0  0  0  0  0  0  0  0
   -1.7586   -2.0580    0.8686 C   0  0  0  0  0  0  0  0  0  0  0  0
   -0.9666   -2.6340    1.6026 O   0  0  0  0  0  0  0  0  0  0  0  0
   -1.4866   -0.9220    0.2366 N   0  0  0  0  0  0  0  0  0  0  0  0
   -2.2166   -0.4790   -0.2994 H   0  0  0  0  0  0  0  0  0  0  0  0
   -0.1956   -0.2250    0.2596 C   0  0  1  0  0  0  0  0  0  0  0  0
    0.5755   -0.9013   -0.1105 H   0  0  0  0  0  0  0  0  0  0  0  0
   -0.2553    0.9811   -0.6992 C   0  0  0  0  0  0  0  0  0  0  0  0
   -0.6021    1.8456   -0.1308 H   0  0  0  0  0  0  0  0  0  0  0  0
    0.7473    1.1941   -1.0729 H   0  0  0  0  0  0  0  0  0  0  0  0
   -1.2037    0.7691   -1.8913 C   0  0  0  0  0  0  0  0  0  0  0  0
   -1.7937    1.6760   -2.0440 H   0  0  0  0  0  0  0  0  0  0  0  0
   -0.5980    0.6063   -2.7867 H   0  0  0  0  0  0  0  0  0  0  0  0
   -2.1618   -0.4167   -1.7054 C   0  0  0  0  0  0  0  0  0  0  0  0
   -2.0031   -1.1583   -0.7098 O   0  5  0  0  0  0  0  0  0  0  0  0
   -3.0645   -0.5482   -2.5618 O   0  0  0  0  0  0  0  0  0  0  0  0
    0.1881    0.1678    1.7015 C   0  0  0  0  0  0  0  0  0  0  0  0
    1.3379    0.0002    2.1133 O   0  0  0  0  0  0  0  0  0  0  0  0
   -0.7666    0.7145    2.4656 N   0  0  0  0  0  0  0  0  0  0  0  0
   -1.6971    0.7705    2.0790 H   0  0  0  0  0  0  0  0  0  0  0  0
   -0.5716    1.1232    3.8542 C   0  0  0  0  0  0  0  0  0  0  0  0
    0.3083    1.7643    3.9293 H   0  0  0  0  0  0  0  0  0  0  0  0
   -1.4485    1.6640    4.2131 H   0  0  0  0  0  0  0  0  0  0  0  0
   -0.4137    0.2381    4.4736 H   0  0  0  0  0  0  0  0  0  0  0  0
  5  6  2  0  0  0  0
  5  7  1  0  0  0  0
  2  3  1  0  0  0  0
  2  4  1  0  0  0  0
  2  5  1  0  0  0  0
  1  2  1  0  0  0  0
 20 21  2  0  0  0  0
 20 22  1  0  0  0  0
 17 18  1  0  0  0  0
 17 19  2  0  0  0  0
 14 15  1  0  0  0  0
 14 16  1  0  0  0  0
 14 17  1  0  0  0  0
 11 12  1  0  0  0  0
 11 13  1  0  0  0  0
 11 14  1  0  0  0  0
  9 10  1  0  0  0  0
  9 11  1  0  0  0  0
  9 20  1  0  0  0  0
  7  8  1  0  0  0  0
  7  9  1  0  0  0  0
 24 25  1  0  0  0  0
 24 26  1  0  0  0  0
 24 27  1  0  0  0  0
 22 23  1  0  0  0  0
 22 24  1  0  0  0  0
M  CHG  1  18  -1
M  END
$$$$
default_name
  -OEChem-02102213163D

 27 26  0     1  0  0  0  0  0999 V2000
   -3.2406   -3.5400    1.2326 H   0  0  0  0  0  0  0  0  0  0  0  0
   -3.1436   -2.6190    0.6606 C   0  0  0  0  0  0  0  0  0  0  0  0
   -3.8786   -1.8920    0.9996 H   0  0  0  0  0  0  0  0  0  0  0  0
   -3.2846   -2.8280   -0.3984 H   0  0  0  0  0  0  0  0  0  0  0  0
   -1.7586   -2.0580    0.8686 C   0  0  0  0  0  0  0  0  0  0  0  0
   -0.9666   -2.6340    1.6026 O   0  0  0  0  0  0  0  0  0  0  0  0
   -1.4866   -0.9220    0.2366 N   0  0  0  0  0  0  0  0  0  0  0  0
   -2.2166   -0.4790   -0.2994 H   0  0  0  0  0  0  0  0  0  0  0  0
   -0.1956   -0.2250    0.2596 C   0  0  1  0  0  0  0  0  0  0  0  0
    0.5755   -0.9013   -0.1105 H   0  0  0  0  0  0  0  0  0  0  0  0
   -0.2553    0.9811   -0.6992 C   0  0  0  0  0  0  0  0  0  0  0  0
   -0.6021    1.8456   -0.1308 H   0  0  0  0  0  0  0  0  0  0  0  0
    0.7473    1.1941   -1.0729 H   0  0  0  0  0  0  0  0  0  0  0  0
   -1.2037    0.7691   -1.8913 C   0  0  0  0  0  0  0  0  0  0  0  0
   -1.5938    1.7374   -2.2141 H   0  0  0  0  0  0  0  0  0  0  0  0
   -0.6266    0.3458   -2.7176 H   0  0  0  0  0  0  0  0  0  0  0  0
   -2.3865   -0.1573   -1.5728 C   0  0  0  0  0  0  0  0  0  0  0  0
   -2.4014   -0.7430   -0.4668 O   0  5  0  0  0  0  0  0  0  0  0  0
   -3.2802   -0.2457   -2.4439 O   0  0  0  0  0  0  0  0  0  0  0  0
    0.1881    0.1678    1.7015 C   0  0  0  0  0  0  0  0  0  0  0  0
    1.3379    0.0002    2.1133 O   0  0  0  0  0  0  0  0  0  0  0  0
   -0.7666    0.7145    2.4656 N   0  0  0  0  0  0  0  0  0  0  0  0
   -1.6971    0.7705    2.0790 H   0  0  0  0  0  0  0  0  0  0  0  0
   -0.5716    1.1232    3.8542 C   0  0  0  0  0  0  0  0  0  0  0  0
    0.3083    1.7643    3.9293 H   0  0  0  0  0  0  0  0  0  0  0  0
   -1.4485    1.6640    4.2131 H   0  0  0  0  0  0  0  0  0  0  0  0
   -0.4137    0.2381    4.4736 H   0  0  0  0  0  0  0  0  0  0  0  0
  5  6  2  0  0  0  0
  5  7  1  0  0  0  0
  2  3  1  0  0  0  0
  2  4  1  0  0  0  0
  2  5  1  0  0  0  0
  1  2  1  0  0  0  0
 20 21  2  0  0  0  0
 20 22  1  0  0  0  0
 17 18  1  0  0  0  0
 17 19  2  0  0  0  0
 14 15  1  0  0  0  0
 14 16  1  0  0  0  0
 14 17  1  0  0  0  0
 11 12  1  0  0  0  0
 11 13  1  0  0  0  0
 11 14  1  0  0  0  0
  9 10  1  0  0  0  0
  9 11  1  0  0  0  0
  9 20  1  0  0  0  0
  7  8  1  0  0  0  0
  7  9  1  0  0  0  0
 24 25  1  0  0  0  0
 24 26  1  0  0  0  0
 24 27  1  0  0  0  0
 22 23  1  0  0  0  0
 22 24  1  0  0  0  0
M  CHG  1  18  -1
M  END
$$$$
default_name
  -OEChem-02102213163D

 27 26  0     1  0  0  0  0  0999 V2000
   -3.2406   -3.5400    1.2326 H   0  0  0  0  0  0  0  0  0  0  0  0
   -3.1436   -2.6190    0.6606 C   0  0  0  0  0  0  0  0  0  0  0  0
   -3.8786   -1.8920    0.9996 H   0  0  0  0  0  0  0  0  0  0  0  0
   -3.2846   -2.8280   -0.3984 H   0  0  0  0  0  0  0  0  0  0  0  0
   -1.7586   -2.0580    0.8686 C   0  0  0  0  0  0  0  0  0  0  0  0
   -0.9666   -2.6340    1.6026 O   0  0  0  0  0  0  0  0  0  0  0  0
   -1.4866   -0.9220    0.2366 N   0  0  0  0  0  0  0  0  0  0  0  0
   -2.2166   -0.4790   -0.2994 H   0  0  0  0  0  0  0  0  0  0  0  0
   -0.1956   -0.2250    0.2596 C   0  0  1  0  0  0  0  0  0  0  0  0
    0.5755   -0.9013   -0.1105 H   0  0  0  0  0  0  0  0  0  0  0  0
   -0.2553    0.9811   -0.6992 C   0  0  0  0  0  0  0  0  0  0  0  0
   -0.6021    1.8456   -0.1308 H   0  0  0  0  0  0  0  0  0  0  0  0
    0.7473    1.1941   -1.0729 H   0  0  0  0  0  0  0  0  0  0  0  0
   -1.2037    0.7691   -1.8913 C   0  0  0  0  0  0  0  0  0  0  0  0
   -1.3822    1.7295   -2.3809 H   0  0  0  0  0  0  0  0  0  0  0  0
   -0.7089    0.1110   -2.6104 H   0  0  0  0  0  0  0  0  0  0  0  0
   -2.5563    0.1595   -1.4941 C   0  0  0  0  0  0  0  0  0  0  0  0
   -2.7114   -0.2231   -0.3126 O   0  5  0  0  0  0  0  0  0  0  0  0
   -3.4322    0.1086   -2.3860 O   0  0  0  0  0  0  0  0  0  0  0  0
    0.1881    0.1678    1.7015 C   0  0  0  0  0  0  0  0  0  0  0  0
    1.3379    0.0002    2.1133 O   0  0  0  0  0  0  0  0  0  0  0  0
   -0.7666    0.7145    2.4656 N   0  0  0  0  0  0  0  0  0  0  0  0
   -1.6971    0.7705    2.0790 H   0  0  0  0  0  0  0  0  0  0  0  0
   -0.5716    1.1232    3.8542 C   0  0  0  0  0  0  0  0  0  0  0  0
    0.3083    1.7643    3.9293 H   0  0  0  0  0  0  0  0  0  0  0  0
   -1.4485    1.6640    4.2131 H   0  0  0  0  0  0  0  0  0  0  0  0
   -0.4137    0.2381    4.4736 H   0  0  0  0  0  0  0  0  0  0  0  0
  5  6  2  0  0  0  0
  5  7  1  0  0  0  0
  2  3  1  0  0  0  0
  2  4  1  0  0  0  0
  2  5  1  0  0  0  0
  1  2  1  0  0  0  0
 20 21  2  0  0  0  0
 20 22  1  0  0  0  0
 17 18  1  0  0  0  0
 17 19  2  0  0  0  0
 14 15  1  0  0  0  0
 14 16  1  0  0  0  0
 14 17  1  0  0  0  0
 11 12  1  0  0  0  0
 11 13  1  0  0  0  0
 11 14  1  0  0  0  0
  9 10  1  0  0  0  0
  9 11  1  0  0  0  0
  9 20  1  0  0  0  0
  7  8  1  0  0  0  0
  7  9  1  0  0  0  0
 24 25  1  0  0  0  0
 24 26  1  0  0  0  0
 24 27  1  0  0  0  0
 22 23  1  0  0  0  0
 22 24  1  0  0  0  0
M  CHG  1  18  -1
M  END
$$$$
default_name
  -OEChem-02102213163D

 27 26  0     1  0  0  0  0  0999 V2000
   -3.2406   -3.5400    1.2326 H   0  0  0  0  0  0  0  0  0  0  0  0
   -3.1436   -2.6190    0.6606 C   0  0  0  0  0  0  0  0  0  0  0  0
   -3.8786   -1.8920    0.9996 H   0  0  0  0  0  0  0  0  0  0  0  0
   -3.2846   -2.8280   -0.3984 H   0  0  0  0  0  0  0  0  0  0  0  0
   -1.7586   -2.0580    0.8686 C   0  0  0  0  0  0  0  0  0  0  0  0
   -0.9666   -2.6340    1.6026 O   0  0  0  0  0  0  0  0  0  0  0  0
   -1.4866   -0.9220    0.2366 N   0  0  0  0  0  0  0  0  0  0  0  0
   -2.2166   -0.4790   -0.2994 H   0  0  0  0  0  0  0  0  0  0  0  0
   -0.1956   -0.2250    0.2596 C   0  0  1  0  0  0  0  0  0  0  0  0
    0.5755   -0.9013   -0.1105 H   0  0  0  0  0  0  0  0  0  0  0  0
   -0.2553    0.9811   -0.6992 C   0  0  0  0  0  0  0  0  0  0  0  0
   -0.6021    1.8456   -0.1308 H   0  0  0  0  0  0  0  0  0  0  0  0
    0.7473    1.1941   -1.0729 H   0  0  0  0  0  0  0  0  0  0  0  0
   -1.2037    0.7691   -1.8913 C   0  0  0  0  0  0  0  0  0  0  0  0
   -1.1735    1.6528   -2.5333 H   0  0  0  0  0  0  0  0  0  0  0  0
   -0.8393   -0.0822   -2.4723 H   0  0  0  0  0  0  0  0  0  0  0  0
   -2.6595    0.5122   -1.4747 C   0  0  0  0  0  0  0  0  0  0  0  0
   -2.9121    0.3659   -0.2577 O   0  5  0  0  0  0  0  0  0  0  0  0
   -3.5100    0.4906   -2.3921 O   0  0  0  0  0  0  0  0  0  0  0  0
    0.1881    0.1678    1.7015 C   0  0  0  0  0  0  0  0  0  0  0  0
    1.3379    0.0002    2.1133 O   0  0  0  0  0  0  0  0  0  0  0  0
   -0.7666    0.7145    2.4656 N   0  0  0  0  0  0  0  0  0  0  0  0
   -1.6971    0.7705    2.0790 H   0  0  0  0  0  0  0  0  0  0  0  0
   -0.5716    1.1232    3.8542 C   0  0  0  0  0  0  0  0  0  0  0  0
    0.3083    1.7643    3.9293 H   0  0  0  0  0  0  0  0  0  0  0  0
   -1.4485    1.6640    4.2131 H   0  0  0  0  0  0  0  0  0  0  0  0
   -0.4137    0.2381    4.4736 H   0  0  0  0  0  0  0  0  0  0  0  0
  5  6  2  0  0  0  0
  5  7  1  0  0  0  0
  2  3  1  0  0  0  0
  2  4  1  0  0  0  0
  2  5  1  0  0  0  0
  1  2  1  0  0  0  0
 20 21  2  0  0  0  0
 20 22  1  0  0  0  0
 17 18  1  0  0  0  0
 17 19  2  0  0  0  0
 14 15  1  0  0  0  0
 14 16  1  0  0  0  0
 14 17  1  0  0  0  0
 11 12  1  0  0  0  0
 11 13  1  0  0  0  0
 11 14  1  0  0  0  0
  9 10  1  0  0  0  0
  9 11  1  0  0  0  0
  9 20  1  0  0  0  0
  7  8  1  0  0  0  0
  7  9  1  0  0  0  0
 24 25  1  0  0  0  0
 24 26  1  0  0  0  0
 24 27  1  0  0  0  0
 22 23  1  0  0  0  0
 22 24  1  0  0  0  0
M  CHG  1  18  -1
M  END
$$$$
default_name
  -OEChem-02102213163D

 27 26  0     1  0  0  0  0  0999 V2000
   -3.2406   -3.5400    1.2326 H   0  0  0  0  0  0  0  0  0  0  0  0
   -3.1436   -2.6190    0.6606 C   0  0  0  0  0  0  0  0  0  0  0  0
   -3.8786   -1.8920    0.9996 H   0  0  0  0  0  0  0  0  0  0  0  0
   -3.2846   -2.8280   -0.3984 H   0  0  0  0  0  0  0  0  0  0  0  0
   -1.7586   -2.0580    0.8686 C   0  0  0  0  0  0  0  0  0  0  0  0
   -0.9666   -2.6340    1.6026 O   0  0  0  0  0  0  0  0  0  0  0  0
   -1.4866   -0.9220    0.2366 N   0  0  0  0  0  0  0  0  0  0  0  0
   -2.2166   -0.4790   -0.2994 H   0  0  0  0  0  0  0  0  0  0  0  0
   -0.1956   -0.2250    0.2596 C   0  0  1  0  0  0  0  0  0  0  0  0
    0.5755   -0.9013   -0.1105 H   0  0  0  0  0  0  0  0  0  0  0  0
   -0.2553    0.9811   -0.6992 C   0  0  0  0  0  0  0  0  0  0  0  0
   -0.6021    1.8456   -0.1308 H   0  0  0  0  0  0  0  0  0  0  0  0
    0.7473    1.1941   -1.0729 H   0  0  0  0  0  0  0  0  0  0  0  0
   -1.2037    0.7691   -1.8913 C   0  0  0  0  0  0  0  0  0  0  0  0
   -0.9819    1.5125   -2.6608 H   0  0  0  0  0  0  0  0  0  0  0  0
   -1.0090   -0.2206   -2.3126 H   0  0  0  0  0  0  0  0  0  0  0  0
   -2.6891    0.8766   -1.5160 C   0  0  0  0  0  0  0  0  0  0  0  0
   -2.9898    0.9838   -0.3058 O   0  5  0  0  0  0  0  0  0  0  0  0
   -3.5082    0.8741   -2.4616 O   0  0  0  0  0  0  0  0  0  0  0  0
    0.1881    0.1678    1.7015 C   0  0  0  0  0  0  0  0  0  0  0  0
    1.3379    0.0002    2.1133 O   0  0  0  0  0  0  0  0  0  0  0  0
   -0.7666    0.7145    2.4656 N   0  0  0  0  0  0  0  0  0  0  0  0
   -1.6971    0.7705    2.0790 H   0  0  0  0  0  0  0  0  0  0  0  0
   -0.5716    1.1232    3.8542 C   0  0  0  0  0  0  0  0  0  0  0  0
    0.3083    1.7643    3.9293 H   0  0  0  0  0  0  0  0  0  0  0  0
   -1.4485    1.6640    4.2131 H   0  0  0  0  0  0  0  0  0  0  0  0
   -0.4137    0.2381    4.4736 H   0  0  0  0  0  0  0  0  0  0  0  0
  5  6  2  0  0  0  0
  5  7  1  0  0  0  0
  2  3  1  0  0  0  0
  2  4  1  0  0  0  0
  2  5  1  0  0  0  0
  1  2  1  0  0  0  0
 20 21  2  0  0  0  0
 20 22  1  0  0  0  0
 17 18  1  0  0  0  0
 17 19  2  0  0  0  0
 14 15  1  0  0  0  0
 14 16  1  0  0  0  0
 14 17  1  0  0  0  0
 11 12  1  0  0  0  0
 11 13  1  0  0  0  0
 11 14  1  0  0  0  0
  9 10  1  0  0  0  0
  9 11  1  0  0  0  0
  9 20  1  0  0  0  0
  7  8  1  0  0  0  0
  7  9  1  0  0  0  0
 24 25  1  0  0  0  0
 24 26  1  0  0  0  0
 24 27  1  0  0  0  0
 22 23  1  0  0  0  0
 22 24  1  0  0  0  0
M  CHG  1  18  -1
M  END
$$$$
default_name
  -OEChem-02102213163D

 27 26  0     1  0  0  0  0  0999 V2000
   -3.2406   -3.5400    1.2326 H   0  0  0  0  0  0  0  0  0  0  0  0
   -3.1436   -2.6190    0.6606 C   0  0  0  0  0  0  0  0  0  0  0  0
   -3.8786   -1.8920    0.9996 H   0  0  0  0  0  0  0  0  0  0  0  0
   -3.2846   -2.8280   -0.3984 H   0  0  0  0  0  0  0  0  0  0  0  0
   -1.7586   -2.0580    0.8686 C   0  0  0  0  0  0  0  0  0  0  0  0
   -0.9666   -2.6340    1.6026 O   0  0  0  0  0  0  0  0  0  0  0  0
   -1.4866   -0.9220    0.2366 N   0  0  0  0  0  0  0  0  0  0  0  0
   -2.2166   -0.4790   -0.2994 H   0  0  0  0  0  0  0  0  0  0  0  0
   -0.1956   -0.2250    0.2596 C   0  0  1  0  0  0  0  0  0  0  0  0
    0.5755   -0.9013   -0.1105 H   0  0  0  0  0  0  0  0  0  0  0  0
   -0.2553    0.9811   -0.6992 C   0  0  0  0  0  0  0  0  0  0  0  0
   -0.6021    1.8456   -0.1308 H   0  0  0  0  0  0  0  0  0  0  0  0
    0.7473    1.1941   -1.0729 H   0  0  0  0  0  0  0  0  0  0  0  0
   -1.2037    0.7691   -1.8913 C   0  0  0  0  0  0  0  0  0  0  0  0
   -0.8204    1.3182   -2.7548 H   0  0  0  0  0  0  0  0  0  0  0  0
   -1.2064   -0.2948   -2.1424 H   0  0  0  0  0  0  0  0  0  0  0  0
   -2.6431    1.2279   -1.6150 C   0  0  0  0  0  0  0  0  0  0  0  0
   -2.9391    1.5886   -0.4536 O   0  5  0  0  0  0  0  0  0  0  0  0
   -3.4271    1.2332   -2.5900 O   0  0  0  0  0  0  0  0  0  0  0  0
    0.1881    0.1678    1.7015 C   0  0  0  0  0  0  0  0  0  0  0  0
    1.3379    0.0002    2.1133 O   0  0  0  0  0  0  0  0  0  0  0  0
   -0.7666    0.7145    2.4656 N   0  0  0  0  0  0  0  0  0  0  0  0
   -1.6971    0.7705    2.0790 H   0  0  0  0  0  0  0  0  0  0  0  0
   -0.5716    1.1232    3.8542 C   0  0  0  0  0  0  0  0  0  0  0  0
    0.3083    1.7643    3.9293 H   0  0  0  0  0  0  0  0  0  0  0  0
   -1.4485    1.6640    4.2131 H   0  0  0  0  0  0  0  0  0  0  0  0
   -0.4137    0.2381    4.4736 H   0  0  0  0  0  0  0  0  0  0  0  0
  5  6  2  0  0  0  0
  5  7  1  0  0  0  0
  2  3  1  0  0  0  0
  2  4  1  0  0  0  0
  2  5  1  0  0  0  0
  1  2  1  0  0  0  0
 20 21  2  0  0  0  0
 20 22  1  0  0  0  0
 17 18  1  0  0  0  0
 17 19  2  0  0  0  0
 14 15  1  0  0  0  0
 14 16  1  0  0  0  0
 14 17  1  0  0  0  0
 11 12  1  0  0  0  0
 11 13  1  0  0  0  0
 11 14  1  0  0  0  0
  9 10  1  0  0  0  0
  9 11  1  0  0  0  0
  9 20  1  0  0  0  0
  7  8  1  0  0  0  0
  7  9  1  0  0  0  0
 24 25  1  0  0  0  0
 24 26  1  0  0  0  0
 24 27  1  0  0  0  0
 22 23  1  0  0  0  0
 22 24  1  0  0  0  0
M  CHG  1  18  -1
M  END
$$$$
default_name
  -OEChem-02102213163D

 27 26  0     1  0  0  0  0  0999 V2000
   -3.2406   -3.5400    1.2326 H   0  0  0  0  0  0  0  0  0  0  0  0
   -3.1436   -2.6190    0.6606 C   0  0  0  0  0  0  0  0  0  0  0  0
   -3.8786   -1.8920    0.9996 H   0  0  0  0  0  0  0  0  0  0  0  0
   -3.2846   -2.8280   -0.3984 H   0  0  0  0  0  0  0  0  0  0  0  0
   -1.7586   -2.0580    0.8686 C   0  0  0  0  0  0  0  0  0  0  0  0
   -0.9666   -2.6340    1.6026 O   0  0  0  0  0  0  0  0  0  0  0  0
   -1.4866   -0.9220    0.2366 N   0  0  0  0  0  0  0  0  0  0  0  0
   -2.2166   -0.4790   -0.2994 H   0  0  0  0  0  0  0  0  0  0  0  0
   -0.1956   -0.2250    0.2596 C   0  0  1  0  0  0  0  0  0  0  0  0
    0.5755   -0.9013   -0.1105 H   0  0  0  0  0  0  0  0  0  0  0  0
   -0.2553    0.9811   -0.6992 C   0  0  0  0  0  0  0  0  0  0  0  0
   -0.6021    1.8456   -0.1308 H   0  0  0  0  0  0  0  0  0  0  0  0
    0.7473    1.1941   -1.0729 H   0  0  0  0  0  0  0  0  0  0  0  0
   -1.2037    0.7691   -1.8913 C   0  0  0  0  0  0  0  0  0  0  0  0
   -0.7000    1.0831   -2.8087 H   0  0  0  0  0  0  0  0  0  0  0  0
   -1.4180   -0.2997   -1.9732 H   0  0  0  0  0  0  0  0  0  0  0  0
   -2.5247    1.5423   -1.7651 C   0  0  0  0  0  0  0  0  0  0  0  0
   -2.7636    2.1390   -0.6911 O   0  5  0  0  0  0  0  0  0  0  0  0
   -3.2722    1.5432   -2.7684 O   0  0  0  0  0  0  0  0  0  0  0  0
    0.1881    0.1678    1.7015 C   0  0  0  0  0  0  0  0  0  0  0  0
    1.3379    0.0002    2.1133 O   0  0  0  0  0  0  0  0  0  0  0  0
   -0.7666    0.7145    2.4656 N   0  0  0  0  0  0  0  0  0  0  0  0
   -1.6971    0.7705    2.0790 H   0  0  0  0  0  0  0  0  0  0  0  0
   -0.5716    1.1232    3.8542 C   0  0  0  0  0  0  0  0  0  0  0  0
    0.3083    1.7643    3.9293 H   0  0  0  0  0  0  0  0  0  0  0  0
   -1.4485    1.6640    4.2131 H   0  0  0  0  0  0  0  0  0  0  0  0
   -0.4137    0.2381    4.4736 H   0  0  0  0  0  0  0  0  0  0  0  0
  5  6  2  0  0  0  0
  5  7  1  0  0  0  0
  2  3  1  0  0  0  0
  2  4  1  0  0  0  0
  2  5  1  0  0  0  0
  1  2  1  0  0  0  0
 20 21  2  0  0  0  0
 20 22  1  0  0  0  0
 17 18  1  0  0  0  0
 17 19  2  0  0  0  0
 14 15  1  0  0  0  0
 14 16  1  0  0  0  0
 14 17  1  0  0  0  0
 11 12  1  0  0  0  0
 11 13  1  0  0  0  0
 11 14  1  0  0  0  0
  9 10  1  0  0  0  0
  9 11  1  0  0  0  0
  9 20  1  0  0  0  0
  7  8  1  0  0  0  0
  7  9  1  0  0  0  0
 24 25  1  0  0  0  0
 24 26  1  0  0  0  0
 24 27  1  0  0  0  0
 22 23  1  0  0  0  0
 22 24  1  0  0  0  0
M  CHG  1  18  -1
M  END
$$$$
default_name
  -OEChem-02102213163D

 27 26  0     1  0  0  0  0  0999 V2000
   -3.2406   -3.5400    1.2326 H   0  0  0  0  0  0  0  0  0  0  0  0
   -3.1436   -2.6190    0.6606 C   0  0  0  0  0  0  0  0  0  0  0  0
   -3.8786   -1.8920    0.9996 H   0  0  0  0  0  0  0  0  0  0  0  0
   -3.2846   -2.8280   -0.3984 H   0  0  0  0  0  0  0  0  0  0  0  0
   -1.7586   -2.0580    0.8686 C   0  0  0  0  0  0  0  0  0  0  0  0
   -0.9666   -2.6340    1.6026 O   0  0  0  0  0  0  0  0  0  0  0  0
   -1.4866   -0.9220    0.2366 N   0  0  0  0  0  0  0  0  0  0  0  0
   -2.2166   -0.4790   -0.2994 H   0  0  0  0  0  0  0  0  0  0  0  0
   -0.1956   -0.2250    0.2596 C   0  0  1  0  0  0  0  0  0  0  0  0
    0.5755   -0.9013   -0.1105 H   0  0  0  0  0  0  0  0  0  0  0  0
   -0.2553    0.9811   -0.6992 C   0  0  0  0  0  0  0  0  0  0  0  0
   -0.6021    1.8456   -0.1308 H   0  0  0  0  0  0  0  0  0  0  0  0
    0.7473    1.1941   -1.0729 H   0  0  0  0  0  0  0  0  0  0  0  0
   -1.2037    0.7691   -1.8913 C   0  0  0  0  0  0  0  0  0  0  0  0
   -0.6290    0.8232   -2.8190 H   0  0  0  0  0  0  0  0  0  0  0  0
   -1.6294   -0.2350   -1.8166 H   0  0  0  0  0  0  0  0  0  0  0  0
   -2.3419    1.7983   -1.9561 C   0  0  0  0  0  0  0  0  0  0  0  0
   -2.4752    2.5975   -1.0022 O   0  5  0  0  0  0  0  0  0  0  0  0
   -3.0540    1.7832   -2.9847 O   0  0  0  0  0  0  0  0  0  0  0  0
    0.1881    0.1678    1.7015 C   0  0  0  0  0  0  0  0  0  0  0  0
    1.3379    0.0002    2.1133 O   0  0  0  0  0  0  0  0  0  0  0  0
   -0.7666    0.7145    2.4656 N   0  0  0  0  0  0  0  0  0  0  0  0
   -1.6971    0.7705    2.0790 H   0  0  0  0  0  0  0  0  0  0  0  0
   -0.5716    1.1232    3.8542 C   0  0  0  0  0  0  0  0  0  0  0  0
    0.3083    1.7643    3.9293 H   0  0  0  0  0  0  0  0  0  0  0  0
   -1.4485    1.6640    4.2131 H   0  0  0  0  0  0  0  0  0  0  0  0
   -0.4137    0.2381    4.4736 H   0  0  0  0  0  0  0  0  0  0  0  0
  5  6  2  0  0  0  0
  5  7  1  0  0  0  0
  2  3  1  0  0  0  0
  2  4  1  0  0  0  0
  2  5  1  0  0  0  0
  1  2  1  0  0  0  0
 20 21  2  0  0  0  0
 20 22  1  0  0  0  0
 17 18  1  0  0  0  0
 17 19  2  0  0  0  0
 14 15  1  0  0  0  0
 14 16  1  0  0  0  0
 14 17  1  0  0  0  0
 11 12  1  0  0  0  0
 11 13  1  0  0  0  0
 11 14  1  0  0  0  0
  9 10  1  0  0  0  0
  9 11  1  0  0  0  0
  9 20  1  0  0  0  0
  7  8  1  0  0  0  0
  7  9  1  0  0  0  0
 24 25  1  0  0  0  0
 24 26  1  0  0  0  0
 24 27  1  0  0  0  0
 22 23  1  0  0  0  0
 22 24  1  0  0  0  0
M  CHG  1  18  -1
M  END
$$$$
default_name
  -OEChem-02102213163D

 27 26  0     1  0  0  0  0  0999 V2000
   -3.2406   -3.5400    1.2326 H   0  0  0  0  0  0  0  0  0  0  0  0
   -3.1436   -2.6190    0.6606 C   0  0  0  0  0  0  0  0  0  0  0  0
   -3.8786   -1.8920    0.9996 H   0  0  0  0  0  0  0  0  0  0  0  0
   -3.2846   -2.8280   -0.3984 H   0  0  0  0  0  0  0  0  0  0  0  0
   -1.7586   -2.0580    0.8686 C   0  0  0  0  0  0  0  0  0  0  0  0
   -0.9666   -2.6340    1.6026 O   0  0  0  0  0  0  0  0  0  0  0  0
   -1.4866   -0.9220    0.2366 N   0  0  0  0  0  0  0  0  0  0  0  0
   -2.2166   -0.4790   -0.2994 H   0  0  0  0  0  0  0  0  0  0  0  0
   -0.1956   -0.2250    0.2596 C   0  0  1  0  0  0  0  0  0  0  0  0
    0.5755   -0.9013   -0.1105 H   0  0  0  0  0  0  0  0  0  0  0  0
   -0.2553    0.9811   -0.6992 C   0  0  0  0  0  0  0  0  0  0  0  0
   -0.6021    1.8456   -0.1308 H   0  0  0  0  0  0  0  0  0  0  0  0
    0.7473    1.1941   -1.0729 H   0  0  0  0  0  0  0  0  0  0  0  0
   -1.2037    0.7691   -1.8913 C   0  0  0  0  0  0  0  0  0  0  0  0
   -0.6121    0.5564   -2.7850 H   0  0  0  0  0  0  0  0  0  0  0  0
   -1.8262   -0.1051   -1.6831 H   0  0  0  0  0  0  0  0  0  0  0  0
   -2.1072    1.9783   -2.1748 C   0  0  0  0  0  0  0  0  0  0  0  0
   -2.0935    2.9329   -1.3654 O   0  5  0  0  0  0  0  0  0  0  0  0
   -2.7874    1.9366   -3.2241 O   0  0  0  0  0  0  0  0  0  0  0  0
    0.1881    0.1678    1.7015 C   0  0  0  0  0  0  0  0  0  0  0  0
    1.3379    0.0002    2.1133 O   0  0  0  0  0  0  0  0  0  0  0  0
   -0.7666    0.7145    2.4656 N   0  0  0  0  0  0  0  0  0  0  0  0
   -1.6971    0.7705    2.0790 H   0  0  0  0  0  0  0  0  0  0  0  0
   -0.5716    1.1232    3.8542 C   0  0  0  0  0  0  0  0  0  0  0  0
    0.3083    1.7643    3.9293 H   0  0  0  0  0  0  0  0  0  0  0  0
   -1.4485    1.6640    4.2131 H   0  0  0  0  0  0  0  0  0  0  0  0
   -0.4137    0.2381    4.4736 H   0  0  0  0  0  0  0  0  0  0  0  0
  5  6  2  0  0  0  0
  5  7  1  0  0  0  0
  2  3  1  0  0  0  0
  2  4  1  0  0  0  0
  2  5  1  0  0  0  0
  1  2  1  0  0  0  0
 20 21  2  0  0  0  0
 20 22  1  0  0  0  0
 17 18  1  0  0  0  0
 17 19  2  0  0  0  0
 14 15  1  0  0  0  0
 14 16  1  0  0  0  0
 14 17  1  0  0  0  0
 11 12  1  0  0  0  0
 11 13  1  0  0  0  0
 11 14  1  0  0  0  0
  9 10  1  0  0  0  0
  9 11  1  0  0  0  0
  9 20  1  0  0  0  0
  7  8  1  0  0  0  0
  7  9  1  0  0  0  0
 24 25  1  0  0  0  0
 24 26  1  0  0  0  0
 24 27  1  0  0  0  0
 22 23  1  0  0  0  0
 22 24  1  0  0  0  0
M  CHG  1  18  -1
M  END
$$$$
default_name
  -OEChem-02102213163D

 27 26  0     1  0  0  0  0  0999 V2000
   -3.2406   -3.5400    1.2326 H   0  0  0  0  0  0  0  0  0  0  0  0
   -3.1436   -2.6190    0.6606 C   0  0  0  0  0  0  0  0  0  0  0  0
   -3.8786   -1.8920    0.9996 H   0  0  0  0  0  0  0  0  0  0  0  0
   -3.2846   -2.8280   -0.3984 H   0  0  0  0  0  0  0  0  0  0  0  0
   -1.7586   -2.0580    0.8686 C   0  0  0  0  0  0  0  0  0  0  0  0
   -0.9666   -2.6340    1.6026 O   0  0  0  0  0  0  0  0  0  0  0  0
   -1.4866   -0.9220    0.2366 N   0  0  0  0  0  0  0  0  0  0  0  0
   -2.2166   -0.4790   -0.2994 H   0  0  0  0  0  0  0  0  0  0  0  0
   -0.1956   -0.2250    0.2596 C   0  0  1  0  0  0  0  0  0  0  0  0
    0.5755   -0.9013   -0.1105 H   0  0  0  0  0  0  0  0  0  0  0  0
   -0.2553    0.9811   -0.6992 C   0  0  0  0  0  0  0  0  0  0  0  0
   -0.6021    1.8456   -0.1308 H   0  0  0  0  0  0  0  0  0  0  0  0
    0.7473    1.1941   -1.0729 H   0  0  0  0  0  0  0  0  0  0  0  0
   -1.2037    0.7691   -1.8913 C   0  0  0  0  0  0  0  0  0  0  0  0
   -0.6506    0.3006   -2.7089 H   0  0  0  0  0  0  0  0  0  0  0  0
   -1.9950    0.0812   -1.5820 H   0  0  0  0  0  0  0  0  0  0  0  0
   -1.8365    2.0703   -2.4065 C   0  0  0  0  0  0  0  0  0  0  0  0
   -1.6445    3.1224   -1.7563 O   0  5  0  0  0  0  0  0  0  0  0  0
   -2.4905    1.9932   -3.4703 O   0  0  0  0  0  0  0  0  0  0  0  0
    0.1881    0.1678    1.7015 C   0  0  0  0  0  0  0  0  0  0  0  0
    1.3379    0.0002    2.1133 O   0  0  0  0  0  0  0  0  0  0  0  0
   -0.7666    0.7145    2.4656 N   0  0  0  0  0  0  0  0  0  0  0  0
   -1.6971    0.7705    2.0790 H   0  0  0  0  0  0  0  0  0  0  0  0
   -0.5716    1.1232    3.8542 C   0  0  0  0  0  0  0  0  0  0  0  0
    0.3083    1.7643    3.9293 H   0  0  0  0  0  0  0  0  0  0  0  0
   -1.4485    1.6640    4.2131 H   0  0  0  0  0  0  0  0  0  0  0  0
   -0.4137    0.2381    4.4736 H   0  0  0  0  0  0  0  0  0  0  0  0
  5  6  2  0  0  0  0
  5  7  1  0  0  0  0
  2  3  1  0  0  0  0
  2  4  1  0  0  0  0
  2  5  1  0  0  0  0
  1  2  1  0  0  0  0
 20 21  2  0  0  0  0
 20 22  1  0  0  0  0
 17 18  1  0  0  0  0
 17 19  2  0  0  0  0
 14 15  1  0  0  0  0
 14 16  1  0  0  0  0
 14 17  1  0  0  0  0
 11 12  1  0  0  0  0
 11 13  1  0  0  0  0
 11 14  1  0  0  0  0
  9 10  1  0  0  0  0
  9 11  1  0  0  0  0
  9 20  1  0  0  0  0
  7  8  1  0  0  0  0
  7  9  1  0  0  0  0
 24 25  1  0  0  0  0
 24 26  1  0  0  0  0
 24 27  1  0  0  0  0
 22 23  1  0  0  0  0
 22 24  1  0  0  0  0
M  CHG  1  18  -1
M  END
$$$$
default_name
  -OEChem-02102213163D

 27 26  0     1  0  0  0  0  0999 V2000
   -3.2406   -3.5400    1.2326 H   0  0  0  0  0  0  0  0  0  0  0  0
   -3.1436   -2.6190    0.6606 C   0  0  0  0  0  0  0  0  0  0  0  0
   -3.8786   -1.8920    0.9996 H   0  0  0  0  0  0  0  0  0  0  0  0
   -3.2846   -2.8280   -0.3984 H   0  0  0  0  0  0  0  0  0  0  0  0
   -1.7586   -2.0580    0.8686 C   0  0  0  0  0  0  0  0  0  0  0  0
   -0.9666   -2.6340    1.6026 O   0  0  0  0  0  0  0  0  0  0  0  0
   -1.4866   -0.9220    0.2366 N   0  0  0  0  0  0  0  0  0  0  0  0
   -2.2166   -0.4790   -0.2994 H   0  0  0  0  0  0  0  0  0  0  0  0
   -0.1956   -0.2250    0.2596 C   0  0  1  0  0  0  0  0  0  0  0  0
    0.5755   -0.9013   -0.1105 H   0  0  0  0  0  0  0  0  0  0  0  0
   -0.2553    0.9811   -0.6992 C   0  0  0  0  0  0  0  0  0  0  0  0
   -0.6021    1.8456   -0.1308 H   0  0  0  0  0  0  0  0  0  0  0  0
    0.7473    1.1941   -1.0729 H   0  0  0  0  0  0  0  0  0  0  0  0
   -1.2037    0.7691   -1.8913 C   0  0  0  0  0  0  0  0  0  0  0  0
   -0.7417    0.0735   -2.5960 H   0  0  0  0  0  0  0  0  0  0  0  0
   -2.1243    0.3112   -1.5200 H   0  0  0  0  0  0  0  0  0  0  0  0
   -1.5484    2.0678   -2.6353 C   0  0  0  0  0  0  0  0  0  0  0  0
   -1.1589    3.1529   -2.1480 O   0  5  0  0  0  0  0  0  0  0  0  0
   -2.1836    1.9489   -3.7066 O   0  0  0  0  0  0  0  0  0  0  0  0
    0.1881    0.1678    1.7015 C   0  0  0  0  0  0  0  0  0  0  0  0
    1.3379    0.0002    2.1133 O   0  0  0  0  0  0  0  0  0  0  0  0
   -0.7666    0.7145    2.4656 N   0  0  0  0  0  0  0  0  0  0  0  0
   -1.6971    0.7705    2.0790 H   0  0  0  0  0  0  0  0  0  0  0  0
   -0.5716    1.1232    3.8542 C   0  0  0  0  0  0  0  0  0  0  0  0
    0.3083    1.7643    3.9293 H   0  0  0  0  0  0  0  0  0  0  0  0
   -1.4485    1.6640    4.2131 H   0  0  0  0  0  0  0  0  0  0  0  0
   -0.4137    0.2381    4.4736 H   0  0  0  0  0  0  0  0  0  0  0  0
  5  6  2  0  0  0  0
  5  7  1  0  0  0  0
  2  3  1  0  0  0  0
  2  4  1  0  0  0  0
  2  5  1  0  0  0  0
  1  2  1  0  0  0  0
 20 21  2  0  0  0  0
 20 22  1  0  0  0  0
 17 18  1  0  0  0  0
 17 19  2  0  0  0  0
 14 15  1  0  0  0  0
 14 16  1  0  0  0  0
 14 17  1  0  0  0  0
 11 12  1  0  0  0  0
 11 13  1  0  0  0  0
 11 14  1  0  0  0  0
  9 10  1  0  0  0  0
  9 11  1  0  0  0  0
  9 20  1  0  0  0  0
  7  8  1  0  0  0  0
  7  9  1  0  0  0  0
 24 25  1  0  0  0  0
 24 26  1  0  0  0  0
 24 27  1  0  0  0  0
 22 23  1  0  0  0  0
 22 24  1  0  0  0  0
M  CHG  1  18  -1
M  END
$$$$
default_name
  -OEChem-02102213163D

 27 26  0     1  0  0  0  0  0999 V2000
   -3.2406   -3.5400    1.2326 H   0  0  0  0  0  0  0  0  0  0  0  0
   -3.1436   -2.6190    0.6606 C   0  0  0  0  0  0  0  0  0  0  0  0
   -3.8786   -1.8920    0.9996 H   0  0  0  0  0  0  0  0  0  0  0  0
   -3.2846   -2.8280   -0.3984 H   0  0  0  0  0  0  0  0  0  0  0  0
   -1.7586   -2.0580    0.8686 C   0  0  0  0  0  0  0  0  0  0  0  0
   -0.9666   -2.6340    1.6026 O   0  0  0  0  0  0  0  0  0  0  0  0
   -1.4866   -0.9220    0.2366 N   0  0  0  0  0  0  0  0  0  0  0  0
   -2.2166   -0.4790   -0.2994 H   0  0  0  0  0  0  0  0  0  0  0  0
   -0.1956   -0.2250    0.2596 C   0  0  1  0  0  0  0  0  0  0  0  0
    0.5755   -0.9013   -0.1105 H   0  0  0  0  0  0  0  0  0  0  0  0
   -0.2553    0.9811   -0.6992 C   0  0  0  0  0  0  0  0  0  0  0  0
   -0.3365    1.8866   -0.0957 H   0  0  0  0  0  0  0  0  0  0  0  0
    0.6713    1.0313   -1.2729 H   0  0  0  0  0  0  0  0  0  0  0  0
   -1.4476    0.9334   -1.6695 C   0  0  0  0  0  0  0  0  0  0  0  0
   -1.3893    0.0174   -2.2624 H   0  0  0  0  0  0  0  0  0  0  0  0
   -2.3679    0.8956   -1.0806 H   0  0  0  0  0  0  0  0  0  0  0  0
   -1.5062    2.1352   -2.6240 C   0  0  0  0  0  0  0  0  0  0  0  0
   -0.6982    3.0745   -2.4467 O   0  5  0  0  0  0  0  0  0  0  0  0
   -2.3541    2.0814   -3.5424 O   0  0  0  0  0  0  0  0  0  0  0  0
    0.1881    0.1678    1.7015 C   0  0  0  0  0  0  0  0  0  0  0  0
    1.3379    0.0002    2.1133 O   0  0  0  0  0  0  0  0  0  0  0  0
   -0.7666    0.7145    2.4656 N   0  0  0  0  0  0  0  0  0  0  0  0
   -1.6971    0.7705    2.0790 H   0  0  0  0  0  0  0  0  0  0  0  0
   -0.5716    1.1232    3.8542 C   0  0  0  0  0  0  0  0  0  0  0  0
    0.3083    1.7643    3.9293 H   0  0  0  0  0  0  0  0  0  0  0  0
   -1.4485    1.6640    4.2131 H   0  0  0  0  0  0  0  0  0  0  0  0
   -0.4137    0.2381    4.4736 H   0  0  0  0  0  0  0  0  0  0  0  0
  5  6  2  0  0  0  0
  5  7  1  0  0  0  0
  2  3  1  0  0  0  0
  2  4  1  0  0  0  0
  2  5  1  0  0  0  0
  1  2  1  0  0  0  0
 20 21  2  0  0  0  0
 20 22  1  0  0  0  0
 17 18  1  0  0  0  0
 17 19  2  0  0  0  0
 14 15  1  0  0  0  0
 14 16  1  0  0  0  0
 14 17  1  0  0  0  0
 11 12  1  0  0  0  0
 11 13  1  0  0  0  0
 11 14  1  0  0  0  0
  9 10  1  0  0  0  0
  9 11  1  0  0  0  0
  9 20  1  0  0  0  0
  7  8  1  0  0  0  0
  7  9  1  0  0  0  0
 24 25  1  0  0  0  0
 24 26  1  0  0  0  0
 24 27  1  0  0  0  0
 22 23  1  0  0  0  0
 22 24  1  0  0  0  0
M  CHG  1  18  -1
M  END
$$$$
default_name
  -OEChem-02102213163D

 27 26  0     1  0  0  0  0  0999 V2000
   -3.2406   -3.5400    1.2326 H   0  0  0  0  0  0  0  0  0  0  0  0
   -3.1436   -2.6190    0.6606 C   0  0  0  0  0  0  0  0  0  0  0  0
   -3.8786   -1.8920    0.9996 H   0  0  0  0  0  0  0  0  0  0  0  0
   -3.2846   -2.8280   -0.3984 H   0  0  0  0  0  0  0  0  0  0  0  0
   -1.7586   -2.0580    0.8686 C   0  0  0  0  0  0  0  0  0  0  0  0
   -0.9666   -2.6340    1.6026 O   0  0  0  0  0  0  0  0  0  0  0  0
   -1.4866   -0.9220    0.2366 N   0  0  0  0  0  0  0  0  0  0  0  0
   -2.2166   -0.4790   -0.2994 H   0  0  0  0  0  0  0  0  0  0  0  0
   -0.1956   -0.2250    0.2596 C   0  0  1  0  0  0  0  0  0  0  0  0
    0.5755   -0.9013   -0.1105 H   0  0  0  0  0  0  0  0  0  0  0  0
   -0.2553    0.9811   -0.6992 C   0  0  0  0  0  0  0  0  0  0  0  0
   -0.3365    1.8866   -0.0957 H   0  0  0  0  0  0  0  0  0  0  0  0
    0.6713    1.0313   -1.2729 H   0  0  0  0  0  0  0  0  0  0  0  0
   -1.4476    0.9334   -1.6695 C   0  0  0  0  0  0  0  0  0  0  0  0
   -1.5455   -0.0803   -2.0656 H   0  0  0  0  0  0  0  0  0  0  0  0
   -2.3565    1.1650   -1.1078 H   0  0  0  0  0  0  0  0  0  0  0  0
   -1.3164    1.9116   -2.8462 C   0  0  0  0  0  0  0  0  0  0  0  0
   -0.3637    2.7234   -2.8405 O   0  5  0  0  0  0  0  0  0  0  0  0
   -2.1695    1.8126   -3.7560 O   0  0  0  0  0  0  0  0  0  0  0  0
    0.1881    0.1678    1.7015 C   0  0  0  0  0  0  0  0  0  0  0  0
    1.3379    0.0002    2.1133 O   0  0  0  0  0  0  0  0  0  0  0  0
   -0.7666    0.7145    2.4656 N   0  0  0  0  0  0  0  0  0  0  0  0
   -1.6971    0.7705    2.0790 H   0  0  0  0  0  0  0  0  0  0  0  0
   -0.5716    1.1232    3.8542 C   0  0  0  0  0  0  0  0  0  0  0  0
    0.3083    1.7643    3.9293 H   0  0  0  0  0  0  0  0  0  0  0  0
   -1.4485    1.6640    4.2131 H   0  0  0  0  0  0  0  0  0  0  0  0
   -0.4137    0.2381    4.4736 H   0  0  0  0  0  0  0  0  0  0  0  0
  5  6  2  0  0  0  0
  5  7  1  0  0  0  0
  2  3  1  0  0  0  0
  2  4  1  0  0  0  0
  2  5  1  0  0  0  0
  1  2  1  0  0  0  0
 20 21  2  0  0  0  0
 20 22  1  0  0  0  0
 17 18  1  0  0  0  0
 17 19  2  0  0  0  0
 14 15  1  0  0  0  0
 14 16  1  0  0  0  0
 14 17  1  0  0  0  0
 11 12  1  0  0  0  0
 11 13  1  0  0  0  0
 11 14  1  0  0  0  0
  9 10  1  0  0  0  0
  9 11  1  0  0  0  0
  9 20  1  0  0  0  0
  7  8  1  0  0  0  0
  7  9  1  0  0  0  0
 24 25  1  0  0  0  0
 24 26  1  0  0  0  0
 24 27  1  0  0  0  0
 22 23  1  0  0  0  0
 22 24  1  0  0  0  0
M  CHG  1  18  -1
M  END
$$$$
default_name
  -OEChem-02102213163D

 27 26  0     1  0  0  0  0  0999 V2000
   -3.2406   -3.5400    1.2326 H   0  0  0  0  0  0  0  0  0  0  0  0
   -3.1436   -2.6190    0.6606 C   0  0  0  0  0  0  0  0  0  0  0  0
   -3.8786   -1.8920    0.9996 H   0  0  0  0  0  0  0  0  0  0  0  0
   -3.2846   -2.8280   -0.3984 H   0  0  0  0  0  0  0  0  0  0  0  0
   -1.7586   -2.0580    0.8686 C   0  0  0  0  0  0  0  0  0  0  0  0
   -0.9666   -2.6340    1.6026 O   0  0  0  0  0  0  0  0  0  0  0  0
   -1.4866   -0.9220    0.2366 N   0  0  0  0  0  0  0  0  0  0  0  0
   -2.2166   -0.4790   -0.2994 H   0  0  0  0  0  0  0  0  0  0  0  0
   -0.1956   -0.2250    0.2596 C   0  0  1  0  0  0  0  0  0  0  0  0
    0.5755   -0.9013   -0.1105 H   0  0  0  0  0  0  0  0  0  0  0  0
   -0.2553    0.9811   -0.6992 C   0  0  0  0  0  0  0  0  0  0  0  0
   -0.3365    1.8866   -0.0957 H   0  0  0  0  0  0  0  0  0  0  0  0
    0.6713    1.0313   -1.2729 H   0  0  0  0  0  0  0  0  0  0  0  0
   -1.4476    0.9334   -1.6695 C   0  0  0  0  0  0  0  0  0  0  0  0
   -1.7139   -0.1096   -1.8572 H   0  0  0  0  0  0  0  0  0  0  0  0
   -2.3013    1.4178   -1.1881 H   0  0  0  0  0  0  0  0  0  0  0  0
   -1.1677    1.6201   -3.0145 C   0  0  0  0  0  0  0  0  0  0  0  0
   -0.0948    2.2506   -3.1476 O   0  5  0  0  0  0  0  0  0  0  0  0
   -2.0334    1.4799   -3.9068 O   0  0  0  0  0  0  0  0  0  0  0  0
    0.1881    0.1678    1.7015 C   0  0  0  0  0  0  0  0  0  0  0  0
    1.3379    0.0002    2.1133 O   0  0  0  0  0  0  0  0  0  0  0  0
   -0.7666    0.7145    2.4656 N   0  0  0  0  0  0  0  0  0  0  0  0
   -1.6971    0.7705    2.0790 H   0  0  0  0  0  0  0  0  0  0  0  0
   -0.5716    1.1232    3.8542 C   0  0  0  0  0  0  0  0  0  0  0  0
    0.3083    1.7643    3.9293 H   0  0  0  0  0  0  0  0  0  0  0  0
   -1.4485    1.6640    4.2131 H   0  0  0  0  0  0  0  0  0  0  0  0
   -0.4137    0.2381    4.4736 H   0  0  0  0  0  0  0  0  0  0  0  0
  5  6  2  0  0  0  0
  5  7  1  0  0  0  0
  2  3  1  0  0  0  0
  2  4  1  0  0  0  0
  2  5  1  0  0  0  0
  1  2  1  0  0  0  0
 20 21  2  0  0  0  0
 20 22  1  0  0  0  0
 17 18  1  0  0  0  0
 17 19  2  0  0  0  0
 14 15  1  0  0  0  0
 14 16  1  0  0  0  0
 14 17  1  0  0  0  0
 11 12  1  0  0  0  0
 11 13  1  0  0  0  0
 11 14  1  0  0  0  0
  9 10  1  0  0  0  0
  9 11  1  0  0  0  0
  9 20  1  0  0  0  0
  7  8  1  0  0  0  0
  7  9  1  0  0  0  0
 24 25  1  0  0  0  0
 24 26  1  0  0  0  0
 24 27  1  0  0  0  0
 22 23  1  0  0  0  0
 22 24  1  0  0  0  0
M  CHG  1  18  -1
M  END
$$$$
default_name
  -OEChem-02102213163D

 27 26  0     1  0  0  0  0  0999 V2000
   -3.2406   -3.5400    1.2326 H   0  0  0  0  0  0  0  0  0  0  0  0
   -3.1436   -2.6190    0.6606 C   0  0  0  0  0  0  0  0  0  0  0  0
   -3.8786   -1.8920    0.9996 H   0  0  0  0  0  0  0  0  0  0  0  0
   -3.2846   -2.8280   -0.3984 H   0  0  0  0  0  0  0  0  0  0  0  0
   -1.7586   -2.0580    0.8686 C   0  0  0  0  0  0  0  0  0  0  0  0
   -0.9666   -2.6340    1.6026 O   0  0  0  0  0  0  0  0  0  0  0  0
   -1.4866   -0.9220    0.2366 N   0  0  0  0  0  0  0  0  0  0  0  0
   -2.2166   -0.4790   -0.2994 H   0  0  0  0  0  0  0  0  0  0  0  0
   -0.1956   -0.2250    0.2596 C   0  0  1  0  0  0  0  0  0  0  0  0
    0.5755   -0.9013   -0.1105 H   0  0  0  0  0  0  0  0  0  0  0  0
   -0.2553    0.9811   -0.6992 C   0  0  0  0  0  0  0  0  0  0  0  0
   -0.3365    1.8866   -0.0957 H   0  0  0  0  0  0  0  0  0  0  0  0
    0.6713    1.0313   -1.2729 H   0  0  0  0  0  0  0  0  0  0  0  0
   -1.4476    0.9334   -1.6695 C   0  0  0  0  0  0  0  0  0  0  0  0
   -1.8831   -0.0686   -1.6513 H   0  0  0  0  0  0  0  0  0  0  0  0
   -2.2060    1.6369   -1.3160 H   0  0  0  0  0  0  0  0  0  0  0  0
   -1.0704    1.2805   -3.1173 C   0  0  0  0  0  0  0  0  0  0  0  0
    0.0903    1.6884   -3.3473 O   0  5  0  0  0  0  0  0  0  0  0  0
   -1.9550    1.1061   -3.9847 O   0  0  0  0  0  0  0  0  0  0  0  0
    0.1881    0.1678    1.7015 C   0  0  0  0  0  0  0  0  0  0  0  0
    1.3379    0.0002    2.1133 O   0  0  0  0  0  0  0  0  0  0  0  0
   -0.7666    0.7145    2.4656 N   0  0  0  0  0  0  0  0  0  0  0  0
   -1.6971    0.7705    2.0790 H   0  0  0  0  0  0  0  0  0  0  0  0
   -0.5716    1.1232    3.8542 C   0  0  0  0  0  0  0  0  0  0  0  0
    0.3083    1.7643    3.9293 H   0  0  0  0  0  0  0  0  0  0  0  0
   -1.4485    1.6640    4.2131 H   0  0  0  0  0  0  0  0  0  0  0  0
   -0.4137    0.2381    4.4736 H   0  0  0  0  0  0  0  0  0  0  0  0
  5  6  2  0  0  0  0
  5  7  1  0  0  0  0
  2  3  1  0  0  0  0
  2  4  1  0  0  0  0
  2  5  1  0  0  0  0
  1  2  1  0  0  0  0
 20 21  2  0  0  0  0
 20 22  1  0  0  0  0
 17 18  1  0  0  0  0
 17 19  2  0  0  0  0
 14 15  1  0  0  0  0
 14 16  1  0  0  0  0
 14 17  1  0  0  0  0
 11 12  1  0  0  0  0
 11 13  1  0  0  0  0
 11 14  1  0  0  0  0
  9 10  1  0  0  0  0
  9 11  1  0  0  0  0
  9 20  1  0  0  0  0
  7  8  1  0  0  0  0
  7  9  1  0  0  0  0
 24 25  1  0  0  0  0
 24 26  1  0  0  0  0
 24 27  1  0  0  0  0
 22 23  1  0  0  0  0
 22 24  1  0  0  0  0
M  CHG  1  18  -1
M  END
$$$$
default_name
  -OEChem-02102213163D

 27 26  0     1  0  0  0  0  0999 V2000
   -3.2406   -3.5400    1.2326 H   0  0  0  0  0  0  0  0  0  0  0  0
   -3.1436   -2.6190    0.6606 C   0  0  0  0  0  0  0  0  0  0  0  0
   -3.8786   -1.8920    0.9996 H   0  0  0  0  0  0  0  0  0  0  0  0
   -3.2846   -2.8280   -0.3984 H   0  0  0  0  0  0  0  0  0  0  0  0
   -1.7586   -2.0580    0.8686 C   0  0  0  0  0  0  0  0  0  0  0  0
   -0.9666   -2.6340    1.6026 O   0  0  0  0  0  0  0  0  0  0  0  0
   -1.4866   -0.9220    0.2366 N   0  0  0  0  0  0  0  0  0  0  0  0
   -2.2166   -0.4790   -0.2994 H   0  0  0  0  0  0  0  0  0  0  0  0
   -0.1956   -0.2250    0.2596 C   0  0  1  0  0  0  0  0  0  0  0  0
    0.5755   -0.9013   -0.1105 H   0  0  0  0  0  0  0  0  0  0  0  0
   -0.2553    0.9811   -0.6992 C   0  0  0  0  0  0  0  0  0  0  0  0
   -0.3365    1.8866   -0.0957 H   0  0  0  0  0  0  0  0  0  0  0  0
    0.6713    1.0313   -1.2729 H   0  0  0  0  0  0  0  0  0  0  0  0
   -1.4476    0.9334   -1.6695 C   0  0  0  0  0  0  0  0  0  0  0  0
   -2.0414    0.0399   -1.4621 H   0  0  0  0  0  0  0  0  0  0  0  0
   -2.0772    1.8074   -1.4827 H   0  0  0  0  0  0  0  0  0  0  0  0
   -1.0311    0.9159   -3.1477 C   0  0  0  0  0  0  0  0  0  0  0  0
    0.1788    1.0751   -3.4259 O   0  5  0  0  0  0  0  0  0  0  0  0
   -1.9397    0.7165   -3.9843 O   0  0  0  0  0  0  0  0  0  0  0  0
    0.1881    0.1678    1.7015 C   0  0  0  0  0  0  0  0  0  0  0  0
    1.3379    0.0002    2.1133 O   0  0  0  0  0  0  0  0  0  0  0  0
   -0.7666    0.7145    2.4656 N   0  0  0  0  0  0  0  0  0  0  0  0
   -1.6971    0.7705    2.0790 H   0  0  0  0  0  0  0  0  0  0  0  0
   -0.5716    1.1232    3.8542 C   0  0  0  0  0  0  0  0  0  0  0  0
    0.3083    1.7643    3.9293 H   0  0  0  0  0  0  0  0  0  0  0  0
   -1.4485    1.6640    4.2131 H   0  0  0  0  0  0  0  0  0  0  0  0
   -0.4137    0.2381    4.4736 H   0  0  0  0  0  0  0  0  0  0  0  0
  5  6  2  0  0  0  0
  5  7  1  0  0  0  0
  2  3  1  0  0  0  0
  2  4  1  0  0  0  0
  2  5  1  0  0  0  0
  1  2  1  0  0  0  0
 20 21  2  0  0  0  0
 20 22  1  0  0  0  0
 17 18  1  0  0  0  0
 17 19  2  0  0  0  0
 14 15  1  0  0  0  0
 14 16  1  0  0  0  0
 14 17  1  0  0  0  0
 11 12  1  0  0  0  0
 11 13  1  0  0  0  0
 11 14  1  0  0  0  0
  9 10  1  0  0  0  0
  9 11  1  0  0  0  0
  9 20  1  0  0  0  0
  7  8  1  0  0  0  0
  7  9  1  0  0  0  0
 24 25  1  0  0  0  0
 24 26  1  0  0  0  0
 24 27  1  0  0  0  0
 22 23  1  0  0  0  0
 22 24  1  0  0  0  0
M  CHG  1  18  -1
M  END
$$$$
default_name
  -OEChem-02102213163D

 27 26  0     1  0  0  0  0  0999 V2000
   -3.2406   -3.5400    1.2326 H   0  0  0  0  0  0  0  0  0  0  0  0
   -3.1436   -2.6190    0.6606 C   0  0  0  0  0  0  0  0  0  0  0  0
   -3.8786   -1.8920    0.9996 H   0  0  0  0  0  0  0  0  0  0  0  0
   -3.2846   -2.8280   -0.3984 H   0  0  0  0  0  0  0  0  0  0  0  0
   -1.7586   -2.0580    0.8686 C   0  0  0  0  0  0  0  0  0  0  0  0
   -0.9666   -2.6340    1.6026 O   0  0  0  0  0  0  0  0  0  0  0  0
   -1.4866   -0.9220    0.2366 N   0  0  0  0  0  0  0  0  0  0  0  0
   -2.2166   -0.4790   -0.2994 H   0  0  0  0  0  0  0  0  0  0  0  0
   -0.1956   -0.2250    0.2596 C   0  0  1  0  0  0  0  0  0  0  0  0
    0.5755   -0.9013   -0.1105 H   0  0  0  0  0  0  0  0  0  0  0  0
   -0.2553    0.9811   -0.6992 C   0  0  0  0  0  0  0  0  0  0  0  0
   -0.3365    1.8866   -0.0957 H   0  0  0  0  0  0  0  0  0  0  0  0
    0.6713    1.0313   -1.2729 H   0  0  0  0  0  0  0  0  0  0  0  0
   -1.4476    0.9334   -1.6695 C   0  0  0  0  0  0  0  0  0  0  0  0
   -2.1782    0.2085   -1.3024 H   0  0  0  0  0  0  0  0  0  0  0  0
   -1.9236    1.9175   -1.6768 H   0  0  0  0  0  0  0  0  0  0  0  0
   -1.0523    0.5513   -3.1036 C   0  0  0  0  0  0  0  0  0  0  0  0
    0.1648    0.4524   -3.3780 O   0  5  0  0  0  0  0  0  0  0  0  0
   -1.9886    0.3379   -3.9056 O   0  0  0  0  0  0  0  0  0  0  0  0
    0.1881    0.1678    1.7015 C   0  0  0  0  0  0  0  0  0  0  0  0
    1.3379    0.0002    2.1133 O   0  0  0  0  0  0  0  0  0  0  0  0
   -0.7666    0.7145    2.4656 N   0  0  0  0  0  0  0  0  0  0  0  0
   -1.6971    0.7705    2.0790 H   0  0  0  0  0  0  0  0  0  0  0  0
   -0.5716    1.1232    3.8542 C   0  0  0  0  0  0  0  0  0  0  0  0
    0.3083    1.7643    3.9293 H   0  0  0  0  0  0  0  0  0  0  0  0
   -1.4485    1.6640    4.2131 H   0  0  0  0  0  0  0  0  0  0  0  0
   -0.4137    0.2381    4.4736 H   0  0  0  0  0  0  0  0  0  0  0  0
  5  6  2  0  0  0  0
  5  7  1  0  0  0  0
  2  3  1  0  0  0  0
  2  4  1  0  0  0  0
  2  5  1  0  0  0  0
  1  2  1  0  0  0  0
 20 21  2  0  0  0  0
 20 22  1  0  0  0  0
 17 18  1  0  0  0  0
 17 19  2  0  0  0  0
 14 15  1  0  0  0  0
 14 16  1  0  0  0  0
 14 17  1  0  0  0  0
 11 12  1  0  0  0  0
 11 13  1  0  0  0  0
 11 14  1  0  0  0  0
  9 10  1  0  0  0  0
  9 11  1  0  0  0  0
  9 20  1  0  0  0  0
  7  8  1  0  0  0  0
  7  9  1  0  0  0  0
 24 25  1  0  0  0  0
 24 26  1  0  0  0  0
 24 27  1  0  0  0  0
 22 23  1  0  0  0  0
 22 24  1  0  0  0  0
M  CHG  1  18  -1
M  END
$$$$
default_name
  -OEChem-02102213163D

 27 26  0     1  0  0  0  0  0999 V2000
   -3.2406   -3.5400    1.2326 H   0  0  0  0  0  0  0  0  0  0  0  0
   -3.1436   -2.6190    0.6606 C   0  0  0  0  0  0  0  0  0  0  0  0
   -3.8786   -1.8920    0.9996 H   0  0  0  0  0  0  0  0  0  0  0  0
   -3.2846   -2.8280   -0.3984 H   0  0  0  0  0  0  0  0  0  0  0  0
   -1.7586   -2.0580    0.8686 C   0  0  0  0  0  0  0  0  0  0  0  0
   -0.9666   -2.6340    1.6026 O   0  0  0  0  0  0  0  0  0  0  0  0
   -1.4866   -0.9220    0.2366 N   0  0  0  0  0  0  0  0  0  0  0  0
   -2.2166   -0.4790   -0.2994 H   0  0  0  0  0  0  0  0  0  0  0  0
   -0.1956   -0.2250    0.2596 C   0  0  1  0  0  0  0  0  0  0  0  0
    0.5755   -0.9013   -0.1105 H   0  0  0  0  0  0  0  0  0  0  0  0
   -0.2553    0.9811   -0.6992 C   0  0  0  0  0  0  0  0  0  0  0  0
   -0.3365    1.8866   -0.0957 H   0  0  0  0  0  0  0  0  0  0  0  0
    0.6713    1.0313   -1.2729 H   0  0  0  0  0  0  0  0  0  0  0  0
   -1.4476    0.9334   -1.6695 C   0  0  0  0  0  0  0  0  0  0  0  0
   -2.2841    0.4258   -1.1830 H   0  0  0  0  0  0  0  0  0  0  0  0
   -1.7556    1.9598   -1.8853 H   0  0  0  0  0  0  0  0  0  0  0  0
   -1.1328    0.2114   -2.9880 C   0  0  0  0  0  0  0  0  0  0  0  0
    0.0492   -0.1371   -3.2069 O   0  5  0  0  0  0  0  0  0  0  0  0
   -2.0982   -0.0041   -3.7540 O   0  0  0  0  0  0  0  0  0  0  0  0
    0.1881    0.1678    1.7015 C   0  0  0  0  0  0  0  0  0  0  0  0
    1.3379    0.0002    2.1133 O   0  0  0  0  0  0  0  0  0  0  0  0
   -0.7666    0.7145    2.4656 N   0  0  0  0  0  0  0  0  0  0  0  0
   -1.6971    0.7705    2.0790 H   0  0  0  0  0  0  0  0  0  0  0  0
   -0.5716    1.1232    3.8542 C   0  0  0  0  0  0  0  0  0  0  0  0
    0.3083    1.7643    3.9293 H   0  0  0  0  0  0  0  0  0  0  0  0
   -1.4485    1.6640    4.2131 H   0  0  0  0  0  0  0  0  0  0  0  0
   -0.4137    0.2381    4.4736 H   0  0  0  0  0  0  0  0  0  0  0  0
  5  6  2  0  0  0  0
  5  7  1  0  0  0  0
  2  3  1  0  0  0  0
  2  4  1  0  0  0  0
  2  5  1  0  0  0  0
  1  2  1  0  0  0  0
 20 21  2  0  0  0  0
 20 22  1  0  0  0  0
 17 18  1  0  0  0  0
 17 19  2  0  0  0  0
 14 15  1  0  0  0  0
 14 16  1  0  0  0  0
 14 17  1  0  0  0  0
 11 12  1  0  0  0  0
 11 13  1  0  0  0  0
 11 14  1  0  0  0  0
  9 10  1  0  0  0  0
  9 11  1  0  0  0  0
  9 20  1  0  0  0  0
  7  8  1  0  0  0  0
  7  9  1  0  0  0  0
 24 25  1  0  0  0  0
 24 26  1  0  0  0  0
 24 27  1  0  0  0  0
 22 23  1  0  0  0  0
 22 24  1  0  0  0  0
M  CHG  1  18  -1
M  END
$$$$
default_name
  -OEChem-02102213163D

 27 26  0     1  0  0  0  0  0999 V2000
   -3.2406   -3.5400    1.2326 H   0  0  0  0  0  0  0  0  0  0  0  0
   -3.1436   -2.6190    0.6606 C   0  0  0  0  0  0  0  0  0  0  0  0
   -3.8786   -1.8920    0.9996 H   0  0  0  0  0  0  0  0  0  0  0  0
   -3.2846   -2.8280   -0.3984 H   0  0  0  0  0  0  0  0  0  0  0  0
   -1.7586   -2.0580    0.8686 C   0  0  0  0  0  0  0  0  0  0  0  0
   -0.9666   -2.6340    1.6026 O   0  0  0  0  0  0  0  0  0  0  0  0
   -1.4866   -0.9220    0.2366 N   0  0  0  0  0  0  0  0  0  0  0  0
   -2.2166   -0.4790   -0.2994 H   0  0  0  0  0  0  0  0  0  0  0  0
   -0.1956   -0.2250    0.2596 C   0  0  1  0  0  0  0  0  0  0  0  0
    0.5755   -0.9013   -0.1105 H   0  0  0  0  0  0  0  0  0  0  0  0
   -0.2553    0.9811   -0.6992 C   0  0  0  0  0  0  0  0  0  0  0  0
   -0.3365    1.8866   -0.0957 H   0  0  0  0  0  0  0  0  0  0  0  0
    0.6713    1.0313   -1.2729 H   0  0  0  0  0  0  0  0  0  0  0  0
   -1.4476    0.9334   -1.6695 C   0  0  0  0  0  0  0  0  0  0  0  0
   -2.3518    0.6769   -1.1121 H   0  0  0  0  0  0  0  0  0  0  0  0
   -1.5849    1.9315   -2.0937 H   0  0  0  0  0  0  0  0  0  0  0  0
   -1.2669   -0.0807   -2.8088 C   0  0  0  0  0  0  0  0  0  0  0  0
   -0.1601   -0.6534   -2.9243 O   0  5  0  0  0  0  0  0  0  0  0  0
   -2.2612   -0.2861   -3.5399 O   0  0  0  0  0  0  0  0  0  0  0  0
    0.1881    0.1678    1.7015 C   0  0  0  0  0  0  0  0  0  0  0  0
    1.3379    0.0002    2.1133 O   0  0  0  0  0  0  0  0  0  0  0  0
   -0.7666    0.7145    2.4656 N   0  0  0  0  0  0  0  0  0  0  0  0
   -1.6971    0.7705    2.0790 H   0  0  0  0  0  0  0  0  0  0  0  0
   -0.5716    1.1232    3.8542 C   0  0  0  0  0  0  0  0  0  0  0  0
    0.3083    1.7643    3.9293 H   0  0  0  0  0  0  0  0  0  0  0  0
   -1.4485    1.6640    4.2131 H   0  0  0  0  0  0  0  0  0  0  0  0
   -0.4137    0.2381    4.4736 H   0  0  0  0  0  0  0  0  0  0  0  0
  5  6  2  0  0  0  0
  5  7  1  0  0  0  0
  2  3  1  0  0  0  0
  2  4  1  0  0  0  0
  2  5  1  0  0  0  0
  1  2  1  0  0  0  0
 20 21  2  0  0  0  0
 20 22  1  0  0  0  0
 17 18  1  0  0  0  0
 17 19  2  0  0  0  0
 14 15  1  0  0  0  0
 14 16  1  0  0  0  0
 14 17  1  0  0  0  0
 11 12  1  0  0  0  0
 11 13  1  0  0  0  0
 11 14  1  0  0  0  0
  9 10  1  0  0  0  0
  9 11  1  0  0  0  0
  9 20  1  0  0  0  0
  7  8  1  0  0  0  0
  7  9  1  0  0  0  0
 24 25  1  0  0  0  0
 24 26  1  0  0  0  0
 24 27  1  0  0  0  0
 22 23  1  0  0  0  0
 22 24  1  0  0  0  0
M  CHG  1  18  -1
M  END
$$$$
default_name
  -OEChem-02102213163D

 27 26  0     1  0  0  0  0  0999 V2000
   -3.2406   -3.5400    1.2326 H   0  0  0  0  0  0  0  0  0  0  0  0
   -3.1436   -2.6190    0.6606 C   0  0  0  0  0  0  0  0  0  0  0  0
   -3.8786   -1.8920    0.9996 H   0  0  0  0  0  0  0  0  0  0  0  0
   -3.2846   -2.8280   -0.3984 H   0  0  0  0  0  0  0  0  0  0  0  0
   -1.7586   -2.0580    0.8686 C   0  0  0  0  0  0  0  0  0  0  0  0
   -0.9666   -2.6340    1.6026 O   0  0  0  0  0  0  0  0  0  0  0  0
   -1.4866   -0.9220    0.2366 N   0  0  0  0  0  0  0  0  0  0  0  0
   -2.2166   -0.4790   -0.2994 H   0  0  0  0  0  0  0  0  0  0  0  0
   -0.1956   -0.2250    0.2596 C   0  0  1  0  0  0  0  0  0  0  0  0
    0.5755   -0.9013   -0.1105 H   0  0  0  0  0  0  0  0  0  0  0  0
   -0.2553    0.9811   -0.6992 C   0  0  0  0  0  0  0  0  0  0  0  0
   -0.3365    1.8866   -0.0957 H   0  0  0  0  0  0  0  0  0  0  0  0
    0.6713    1.0313   -1.2729 H   0  0  0  0  0  0  0  0  0  0  0  0
   -1.4476    0.9334   -1.6695 C   0  0  0  0  0  0  0  0  0  0  0  0
   -2.3768    0.9448   -1.0946 H   0  0  0  0  0  0  0  0  0  0  0  0
   -1.4228    1.8344   -2.2880 H   0  0  0  0  0  0  0  0  0  0  0  0
   -1.4456   -0.3049   -2.5782 C   0  0  0  0  0  0  0  0  0  0  0  0
   -0.4488   -1.0612   -2.5495 O   0  5  0  0  0  0  0  0  0  0  0  0
   -2.4664   -0.4890   -3.2777 O   0  0  0  0  0  0  0  0  0  0  0  0
    0.1881    0.1678    1.7015 C   0  0  0  0  0  0  0  0  0  0  0  0
    1.3379    0.0002    2.1133 O   0  0  0  0  0  0  0  0  0  0  0  0
   -0.7666    0.7145    2.4656 N   0  0  0  0  0  0  0  0  0  0  0  0
   -1.6971    0.7705    2.0790 H   0  0  0  0  0  0  0  0  0  0  0  0
   -0.5716    1.1232    3.8542 C   0  0  0  0  0  0  0  0  0  0  0  0
    0.3083    1.7643    3.9293 H   0  0  0  0  0  0  0  0  0  0  0  0
   -1.4485    1.6640    4.2131 H   0  0  0  0  0  0  0  0  0  0  0  0
   -0.4137    0.2381    4.4736 H   0  0  0  0  0  0  0  0  0  0  0  0
  5  6  2  0  0  0  0
  5  7  1  0  0  0  0
  2  3  1  0  0  0  0
  2  4  1  0  0  0  0
  2  5  1  0  0  0  0
  1  2  1  0  0  0  0
 20 21  2  0  0  0  0
 20 22  1  0  0  0  0
 17 18  1  0  0  0  0
 17 19  2  0  0  0  0
 14 15  1  0  0  0  0
 14 16  1  0  0  0  0
 14 17  1  0  0  0  0
 11 12  1  0  0  0  0
 11 13  1  0  0  0  0
 11 14  1  0  0  0  0
  9 10  1  0  0  0  0
  9 11  1  0  0  0  0
  9 20  1  0  0  0  0
  7  8  1  0  0  0  0
  7  9  1  0  0  0  0
 24 25  1  0  0  0  0
 24 26  1  0  0  0  0
 24 27  1  0  0  0  0
 22 23  1  0  0  0  0
 22 24  1  0  0  0  0
M  CHG  1  18  -1
M  END
$$$$
default_name
  -OEChem-02102213163D

 27 26  0     1  0  0  0  0  0999 V2000
   -3.2406   -3.5400    1.2326 H   0  0  0  0  0  0  0  0  0  0  0  0
   -3.1436   -2.6190    0.6606 C   0  0  0  0  0  0  0  0  0  0  0  0
   -3.8786   -1.8920    0.9996 H   0  0  0  0  0  0  0  0  0  0  0  0
   -3.2846   -2.8280   -0.3984 H   0  0  0  0  0  0  0  0  0  0  0  0
   -1.7586   -2.0580    0.8686 C   0  0  0  0  0  0  0  0  0  0  0  0
   -0.9666   -2.6340    1.6026 O   0  0  0  0  0  0  0  0  0  0  0  0
   -1.4866   -0.9220    0.2366 N   0  0  0  0  0  0  0  0  0  0  0  0
   -2.2166   -0.4790   -0.2994 H   0  0  0  0  0  0  0  0  0  0  0  0
   -0.1956   -0.2250    0.2596 C   0  0  1  0  0  0  0  0  0  0  0  0
    0.5755   -0.9013   -0.1105 H   0  0  0  0  0  0  0  0  0  0  0  0
   -0.2553    0.9811   -0.6992 C   0  0  0  0  0  0  0  0  0  0  0  0
   -0.3365    1.8866   -0.0957 H   0  0  0  0  0  0  0  0  0  0  0  0
    0.6713    1.0313   -1.2729 H   0  0  0  0  0  0  0  0  0  0  0  0
   -1.4476    0.9334   -1.6695 C   0  0  0  0  0  0  0  0  0  0  0  0
   -2.3573    1.2111   -1.1317 H   0  0  0  0  0  0  0  0  0  0  0  0
   -1.2806    1.6752   -2.4549 H   0  0  0  0  0  0  0  0  0  0  0  0
   -1.6567   -0.4460   -2.3119 C   0  0  0  0  0  0  0  0  0  0  0  0
   -0.7973   -1.3327   -2.1079 O   0  5  0  0  0  0  0  0  0  0  0  0
   -2.6999   -0.5988   -2.9855 O   0  0  0  0  0  0  0  0  0  0  0  0
    0.1881    0.1678    1.7015 C   0  0  0  0  0  0  0  0  0  0  0  0
    1.3379    0.0002    2.1133 O   0  0  0  0  0  0  0  0  0  0  0  0
   -0.7666    0.7145    2.4656 N   0  0  0  0  0  0  0  0  0  0  0  0
   -1.6971    0.7705    2.0790 H   0  0  0  0  0  0  0  0  0  0  0  0
   -0.5716    1.1232    3.8542 C   0  0  0  0  0  0  0  0  0  0  0  0
    0.3083    1.7643    3.9293 H   0  0  0  0  0  0  0  0  0  0  0  0
   -1.4485    1.6640    4.2131 H   0  0  0  0  0  0  0  0  0  0  0  0
   -0.4137    0.2381    4.4736 H   0  0  0  0  0  0  0  0  0  0  0  0
  5  6  2  0  0  0  0
  5  7  1  0  0  0  0
  2  3  1  0  0  0  0
  2  4  1  0  0  0  0
  2  5  1  0  0  0  0
  1  2  1  0  0  0  0
 20 21  2  0  0  0  0
 20 22  1  0  0  0  0
 17 18  1  0  0  0  0
 17 19  2  0  0  0  0
 14 15  1  0  0  0  0
 14 16  1  0  0  0  0
 14 17  1  0  0  0  0
 11 12  1  0  0  0  0
 11 13  1  0  0  0  0
 11 14  1  0  0  0  0
  9 10  1  0  0  0  0
  9 11  1  0  0  0  0
  9 20  1  0  0  0  0
  7  8  1  0  0  0  0
  7  9  1  0  0  0  0
 24 25  1  0  0  0  0
 24 26  1  0  0  0  0
 24 27  1  0  0  0  0
 22 23  1  0  0  0  0
 22 24  1  0  0  0  0
M  CHG  1  18  -1
M  END
$$$$
default_name
  -OEChem-02102213163D

 27 26  0     1  0  0  0  0  0999 V2000
   -3.2406   -3.5400    1.2326 H   0  0  0  0  0  0  0  0  0  0  0  0
   -3.1436   -2.6190    0.6606 C   0  0  0  0  0  0  0  0  0  0  0  0
   -3.8786   -1.8920    0.9996 H   0  0  0  0  0  0  0  0  0  0  0  0
   -3.2846   -2.8280   -0.3984 H   0  0  0  0  0  0  0  0  0  0  0  0
   -1.7586   -2.0580    0.8686 C   0  0  0  0  0  0  0  0  0  0  0  0
   -0.9666   -2.6340    1.6026 O   0  0  0  0  0  0  0  0  0  0  0  0
   -1.4866   -0.9220    0.2366 N   0  0  0  0  0  0  0  0  0  0  0  0
   -2.2166   -0.4790   -0.2994 H   0  0  0  0  0  0  0  0  0  0  0  0
   -0.1956   -0.2250    0.2596 C   0  0  1  0  0  0  0  0  0  0  0  0
    0.5755   -0.9013   -0.1105 H   0  0  0  0  0  0  0  0  0  0  0  0
   -0.2553    0.9811   -0.6992 C   0  0  0  0  0  0  0  0  0  0  0  0
   -0.3365    1.8866   -0.0957 H   0  0  0  0  0  0  0  0  0  0  0  0
    0.6713    1.0313   -1.2729 H   0  0  0  0  0  0  0  0  0  0  0  0
   -1.4476    0.9334   -1.6695 C   0  0  0  0  0  0  0  0  0  0  0  0
   -2.2947    1.4577   -1.2207 H   0  0  0  0  0  0  0  0  0  0  0  0
   -1.1679    1.4647   -2.5830 H   0  0  0  0  0  0  0  0  0  0  0  0
   -1.8857   -0.4944   -2.0281 C   0  0  0  0  0  0  0  0  0  0  0  0
   -1.1818   -1.4495   -1.6297 O   0  5  0  0  0  0  0  0  0  0  0  0
   -2.9456   -0.6081   -2.6831 O   0  0  0  0  0  0  0  0  0  0  0  0
    0.1881    0.1678    1.7015 C   0  0  0  0  0  0  0  0  0  0  0  0
    1.3379    0.0002    2.1133 O   0  0  0  0  0  0  0  0  0  0  0  0
   -0.7666    0.7145    2.4656 N   0  0  0  0  0  0  0  0  0  0  0  0
   -1.6971    0.7705    2.0790 H   0  0  0  0  0  0  0  0  0  0  0  0
   -0.5716    1.1232    3.8542 C   0  0  0  0  0  0  0  0  0  0  0  0
    0.3083    1.7643    3.9293 H   0  0  0  0  0  0  0  0  0  0  0  0
   -1.4485    1.6640    4.2131 H   0  0  0  0  0  0  0  0  0  0  0  0
   -0.4137    0.2381    4.4736 H   0  0  0  0  0  0  0  0  0  0  0  0
  5  6  2  0  0  0  0
  5  7  1  0  0  0  0
  2  3  1  0  0  0  0
  2  4  1  0  0  0  0
  2  5  1  0  0  0  0
  1  2  1  0  0  0  0
 20 21  2  0  0  0  0
 20 22  1  0  0  0  0
 17 18  1  0  0  0  0
 17 19  2  0  0  0  0
 14 15  1  0  0  0  0
 14 16  1  0  0  0  0
 14 17  1  0  0  0  0
 11 12  1  0  0  0  0
 11 13  1  0  0  0  0
 11 14  1  0  0  0  0
  9 10  1  0  0  0  0
  9 11  1  0  0  0  0
  9 20  1  0  0  0  0
  7  8  1  0  0  0  0
  7  9  1  0  0  0  0
 24 25  1  0  0  0  0
 24 26  1  0  0  0  0
 24 27  1  0  0  0  0
 22 23  1  0  0  0  0
 22 24  1  0  0  0  0
M  CHG  1  18  -1
M  END
$$$$
default_name
  -OEChem-02102213163D

 27 26  0     1  0  0  0  0  0999 V2000
   -3.2406   -3.5400    1.2326 H   0  0  0  0  0  0  0  0  0  0  0  0
   -3.1436   -2.6190    0.6606 C   0  0  0  0  0  0  0  0  0  0  0  0
   -3.8786   -1.8920    0.9996 H   0  0  0  0  0  0  0  0  0  0  0  0
   -3.2846   -2.8280   -0.3984 H   0  0  0  0  0  0  0  0  0  0  0  0
   -1.7586   -2.0580    0.8686 C   0  0  0  0  0  0  0  0  0  0  0  0
   -0.9666   -2.6340    1.6026 O   0  0  0  0  0  0  0  0  0  0  0  0
   -1.4866   -0.9220    0.2366 N   0  0  0  0  0  0  0  0  0  0  0  0
   -2.2166   -0.4790   -0.2994 H   0  0  0  0  0  0  0  0  0  0  0  0
   -0.1956   -0.2250    0.2596 C   0  0  1  0  0  0  0  0  0  0  0  0
    0.5755   -0.9013   -0.1105 H   0  0  0  0  0  0  0  0  0  0  0  0
   -0.2553    0.9811   -0.6992 C   0  0  0  0  0  0  0  0  0  0  0  0
   -0.3365    1.8866   -0.0957 H   0  0  0  0  0  0  0  0  0  0  0  0
    0.6713    1.0313   -1.2729 H   0  0  0  0  0  0  0  0  0  0  0  0
   -1.4476    0.9334   -1.6695 C   0  0  0  0  0  0  0  0  0  0  0  0
   -2.1933    1.6678   -1.3557 H   0  0  0  0  0  0  0  0  0  0  0  0
   -1.0924    1.2173   -2.6636 H   0  0  0  0  0  0  0  0  0  0  0  0
   -2.1172   -0.4468   -1.7460 C   0  0  0  0  0  0  0  0  0  0  0  0
   -1.5761   -1.4035   -1.1474 O   0  5  0  0  0  0  0  0  0  0  0  0
   -3.1870   -0.5163   -2.3910 O   0  0  0  0  0  0  0  0  0  0  0  0
    0.1881    0.1678    1.7015 C   0  0  0  0  0  0  0  0  0  0  0  0
    1.3379    0.0002    2.1133 O   0  0  0  0  0  0  0  0  0  0  0  0
   -0.7666    0.7145    2.4656 N   0  0  0  0  0  0  0  0  0  0  0  0
   -1.6971    0.7705    2.0790 H   0  0  0  0  0  0  0  0  0  0  0  0
   -0.5716    1.1232    3.8542 C   0  0  0  0  0  0  0  0  0  0  0  0
    0.3083    1.7643    3.9293 H   0  0  0  0  0  0  0  0  0  0  0  0
   -1.4485    1.6640    4.2131 H   0  0  0  0  0  0  0  0  0  0  0  0
   -0.4137    0.2381    4.4736 H   0  0  0  0  0  0  0  0  0  0  0  0
  5  6  2  0  0  0  0
  5  7  1  0  0  0  0
  2  3  1  0  0  0  0
  2  4  1  0  0  0  0
  2  5  1  0  0  0  0
  1  2  1  0  0  0  0
 20 21  2  0  0  0  0
 20 22  1  0  0  0  0
 17 18  1  0  0  0  0
 17 19  2  0  0  0  0
 14 15  1  0  0  0  0
 14 16  1  0  0  0  0
 14 17  1  0  0  0  0
 11 12  1  0  0  0  0
 11 13  1  0  0  0  0
 11 14  1  0  0  0  0
  9 10  1  0  0  0  0
  9 11  1  0  0  0  0
  9 20  1  0  0  0  0
  7  8  1  0  0  0  0
  7  9  1  0  0  0  0
 24 25  1  0  0  0  0
 24 26  1  0  0  0  0
 24 27  1  0  0  0  0
 22 23  1  0  0  0  0
 22 24  1  0  0  0  0
M  CHG  1  18  -1
M  END
$$$$
default_name
  -OEChem-02102213163D

 27 26  0     1  0  0  0  0  0999 V2000
   -3.2406   -3.5400    1.2326 H   0  0  0  0  0  0  0  0  0  0  0  0
   -3.1436   -2.6190    0.6606 C   0  0  0  0  0  0  0  0  0  0  0  0
   -3.8786   -1.8920    0.9996 H   0  0  0  0  0  0  0  0  0  0  0  0
   -3.2846   -2.8280   -0.3984 H   0  0  0  0  0  0  0  0  0  0  0  0
   -1.7586   -2.0580    0.8686 C   0  0  0  0  0  0  0  0  0  0  0  0
   -0.9666   -2.6340    1.6026 O   0  0  0  0  0  0  0  0  0  0  0  0
   -1.4866   -0.9220    0.2366 N   0  0  0  0  0  0  0  0  0  0  0  0
   -2.2166   -0.4790   -0.2994 H   0  0  0  0  0  0  0  0  0  0  0  0
   -0.1956   -0.2250    0.2596 C   0  0  1  0  0  0  0  0  0  0  0  0
    0.5755   -0.9013   -0.1105 H   0  0  0  0  0  0  0  0  0  0  0  0
   -0.2553    0.9811   -0.6992 C   0  0  0  0  0  0  0  0  0  0  0  0
   -0.3365    1.8866   -0.0957 H   0  0  0  0  0  0  0  0  0  0  0  0
    0.6713    1.0313   -1.2729 H   0  0  0  0  0  0  0  0  0  0  0  0
   -1.4476    0.9334   -1.6695 C   0  0  0  0  0  0  0  0  0  0  0  0
   -2.0599    1.8271   -1.5274 H   0  0  0  0  0  0  0  0  0  0  0  0
   -1.0592    0.9498   -2.6913 H   0  0  0  0  0  0  0  0  0  0  0  0
   -2.3352   -0.3064   -1.4850 C   0  0  0  0  0  0  0  0  0  0  0  0
   -1.9534   -1.1980   -0.6940 O   0  5  0  0  0  0  0  0  0  0  0  0
   -3.4075   -0.3296   -2.1293 O   0  0  0  0  0  0  0  0  0  0  0  0
    0.1881    0.1678    1.7015 C   0  0  0  0  0  0  0  0  0  0  0  0
    1.3379    0.0002    2.1133 O   0  0  0  0  0  0  0  0  0  0  0  0
   -0.7666    0.7145    2.4656 N   0  0  0  0  0  0  0  0  0  0  0  0
   -1.6971    0.7705    2.0790 H   0  0  0  0  0  0  0  0  0  0  0  0
   -0.5716    1.1232    3.8542 C   0  0  0  0  0  0  0  0  0  0  0  0
    0.3083    1.7643    3.9293 H   0  0  0  0  0  0  0  0  0  0  0  0
   -1.4485    1.6640    4.2131 H   0  0  0  0  0  0  0  0  0  0  0  0
   -0.4137    0.2381    4.4736 H   0  0  0  0  0  0  0  0  0  0  0  0
  5  6  2  0  0  0  0
  5  7  1  0  0  0  0
  2  3  1  0  0  0  0
  2  4  1  0  0  0  0
  2  5  1  0  0  0  0
  1  2  1  0  0  0  0
 20 21  2  0  0  0  0
 20 22  1  0  0  0  0
 17 18  1  0  0  0  0
 17 19  2  0  0  0  0
 14 15  1  0  0  0  0
 14 16  1  0  0  0  0
 14 17  1  0  0  0  0
 11 12  1  0  0  0  0
 11 13  1  0  0  0  0
 11 14  1  0  0  0  0
  9 10  1  0  0  0  0
  9 11  1  0  0  0  0
  9 20  1  0  0  0  0
  7  8  1  0  0  0  0
  7  9  1  0  0  0  0
 24 25  1  0  0  0  0
 24 26  1  0  0  0  0
 24 27  1  0  0  0  0
 22 23  1  0  0  0  0
 22 24  1  0  0  0  0
M  CHG  1  18  -1
M  END
$$$$
default_name
  -OEChem-02102213163D

 27 26  0     1  0  0  0  0  0999 V2000
   -3.2406   -3.5400    1.2326 H   0  0  0  0  0  0  0  0  0  0  0  0
   -3.1436   -2.6190    0.6606 C   0  0  0  0  0  0  0  0  0  0  0  0
   -3.8786   -1.8920    0.9996 H   0  0  0  0  0  0  0  0  0  0  0  0
   -3.2846   -2.8280   -0.3984 H   0  0  0  0  0  0  0  0  0  0  0  0
   -1.7586   -2.0580    0.8686 C   0  0  0  0  0  0  0  0  0  0  0  0
   -0.9666   -2.6340    1.6026 O   0  0  0  0  0  0  0  0  0  0  0  0
   -1.4866   -0.9220    0.2366 N   0  0  0  0  0  0  0  0  0  0  0  0
   -2.2166   -0.4790   -0.2994 H   0  0  0  0  0  0  0  0  0  0  0  0
   -0.1956   -0.2250    0.2596 C   0  0  1  0  0  0  0  0  0  0  0  0
    0.5755   -0.9013   -0.1105 H   0  0  0  0  0  0  0  0  0  0  0  0
   -0.2553    0.9811   -0.6992 C   0  0  0  0  0  0  0  0  0  0  0  0
   -0.3365    1.8866   -0.0957 H   0  0  0  0  0  0  0  0  0  0  0  0
    0.6713    1.0313   -1.2729 H   0  0  0  0  0  0  0  0  0  0  0  0
   -1.4476    0.9334   -1.6695 C   0  0  0  0  0  0  0  0  0  0  0  0
   -1.9037    1.9248   -1.7242 H   0  0  0  0  0  0  0  0  0  0  0  0
   -1.0706    0.6804   -2.6640 H   0  0  0  0  0  0  0  0  0  0  0  0
   -2.5250   -0.0829   -1.2628 C   0  0  0  0  0  0  0  0  0  0  0  0
   -2.2879   -0.8469   -0.3002 O   0  5  0  0  0  0  0  0  0  0  0  0
   -3.5920   -0.0608   -1.9157 O   0  0  0  0  0  0  0  0  0  0  0  0
    0.1881    0.1678    1.7015 C   0  0  0  0  0  0  0  0  0  0  0  0
    1.3379    0.0002    2.1133 O   0  0  0  0  0  0  0  0  0  0  0  0
   -0.7666    0.7145    2.4656 N   0  0  0  0  0  0  0  0  0  0  0  0
   -1.6971    0.7705    2.0790 H   0  0  0  0  0  0  0  0  0  0  0  0
   -0.5716    1.1232    3.8542 C   0  0  0  0  0  0  0  0  0  0  0  0
    0.3083    1.7643    3.9293 H   0  0  0  0  0  0  0  0  0  0  0  0
   -1.4485    1.6640    4.2131 H   0  0  0  0  0  0  0  0  0  0  0  0
   -0.4137    0.2381    4.4736 H   0  0  0  0  0  0  0  0  0  0  0  0
  5  6  2  0  0  0  0
  5  7  1  0  0  0  0
  2  3  1  0  0  0  0
  2  4  1  0  0  0  0
  2  5  1  0  0  0  0
  1  2  1  0  0  0  0
 20 21  2  0  0  0  0
 20 22  1  0  0  0  0
 17 18  1  0  0  0  0
 17 19  2  0  0  0  0
 14 15  1  0  0  0  0
 14 16  1  0  0  0  0
 14 17  1  0  0  0  0
 11 12  1  0  0  0  0
 11 13  1  0  0  0  0
 11 14  1  0  0  0  0
  9 10  1  0  0  0  0
  9 11  1  0  0  0  0
  9 20  1  0  0  0  0
  7  8  1  0  0  0  0
  7  9  1  0  0  0  0
 24 25  1  0  0  0  0
 24 26  1  0  0  0  0
 24 27  1  0  0  0  0
 22 23  1  0  0  0  0
 22 24  1  0  0  0  0
M  CHG  1  18  -1
M  END
$$$$
default_name
  -OEChem-02102213163D

 27 26  0     1  0  0  0  0  0999 V2000
   -3.2406   -3.5400    1.2326 H   0  0  0  0  0  0  0  0  0  0  0  0
   -3.1436   -2.6190    0.6606 C   0  0  0  0  0  0  0  0  0  0  0  0
   -3.8786   -1.8920    0.9996 H   0  0  0  0  0  0  0  0  0  0  0  0
   -3.2846   -2.8280   -0.3984 H   0  0  0  0  0  0  0  0  0  0  0  0
   -1.7586   -2.0580    0.8686 C   0  0  0  0  0  0  0  0  0  0  0  0
   -0.9666   -2.6340    1.6026 O   0  0  0  0  0  0  0  0  0  0  0  0
   -1.4866   -0.9220    0.2366 N   0  0  0  0  0  0  0  0  0  0  0  0
   -2.2166   -0.4790   -0.2994 H   0  0  0  0  0  0  0  0  0  0  0  0
   -0.1956   -0.2250    0.2596 C   0  0  1  0  0  0  0  0  0  0  0  0
    0.5755   -0.9013   -0.1105 H   0  0  0  0  0  0  0  0  0  0  0  0
   -0.2553    0.9811   -0.6992 C   0  0  0  0  0  0  0  0  0  0  0  0
   -0.3365    1.8866   -0.0957 H   0  0  0  0  0  0  0  0  0  0  0  0
    0.6713    1.0313   -1.2729 H   0  0  0  0  0  0  0  0  0  0  0  0
   -1.4476    0.9334   -1.6695 C   0  0  0  0  0  0  0  0  0  0  0  0
   -1.7352    1.9541   -1.9326 H   0  0  0  0  0  0  0  0  0  0  0  0
   -1.1258    0.4276   -2.5837 H   0  0  0  0  0  0  0  0  0  0  0  0
   -2.6737    0.2087   -1.0945 C   0  0  0  0  0  0  0  0  0  0  0  0
   -2.5568   -0.3741    0.0069 O   0  5  0  0  0  0  0  0  0  0  0  0
   -3.7282    0.2719   -1.7649 O   0  0  0  0  0  0  0  0  0  0  0  0
    0.1881    0.1678    1.7015 C   0  0  0  0  0  0  0  0  0  0  0  0
    1.3379    0.0002    2.1133 O   0  0  0  0  0  0  0  0  0  0  0  0
   -0.7666    0.7145    2.4656 N   0  0  0  0  0  0  0  0  0  0  0  0
   -1.6971    0.7705    2.0790 H   0  0  0  0  0  0  0  0  0  0  0  0
   -0.5716    1.1232    3.8542 C   0  0  0  0  0  0  0  0  0  0  0  0
    0.3083    1.7643    3.9293 H   0  0  0  0  0  0  0  0  0  0  0  0
   -1.4485    1.6640    4.2131 H   0  0  0  0  0  0  0  0  0  0  0  0
   -0.4137    0.2381    4.4736 H   0  0  0  0  0  0  0  0  0  0  0  0
  5  6  2  0  0  0  0
  5  7  1  0  0  0  0
  2  3  1  0  0  0  0
  2  4  1  0  0  0  0
  2  5  1  0  0  0  0
  1  2  1  0  0  0  0
 20 21  2  0  0  0  0
 20 22  1  0  0  0  0
 17 18  1  0  0  0  0
 17 19  2  0  0  0  0
 14 15  1  0  0  0  0
 14 16  1  0  0  0  0
 14 17  1  0  0  0  0
 11 12  1  0  0  0  0
 11 13  1  0  0  0  0
 11 14  1  0  0  0  0
  9 10  1  0  0  0  0
  9 11  1  0  0  0  0
  9 20  1  0  0  0  0
  7  8  1  0  0  0  0
  7  9  1  0  0  0  0
 24 25  1  0  0  0  0
 24 26  1  0  0  0  0
 24 27  1  0  0  0  0
 22 23  1  0  0  0  0
 22 24  1  0  0  0  0
M  CHG  1  18  -1
M  END
$$$$
default_name
  -OEChem-02102213163D

 27 26  0     1  0  0  0  0  0999 V2000
   -3.2406   -3.5400    1.2326 H   0  0  0  0  0  0  0  0  0  0  0  0
   -3.1436   -2.6190    0.6606 C   0  0  0  0  0  0  0  0  0  0  0  0
   -3.8786   -1.8920    0.9996 H   0  0  0  0  0  0  0  0  0  0  0  0
   -3.2846   -2.8280   -0.3984 H   0  0  0  0  0  0  0  0  0  0  0  0
   -1.7586   -2.0580    0.8686 C   0  0  0  0  0  0  0  0  0  0  0  0
   -0.9666   -2.6340    1.6026 O   0  0  0  0  0  0  0  0  0  0  0  0
   -1.4866   -0.9220    0.2366 N   0  0  0  0  0  0  0  0  0  0  0  0
   -2.2166   -0.4790   -0.2994 H   0  0  0  0  0  0  0  0  0  0  0  0
   -0.1956   -0.2250    0.2596 C   0  0  1  0  0  0  0  0  0  0  0  0
    0.5755   -0.9013   -0.1105 H   0  0  0  0  0  0  0  0  0  0  0  0
   -0.2553    0.9811   -0.6992 C   0  0  0  0  0  0  0  0  0  0  0  0
   -0.3365    1.8866   -0.0957 H   0  0  0  0  0  0  0  0  0  0  0  0
    0.6713    1.0313   -1.2729 H   0  0  0  0  0  0  0  0  0  0  0  0
   -1.4476    0.9334   -1.6695 C   0  0  0  0  0  0  0  0  0  0  0  0
   -1.5661    1.9131   -2.1385 H   0  0  0  0  0  0  0  0  0  0  0  0
   -1.2211    0.2085   -2.4558 H   0  0  0  0  0  0  0  0  0  0  0  0
   -2.7710    0.5483   -0.9917 C   0  0  0  0  0  0  0  0  0  0  0  0
   -2.7418    0.1881    0.2066 O   0  5  0  0  0  0  0  0  0  0  0  0
   -3.8065    0.6457   -1.6870 O   0  0  0  0  0  0  0  0  0  0  0  0
    0.1881    0.1678    1.7015 C   0  0  0  0  0  0  0  0  0  0  0  0
    1.3379    0.0002    2.1133 O   0  0  0  0  0  0  0  0  0  0  0  0
   -0.7666    0.7145    2.4656 N   0  0  0  0  0  0  0  0  0  0  0  0
   -1.6971    0.7705    2.0790 H   0  0  0  0  0  0  0  0  0  0  0  0
   -0.5716    1.1232    3.8542 C   0  0  0  0  0  0  0  0  0  0  0  0
    0.3083    1.7643    3.9293 H   0  0  0  0  0  0  0  0  0  0  0  0
   -1.4485    1.6640    4.2131 H   0  0  0  0  0  0  0  0  0  0  0  0
   -0.4137    0.2381    4.4736 H   0  0  0  0  0  0  0  0  0  0  0  0
  5  6  2  0  0  0  0
  5  7  1  0  0  0  0
  2  3  1  0  0  0  0
  2  4  1  0  0  0  0
  2  5  1  0  0  0  0
  1  2  1  0  0  0  0
 20 21  2  0  0  0  0
 20 22  1  0  0  0  0
 17 18  1  0  0  0  0
 17 19  2  0  0  0  0
 14 15  1  0  0  0  0
 14 16  1  0  0  0  0
 14 17  1  0  0  0  0
 11 12  1  0  0  0  0
 11 13  1  0  0  0  0
 11 14  1  0  0  0  0
  9 10  1  0  0  0  0
  9 11  1  0  0  0  0
  9 20  1  0  0  0  0
  7  8  1  0  0  0  0
  7  9  1  0  0  0  0
 24 25  1  0  0  0  0
 24 26  1  0  0  0  0
 24 27  1  0  0  0  0
 22 23  1  0  0  0  0
 22 24  1  0  0  0  0
M  CHG  1  18  -1
M  END
$$$$
default_name
  -OEChem-02102213163D

 27 26  0     1  0  0  0  0  0999 V2000
   -3.2406   -3.5400    1.2326 H   0  0  0  0  0  0  0  0  0  0  0  0
   -3.1436   -2.6190    0.6606 C   0  0  0  0  0  0  0  0  0  0  0  0
   -3.8786   -1.8920    0.9996 H   0  0  0  0  0  0  0  0  0  0  0  0
   -3.2846   -2.8280   -0.3984 H   0  0  0  0  0  0  0  0  0  0  0  0
   -1.7586   -2.0580    0.8686 C   0  0  0  0  0  0  0  0  0  0  0  0
   -0.9666   -2.6340    1.6026 O   0  0  0  0  0  0  0  0  0  0  0  0
   -1.4866   -0.9220    0.2366 N   0  0  0  0  0  0  0  0  0  0  0  0
   -2.2166   -0.4790   -0.2994 H   0  0  0  0  0  0  0  0  0  0  0  0
   -0.1956   -0.2250    0.2596 C   0  0  1  0  0  0  0  0  0  0  0  0
    0.5755   -0.9013   -0.1105 H   0  0  0  0  0  0  0  0  0  0  0  0
   -0.2553    0.9811   -0.6992 C   0  0  0  0  0  0  0  0  0  0  0  0
   -0.3365    1.8866   -0.0957 H   0  0  0  0  0  0  0  0  0  0  0  0
    0.6713    1.0313   -1.2729 H   0  0  0  0  0  0  0  0  0  0  0  0
   -1.4476    0.9334   -1.6695 C   0  0  0  0  0  0  0  0  0  0  0  0
   -1.4077    1.8046   -2.3277 H   0  0  0  0  0  0  0  0  0  0  0  0
   -1.3499    0.0380   -2.2892 H   0  0  0  0  0  0  0  0  0  0  0  0
   -2.8103    0.9128   -0.9613 C   0  0  0  0  0  0  0  0  0  0  0  0
   -2.8304    0.8014    0.2852 O   0  5  0  0  0  0  0  0  0  0  0  0
   -3.8218    1.0353   -1.6874 O   0  0  0  0  0  0  0  0  0  0  0  0
    0.1881    0.1678    1.7015 C   0  0  0  0  0  0  0  0  0  0  0  0
    1.3379    0.0002    2.1133 O   0  0  0  0  0  0  0  0  0  0  0  0
   -0.7666    0.7145    2.4656 N   0  0  0  0  0  0  0  0  0  0  0  0
   -1.6971    0.7705    2.0790 H   0  0  0  0  0  0  0  0  0  0  0  0
   -0.5716    1.1232    3.8542 C   0  0  0  0  0  0  0  0  0  0  0  0
    0.3083    1.7643    3.9293 H   0  0  0  0  0  0  0  0  0  0  0  0
   -1.4485    1.6640    4.2131 H   0  0  0  0  0  0  0  0  0  0  0  0
   -0.4137    0.2381    4.4736 H   0  0  0  0  0  0  0  0  0  0  0  0
  5  6  2  0  0  0  0
  5  7  1  0  0  0  0
  2  3  1  0  0  0  0
  2  4  1  0  0  0  0
  2  5  1  0  0  0  0
  1  2  1  0  0  0  0
 20 21  2  0  0  0  0
 20 22  1  0  0  0  0
 17 18  1  0  0  0  0
 17 19  2  0  0  0  0
 14 15  1  0  0  0  0
 14 16  1  0  0  0  0
 14 17  1  0  0  0  0
 11 12  1  0  0  0  0
 11 13  1  0  0  0  0
 11 14  1  0  0  0  0
  9 10  1  0  0  0  0
  9 11  1  0  0  0  0
  9 20  1  0  0  0  0
  7  8  1  0  0  0  0
  7  9  1  0  0  0  0
 24 25  1  0  0  0  0
 24 26  1  0  0  0  0
 24 27  1  0  0  0  0
 22 23  1  0  0  0  0
 22 24  1  0  0  0  0
M  CHG  1  18  -1
M  END
$$$$
default_name
  -OEChem-02102213163D

 27 26  0     1  0  0  0  0  0999 V2000
   -3.2406   -3.5400    1.2326 H   0  0  0  0  0  0  0  0  0  0  0  0
   -3.1436   -2.6190    0.6606 C   0  0  0  0  0  0  0  0  0  0  0  0
   -3.8786   -1.8920    0.9996 H   0  0  0  0  0  0  0  0  0  0  0  0
   -3.2846   -2.8280   -0.3984 H   0  0  0  0  0  0  0  0  0  0  0  0
   -1.7586   -2.0580    0.8686 C   0  0  0  0  0  0  0  0  0  0  0  0
   -0.9666   -2.6340    1.6026 O   0  0  0  0  0  0  0  0  0  0  0  0
   -1.4866   -0.9220    0.2366 N   0  0  0  0  0  0  0  0  0  0  0  0
   -2.2166   -0.4790   -0.2994 H   0  0  0  0  0  0  0  0  0  0  0  0
   -0.1956   -0.2250    0.2596 C   0  0  1  0  0  0  0  0  0  0  0  0
    0.5755   -0.9013   -0.1105 H   0  0  0  0  0  0  0  0  0  0  0  0
   -0.2553    0.9811   -0.6992 C   0  0  0  0  0  0  0  0  0  0  0  0
   -0.3365    1.8866   -0.0957 H   0  0  0  0  0  0  0  0  0  0  0  0
    0.6713    1.0313   -1.2729 H   0  0  0  0  0  0  0  0  0  0  0  0
   -1.4476    0.9334   -1.6695 C   0  0  0  0  0  0  0  0  0  0  0  0
   -1.2710    1.6360   -2.4875 H   0  0  0  0  0  0  0  0  0  0  0  0
   -1.5035   -0.0721   -2.0950 H   0  0  0  0  0  0  0  0  0  0  0  0
   -2.7890    1.2775   -1.0054 C   0  0  0  0  0  0  0  0  0  0  0  0
   -2.8164    1.4241    0.2373 O   0  5  0  0  0  0  0  0  0  0  0  0
   -3.7729    1.4139   -1.7661 O   0  0  0  0  0  0  0  0  0  0  0  0
    0.1881    0.1678    1.7015 C   0  0  0  0  0  0  0  0  0  0  0  0
    1.3379    0.0002    2.1133 O   0  0  0  0  0  0  0  0  0  0  0  0
   -0.7666    0.7145    2.4656 N   0  0  0  0  0  0  0  0  0  0  0  0
   -1.6971    0.7705    2.0790 H   0  0  0  0  0  0  0  0  0  0  0  0
   -0.5716    1.1232    3.8542 C   0  0  0  0  0  0  0  0  0  0  0  0
    0.3083    1.7643    3.9293 H   0  0  0  0  0  0  0  0  0  0  0  0
   -1.4485    1.6640    4.2131 H   0  0  0  0  0  0  0  0  0  0  0  0
   -0.4137    0.2381    4.4736 H   0  0  0  0  0  0  0  0  0  0  0  0
  5  6  2  0  0  0  0
  5  7  1  0  0  0  0
  2  3  1  0  0  0  0
  2  4  1  0  0  0  0
  2  5  1  0  0  0  0
  1  2  1  0  0  0  0
 20 21  2  0  0  0  0
 20 22  1  0  0  0  0
 17 18  1  0  0  0  0
 17 19  2  0  0  0  0
 14 15  1  0  0  0  0
 14 16  1  0  0  0  0
 14 17  1  0  0  0  0
 11 12  1  0  0  0  0
 11 13  1  0  0  0  0
 11 14  1  0  0  0  0
  9 10  1  0  0  0  0
  9 11  1  0  0  0  0
  9 20  1  0  0  0  0
  7  8  1  0  0  0  0
  7  9  1  0  0  0  0
 24 25  1  0  0  0  0
 24 26  1  0  0  0  0
 24 27  1  0  0  0  0
 22 23  1  0  0  0  0
 22 24  1  0  0  0  0
M  CHG  1  18  -1
M  END
$$$$
default_name
  -OEChem-02102213163D

 27 26  0     1  0  0  0  0  0999 V2000
   -3.2406   -3.5400    1.2326 H   0  0  0  0  0  0  0  0  0  0  0  0
   -3.1436   -2.6190    0.6606 C   0  0  0  0  0  0  0  0  0  0  0  0
   -3.8786   -1.8920    0.9996 H   0  0  0  0  0  0  0  0  0  0  0  0
   -3.2846   -2.8280   -0.3984 H   0  0  0  0  0  0  0  0  0  0  0  0
   -1.7586   -2.0580    0.8686 C   0  0  0  0  0  0  0  0  0  0  0  0
   -0.9666   -2.6340    1.6026 O   0  0  0  0  0  0  0  0  0  0  0  0
   -1.4866   -0.9220    0.2366 N   0  0  0  0  0  0  0  0  0  0  0  0
   -2.2166   -0.4790   -0.2994 H   0  0  0  0  0  0  0  0  0  0  0  0
   -0.1956   -0.2250    0.2596 C   0  0  1  0  0  0  0  0  0  0  0  0
    0.5755   -0.9013   -0.1105 H   0  0  0  0  0  0  0  0  0  0  0  0
   -0.2553    0.9811   -0.6992 C   0  0  0  0  0  0  0  0  0  0  0  0
   -0.3365    1.8866   -0.0957 H   0  0  0  0  0  0  0  0  0  0  0  0
    0.6713    1.0313   -1.2729 H   0  0  0  0  0  0  0  0  0  0  0  0
   -1.4476    0.9334   -1.6695 C   0  0  0  0  0  0  0  0  0  0  0  0
   -1.1651    1.4187   -2.6068 H   0  0  0  0  0  0  0  0  0  0  0  0
   -1.6714   -0.1145   -1.8866 H   0  0  0  0  0  0  0  0  0  0  0  0
   -2.7086    1.6174   -1.1210 C   0  0  0  0  0  0  0  0  0  0  0  0
   -2.7008    2.0136    0.0662 O   0  5  0  0  0  0  0  0  0  0  0  0
   -3.6633    1.7559   -1.9176 O   0  0  0  0  0  0  0  0  0  0  0  0
    0.1881    0.1678    1.7015 C   0  0  0  0  0  0  0  0  0  0  0  0
    1.3379    0.0002    2.1133 O   0  0  0  0  0  0  0  0  0  0  0  0
   -0.7666    0.7145    2.4656 N   0  0  0  0  0  0  0  0  0  0  0  0
   -1.6971    0.7705    2.0790 H   0  0  0  0  0  0  0  0  0  0  0  0
   -0.5716    1.1232    3.8542 C   0  0  0  0  0  0  0  0  0  0  0  0
    0.3083    1.7643    3.9293 H   0  0  0  0  0  0  0  0  0  0  0  0
   -1.4485    1.6640    4.2131 H   0  0  0  0  0  0  0  0  0  0  0  0
   -0.4137    0.2381    4.4736 H   0  0  0  0  0  0  0  0  0  0  0  0
  5  6  2  0  0  0  0
  5  7  1  0  0  0  0
  2  3  1  0  0  0  0
  2  4  1  0  0  0  0
  2  5  1  0  0  0  0
  1  2  1  0  0  0  0
 20 21  2  0  0  0  0
 20 22  1  0  0  0  0
 17 18  1  0  0  0  0
 17 19  2  0  0  0  0
 14 15  1  0  0  0  0
 14 16  1  0  0  0  0
 14 17  1  0  0  0  0
 11 12  1  0  0  0  0
 11 13  1  0  0  0  0
 11 14  1  0  0  0  0
  9 10  1  0  0  0  0
  9 11  1  0  0  0  0
  9 20  1  0  0  0  0
  7  8  1  0  0  0  0
  7  9  1  0  0  0  0
 24 25  1  0  0  0  0
 24 26  1  0  0  0  0
 24 27  1  0  0  0  0
 22 23  1  0  0  0  0
 22 24  1  0  0  0  0
M  CHG  1  18  -1
M  END
$$$$
default_name
  -OEChem-02102213163D

 27 26  0     1  0  0  0  0  0999 V2000
   -3.2406   -3.5400    1.2326 H   0  0  0  0  0  0  0  0  0  0  0  0
   -3.1436   -2.6190    0.6606 C   0  0  0  0  0  0  0  0  0  0  0  0
   -3.8786   -1.8920    0.9996 H   0  0  0  0  0  0  0  0  0  0  0  0
   -3.2846   -2.8280   -0.3984 H   0  0  0  0  0  0  0  0  0  0  0  0
   -1.7586   -2.0580    0.8686 C   0  0  0  0  0  0  0  0  0  0  0  0
   -0.9666   -2.6340    1.6026 O   0  0  0  0  0  0  0  0  0  0  0  0
   -1.4866   -0.9220    0.2366 N   0  0  0  0  0  0  0  0  0  0  0  0
   -2.2166   -0.4790   -0.2994 H   0  0  0  0  0  0  0  0  0  0  0  0
   -0.1956   -0.2250    0.2596 C   0  0  1  0  0  0  0  0  0  0  0  0
    0.5755   -0.9013   -0.1105 H   0  0  0  0  0  0  0  0  0  0  0  0
   -0.2553    0.9811   -0.6992 C   0  0  0  0  0  0  0  0  0  0  0  0
   -0.3365    1.8866   -0.0957 H   0  0  0  0  0  0  0  0  0  0  0  0
    0.6713    1.0313   -1.2729 H   0  0  0  0  0  0  0  0  0  0  0  0
   -1.4476    0.9334   -1.6695 C   0  0  0  0  0  0  0  0  0  0  0  0
   -1.0974    1.1676   -2.6777 H   0  0  0  0  0  0  0  0  0  0  0  0
   -1.8422   -0.0861   -1.6781 H   0  0  0  0  0  0  0  0  0  0  0  0
   -2.5745    1.9094   -1.3002 C   0  0  0  0  0  0  0  0  0  0  0  0
   -2.4915    2.5299   -0.2164 O   0  5  0  0  0  0  0  0  0  0  0  0
   -3.5003    2.0380   -2.1318 O   0  0  0  0  0  0  0  0  0  0  0  0
    0.1881    0.1678    1.7015 C   0  0  0  0  0  0  0  0  0  0  0  0
    1.3379    0.0002    2.1133 O   0  0  0  0  0  0  0  0  0  0  0  0
   -0.7666    0.7145    2.4656 N   0  0  0  0  0  0  0  0  0  0  0  0
   -1.6971    0.7705    2.0790 H   0  0  0  0  0  0  0  0  0  0  0  0
   -0.5716    1.1232    3.8542 C   0  0  0  0  0  0  0  0  0  0  0  0
    0.3083    1.7643    3.9293 H   0  0  0  0  0  0  0  0  0  0  0  0
   -1.4485    1.6640    4.2131 H   0  0  0  0  0  0  0  0  0  0  0  0
   -0.4137    0.2381    4.4736 H   0  0  0  0  0  0  0  0  0  0  0  0
  5  6  2  0  0  0  0
  5  7  1  0  0  0  0
  2  3  1  0  0  0  0
  2  4  1  0  0  0  0
  2  5  1  0  0  0  0
  1  2  1  0  0  0  0
 20 21  2  0  0  0  0
 20 22  1  0  0  0  0
 17 18  1  0  0  0  0
 17 19  2  0  0  0  0
 14 15  1  0  0  0  0
 14 16  1  0  0  0  0
 14 17  1  0  0  0  0
 11 12  1  0  0  0  0
 11 13  1  0  0  0  0
 11 14  1  0  0  0  0
  9 10  1  0  0  0  0
  9 11  1  0  0  0  0
  9 20  1  0  0  0  0
  7  8  1  0  0  0  0
  7  9  1  0  0  0  0
 24 25  1  0  0  0  0
 24 26  1  0  0  0  0
 24 27  1  0  0  0  0
 22 23  1  0  0  0  0
 22 24  1  0  0  0  0
M  CHG  1  18  -1
M  END
$$$$
default_name
  -OEChem-02102213163D

 27 26  0     1  0  0  0  0  0999 V2000
   -3.2406   -3.5400    1.2326 H   0  0  0  0  0  0  0  0  0  0  0  0
   -3.1436   -2.6190    0.6606 C   0  0  0  0  0  0  0  0  0  0  0  0
   -3.8786   -1.8920    0.9996 H   0  0  0  0  0  0  0  0  0  0  0  0
   -3.2846   -2.8280   -0.3984 H   0  0  0  0  0  0  0  0  0  0  0  0
   -1.7586   -2.0580    0.8686 C   0  0  0  0  0  0  0  0  0  0  0  0
   -0.9666   -2.6340    1.6026 O   0  0  0  0  0  0  0  0  0  0  0  0
   -1.4866   -0.9220    0.2366 N   0  0  0  0  0  0  0  0  0  0  0  0
   -2.2166   -0.4790   -0.2994 H   0  0  0  0  0  0  0  0  0  0  0  0
   -0.1956   -0.2250    0.2596 C   0  0  1  0  0  0  0  0  0  0  0  0
    0.5755   -0.9013   -0.1105 H   0  0  0  0  0  0  0  0  0  0  0  0
   -0.2553    0.9811   -0.6992 C   0  0  0  0  0  0  0  0  0  0  0  0
   -0.3365    1.8866   -0.0957 H   0  0  0  0  0  0  0  0  0  0  0  0
    0.6713    1.0313   -1.2729 H   0  0  0  0  0  0  0  0  0  0  0  0
   -1.4476    0.9334   -1.6695 C   0  0  0  0  0  0  0  0  0  0  0  0
   -1.0724    0.8997   -2.6952 H   0  0  0  0  0  0  0  0  0  0  0  0
   -2.0042    0.0110   -1.4838 H   0  0  0  0  0  0  0  0  0  0  0  0
   -2.3958    2.1336   -1.5308 C   0  0  0  0  0  0  0  0  0  0  0  0
   -2.2028    2.9377   -0.5912 O   0  5  0  0  0  0  0  0  0  0  0  0
   -3.2951    2.2408   -2.3939 O   0  0  0  0  0  0  0  0  0  0  0  0
    0.1881    0.1678    1.7015 C   0  0  0  0  0  0  0  0  0  0  0  0
    1.3379    0.0002    2.1133 O   0  0  0  0  0  0  0  0  0  0  0  0
   -0.7666    0.7145    2.4656 N   0  0  0  0  0  0  0  0  0  0  0  0
   -1.6971    0.7705    2.0790 H   0  0  0  0  0  0  0  0  0  0  0  0
   -0.5716    1.1232    3.8542 C   0  0  0  0  0  0  0  0  0  0  0  0
    0.3083    1.7643    3.9293 H   0  0  0  0  0  0  0  0  0  0  0  0
   -1.4485    1.6640    4.2131 H   0  0  0  0  0  0  0  0  0  0  0  0
   -0.4137    0.2381    4.4736 H   0  0  0  0  0  0  0  0  0  0  0  0
  5  6  2  0  0  0  0
  5  7  1  0  0  0  0
  2  3  1  0  0  0  0
  2  4  1  0  0  0  0
  2  5  1  0  0  0  0
  1  2  1  0  0  0  0
 20 21  2  0  0  0  0
 20 22  1  0  0  0  0
 17 18  1  0  0  0  0
 17 19  2  0  0  0  0
 14 15  1  0  0  0  0
 14 16  1  0  0  0  0
 14 17  1  0  0  0  0
 11 12  1  0  0  0  0
 11 13  1  0  0  0  0
 11 14  1  0  0  0  0
  9 10  1  0  0  0  0
  9 11  1  0  0  0  0
  9 20  1  0  0  0  0
  7  8  1  0  0  0  0
  7  9  1  0  0  0  0
 24 25  1  0  0  0  0
 24 26  1  0  0  0  0
 24 27  1  0  0  0  0
 22 23  1  0  0  0  0
 22 24  1  0  0  0  0
M  CHG  1  18  -1
M  END
$$$$
default_name
  -OEChem-02102213163D

 27 26  0     1  0  0  0  0  0999 V2000
   -3.2406   -3.5400    1.2326 H   0  0  0  0  0  0  0  0  0  0  0  0
   -3.1436   -2.6190    0.6606 C   0  0  0  0  0  0  0  0  0  0  0  0
   -3.8786   -1.8920    0.9996 H   0  0  0  0  0  0  0  0  0  0  0  0
   -3.2846   -2.8280   -0.3984 H   0  0  0  0  0  0  0  0  0  0  0  0
   -1.7586   -2.0580    0.8686 C   0  0  0  0  0  0  0  0  0  0  0  0
   -0.9666   -2.6340    1.6026 O   0  0  0  0  0  0  0  0  0  0  0  0
   -1.4866   -0.9220    0.2366 N   0  0  0  0  0  0  0  0  0  0  0  0
   -2.2166   -0.4790   -0.2994 H   0  0  0  0  0  0  0  0  0  0  0  0
   -0.1956   -0.2250    0.2596 C   0  0  1  0  0  0  0  0  0  0  0  0
    0.5755   -0.9013   -0.1105 H   0  0  0  0  0  0  0  0  0  0  0  0
   -0.2553    0.9811   -0.6992 C   0  0  0  0  0  0  0  0  0  0  0  0
   -0.3365    1.8866   -0.0957 H   0  0  0  0  0  0  0  0  0  0  0  0
    0.6713    1.0313   -1.2729 H   0  0  0  0  0  0  0  0  0  0  0  0
   -1.4476    0.9334   -1.6695 C   0  0  0  0  0  0  0  0  0  0  0  0
   -1.0919    0.6334   -2.6581 H   0  0  0  0  0  0  0  0  0  0  0  0
   -2.1464    0.1702   -1.3169 H   0  0  0  0  0  0  0  0  0  0  0  0
   -2.1847    2.2747   -1.7971 C   0  0  0  0  0  0  0  0  0  0  0  0
   -1.8543    3.2092   -1.0328 O   0  5  0  0  0  0  0  0  0  0  0  0
   -3.0617    2.3506   -2.6862 O   0  0  0  0  0  0  0  0  0  0  0  0
    0.1881    0.1678    1.7015 C   0  0  0  0  0  0  0  0  0  0  0  0
    1.3379    0.0002    2.1133 O   0  0  0  0  0  0  0  0  0  0  0  0
   -0.7666    0.7145    2.4656 N   0  0  0  0  0  0  0  0  0  0  0  0
   -1.6971    0.7705    2.0790 H   0  0  0  0  0  0  0  0  0  0  0  0
   -0.5716    1.1232    3.8542 C   0  0  0  0  0  0  0  0  0  0  0  0
    0.3083    1.7643    3.9293 H   0  0  0  0  0  0  0  0  0  0  0  0
   -1.4485    1.6640    4.2131 H   0  0  0  0  0  0  0  0  0  0  0  0
   -0.4137    0.2381    4.4736 H   0  0  0  0  0  0  0  0  0  0  0  0
  5  6  2  0  0  0  0
  5  7  1  0  0  0  0
  2  3  1  0  0  0  0
  2  4  1  0  0  0  0
  2  5  1  0  0  0  0
  1  2  1  0  0  0  0
 20 21  2  0  0  0  0
 20 22  1  0  0  0  0
 17 18  1  0  0  0  0
 17 19  2  0  0  0  0
 14 15  1  0  0  0  0
 14 16  1  0  0  0  0
 14 17  1  0  0  0  0
 11 12  1  0  0  0  0
 11 13  1  0  0  0  0
 11 14  1  0  0  0  0
  9 10  1  0  0  0  0
  9 11  1  0  0  0  0
  9 20  1  0  0  0  0
  7  8  1  0  0  0  0
  7  9  1  0  0  0  0
 24 25  1  0  0  0  0
 24 26  1  0  0  0  0
 24 27  1  0  0  0  0
 22 23  1  0  0  0  0
 22 24  1  0  0  0  0
M  CHG  1  18  -1
M  END
$$$$
default_name
  -OEChem-02102213163D

 27 26  0     1  0  0  0  0  0999 V2000
   -3.2406   -3.5400    1.2326 H   0  0  0  0  0  0  0  0  0  0  0  0
   -3.1436   -2.6190    0.6606 C   0  0  0  0  0  0  0  0  0  0  0  0
   -3.8786   -1.8920    0.9996 H   0  0  0  0  0  0  0  0  0  0  0  0
   -3.2846   -2.8280   -0.3984 H   0  0  0  0  0  0  0  0  0  0  0  0
   -1.7586   -2.0580    0.8686 C   0  0  0  0  0  0  0  0  0  0  0  0
   -0.9666   -2.6340    1.6026 O   0  0  0  0  0  0  0  0  0  0  0  0
   -1.4866   -0.9220    0.2366 N   0  0  0  0  0  0  0  0  0  0  0  0
   -2.2166   -0.4790   -0.2994 H   0  0  0  0  0  0  0  0  0  0  0  0
   -0.1956   -0.2250    0.2596 C   0  0  1  0  0  0  0  0  0  0  0  0
    0.5755   -0.9013   -0.1105 H   0  0  0  0  0  0  0  0  0  0  0  0
   -0.2553    0.9811   -0.6992 C   0  0  0  0  0  0  0  0  0  0  0  0
   -0.3365    1.8866   -0.0957 H   0  0  0  0  0  0  0  0  0  0  0  0
    0.6713    1.0313   -1.2729 H   0  0  0  0  0  0  0  0  0  0  0  0
   -1.4476    0.9334   -1.6695 C   0  0  0  0  0  0  0  0  0  0  0  0
   -1.1545    0.3868   -2.5691 H   0  0  0  0  0  0  0  0  0  0  0  0
   -2.2591    0.3807   -1.1888 H   0  0  0  0  0  0  0  0  0  0  0  0
   -1.9556    2.3232   -2.0809 C   0  0  0  0  0  0  0  0  0  0  0  0
   -1.4698    3.3260   -1.5110 O   0  5  0  0  0  0  0  0  0  0  0  0
   -2.8159    2.3599   -2.9886 O   0  0  0  0  0  0  0  0  0  0  0  0
    0.1881    0.1678    1.7015 C   0  0  0  0  0  0  0  0  0  0  0  0
    1.3379    0.0002    2.1133 O   0  0  0  0  0  0  0  0  0  0  0  0
   -0.7666    0.7145    2.4656 N   0  0  0  0  0  0  0  0  0  0  0  0
   -1.6971    0.7705    2.0790 H   0  0  0  0  0  0  0  0  0  0  0  0
   -0.5716    1.1232    3.8542 C   0  0  0  0  0  0  0  0  0  0  0  0
    0.3083    1.7643    3.9293 H   0  0  0  0  0  0  0  0  0  0  0  0
   -1.4485    1.6640    4.2131 H   0  0  0  0  0  0  0  0  0  0  0  0
   -0.4137    0.2381    4.4736 H   0  0  0  0  0  0  0  0  0  0  0  0
  5  6  2  0  0  0  0
  5  7  1  0  0  0  0
  2  3  1  0  0  0  0
  2  4  1  0  0  0  0
  2  5  1  0  0  0  0
  1  2  1  0  0  0  0
 20 21  2  0  0  0  0
 20 22  1  0  0  0  0
 17 18  1  0  0  0  0
 17 19  2  0  0  0  0
 14 15  1  0  0  0  0
 14 16  1  0  0  0  0
 14 17  1  0  0  0  0
 11 12  1  0  0  0  0
 11 13  1  0  0  0  0
 11 14  1  0  0  0  0
  9 10  1  0  0  0  0
  9 11  1  0  0  0  0
  9 20  1  0  0  0  0
  7  8  1  0  0  0  0
  7  9  1  0  0  0  0
 24 25  1  0  0  0  0
 24 26  1  0  0  0  0
 24 27  1  0  0  0  0
 22 23  1  0  0  0  0
 22 24  1  0  0  0  0
M  CHG  1  18  -1
M  END
$$$$
default_name
  -OEChem-02102213163D

 27 26  0     1  0  0  0  0  0999 V2000
   -3.2406   -3.5400    1.2326 H   0  0  0  0  0  0  0  0  0  0  0  0
   -3.1436   -2.6190    0.6606 C   0  0  0  0  0  0  0  0  0  0  0  0
   -3.8786   -1.8920    0.9996 H   0  0  0  0  0  0  0  0  0  0  0  0
   -3.2846   -2.8280   -0.3984 H   0  0  0  0  0  0  0  0  0  0  0  0
   -1.7586   -2.0580    0.8686 C   0  0  0  0  0  0  0  0  0  0  0  0
   -0.9666   -2.6340    1.6026 O   0  0  0  0  0  0  0  0  0  0  0  0
   -1.4866   -0.9220    0.2366 N   0  0  0  0  0  0  0  0  0  0  0  0
   -2.2166   -0.4790   -0.2994 H   0  0  0  0  0  0  0  0  0  0  0  0
   -0.1956   -0.2250    0.2596 C   0  0  1  0  0  0  0  0  0  0  0  0
    0.5755   -0.9013   -0.1105 H   0  0  0  0  0  0  0  0  0  0  0  0
   -0.2553    0.9811   -0.6992 C   0  0  0  0  0  0  0  0  0  0  0  0
   -0.3365    1.8866   -0.0957 H   0  0  0  0  0  0  0  0  0  0  0  0
    0.6713    1.0313   -1.2729 H   0  0  0  0  0  0  0  0  0  0  0  0
   -1.4476    0.9334   -1.6695 C   0  0  0  0  0  0  0  0  0  0  0  0
   -1.2559    0.1767   -2.4341 H   0  0  0  0  0  0  0  0  0  0  0  0
   -2.3347    0.6281   -1.1082 H   0  0  0  0  0  0  0  0  0  0  0  0
   -1.7242    2.2756   -2.3630 C   0  0  0  0  0  0  0  0  0  0  0  0
   -1.0754    3.2800   -1.9933 O   0  5  0  0  0  0  0  0  0  0  0  0
   -2.5746    2.2681   -3.2807 O   0  0  0  0  0  0  0  0  0  0  0  0
    0.1881    0.1678    1.7015 C   0  0  0  0  0  0  0  0  0  0  0  0
    1.3379    0.0002    2.1133 O   0  0  0  0  0  0  0  0  0  0  0  0
   -0.7666    0.7145    2.4656 N   0  0  0  0  0  0  0  0  0  0  0  0
   -1.6971    0.7705    2.0790 H   0  0  0  0  0  0  0  0  0  0  0  0
   -0.5716    1.1232    3.8542 C   0  0  0  0  0  0  0  0  0  0  0  0
    0.3083    1.7643    3.9293 H   0  0  0  0  0  0  0  0  0  0  0  0
   -1.4485    1.6640    4.2131 H   0  0  0  0  0  0  0  0  0  0  0  0
   -0.4137    0.2381    4.4736 H   0  0  0  0  0  0  0  0  0  0  0  0
  5  6  2  0  0  0  0
  5  7  1  0  0  0  0
  2  3  1  0  0  0  0
  2  4  1  0  0  0  0
  2  5  1  0  0  0  0
  1  2  1  0  0  0  0
 20 21  2  0  0  0  0
 20 22  1  0  0  0  0
 17 18  1  0  0  0  0
 17 19  2  0  0  0  0
 14 15  1  0  0  0  0
 14 16  1  0  0  0  0
 14 17  1  0  0  0  0
 11 12  1  0  0  0  0
 11 13  1  0  0  0  0
 11 14  1  0  0  0  0
  9 10  1  0  0  0  0
  9 11  1  0  0  0  0
  9 20  1  0  0  0  0
  7  8  1  0  0  0  0
  7  9  1  0  0  0  0
 24 25  1  0  0  0  0
 24 26  1  0  0  0  0
 24 27  1  0  0  0  0
 22 23  1  0  0  0  0
 22 24  1  0  0  0  0
M  CHG  1  18  -1
M  END
$$$$
default_name
  -OEChem-02102213163D

 27 26  0     1  0  0  0  0  0999 V2000
   -3.2406   -3.5400    1.2326 H   0  0  0  0  0  0  0  0  0  0  0  0
   -3.1436   -2.6190    0.6606 C   0  0  0  0  0  0  0  0  0  0  0  0
   -3.8786   -1.8920    0.9996 H   0  0  0  0  0  0  0  0  0  0  0  0
   -3.2846   -2.8280   -0.3984 H   0  0  0  0  0  0  0  0  0  0  0  0
   -1.7586   -2.0580    0.8686 C   0  0  0  0  0  0  0  0  0  0  0  0
   -0.9666   -2.6340    1.6026 O   0  0  0  0  0  0  0  0  0  0  0  0
   -1.4866   -0.9220    0.2366 N   0  0  0  0  0  0  0  0  0  0  0  0
   -2.2166   -0.4790   -0.2994 H   0  0  0  0  0  0  0  0  0  0  0  0
   -0.1956   -0.2250    0.2596 C   0  0  1  0  0  0  0  0  0  0  0  0
    0.5755   -0.9013   -0.1105 H   0  0  0  0  0  0  0  0  0  0  0  0
   -0.2553    0.9811   -0.6992 C   0  0  0  0  0  0  0  0  0  0  0  0
   -0.0663    1.8838   -0.1160 H   0  0  0  0  0  0  0  0  0  0  0  0
    0.5311    0.8844   -1.4491 H   0  0  0  0  0  0  0  0  0  0  0  0
   -1.6119    1.1334   -1.4075 C   0  0  0  0  0  0  0  0  0  0  0  0
   -1.8226    0.2240   -1.9754 H   0  0  0  0  0  0  0  0  0  0  0  0
   -2.3872    1.2414   -0.6444 H   0  0  0  0  0  0  0  0  0  0  0  0
   -1.6703    2.3351   -2.3623 C   0  0  0  0  0  0  0  0  0  0  0  0
   -0.7036    3.1300   -2.3766 O   0  5  0  0  0  0  0  0  0  0  0  0
   -2.6847    2.4254   -3.0890 O   0  0  0  0  0  0  0  0  0  0  0  0
    0.1881    0.1678    1.7015 C   0  0  0  0  0  0  0  0  0  0  0  0
    1.3379    0.0002    2.1133 O   0  0  0  0  0  0  0  0  0  0  0  0
   -0.7666    0.7145    2.4656 N   0  0  0  0  0  0  0  0  0  0  0  0
   -1.6971    0.7705    2.0790 H   0  0  0  0  0  0  0  0  0  0  0  0
   -0.5716    1.1232    3.8542 C   0  0  0  0  0  0  0  0  0  0  0  0
    0.3083    1.7643    3.9293 H   0  0  0  0  0  0  0  0  0  0  0  0
   -1.4485    1.6640    4.2131 H   0  0  0  0  0  0  0  0  0  0  0  0
   -0.4137    0.2381    4.4736 H   0  0  0  0  0  0  0  0  0  0  0  0
  5  6  2  0  0  0  0
  5  7  1  0  0  0  0
  2  3  1  0  0  0  0
  2  4  1  0  0  0  0
  2  5  1  0  0  0  0
  1  2  1  0  0  0  0
 20 21  2  0  0  0  0
 20 22  1  0  0  0  0
 17 18  1  0  0  0  0
 17 19  2  0  0  0  0
 14 15  1  0  0  0  0
 14 16  1  0  0  0  0
 14 17  1  0  0  0  0
 11 12  1  0  0  0  0
 11 13  1  0  0  0  0
 11 14  1  0  0  0  0
  9 10  1  0  0  0  0
  9 11  1  0  0  0  0
  9 20  1  0  0  0  0
  7  8  1  0  0  0  0
  7  9  1  0  0  0  0
 24 25  1  0  0  0  0
 24 26  1  0  0  0  0
 24 27  1  0  0  0  0
 22 23  1  0  0  0  0
 22 24  1  0  0  0  0
M  CHG  1  18  -1
M  END
$$$$
default_name
  -OEChem-02102213163D

 27 26  0     1  0  0  0  0  0999 V2000
   -3.2406   -3.5400    1.2326 H   0  0  0  0  0  0  0  0  0  0  0  0
   -3.1436   -2.6190    0.6606 C   0  0  0  0  0  0  0  0  0  0  0  0
   -3.8786   -1.8920    0.9996 H   0  0  0  0  0  0  0  0  0  0  0  0
   -3.2846   -2.8280   -0.3984 H   0  0  0  0  0  0  0  0  0  0  0  0
   -1.7586   -2.0580    0.8686 C   0  0  0  0  0  0  0  0  0  0  0  0
   -0.9666   -2.6340    1.6026 O   0  0  0  0  0  0  0  0  0  0  0  0
   -1.4866   -0.9220    0.2366 N   0  0  0  0  0  0  0  0  0  0  0  0
   -2.2166   -0.4790   -0.2994 H   0  0  0  0  0  0  0  0  0  0  0  0
   -0.1956   -0.2250    0.2596 C   0  0  1  0  0  0  0  0  0  0  0  0
    0.5755   -0.9013   -0.1105 H   0  0  0  0  0  0  0  0  0  0  0  0
   -0.2553    0.9811   -0.6992 C   0  0  0  0  0  0  0  0  0  0  0  0
   -0.0663    1.8838   -0.1160 H   0  0  0  0  0  0  0  0  0  0  0  0
    0.5311    0.8844   -1.4491 H   0  0  0  0  0  0  0  0  0  0  0  0
   -1.6119    1.1334   -1.4075 C   0  0  0  0  0  0  0  0  0  0  0  0
   -1.9491    0.1517   -1.7486 H   0  0  0  0  0  0  0  0  0  0  0  0
   -2.3387    1.5055   -0.6805 H   0  0  0  0  0  0  0  0  0  0  0  0
   -1.5679    2.0852   -2.6122 C   0  0  0  0  0  0  0  0  0  0  0  0
   -0.5167    2.7319   -2.8202 O   0  5  0  0  0  0  0  0  0  0  0  0
   -2.5928    2.1316   -3.3282 O   0  0  0  0  0  0  0  0  0  0  0  0
    0.1881    0.1678    1.7015 C   0  0  0  0  0  0  0  0  0  0  0  0
    1.3379    0.0002    2.1133 O   0  0  0  0  0  0  0  0  0  0  0  0
   -0.7666    0.7145    2.4656 N   0  0  0  0  0  0  0  0  0  0  0  0
   -1.6971    0.7705    2.0790 H   0  0  0  0  0  0  0  0  0  0  0  0
   -0.5716    1.1232    3.8542 C   0  0  0  0  0  0  0  0  0  0  0  0
    0.3083    1.7643    3.9293 H   0  0  0  0  0  0  0  0  0  0  0  0
   -1.4485    1.6640    4.2131 H   0  0  0  0  0  0  0  0  0  0  0  0
   -0.4137    0.2381    4.4736 H   0  0  0  0  0  0  0  0  0  0  0  0
  5  6  2  0  0  0  0
  5  7  1  0  0  0  0
  2  3  1  0  0  0  0
  2  4  1  0  0  0  0
  2  5  1  0  0  0  0
  1  2  1  0  0  0  0
 20 21  2  0  0  0  0
 20 22  1  0  0  0  0
 17 18  1  0  0  0  0
 17 19  2  0  0  0  0
 14 15  1  0  0  0  0
 14 16  1  0  0  0  0
 14 17  1  0  0  0  0
 11 12  1  0  0  0  0
 11 13  1  0  0  0  0
 11 14  1  0  0  0  0
  9 10  1  0  0  0  0
  9 11  1  0  0  0  0
  9 20  1  0  0  0  0
  7  8  1  0  0  0  0
  7  9  1  0  0  0  0
 24 25  1  0  0  0  0
 24 26  1  0  0  0  0
 24 27  1  0  0  0  0
 22 23  1  0  0  0  0
 22 24  1  0  0  0  0
M  CHG  1  18  -1
M  END
$$$$
default_name
  -OEChem-02102213163D

 27 26  0     1  0  0  0  0  0999 V2000
   -3.2406   -3.5400    1.2326 H   0  0  0  0  0  0  0  0  0  0  0  0
   -3.1436   -2.6190    0.6606 C   0  0  0  0  0  0  0  0  0  0  0  0
   -3.8786   -1.8920    0.9996 H   0  0  0  0  0  0  0  0  0  0  0  0
   -3.2846   -2.8280   -0.3984 H   0  0  0  0  0  0  0  0  0  0  0  0
   -1.7586   -2.0580    0.8686 C   0  0  0  0  0  0  0  0  0  0  0  0
   -0.9666   -2.6340    1.6026 O   0  0  0  0  0  0  0  0  0  0  0  0
   -1.4866   -0.9220    0.2366 N   0  0  0  0  0  0  0  0  0  0  0  0
   -2.2166   -0.4790   -0.2994 H   0  0  0  0  0  0  0  0  0  0  0  0
   -0.1956   -0.2250    0.2596 C   0  0  1  0  0  0  0  0  0  0  0  0
    0.5755   -0.9013   -0.1105 H   0  0  0  0  0  0  0  0  0  0  0  0
   -0.2553    0.9811   -0.6992 C   0  0  0  0  0  0  0  0  0  0  0  0
   -0.0663    1.8838   -0.1160 H   0  0  0  0  0  0  0  0  0  0  0  0
    0.5311    0.8844   -1.4491 H   0  0  0  0  0  0  0  0  0  0  0  0
   -1.6119    1.1334   -1.4075 C   0  0  0  0  0  0  0  0  0  0  0  0
   -2.0741    0.1486   -1.5098 H   0  0  0  0  0  0  0  0  0  0  0  0
   -2.2612    1.7466   -0.7770 H   0  0  0  0  0  0  0  0  0  0  0  0
   -1.5052    1.7746   -2.7991 C   0  0  0  0  0  0  0  0  0  0  0  0
   -0.3949    2.2238   -3.1626 O   0  5  0  0  0  0  0  0  0  0  0  0
   -2.5452    1.7823   -3.4945 O   0  0  0  0  0  0  0  0  0  0  0  0
    0.1881    0.1678    1.7015 C   0  0  0  0  0  0  0  0  0  0  0  0
    1.3379    0.0002    2.1133 O   0  0  0  0  0  0  0  0  0  0  0  0
   -0.7666    0.7145    2.4656 N   0  0  0  0  0  0  0  0  0  0  0  0
   -1.6971    0.7705    2.0790 H   0  0  0  0  0  0  0  0  0  0  0  0
   -0.5716    1.1232    3.8542 C   0  0  0  0  0  0  0  0  0  0  0  0
    0.3083    1.7643    3.9293 H   0  0  0  0  0  0  0  0  0  0  0  0
   -1.4485    1.6640    4.2131 H   0  0  0  0  0  0  0  0  0  0  0  0
   -0.4137    0.2381    4.4736 H   0  0  0  0  0  0  0  0  0  0  0  0
  5  6  2  0  0  0  0
  5  7  1  0  0  0  0
  2  3  1  0  0  0  0
  2  4  1  0  0  0  0
  2  5  1  0  0  0  0
  1  2  1  0  0  0  0
 20 21  2  0  0  0  0
 20 22  1  0  0  0  0
 17 18  1  0  0  0  0
 17 19  2  0  0  0  0
 14 15  1  0  0  0  0
 14 16  1  0  0  0  0
 14 17  1  0  0  0  0
 11 12  1  0  0  0  0
 11 13  1  0  0  0  0
 11 14  1  0  0  0  0
  9 10  1  0  0  0  0
  9 11  1  0  0  0  0
  9 20  1  0  0  0  0
  7  8  1  0  0  0  0
  7  9  1  0  0  0  0
 24 25  1  0  0  0  0
 24 26  1  0  0  0  0
 24 27  1  0  0  0  0
 22 23  1  0  0  0  0
 22 24  1  0  0  0  0
M  CHG  1  18  -1
M  END
$$$$
default_name
  -OEChem-02102213163D

 27 26  0     1  0  0  0  0  0999 V2000
   -3.2406   -3.5400    1.2326 H   0  0  0  0  0  0  0  0  0  0  0  0
   -3.1436   -2.6190    0.6606 C   0  0  0  0  0  0  0  0  0  0  0  0
   -3.8786   -1.8920    0.9996 H   0  0  0  0  0  0  0  0  0  0  0  0
   -3.2846   -2.8280   -0.3984 H   0  0  0  0  0  0  0  0  0  0  0  0
   -1.7586   -2.0580    0.8686 C   0  0  0  0  0  0  0  0  0  0  0  0
   -0.9666   -2.6340    1.6026 O   0  0  0  0  0  0  0  0  0  0  0  0
   -1.4866   -0.9220    0.2366 N   0  0  0  0  0  0  0  0  0  0  0  0
   -2.2166   -0.4790   -0.2994 H   0  0  0  0  0  0  0  0  0  0  0  0
   -0.1956   -0.2250    0.2596 C   0  0  1  0  0  0  0  0  0  0  0  0
    0.5755   -0.9013   -0.1105 H   0  0  0  0  0  0  0  0  0  0  0  0
   -0.2553    0.9811   -0.6992 C   0  0  0  0  0  0  0  0  0  0  0  0
   -0.0663    1.8838   -0.1160 H   0  0  0  0  0  0  0  0  0  0  0  0
    0.5311    0.8844   -1.4491 H   0  0  0  0  0  0  0  0  0  0  0  0
   -1.6119    1.1334   -1.4075 C   0  0  0  0  0  0  0  0  0  0  0  0
   -2.1891    0.2151   -1.2753 H   0  0  0  0  0  0  0  0  0  0  0  0
   -2.1601    1.9482   -0.9272 H   0  0  0  0  0  0  0  0  0  0  0  0
   -1.4864    1.4244   -2.9104 C   0  0  0  0  0  0  0  0  0  0  0  0
   -0.3467    1.6404   -3.3804 O   0  5  0  0  0  0  0  0  0  0  0  0
   -2.5451    1.4012   -3.5766 O   0  0  0  0  0  0  0  0  0  0  0  0
    0.1881    0.1678    1.7015 C   0  0  0  0  0  0  0  0  0  0  0  0
    1.3379    0.0002    2.1133 O   0  0  0  0  0  0  0  0  0  0  0  0
   -0.7666    0.7145    2.4656 N   0  0  0  0  0  0  0  0  0  0  0  0
   -1.6971    0.7705    2.0790 H   0  0  0  0  0  0  0  0  0  0  0  0
   -0.5716    1.1232    3.8542 C   0  0  0  0  0  0  0  0  0  0  0  0
    0.3083    1.7643    3.9293 H   0  0  0  0  0  0  0  0  0  0  0  0
   -1.4485    1.6640    4.2131 H   0  0  0  0  0  0  0  0  0  0  0  0
   -0.4137    0.2381    4.4736 H   0  0  0  0  0  0  0  0  0  0  0  0
  5  6  2  0  0  0  0
  5  7  1  0  0  0  0
  2  3  1  0  0  0  0
  2  4  1  0  0  0  0
  2  5  1  0  0  0  0
  1  2  1  0  0  0  0
 20 21  2  0  0  0  0
 20 22  1  0  0  0  0
 17 18  1  0  0  0  0
 17 19  2  0  0  0  0
 14 15  1  0  0  0  0
 14 16  1  0  0  0  0
 14 17  1  0  0  0  0
 11 12  1  0  0  0  0
 11 13  1  0  0  0  0
 11 14  1  0  0  0  0
  9 10  1  0  0  0  0
  9 11  1  0  0  0  0
  9 20  1  0  0  0  0
  7  8  1  0  0  0  0
  7  9  1  0  0  0  0
 24 25  1  0  0  0  0
 24 26  1  0  0  0  0
 24 27  1  0  0  0  0
 22 23  1  0  0  0  0
 22 24  1  0  0  0  0
M  CHG  1  18  -1
M  END
$$$$
default_name
  -OEChem-02102213163D

 27 26  0     1  0  0  0  0  0999 V2000
   -3.2406   -3.5400    1.2326 H   0  0  0  0  0  0  0  0  0  0  0  0
   -3.1436   -2.6190    0.6606 C   0  0  0  0  0  0  0  0  0  0  0  0
   -3.8786   -1.8920    0.9996 H   0  0  0  0  0  0  0  0  0  0  0  0
   -3.2846   -2.8280   -0.3984 H   0  0  0  0  0  0  0  0  0  0  0  0
   -1.7586   -2.0580    0.8686 C   0  0  0  0  0  0  0  0  0  0  0  0
   -0.9666   -2.6340    1.6026 O   0  0  0  0  0  0  0  0  0  0  0  0
   -1.4866   -0.9220    0.2366 N   0  0  0  0  0  0  0  0  0  0  0  0
   -2.2166   -0.4790   -0.2994 H   0  0  0  0  0  0  0  0  0  0  0  0
   -0.1956   -0.2250    0.2596 C   0  0  1  0  0  0  0  0  0  0  0  0
    0.5755   -0.9013   -0.1105 H   0  0  0  0  0  0  0  0  0  0  0  0
   -0.2553    0.9811   -0.6992 C   0  0  0  0  0  0  0  0  0  0  0  0
   -0.0663    1.8838   -0.1160 H   0  0  0  0  0  0  0  0  0  0  0  0
    0.5311    0.8844   -1.4491 H   0  0  0  0  0  0  0  0  0  0  0  0
   -1.6119    1.1334   -1.4075 C   0  0  0  0  0  0  0  0  0  0  0  0
   -2.2863    0.3466   -1.0610 H   0  0  0  0  0  0  0  0  0  0  0  0
   -2.0423    2.0966   -1.1209 H   0  0  0  0  0  0  0  0  0  0  0  0
   -1.5128    1.0585   -2.9384 C   0  0  0  0  0  0  0  0  0  0  0  0
   -0.3752    1.0213   -3.4589 O   0  5  0  0  0  0  0  0  0  0  0  0
   -2.5925    1.0144   -3.5690 O   0  0  0  0  0  0  0  0  0  0  0  0
    0.1881    0.1678    1.7015 C   0  0  0  0  0  0  0  0  0  0  0  0
    1.3379    0.0002    2.1133 O   0  0  0  0  0  0  0  0  0  0  0  0
   -0.7666    0.7145    2.4656 N   0  0  0  0  0  0  0  0  0  0  0  0
   -1.6971    0.7705    2.0790 H   0  0  0  0  0  0  0  0  0  0  0  0
   -0.5716    1.1232    3.8542 C   0  0  0  0  0  0  0  0  0  0  0  0
    0.3083    1.7643    3.9293 H   0  0  0  0  0  0  0  0  0  0  0  0
   -1.4485    1.6640    4.2131 H   0  0  0  0  0  0  0  0  0  0  0  0
   -0.4137    0.2381    4.4736 H   0  0  0  0  0  0  0  0  0  0  0  0
  5  6  2  0  0  0  0
  5  7  1  0  0  0  0
  2  3  1  0  0  0  0
  2  4  1  0  0  0  0
  2  5  1  0  0  0  0
  1  2  1  0  0  0  0
 20 21  2  0  0  0  0
 20 22  1  0  0  0  0
 17 18  1  0  0  0  0
 17 19  2  0  0  0  0
 14 15  1  0  0  0  0
 14 16  1  0  0  0  0
 14 17  1  0  0  0  0
 11 12  1  0  0  0  0
 11 13  1  0  0  0  0
 11 14  1  0  0  0  0
  9 10  1  0  0  0  0
  9 11  1  0  0  0  0
  9 20  1  0  0  0  0
  7  8  1  0  0  0  0
  7  9  1  0  0  0  0
 24 25  1  0  0  0  0
 24 26  1  0  0  0  0
 24 27  1  0  0  0  0
 22 23  1  0  0  0  0
 22 24  1  0  0  0  0
M  CHG  1  18  -1
M  END
$$$$
default_name
  -OEChem-02102213163D

 27 26  0     1  0  0  0  0  0999 V2000
   -3.2406   -3.5400    1.2326 H   0  0  0  0  0  0  0  0  0  0  0  0
   -3.1436   -2.6190    0.6606 C   0  0  0  0  0  0  0  0  0  0  0  0
   -3.8786   -1.8920    0.9996 H   0  0  0  0  0  0  0  0  0  0  0  0
   -3.2846   -2.8280   -0.3984 H   0  0  0  0  0  0  0  0  0  0  0  0
   -1.7586   -2.0580    0.8686 C   0  0  0  0  0  0  0  0  0  0  0  0
   -0.9666   -2.6340    1.6026 O   0  0  0  0  0  0  0  0  0  0  0  0
   -1.4866   -0.9220    0.2366 N   0  0  0  0  0  0  0  0  0  0  0  0
   -2.2166   -0.4790   -0.2994 H   0  0  0  0  0  0  0  0  0  0  0  0
   -0.1956   -0.2250    0.2596 C   0  0  1  0  0  0  0  0  0  0  0  0
    0.5755   -0.9013   -0.1105 H   0  0  0  0  0  0  0  0  0  0  0  0
   -0.2553    0.9811   -0.6992 C   0  0  0  0  0  0  0  0  0  0  0  0
   -0.0663    1.8838   -0.1160 H   0  0  0  0  0  0  0  0  0  0  0  0
    0.5311    0.8844   -1.4491 H   0  0  0  0  0  0  0  0  0  0  0  0
   -1.6119    1.1334   -1.4075 C   0  0  0  0  0  0  0  0  0  0  0  0
   -2.3589    0.5342   -0.8815 H   0  0  0  0  0  0  0  0  0  0  0  0
   -1.9158    2.1817   -1.3449 H   0  0  0  0  0  0  0  0  0  0  0  0
   -1.5827    0.7018   -2.8812 C   0  0  0  0  0  0  0  0  0  0  0  0
   -0.4786    0.4089   -3.3927 O   0  5  0  0  0  0  0  0  0  0  0  0
   -2.6843    0.6481   -3.4720 O   0  0  0  0  0  0  0  0  0  0  0  0
    0.1881    0.1678    1.7015 C   0  0  0  0  0  0  0  0  0  0  0  0
    1.3379    0.0002    2.1133 O   0  0  0  0  0  0  0  0  0  0  0  0
   -0.7666    0.7145    2.4656 N   0  0  0  0  0  0  0  0  0  0  0  0
   -1.6971    0.7705    2.0790 H   0  0  0  0  0  0  0  0  0  0  0  0
   -0.5716    1.1232    3.8542 C   0  0  0  0  0  0  0  0  0  0  0  0
    0.3083    1.7643    3.9293 H   0  0  0  0  0  0  0  0  0  0  0  0
   -1.4485    1.6640    4.2131 H   0  0  0  0  0  0  0  0  0  0  0  0
   -0.4137    0.2381    4.4736 H   0  0  0  0  0  0  0  0  0  0  0  0
  5  6  2  0  0  0  0
  5  7  1  0  0  0  0
  2  3  1  0  0  0  0
  2  4  1  0  0  0  0
  2  5  1  0  0  0  0
  1  2  1  0  0  0  0
 20 21  2  0  0  0  0
 20 22  1  0  0  0  0
 17 18  1  0  0  0  0
 17 19  2  0  0  0  0
 14 15  1  0  0  0  0
 14 16  1  0  0  0  0
 14 17  1  0  0  0  0
 11 12  1  0  0  0  0
 11 13  1  0  0  0  0
 11 14  1  0  0  0  0
  9 10  1  0  0  0  0
  9 11  1  0  0  0  0
  9 20  1  0  0  0  0
  7  8  1  0  0  0  0
  7  9  1  0  0  0  0
 24 25  1  0  0  0  0
 24 26  1  0  0  0  0
 24 27  1  0  0  0  0
 22 23  1  0  0  0  0
 22 24  1  0  0  0  0
M  CHG  1  18  -1
M  END
$$$$
default_name
  -OEChem-02102213163D

 27 26  0     1  0  0  0  0  0999 V2000
   -3.2406   -3.5400    1.2326 H   0  0  0  0  0  0  0  0  0  0  0  0
   -3.1436   -2.6190    0.6606 C   0  0  0  0  0  0  0  0  0  0  0  0
   -3.8786   -1.8920    0.9996 H   0  0  0  0  0  0  0  0  0  0  0  0
   -3.2846   -2.8280   -0.3984 H   0  0  0  0  0  0  0  0  0  0  0  0
   -1.7586   -2.0580    0.8686 C   0  0  0  0  0  0  0  0  0  0  0  0
   -0.9666   -2.6340    1.6026 O   0  0  0  0  0  0  0  0  0  0  0  0
   -1.4866   -0.9220    0.2366 N   0  0  0  0  0  0  0  0  0  0  0  0
   -2.2166   -0.4790   -0.2994 H   0  0  0  0  0  0  0  0  0  0  0  0
   -0.1956   -0.2250    0.2596 C   0  0  1  0  0  0  0  0  0  0  0  0
    0.5755   -0.9013   -0.1105 H   0  0  0  0  0  0  0  0  0  0  0  0
   -0.2553    0.9811   -0.6992 C   0  0  0  0  0  0  0  0  0  0  0  0
   -0.0663    1.8838   -0.1160 H   0  0  0  0  0  0  0  0  0  0  0  0
    0.5311    0.8844   -1.4491 H   0  0  0  0  0  0  0  0  0  0  0  0
   -1.6119    1.1334   -1.4075 C   0  0  0  0  0  0  0  0  0  0  0  0
   -2.4022    0.7649   -0.7490 H   0  0  0  0  0  0  0  0  0  0  0  0
   -1.7892    2.1977   -1.5840 H   0  0  0  0  0  0  0  0  0  0  0  0
   -1.6913    0.3786   -2.7428 C   0  0  0  0  0  0  0  0  0  0  0  0
   -0.6497   -0.1553   -3.1862 O   0  5  0  0  0  0  0  0  0  0  0  0
   -2.8141    0.3274   -3.2924 O   0  0  0  0  0  0  0  0  0  0  0  0
    0.1881    0.1678    1.7015 C   0  0  0  0  0  0  0  0  0  0  0  0
    1.3379    0.0002    2.1133 O   0  0  0  0  0  0  0  0  0  0  0  0
   -0.7666    0.7145    2.4656 N   0  0  0  0  0  0  0  0  0  0  0  0
   -1.6971    0.7705    2.0790 H   0  0  0  0  0  0  0  0  0  0  0  0
   -0.5716    1.1232    3.8542 C   0  0  0  0  0  0  0  0  0  0  0  0
    0.3083    1.7643    3.9293 H   0  0  0  0  0  0  0  0  0  0  0  0
   -1.4485    1.6640    4.2131 H   0  0  0  0  0  0  0  0  0  0  0  0
   -0.4137    0.2381    4.4736 H   0  0  0  0  0  0  0  0  0  0  0  0
  5  6  2  0  0  0  0
  5  7  1  0  0  0  0
  2  3  1  0  0  0  0
  2  4  1  0  0  0  0
  2  5  1  0  0  0  0
  1  2  1  0  0  0  0
 20 21  2  0  0  0  0
 20 22  1  0  0  0  0
 17 18  1  0  0  0  0
 17 19  2  0  0  0  0
 14 15  1  0  0  0  0
 14 16  1  0  0  0  0
 14 17  1  0  0  0  0
 11 12  1  0  0  0  0
 11 13  1  0  0  0  0
 11 14  1  0  0  0  0
  9 10  1  0  0  0  0
  9 11  1  0  0  0  0
  9 20  1  0  0  0  0
  7  8  1  0  0  0  0
  7  9  1  0  0  0  0
 24 25  1  0  0  0  0
 24 26  1  0  0  0  0
 24 27  1  0  0  0  0
 22 23  1  0  0  0  0
 22 24  1  0  0  0  0
M  CHG  1  18  -1
M  END
$$$$
default_name
  -OEChem-02102213163D

 27 26  0     1  0  0  0  0  0999 V2000
   -3.2406   -3.5400    1.2326 H   0  0  0  0  0  0  0  0  0  0  0  0
   -3.1436   -2.6190    0.6606 C   0  0  0  0  0  0  0  0  0  0  0  0
   -3.8786   -1.8920    0.9996 H   0  0  0  0  0  0  0  0  0  0  0  0
   -3.2846   -2.8280   -0.3984 H   0  0  0  0  0  0  0  0  0  0  0  0
   -1.7586   -2.0580    0.8686 C   0  0  0  0  0  0  0  0  0  0  0  0
   -0.9666   -2.6340    1.6026 O   0  0  0  0  0  0  0  0  0  0  0  0
   -1.4866   -0.9220    0.2366 N   0  0  0  0  0  0  0  0  0  0  0  0
   -2.2166   -0.4790   -0.2994 H   0  0  0  0  0  0  0  0  0  0  0  0
   -0.1956   -0.2250    0.2596 C   0  0  1  0  0  0  0  0  0  0  0  0
    0.5755   -0.9013   -0.1105 H   0  0  0  0  0  0  0  0  0  0  0  0
   -0.2553    0.9811   -0.6992 C   0  0  0  0  0  0  0  0  0  0  0  0
   -0.0663    1.8838   -0.1160 H   0  0  0  0  0  0  0  0  0  0  0  0
    0.5311    0.8844   -1.4491 H   0  0  0  0  0  0  0  0  0  0  0  0
   -1.6119    1.1334   -1.4075 C   0  0  0  0  0  0  0  0  0  0  0  0
   -2.4130    1.0232   -0.6727 H   0  0  0  0  0  0  0  0  0  0  0  0
   -1.6711    2.1434   -1.8218 H   0  0  0  0  0  0  0  0  0  0  0  0
   -1.8311    0.1110   -2.5325 C   0  0  0  0  0  0  0  0  0  0  0  0
   -0.8770   -0.6326   -2.8536 O   0  5  0  0  0  0  0  0  0  0  0  0
   -2.9731    0.0741   -3.0423 O   0  0  0  0  0  0  0  0  0  0  0  0
    0.1881    0.1678    1.7015 C   0  0  0  0  0  0  0  0  0  0  0  0
    1.3379    0.0002    2.1133 O   0  0  0  0  0  0  0  0  0  0  0  0
   -0.7666    0.7145    2.4656 N   0  0  0  0  0  0  0  0  0  0  0  0
   -1.6971    0.7705    2.0790 H   0  0  0  0  0  0  0  0  0  0  0  0
   -0.5716    1.1232    3.8542 C   0  0  0  0  0  0  0  0  0  0  0  0
    0.3083    1.7643    3.9293 H   0  0  0  0  0  0  0  0  0  0  0  0
   -1.4485    1.6640    4.2131 H   0  0  0  0  0  0  0  0  0  0  0  0
   -0.4137    0.2381    4.4736 H   0  0  0  0  0  0  0  0  0  0  0  0
  5  6  2  0  0  0  0
  5  7  1  0  0  0  0
  2  3  1  0  0  0  0
  2  4  1  0  0  0  0
  2  5  1  0  0  0  0
  1  2  1  0  0  0  0
 20 21  2  0  0  0  0
 20 22  1  0  0  0  0
 17 18  1  0  0  0  0
 17 19  2  0  0  0  0
 14 15  1  0  0  0  0
 14 16  1  0  0  0  0
 14 17  1  0  0  0  0
 11 12  1  0  0  0  0
 11 13  1  0  0  0  0
 11 14  1  0  0  0  0
  9 10  1  0  0  0  0
  9 11  1  0  0  0  0
  9 20  1  0  0  0  0
  7  8  1  0  0  0  0
  7  9  1  0  0  0  0
 24 25  1  0  0  0  0
 24 26  1  0  0  0  0
 24 27  1  0  0  0  0
 22 23  1  0  0  0  0
 22 24  1  0  0  0  0
M  CHG  1  18  -1
M  END
$$$$
default_name
  -OEChem-02102213163D

 27 26  0     1  0  0  0  0  0999 V2000
   -3.2406   -3.5400    1.2326 H   0  0  0  0  0  0  0  0  0  0  0  0
   -3.1436   -2.6190    0.6606 C   0  0  0  0  0  0  0  0  0  0  0  0
   -3.8786   -1.8920    0.9996 H   0  0  0  0  0  0  0  0  0  0  0  0
   -3.2846   -2.8280   -0.3984 H   0  0  0  0  0  0  0  0  0  0  0  0
   -1.7586   -2.0580    0.8686 C   0  0  0  0  0  0  0  0  0  0  0  0
   -0.9666   -2.6340    1.6026 O   0  0  0  0  0  0  0  0  0  0  0  0
   -1.4866   -0.9220    0.2366 N   0  0  0  0  0  0  0  0  0  0  0  0
   -2.2166   -0.4790   -0.2994 H   0  0  0  0  0  0  0  0  0  0  0  0
   -0.1956   -0.2250    0.2596 C   0  0  1  0  0  0  0  0  0  0  0  0
    0.5755   -0.9013   -0.1105 H   0  0  0  0  0  0  0  0  0  0  0  0
   -0.2553    0.9811   -0.6992 C   0  0  0  0  0  0  0  0  0  0  0  0
   -0.0663    1.8838   -0.1160 H   0  0  0  0  0  0  0  0  0  0  0  0
    0.5311    0.8844   -1.4491 H   0  0  0  0  0  0  0  0  0  0  0  0
   -1.6119    1.1334   -1.4075 C   0  0  0  0  0  0  0  0  0  0  0  0
   -2.3908    1.2914   -0.6576 H   0  0  0  0  0  0  0  0  0  0  0  0
   -1.5696    2.0226   -2.0421 H   0  0  0  0  0  0  0  0  0  0  0  0
   -1.9927   -0.0828   -2.2647 C   0  0  0  0  0  0  0  0  0  0  0  0
   -1.1449   -0.9907   -2.4175 O   0  5  0  0  0  0  0  0  0  0  0  0
   -3.1504   -0.0945   -2.7389 O   0  0  0  0  0  0  0  0  0  0  0  0
    0.1881    0.1678    1.7015 C   0  0  0  0  0  0  0  0  0  0  0  0
    1.3379    0.0002    2.1133 O   0  0  0  0  0  0  0  0  0  0  0  0
   -0.7666    0.7145    2.4656 N   0  0  0  0  0  0  0  0  0  0  0  0
   -1.6971    0.7705    2.0790 H   0  0  0  0  0  0  0  0  0  0  0  0
   -0.5716    1.1232    3.8542 C   0  0  0  0  0  0  0  0  0  0  0  0
    0.3083    1.7643    3.9293 H   0  0  0  0  0  0  0  0  0  0  0  0
   -1.4485    1.6640    4.2131 H   0  0  0  0  0  0  0  0  0  0  0  0
   -0.4137    0.2381    4.4736 H   0  0  0  0  0  0  0  0  0  0  0  0
  5  6  2  0  0  0  0
  5  7  1  0  0  0  0
  2  3  1  0  0  0  0
  2  4  1  0  0  0  0
  2  5  1  0  0  0  0
  1  2  1  0  0  0  0
 20 21  2  0  0  0  0
 20 22  1  0  0  0  0
 17 18  1  0  0  0  0
 17 19  2  0  0  0  0
 14 15  1  0  0  0  0
 14 16  1  0  0  0  0
 14 17  1  0  0  0  0
 11 12  1  0  0  0  0
 11 13  1  0  0  0  0
 11 14  1  0  0  0  0
  9 10  1  0  0  0  0
  9 11  1  0  0  0  0
  9 20  1  0  0  0  0
  7  8  1  0  0  0  0
  7  9  1  0  0  0  0
 24 25  1  0  0  0  0
 24 26  1  0  0  0  0
 24 27  1  0  0  0  0
 22 23  1  0  0  0  0
 22 24  1  0  0  0  0
M  CHG  1  18  -1
M  END
$$$$
default_name
  -OEChem-02102213163D

 27 26  0     1  0  0  0  0  0999 V2000
   -3.2406   -3.5400    1.2326 H   0  0  0  0  0  0  0  0  0  0  0  0
   -3.1436   -2.6190    0.6606 C   0  0  0  0  0  0  0  0  0  0  0  0
   -3.8786   -1.8920    0.9996 H   0  0  0  0  0  0  0  0  0  0  0  0
   -3.2846   -2.8280   -0.3984 H   0  0  0  0  0  0  0  0  0  0  0  0
   -1.7586   -2.0580    0.8686 C   0  0  0  0  0  0  0  0  0  0  0  0
   -0.9666   -2.6340    1.6026 O   0  0  0  0  0  0  0  0  0  0  0  0
   -1.4866   -0.9220    0.2366 N   0  0  0  0  0  0  0  0  0  0  0  0
   -2.2166   -0.4790   -0.2994 H   0  0  0  0  0  0  0  0  0  0  0  0
   -0.1956   -0.2250    0.2596 C   0  0  1  0  0  0  0  0  0  0  0  0
    0.5755   -0.9013   -0.1105 H   0  0  0  0  0  0  0  0  0  0  0  0
   -0.2553    0.9811   -0.6992 C   0  0  0  0  0  0  0  0  0  0  0  0
   -0.0663    1.8838   -0.1160 H   0  0  0  0  0  0  0  0  0  0  0  0
    0.5311    0.8844   -1.4491 H   0  0  0  0  0  0  0  0  0  0  0  0
   -1.6119    1.1334   -1.4075 C   0  0  0  0  0  0  0  0  0  0  0  0
   -2.3369    1.5513   -0.7049 H   0  0  0  0  0  0  0  0  0  0  0  0
   -1.4917    1.8436   -2.2299 H   0  0  0  0  0  0  0  0  0  0  0  0
   -2.1650   -0.1896   -1.9577 C   0  0  0  0  0  0  0  0  0  0  0  0
   -1.4352   -1.2051   -1.9076 O   0  5  0  0  0  0  0  0  0  0  0  0
   -3.3341   -0.1670   -2.4028 O   0  0  0  0  0  0  0  0  0  0  0  0
    0.1881    0.1678    1.7015 C   0  0  0  0  0  0  0  0  0  0  0  0
    1.3379    0.0002    2.1133 O   0  0  0  0  0  0  0  0  0  0  0  0
   -0.7666    0.7145    2.4656 N   0  0  0  0  0  0  0  0  0  0  0  0
   -1.6971    0.7705    2.0790 H   0  0  0  0  0  0  0  0  0  0  0  0
   -0.5716    1.1232    3.8542 C   0  0  0  0  0  0  0  0  0  0  0  0
    0.3083    1.7643    3.9293 H   0  0  0  0  0  0  0  0  0  0  0  0
   -1.4485    1.6640    4.2131 H   0  0  0  0  0  0  0  0  0  0  0  0
   -0.4137    0.2381    4.4736 H   0  0  0  0  0  0  0  0  0  0  0  0
  5  6  2  0  0  0  0
  5  7  1  0  0  0  0
  2  3  1  0  0  0  0
  2  4  1  0  0  0  0
  2  5  1  0  0  0  0
  1  2  1  0  0  0  0
 20 21  2  0  0  0  0
 20 22  1  0  0  0  0
 17 18  1  0  0  0  0
 17 19  2  0  0  0  0
 14 15  1  0  0  0  0
 14 16  1  0  0  0  0
 14 17  1  0  0  0  0
 11 12  1  0  0  0  0
 11 13  1  0  0  0  0
 11 14  1  0  0  0  0
  9 10  1  0  0  0  0
  9 11  1  0  0  0  0
  9 20  1  0  0  0  0
  7  8  1  0  0  0  0
  7  9  1  0  0  0  0
 24 25  1  0  0  0  0
 24 26  1  0  0  0  0
 24 27  1  0  0  0  0
 22 23  1  0  0  0  0
 22 24  1  0  0  0  0
M  CHG  1  18  -1
M  END
$$$$
default_name
  -OEChem-02102213163D

 27 26  0     1  0  0  0  0  0999 V2000
   -3.2406   -3.5400    1.2326 H   0  0  0  0  0  0  0  0  0  0  0  0
   -3.1436   -2.6190    0.6606 C   0  0  0  0  0  0  0  0  0  0  0  0
   -3.8786   -1.8920    0.9996 H   0  0  0  0  0  0  0  0  0  0  0  0
   -3.2846   -2.8280   -0.3984 H   0  0  0  0  0  0  0  0  0  0  0  0
   -1.7586   -2.0580    0.8686 C   0  0  0  0  0  0  0  0  0  0  0  0
   -0.9666   -2.6340    1.6026 O   0  0  0  0  0  0  0  0  0  0  0  0
   -1.4866   -0.9220    0.2366 N   0  0  0  0  0  0  0  0  0  0  0  0
   -2.2166   -0.4790   -0.2994 H   0  0  0  0  0  0  0  0  0  0  0  0
   -0.1956   -0.2250    0.2596 C   0  0  1  0  0  0  0  0  0  0  0  0
    0.5755   -0.9013   -0.1105 H   0  0  0  0  0  0  0  0  0  0  0  0
   -0.2553    0.9811   -0.6992 C   0  0  0  0  0  0  0  0  0  0  0  0
   -0.0663    1.8838   -0.1160 H   0  0  0  0  0  0  0  0  0  0  0  0
    0.5311    0.8844   -1.4491 H   0  0  0  0  0  0  0  0  0  0  0  0
   -1.6119    1.1334   -1.4075 C   0  0  0  0  0  0  0  0  0  0  0  0
   -2.2551    1.7851   -0.8113 H   0  0  0  0  0  0  0  0  0  0  0  0
   -1.4425    1.6185   -2.3725 H   0  0  0  0  0  0  0  0  0  0  0  0
   -2.3363   -0.2021   -1.6323 C   0  0  0  0  0  0  0  0  0  0  0  0
   -1.7281   -1.2612   -1.3588 O   0  5  0  0  0  0  0  0  0  0  0  0
   -3.5115   -0.1384   -2.0569 O   0  0  0  0  0  0  0  0  0  0  0  0
    0.1881    0.1678    1.7015 C   0  0  0  0  0  0  0  0  0  0  0  0
    1.3379    0.0002    2.1133 O   0  0  0  0  0  0  0  0  0  0  0  0
   -0.7666    0.7145    2.4656 N   0  0  0  0  0  0  0  0  0  0  0  0
   -1.6971    0.7705    2.0790 H   0  0  0  0  0  0  0  0  0  0  0  0
   -0.5716    1.1232    3.8542 C   0  0  0  0  0  0  0  0  0  0  0  0
    0.3083    1.7643    3.9293 H   0  0  0  0  0  0  0  0  0  0  0  0
   -1.4485    1.6640    4.2131 H   0  0  0  0  0  0  0  0  0  0  0  0
   -0.4137    0.2381    4.4736 H   0  0  0  0  0  0  0  0  0  0  0  0
  5  6  2  0  0  0  0
  5  7  1  0  0  0  0
  2  3  1  0  0  0  0
  2  4  1  0  0  0  0
  2  5  1  0  0  0  0
  1  2  1  0  0  0  0
 20 21  2  0  0  0  0
 20 22  1  0  0  0  0
 17 18  1  0  0  0  0
 17 19  2  0  0  0  0
 14 15  1  0  0  0  0
 14 16  1  0  0  0  0
 14 17  1  0  0  0  0
 11 12  1  0  0  0  0
 11 13  1  0  0  0  0
 11 14  1  0  0  0  0
  9 10  1  0  0  0  0
  9 11  1  0  0  0  0
  9 20  1  0  0  0  0
  7  8  1  0  0  0  0
  7  9  1  0  0  0  0
 24 25  1  0  0  0  0
 24 26  1  0  0  0  0
 24 27  1  0  0  0  0
 22 23  1  0  0  0  0
 22 24  1  0  0  0  0
M  CHG  1  18  -1
M  END
$$$$
default_name
  -OEChem-02102213163D

 27 26  0     1  0  0  0  0  0999 V2000
   -3.2406   -3.5400    1.2326 H   0  0  0  0  0  0  0  0  0  0  0  0
   -3.1436   -2.6190    0.6606 C   0  0  0  0  0  0  0  0  0  0  0  0
   -3.8786   -1.8920    0.9996 H   0  0  0  0  0  0  0  0  0  0  0  0
   -3.2846   -2.8280   -0.3984 H   0  0  0  0  0  0  0  0  0  0  0  0
   -1.7586   -2.0580    0.8686 C   0  0  0  0  0  0  0  0  0  0  0  0
   -0.9666   -2.6340    1.6026 O   0  0  0  0  0  0  0  0  0  0  0  0
   -1.4866   -0.9220    0.2366 N   0  0  0  0  0  0  0  0  0  0  0  0
   -2.2166   -0.4790   -0.2994 H   0  0  0  0  0  0  0  0  0  0  0  0
   -0.1956   -0.2250    0.2596 C   0  0  1  0  0  0  0  0  0  0  0  0
    0.5755   -0.9013   -0.1105 H   0  0  0  0  0  0  0  0  0  0  0  0
   -0.2553    0.9811   -0.6992 C   0  0  0  0  0  0  0  0  0  0  0  0
   -0.0663    1.8838   -0.1160 H   0  0  0  0  0  0  0  0  0  0  0  0
    0.5311    0.8844   -1.4491 H   0  0  0  0  0  0  0  0  0  0  0  0
   -1.6119    1.1334   -1.4075 C   0  0  0  0  0  0  0  0  0  0  0  0
   -2.1510    1.9769   -0.9695 H   0  0  0  0  0  0  0  0  0  0  0  0
   -1.4255    1.3626   -2.4601 H   0  0  0  0  0  0  0  0  0  0  0  0
   -2.4950   -0.1195   -1.3107 C   0  0  0  0  0  0  0  0  0  0  0  0
   -2.0036   -1.1551   -0.8083 O   0  5  0  0  0  0  0  0  0  0  0  0
   -3.6706   -0.0106   -1.7247 O   0  0  0  0  0  0  0  0  0  0  0  0
    0.1881    0.1678    1.7015 C   0  0  0  0  0  0  0  0  0  0  0  0
    1.3379    0.0002    2.1133 O   0  0  0  0  0  0  0  0  0  0  0  0
   -0.7666    0.7145    2.4656 N   0  0  0  0  0  0  0  0  0  0  0  0
   -1.6971    0.7705    2.0790 H   0  0  0  0  0  0  0  0  0  0  0  0
   -0.5716    1.1232    3.8542 C   0  0  0  0  0  0  0  0  0  0  0  0
    0.3083    1.7643    3.9293 H   0  0  0  0  0  0  0  0  0  0  0  0
   -1.4485    1.6640    4.2131 H   0  0  0  0  0  0  0  0  0  0  0  0
   -0.4137    0.2381    4.4736 H   0  0  0  0  0  0  0  0  0  0  0  0
  5  6  2  0  0  0  0
  5  7  1  0  0  0  0
  2  3  1  0  0  0  0
  2  4  1  0  0  0  0
  2  5  1  0  0  0  0
  1  2  1  0  0  0  0
 20 21  2  0  0  0  0
 20 22  1  0  0  0  0
 17 18  1  0  0  0  0
 17 19  2  0  0  0  0
 14 15  1  0  0  0  0
 14 16  1  0  0  0  0
 14 17  1  0  0  0  0
 11 12  1  0  0  0  0
 11 13  1  0  0  0  0
 11 14  1  0  0  0  0
  9 10  1  0  0  0  0
  9 11  1  0  0  0  0
  9 20  1  0  0  0  0
  7  8  1  0  0  0  0
  7  9  1  0  0  0  0
 24 25  1  0  0  0  0
 24 26  1  0  0  0  0
 24 27  1  0  0  0  0
 22 23  1  0  0  0  0
 22 24  1  0  0  0  0
M  CHG  1  18  -1
M  END
$$$$
default_name
  -OEChem-02102213163D

 27 26  0     1  0  0  0  0  0999 V2000
   -3.2406   -3.5400    1.2326 H   0  0  0  0  0  0  0  0  0  0  0  0
   -3.1436   -2.6190    0.6606 C   0  0  0  0  0  0  0  0  0  0  0  0
   -3.8786   -1.8920    0.9996 H   0  0  0  0  0  0  0  0  0  0  0  0
   -3.2846   -2.8280   -0.3984 H   0  0  0  0  0  0  0  0  0  0  0  0
   -1.7586   -2.0580    0.8686 C   0  0  0  0  0  0  0  0  0  0  0  0
   -0.9666   -2.6340    1.6026 O   0  0  0  0  0  0  0  0  0  0  0  0
   -1.4866   -0.9220    0.2366 N   0  0  0  0  0  0  0  0  0  0  0  0
   -2.2166   -0.4790   -0.2994 H   0  0  0  0  0  0  0  0  0  0  0  0
   -0.1956   -0.2250    0.2596 C   0  0  1  0  0  0  0  0  0  0  0  0
    0.5755   -0.9013   -0.1105 H   0  0  0  0  0  0  0  0  0  0  0  0
   -0.2553    0.9811   -0.6992 C   0  0  0  0  0  0  0  0  0  0  0  0
   -0.0663    1.8838   -0.1160 H   0  0  0  0  0  0  0  0  0  0  0  0
    0.5311    0.8844   -1.4491 H   0  0  0  0  0  0  0  0  0  0  0  0
   -1.6119    1.1334   -1.4075 C   0  0  0  0  0  0  0  0  0  0  0  0
   -2.0316    2.1136   -1.1688 H   0  0  0  0  0  0  0  0  0  0  0  0
   -1.4418    1.0934   -2.4867 H   0  0  0  0  0  0  0  0  0  0  0  0
   -2.6301    0.0526   -1.0149 C   0  0  0  0  0  0  0  0  0  0  0  0
   -2.2430   -0.8942   -0.2937 O   0  5  0  0  0  0  0  0  0  0  0  0
   -3.8005    0.2076   -1.4290 O   0  0  0  0  0  0  0  0  0  0  0  0
    0.1881    0.1678    1.7015 C   0  0  0  0  0  0  0  0  0  0  0  0
    1.3379    0.0002    2.1133 O   0  0  0  0  0  0  0  0  0  0  0  0
   -0.7666    0.7145    2.4656 N   0  0  0  0  0  0  0  0  0  0  0  0
   -1.6971    0.7705    2.0790 H   0  0  0  0  0  0  0  0  0  0  0  0
   -0.5716    1.1232    3.8542 C   0  0  0  0  0  0  0  0  0  0  0  0
    0.3083    1.7643    3.9293 H   0  0  0  0  0  0  0  0  0  0  0  0
   -1.4485    1.6640    4.2131 H   0  0  0  0  0  0  0  0  0  0  0  0
   -0.4137    0.2381    4.4736 H   0  0  0  0  0  0  0  0  0  0  0  0
  5  6  2  0  0  0  0
  5  7  1  0  0  0  0
  2  3  1  0  0  0  0
  2  4  1  0  0  0  0
  2  5  1  0  0  0  0
  1  2  1  0  0  0  0
 20 21  2  0  0  0  0
 20 22  1  0  0  0  0
 17 18  1  0  0  0  0
 17 19  2  0  0  0  0
 14 15  1  0  0  0  0
 14 16  1  0  0  0  0
 14 17  1  0  0  0  0
 11 12  1  0  0  0  0
 11 13  1  0  0  0  0
 11 14  1  0  0  0  0
  9 10  1  0  0  0  0
  9 11  1  0  0  0  0
  9 20  1  0  0  0  0
  7  8  1  0  0  0  0
  7  9  1  0  0  0  0
 24 25  1  0  0  0  0
 24 26  1  0  0  0  0
 24 27  1  0  0  0  0
 22 23  1  0  0  0  0
 22 24  1  0  0  0  0
M  CHG  1  18  -1
M  END
$$$$
default_name
  -OEChem-02102213163D

 27 26  0     1  0  0  0  0  0999 V2000
   -3.2406   -3.5400    1.2326 H   0  0  0  0  0  0  0  0  0  0  0  0
   -3.1436   -2.6190    0.6606 C   0  0  0  0  0  0  0  0  0  0  0  0
   -3.8786   -1.8920    0.9996 H   0  0  0  0  0  0  0  0  0  0  0  0
   -3.2846   -2.8280   -0.3984 H   0  0  0  0  0  0  0  0  0  0  0  0
   -1.7586   -2.0580    0.8686 C   0  0  0  0  0  0  0  0  0  0  0  0
   -0.9666   -2.6340    1.6026 O   0  0  0  0  0  0  0  0  0  0  0  0
   -1.4866   -0.9220    0.2366 N   0  0  0  0  0  0  0  0  0  0  0  0
   -2.2166   -0.4790   -0.2994 H   0  0  0  0  0  0  0  0  0  0  0  0
   -0.1956   -0.2250    0.2596 C   0  0  1  0  0  0  0  0  0  0  0  0
    0.5755   -0.9013   -0.1105 H   0  0  0  0  0  0  0  0  0  0  0  0
   -0.2553    0.9811   -0.6992 C   0  0  0  0  0  0  0  0  0  0  0  0
   -0.0663    1.8838   -0.1160 H   0  0  0  0  0  0  0  0  0  0  0  0
    0.5311    0.8844   -1.4491 H   0  0  0  0  0  0  0  0  0  0  0  0
   -1.6119    1.1334   -1.4075 C   0  0  0  0  0  0  0  0  0  0  0  0
   -1.9051    2.1860   -1.3955 H   0  0  0  0  0  0  0  0  0  0  0  0
   -1.4904    0.8293   -2.4505 H   0  0  0  0  0  0  0  0  0  0  0  0
   -2.7325    0.3025   -0.7651 C   0  0  0  0  0  0  0  0  0  0  0  0
   -2.4299   -0.4961    0.1499 O   0  5  0  0  0  0  0  0  0  0  0  0
   -3.8924    0.5014   -1.1898 O   0  0  0  0  0  0  0  0  0  0  0  0
    0.1881    0.1678    1.7015 C   0  0  0  0  0  0  0  0  0  0  0  0
    1.3379    0.0002    2.1133 O   0  0  0  0  0  0  0  0  0  0  0  0
   -0.7666    0.7145    2.4656 N   0  0  0  0  0  0  0  0  0  0  0  0
   -1.6971    0.7705    2.0790 H   0  0  0  0  0  0  0  0  0  0  0  0
   -0.5716    1.1232    3.8542 C   0  0  0  0  0  0  0  0  0  0  0  0
    0.3083    1.7643    3.9293 H   0  0  0  0  0  0  0  0  0  0  0  0
   -1.4485    1.6640    4.2131 H   0  0  0  0  0  0  0  0  0  0  0  0
   -0.4137    0.2381    4.4736 H   0  0  0  0  0  0  0  0  0  0  0  0
  5  6  2  0  0  0  0
  5  7  1  0  0  0  0
  2  3  1  0  0  0  0
  2  4  1  0  0  0  0
  2  5  1  0  0  0  0
  1  2  1  0  0  0  0
 20 21  2  0  0  0  0
 20 22  1  0  0  0  0
 17 18  1  0  0  0  0
 17 19  2  0  0  0  0
 14 15  1  0  0  0  0
 14 16  1  0  0  0  0
 14 17  1  0  0  0  0
 11 12  1  0  0  0  0
 11 13  1  0  0  0  0
 11 14  1  0  0  0  0
  9 10  1  0  0  0  0
  9 11  1  0  0  0  0
  9 20  1  0  0  0  0
  7  8  1  0  0  0  0
  7  9  1  0  0  0  0
 24 25  1  0  0  0  0
 24 26  1  0  0  0  0
 24 27  1  0  0  0  0
 22 23  1  0  0  0  0
 22 24  1  0  0  0  0
M  CHG  1  18  -1
M  END
$$$$
default_name
  -OEChem-02102213163D

 27 26  0     1  0  0  0  0  0999 V2000
   -3.2406   -3.5400    1.2326 H   0  0  0  0  0  0  0  0  0  0  0  0
   -3.1436   -2.6190    0.6606 C   0  0  0  0  0  0  0  0  0  0  0  0
   -3.8786   -1.8920    0.9996 H   0  0  0  0  0  0  0  0  0  0  0  0
   -3.2846   -2.8280   -0.3984 H   0  0  0  0  0  0  0  0  0  0  0  0
   -1.7586   -2.0580    0.8686 C   0  0  0  0  0  0  0  0  0  0  0  0
   -0.9666   -2.6340    1.6026 O   0  0  0  0  0  0  0  0  0  0  0  0
   -1.4866   -0.9220    0.2366 N   0  0  0  0  0  0  0  0  0  0  0  0
   -2.2166   -0.4790   -0.2994 H   0  0  0  0  0  0  0  0  0  0  0  0
   -0.1956   -0.2250    0.2596 C   0  0  1  0  0  0  0  0  0  0  0  0
    0.5755   -0.9013   -0.1105 H   0  0  0  0  0  0  0  0  0  0  0  0
   -0.2553    0.9811   -0.6992 C   0  0  0  0  0  0  0  0  0  0  0  0
   -0.0663    1.8838   -0.1160 H   0  0  0  0  0  0  0  0  0  0  0  0
    0.5311    0.8844   -1.4491 H   0  0  0  0  0  0  0  0  0  0  0  0
   -1.6119    1.1334   -1.4075 C   0  0  0  0  0  0  0  0  0  0  0  0
   -1.7800    2.1890   -1.6343 H   0  0  0  0  0  0  0  0  0  0  0  0
   -1.5678    0.5882   -2.3541 H   0  0  0  0  0  0  0  0  0  0  0  0
   -2.7953    0.6132   -0.5781 C   0  0  0  0  0  0  0  0  0  0  0  0
   -2.5517    0.0119    0.4923 O   0  5  0  0  0  0  0  0  0  0  0  0
   -3.9400    0.8507   -1.0235 O   0  0  0  0  0  0  0  0  0  0  0  0
    0.1881    0.1678    1.7015 C   0  0  0  0  0  0  0  0  0  0  0  0
    1.3379    0.0002    2.1133 O   0  0  0  0  0  0  0  0  0  0  0  0
   -0.7666    0.7145    2.4656 N   0  0  0  0  0  0  0  0  0  0  0  0
   -1.6971    0.7705    2.0790 H   0  0  0  0  0  0  0  0  0  0  0  0
   -0.5716    1.1232    3.8542 C   0  0  0  0  0  0  0  0  0  0  0  0
    0.3083    1.7643    3.9293 H   0  0  0  0  0  0  0  0  0  0  0  0
   -1.4485    1.6640    4.2131 H   0  0  0  0  0  0  0  0  0  0  0  0
   -0.4137    0.2381    4.4736 H   0  0  0  0  0  0  0  0  0  0  0  0
  5  6  2  0  0  0  0
  5  7  1  0  0  0  0
  2  3  1  0  0  0  0
  2  4  1  0  0  0  0
  2  5  1  0  0  0  0
  1  2  1  0  0  0  0
 20 21  2  0  0  0  0
 20 22  1  0  0  0  0
 17 18  1  0  0  0  0
 17 19  2  0  0  0  0
 14 15  1  0  0  0  0
 14 16  1  0  0  0  0
 14 17  1  0  0  0  0
 11 12  1  0  0  0  0
 11 13  1  0  0  0  0
 11 14  1  0  0  0  0
  9 10  1  0  0  0  0
  9 11  1  0  0  0  0
  9 20  1  0  0  0  0
  7  8  1  0  0  0  0
  7  9  1  0  0  0  0
 24 25  1  0  0  0  0
 24 26  1  0  0  0  0
 24 27  1  0  0  0  0
 22 23  1  0  0  0  0
 22 24  1  0  0  0  0
M  CHG  1  18  -1
M  END
$$$$
default_name
  -OEChem-02102213163D

 27 26  0     1  0  0  0  0  0999 V2000
   -3.2406   -3.5400    1.2326 H   0  0  0  0  0  0  0  0  0  0  0  0
   -3.1436   -2.6190    0.6606 C   0  0  0  0  0  0  0  0  0  0  0  0
   -3.8786   -1.8920    0.9996 H   0  0  0  0  0  0  0  0  0  0  0  0
   -3.2846   -2.8280   -0.3984 H   0  0  0  0  0  0  0  0  0  0  0  0
   -1.7586   -2.0580    0.8686 C   0  0  0  0  0  0  0  0  0  0  0  0
   -0.9666   -2.6340    1.6026 O   0  0  0  0  0  0  0  0  0  0  0  0
   -1.4866   -0.9220    0.2366 N   0  0  0  0  0  0  0  0  0  0  0  0
   -2.2166   -0.4790   -0.2994 H   0  0  0  0  0  0  0  0  0  0  0  0
   -0.1956   -0.2250    0.2596 C   0  0  1  0  0  0  0  0  0  0  0  0
    0.5755   -0.9013   -0.1105 H   0  0  0  0  0  0  0  0  0  0  0  0
   -0.2553    0.9811   -0.6992 C   0  0  0  0  0  0  0  0  0  0  0  0
   -0.0663    1.8838   -0.1160 H   0  0  0  0  0  0  0  0  0  0  0  0
    0.5311    0.8844   -1.4491 H   0  0  0  0  0  0  0  0  0  0  0  0
   -1.6119    1.1334   -1.4075 C   0  0  0  0  0  0  0  0  0  0  0  0
   -1.6650    2.1225   -1.8689 H   0  0  0  0  0  0  0  0  0  0  0  0
   -1.6689    0.3866   -2.2038 H   0  0  0  0  0  0  0  0  0  0  0  0
   -2.8140    0.9634   -0.4668 C   0  0  0  0  0  0  0  0  0  0  0  0
   -2.5999    0.5954    0.7101 O   0  5  0  0  0  0  0  0  0  0  0  0
   -3.9401    1.2318   -0.9414 O   0  0  0  0  0  0  0  0  0  0  0  0
    0.1881    0.1678    1.7015 C   0  0  0  0  0  0  0  0  0  0  0  0
    1.3379    0.0002    2.1133 O   0  0  0  0  0  0  0  0  0  0  0  0
   -0.7666    0.7145    2.4656 N   0  0  0  0  0  0  0  0  0  0  0  0
   -1.6971    0.7705    2.0790 H   0  0  0  0  0  0  0  0  0  0  0  0
   -0.5716    1.1232    3.8542 C   0  0  0  0  0  0  0  0  0  0  0  0
    0.3083    1.7643    3.9293 H   0  0  0  0  0  0  0  0  0  0  0  0
   -1.4485    1.6640    4.2131 H   0  0  0  0  0  0  0  0  0  0  0  0
   -0.4137    0.2381    4.4736 H   0  0  0  0  0  0  0  0  0  0  0  0
  5  6  2  0  0  0  0
  5  7  1  0  0  0  0
  2  3  1  0  0  0  0
  2  4  1  0  0  0  0
  2  5  1  0  0  0  0
  1  2  1  0  0  0  0
 20 21  2  0  0  0  0
 20 22  1  0  0  0  0
 17 18  1  0  0  0  0
 17 19  2  0  0  0  0
 14 15  1  0  0  0  0
 14 16  1  0  0  0  0
 14 17  1  0  0  0  0
 11 12  1  0  0  0  0
 11 13  1  0  0  0  0
 11 14  1  0  0  0  0
  9 10  1  0  0  0  0
  9 11  1  0  0  0  0
  9 20  1  0  0  0  0
  7  8  1  0  0  0  0
  7  9  1  0  0  0  0
 24 25  1  0  0  0  0
 24 26  1  0  0  0  0
 24 27  1  0  0  0  0
 22 23  1  0  0  0  0
 22 24  1  0  0  0  0
M  CHG  1  18  -1
M  END
$$$$
default_name
  -OEChem-02102213163D

 27 26  0     1  0  0  0  0  0999 V2000
   -3.2406   -3.5400    1.2326 H   0  0  0  0  0  0  0  0  0  0  0  0
   -3.1436   -2.6190    0.6606 C   0  0  0  0  0  0  0  0  0  0  0  0
   -3.8786   -1.8920    0.9996 H   0  0  0  0  0  0  0  0  0  0  0  0
   -3.2846   -2.8280   -0.3984 H   0  0  0  0  0  0  0  0  0  0  0  0
   -1.7586   -2.0580    0.8686 C   0  0  0  0  0  0  0  0  0  0  0  0
   -0.9666   -2.6340    1.6026 O   0  0  0  0  0  0  0  0  0  0  0  0
   -1.4866   -0.9220    0.2366 N   0  0  0  0  0  0  0  0  0  0  0  0
   -2.2166   -0.4790   -0.2994 H   0  0  0  0  0  0  0  0  0  0  0  0
   -0.1956   -0.2250    0.2596 C   0  0  1  0  0  0  0  0  0  0  0  0
    0.5755   -0.9013   -0.1105 H   0  0  0  0  0  0  0  0  0  0  0  0
   -0.2553    0.9811   -0.6992 C   0  0  0  0  0  0  0  0  0  0  0  0
   -0.0663    1.8838   -0.1160 H   0  0  0  0  0  0  0  0  0  0  0  0
    0.5311    0.8844   -1.4491 H   0  0  0  0  0  0  0  0  0  0  0  0
   -1.6119    1.1334   -1.4075 C   0  0  0  0  0  0  0  0  0  0  0  0
   -1.5679    1.9910   -2.0832 H   0  0  0  0  0  0  0  0  0  0  0  0
   -1.7867    0.2382   -2.0101 H   0  0  0  0  0  0  0  0  0  0  0  0
   -2.7876    1.3293   -0.4388 C   0  0  0  0  0  0  0  0  0  0  0  0
   -2.5714    1.2144    0.7886 O   0  5  0  0  0  0  0  0  0  0  0  0
   -3.8927    1.6187   -0.9491 O   0  0  0  0  0  0  0  0  0  0  0  0
    0.1881    0.1678    1.7015 C   0  0  0  0  0  0  0  0  0  0  0  0
    1.3379    0.0002    2.1133 O   0  0  0  0  0  0  0  0  0  0  0  0
   -0.7666    0.7145    2.4656 N   0  0  0  0  0  0  0  0  0  0  0  0
   -1.6971    0.7705    2.0790 H   0  0  0  0  0  0  0  0  0  0  0  0
   -0.5716    1.1232    3.8542 C   0  0  0  0  0  0  0  0  0  0  0  0
    0.3083    1.7643    3.9293 H   0  0  0  0  0  0  0  0  0  0  0  0
   -1.4485    1.6640    4.2131 H   0  0  0  0  0  0  0  0  0  0  0  0
   -0.4137    0.2381    4.4736 H   0  0  0  0  0  0  0  0  0  0  0  0
  5  6  2  0  0  0  0
  5  7  1  0  0  0  0
  2  3  1  0  0  0  0
  2  4  1  0  0  0  0
  2  5  1  0  0  0  0
  1  2  1  0  0  0  0
 20 21  2  0  0  0  0
 20 22  1  0  0  0  0
 17 18  1  0  0  0  0
 17 19  2  0  0  0  0
 14 15  1  0  0  0  0
 14 16  1  0  0  0  0
 14 17  1  0  0  0  0
 11 12  1  0  0  0  0
 11 13  1  0  0  0  0
 11 14  1  0  0  0  0
  9 10  1  0  0  0  0
  9 11  1  0  0  0  0
  9 20  1  0  0  0  0
  7  8  1  0  0  0  0
  7  9  1  0  0  0  0
 24 25  1  0  0  0  0
 24 26  1  0  0  0  0
 24 27  1  0  0  0  0
 22 23  1  0  0  0  0
 22 24  1  0  0  0  0
M  CHG  1  18  -1
M  END
$$$$
default_name
  -OEChem-02102213163D

 27 26  0     1  0  0  0  0  0999 V2000
   -3.2406   -3.5400    1.2326 H   0  0  0  0  0  0  0  0  0  0  0  0
   -3.1436   -2.6190    0.6606 C   0  0  0  0  0  0  0  0  0  0  0  0
   -3.8786   -1.8920    0.9996 H   0  0  0  0  0  0  0  0  0  0  0  0
   -3.2846   -2.8280   -0.3984 H   0  0  0  0  0  0  0  0  0  0  0  0
   -1.7586   -2.0580    0.8686 C   0  0  0  0  0  0  0  0  0  0  0  0
   -0.9666   -2.6340    1.6026 O   0  0  0  0  0  0  0  0  0  0  0  0
   -1.4866   -0.9220    0.2366 N   0  0  0  0  0  0  0  0  0  0  0  0
   -2.2166   -0.4790   -0.2994 H   0  0  0  0  0  0  0  0  0  0  0  0
   -0.1956   -0.2250    0.2596 C   0  0  1  0  0  0  0  0  0  0  0  0
    0.5755   -0.9013   -0.1105 H   0  0  0  0  0  0  0  0  0  0  0  0
   -0.2553    0.9811   -0.6992 C   0  0  0  0  0  0  0  0  0  0  0  0
   -0.0663    1.8838   -0.1160 H   0  0  0  0  0  0  0  0  0  0  0  0
    0.5311    0.8844   -1.4491 H   0  0  0  0  0  0  0  0  0  0  0  0
   -1.6119    1.1334   -1.4075 C   0  0  0  0  0  0  0  0  0  0  0  0
   -1.4952    1.8035   -2.2627 H   0  0  0  0  0  0  0  0  0  0  0  0
   -1.9132    0.1531   -1.7861 H   0  0  0  0  0  0  0  0  0  0  0  0
   -2.7177    1.6860   -0.4960 C   0  0  0  0  0  0  0  0  0  0  0  0
   -2.4681    1.8269    0.7223 O   0  5  0  0  0  0  0  0  0  0  0  0
   -3.8009    1.9849   -1.0460 O   0  0  0  0  0  0  0  0  0  0  0  0
    0.1881    0.1678    1.7015 C   0  0  0  0  0  0  0  0  0  0  0  0
    1.3379    0.0002    2.1133 O   0  0  0  0  0  0  0  0  0  0  0  0
   -0.7666    0.7145    2.4656 N   0  0  0  0  0  0  0  0  0  0  0  0
   -1.6971    0.7705    2.0790 H   0  0  0  0  0  0  0  0  0  0  0  0
   -0.5716    1.1232    3.8542 C   0  0  0  0  0  0  0  0  0  0  0  0
    0.3083    1.7643    3.9293 H   0  0  0  0  0  0  0  0  0  0  0  0
   -1.4485    1.6640    4.2131 H   0  0  0  0  0  0  0  0  0  0  0  0
   -0.4137    0.2381    4.4736 H   0  0  0  0  0  0  0  0  0  0  0  0
  5  6  2  0  0  0  0
  5  7  1  0  0  0  0
  2  3  1  0  0  0  0
  2  4  1  0  0  0  0
  2  5  1  0  0  0  0
  1  2  1  0  0  0  0
 20 21  2  0  0  0  0
 20 22  1  0  0  0  0
 17 18  1  0  0  0  0
 17 19  2  0  0  0  0
 14 15  1  0  0  0  0
 14 16  1  0  0  0  0
 14 17  1  0  0  0  0
 11 12  1  0  0  0  0
 11 13  1  0  0  0  0
 11 14  1  0  0  0  0
  9 10  1  0  0  0  0
  9 11  1  0  0  0  0
  9 20  1  0  0  0  0
  7  8  1  0  0  0  0
  7  9  1  0  0  0  0
 24 25  1  0  0  0  0
 24 26  1  0  0  0  0
 24 27  1  0  0  0  0
 22 23  1  0  0  0  0
 22 24  1  0  0  0  0
M  CHG  1  18  -1
M  END
$$$$
default_name
  -OEChem-02102213163D

 27 26  0     1  0  0  0  0  0999 V2000
   -3.2406   -3.5400    1.2326 H   0  0  0  0  0  0  0  0  0  0  0  0
   -3.1436   -2.6190    0.6606 C   0  0  0  0  0  0  0  0  0  0  0  0
   -3.8786   -1.8920    0.9996 H   0  0  0  0  0  0  0  0  0  0  0  0
   -3.2846   -2.8280   -0.3984 H   0  0  0  0  0  0  0  0  0  0  0  0
   -1.7586   -2.0580    0.8686 C   0  0  0  0  0  0  0  0  0  0  0  0
   -0.9666   -2.6340    1.6026 O   0  0  0  0  0  0  0  0  0  0  0  0
   -1.4866   -0.9220    0.2366 N   0  0  0  0  0  0  0  0  0  0  0  0
   -2.2166   -0.4790   -0.2994 H   0  0  0  0  0  0  0  0  0  0  0  0
   -0.1956   -0.2250    0.2596 C   0  0  1  0  0  0  0  0  0  0  0  0
    0.5755   -0.9013   -0.1105 H   0  0  0  0  0  0  0  0  0  0  0  0
   -0.2553    0.9811   -0.6992 C   0  0  0  0  0  0  0  0  0  0  0  0
   -0.0663    1.8838   -0.1160 H   0  0  0  0  0  0  0  0  0  0  0  0
    0.5311    0.8844   -1.4491 H   0  0  0  0  0  0  0  0  0  0  0  0
   -1.6119    1.1334   -1.4075 C   0  0  0  0  0  0  0  0  0  0  0  0
   -1.4520    1.5727   -2.3951 H   0  0  0  0  0  0  0  0  0  0  0  0
   -2.0398    0.1372   -1.5471 H   0  0  0  0  0  0  0  0  0  0  0  0
   -2.6091    2.0091   -0.6344 C   0  0  0  0  0  0  0  0  0  0  0  0
   -2.2969    2.3910    0.5159 O   0  5  0  0  0  0  0  0  0  0  0  0
   -3.6711    2.3056   -1.2256 O   0  0  0  0  0  0  0  0  0  0  0  0
    0.1881    0.1678    1.7015 C   0  0  0  0  0  0  0  0  0  0  0  0
    1.3379    0.0002    2.1133 O   0  0  0  0  0  0  0  0  0  0  0  0
   -0.7666    0.7145    2.4656 N   0  0  0  0  0  0  0  0  0  0  0  0
   -1.6971    0.7705    2.0790 H   0  0  0  0  0  0  0  0  0  0  0  0
   -0.5716    1.1232    3.8542 C   0  0  0  0  0  0  0  0  0  0  0  0
    0.3083    1.7643    3.9293 H   0  0  0  0  0  0  0  0  0  0  0  0
   -1.4485    1.6640    4.2131 H   0  0  0  0  0  0  0  0  0  0  0  0
   -0.4137    0.2381    4.4736 H   0  0  0  0  0  0  0  0  0  0  0  0
  5  6  2  0  0  0  0
  5  7  1  0  0  0  0
  2  3  1  0  0  0  0
  2  4  1  0  0  0  0
  2  5  1  0  0  0  0
  1  2  1  0  0  0  0
 20 21  2  0  0  0  0
 20 22  1  0  0  0  0
 17 18  1  0  0  0  0
 17 19  2  0  0  0  0
 14 15  1  0  0  0  0
 14 16  1  0  0  0  0
 14 17  1  0  0  0  0
 11 12  1  0  0  0  0
 11 13  1  0  0  0  0
 11 14  1  0  0  0  0
  9 10  1  0  0  0  0
  9 11  1  0  0  0  0
  9 20  1  0  0  0  0
  7  8  1  0  0  0  0
  7  9  1  0  0  0  0
 24 25  1  0  0  0  0
 24 26  1  0  0  0  0
 24 27  1  0  0  0  0
 22 23  1  0  0  0  0
 22 24  1  0  0  0  0
M  CHG  1  18  -1
M  END
$$$$
default_name
  -OEChem-02102213163D

 27 26  0     1  0  0  0  0  0999 V2000
   -3.2406   -3.5400    1.2326 H   0  0  0  0  0  0  0  0  0  0  0  0
   -3.1436   -2.6190    0.6606 C   0  0  0  0  0  0  0  0  0  0  0  0
   -3.8786   -1.8920    0.9996 H   0  0  0  0  0  0  0  0  0  0  0  0
   -3.2846   -2.8280   -0.3984 H   0  0  0  0  0  0  0  0  0  0  0  0
   -1.7586   -2.0580    0.8686 C   0  0  0  0  0  0  0  0  0  0  0  0
   -0.9666   -2.6340    1.6026 O   0  0  0  0  0  0  0  0  0  0  0  0
   -1.4866   -0.9220    0.2366 N   0  0  0  0  0  0  0  0  0  0  0  0
   -2.2166   -0.4790   -0.2994 H   0  0  0  0  0  0  0  0  0  0  0  0
   -0.1956   -0.2250    0.2596 C   0  0  1  0  0  0  0  0  0  0  0  0
    0.5755   -0.9013   -0.1105 H   0  0  0  0  0  0  0  0  0  0  0  0
   -0.2553    0.9811   -0.6992 C   0  0  0  0  0  0  0  0  0  0  0  0
   -0.0663    1.8838   -0.1160 H   0  0  0  0  0  0  0  0  0  0  0  0
    0.5311    0.8844   -1.4491 H   0  0  0  0  0  0  0  0  0  0  0  0
   -1.6119    1.1334   -1.4075 C   0  0  0  0  0  0  0  0  0  0  0  0
   -1.4411    1.3144   -2.4715 H   0  0  0  0  0  0  0  0  0  0  0  0
   -2.1579    0.1914   -1.3093 H   0  0  0  0  0  0  0  0  0  0  0  0
   -2.4693    2.2767   -0.8447 C   0  0  0  0  0  0  0  0  0  0  0  0
   -2.0696    2.8684    0.1832 O   0  5  0  0  0  0  0  0  0  0  0  0
   -3.5121    2.5589   -1.4757 O   0  0  0  0  0  0  0  0  0  0  0  0
    0.1881    0.1678    1.7015 C   0  0  0  0  0  0  0  0  0  0  0  0
    1.3379    0.0002    2.1133 O   0  0  0  0  0  0  0  0  0  0  0  0
   -0.7666    0.7145    2.4656 N   0  0  0  0  0  0  0  0  0  0  0  0
   -1.6971    0.7705    2.0790 H   0  0  0  0  0  0  0  0  0  0  0  0
   -0.5716    1.1232    3.8542 C   0  0  0  0  0  0  0  0  0  0  0  0
    0.3083    1.7643    3.9293 H   0  0  0  0  0  0  0  0  0  0  0  0
   -1.4485    1.6640    4.2131 H   0  0  0  0  0  0  0  0  0  0  0  0
   -0.4137    0.2381    4.4736 H   0  0  0  0  0  0  0  0  0  0  0  0
  5  6  2  0  0  0  0
  5  7  1  0  0  0  0
  2  3  1  0  0  0  0
  2  4  1  0  0  0  0
  2  5  1  0  0  0  0
  1  2  1  0  0  0  0
 20 21  2  0  0  0  0
 20 22  1  0  0  0  0
 17 18  1  0  0  0  0
 17 19  2  0  0  0  0
 14 15  1  0  0  0  0
 14 16  1  0  0  0  0
 14 17  1  0  0  0  0
 11 12  1  0  0  0  0
 11 13  1  0  0  0  0
 11 14  1  0  0  0  0
  9 10  1  0  0  0  0
  9 11  1  0  0  0  0
  9 20  1  0  0  0  0
  7  8  1  0  0  0  0
  7  9  1  0  0  0  0
 24 25  1  0  0  0  0
 24 26  1  0  0  0  0
 24 27  1  0  0  0  0
 22 23  1  0  0  0  0
 22 24  1  0  0  0  0
M  CHG  1  18  -1
M  END
$$$$
default_name
  -OEChem-02102213163D

 27 26  0     1  0  0  0  0  0999 V2000
   -3.2406   -3.5400    1.2326 H   0  0  0  0  0  0  0  0  0  0  0  0
   -3.1436   -2.6190    0.6606 C   0  0  0  0  0  0  0  0  0  0  0  0
   -3.8786   -1.8920    0.9996 H   0  0  0  0  0  0  0  0  0  0  0  0
   -3.2846   -2.8280   -0.3984 H   0  0  0  0  0  0  0  0  0  0  0  0
   -1.7586   -2.0580    0.8686 C   0  0  0  0  0  0  0  0  0  0  0  0
   -0.9666   -2.6340    1.6026 O   0  0  0  0  0  0  0  0  0  0  0  0
   -1.4866   -0.9220    0.2366 N   0  0  0  0  0  0  0  0  0  0  0  0
   -2.2166   -0.4790   -0.2994 H   0  0  0  0  0  0  0  0  0  0  0  0
   -0.1956   -0.2250    0.2596 C   0  0  1  0  0  0  0  0  0  0  0  0
    0.5755   -0.9013   -0.1105 H   0  0  0  0  0  0  0  0  0  0  0  0
   -0.2553    0.9811   -0.6992 C   0  0  0  0  0  0  0  0  0  0  0  0
   -0.0663    1.8838   -0.1160 H   0  0  0  0  0  0  0  0  0  0  0  0
    0.5311    0.8844   -1.4491 H   0  0  0  0  0  0  0  0  0  0  0  0
   -1.6119    1.1334   -1.4075 C   0  0  0  0  0  0  0  0  0  0  0  0
   -1.4634    1.0462   -2.4865 H   0  0  0  0  0  0  0  0  0  0  0  0
   -2.2594    0.3122   -1.0890 H   0  0  0  0  0  0  0  0  0  0  0  0
   -2.3077    2.4705   -1.1125 C   0  0  0  0  0  0  0  0  0  0  0  0
   -1.8017    3.2265   -0.2528 O   0  5  0  0  0  0  0  0  0  0  0  0
   -3.3348    2.7276   -1.7791 O   0  0  0  0  0  0  0  0  0  0  0  0
    0.1881    0.1678    1.7015 C   0  0  0  0  0  0  0  0  0  0  0  0
    1.3379    0.0002    2.1133 O   0  0  0  0  0  0  0  0  0  0  0  0
   -0.7666    0.7145    2.4656 N   0  0  0  0  0  0  0  0  0  0  0  0
   -1.6971    0.7705    2.0790 H   0  0  0  0  0  0  0  0  0  0  0  0
   -0.5716    1.1232    3.8542 C   0  0  0  0  0  0  0  0  0  0  0  0
    0.3083    1.7643    3.9293 H   0  0  0  0  0  0  0  0  0  0  0  0
   -1.4485    1.6640    4.2131 H   0  0  0  0  0  0  0  0  0  0  0  0
   -0.4137    0.2381    4.4736 H   0  0  0  0  0  0  0  0  0  0  0  0
  5  6  2  0  0  0  0
  5  7  1  0  0  0  0
  2  3  1  0  0  0  0
  2  4  1  0  0  0  0
  2  5  1  0  0  0  0
  1  2  1  0  0  0  0
 20 21  2  0  0  0  0
 20 22  1  0  0  0  0
 17 18  1  0  0  0  0
 17 19  2  0  0  0  0
 14 15  1  0  0  0  0
 14 16  1  0  0  0  0
 14 17  1  0  0  0  0
 11 12  1  0  0  0  0
 11 13  1  0  0  0  0
 11 14  1  0  0  0  0
  9 10  1  0  0  0  0
  9 11  1  0  0  0  0
  9 20  1  0  0  0  0
  7  8  1  0  0  0  0
  7  9  1  0  0  0  0
 24 25  1  0  0  0  0
 24 26  1  0  0  0  0
 24 27  1  0  0  0  0
 22 23  1  0  0  0  0
 22 24  1  0  0  0  0
M  CHG  1  18  -1
M  END
$$$$
default_name
  -OEChem-02102213163D

 27 26  0     1  0  0  0  0  0999 V2000
   -3.2406   -3.5400    1.2326 H   0  0  0  0  0  0  0  0  0  0  0  0
   -3.1436   -2.6190    0.6606 C   0  0  0  0  0  0  0  0  0  0  0  0
   -3.8786   -1.8920    0.9996 H   0  0  0  0  0  0  0  0  0  0  0  0
   -3.2846   -2.8280   -0.3984 H   0  0  0  0  0  0  0  0  0  0  0  0
   -1.7586   -2.0580    0.8686 C   0  0  0  0  0  0  0  0  0  0  0  0
   -0.9666   -2.6340    1.6026 O   0  0  0  0  0  0  0  0  0  0  0  0
   -1.4866   -0.9220    0.2366 N   0  0  0  0  0  0  0  0  0  0  0  0
   -2.2166   -0.4790   -0.2994 H   0  0  0  0  0  0  0  0  0  0  0  0
   -0.1956   -0.2250    0.2596 C   0  0  1  0  0  0  0  0  0  0  0  0
    0.5755   -0.9013   -0.1105 H   0  0  0  0  0  0  0  0  0  0  0  0
   -0.2553    0.9811   -0.6992 C   0  0  0  0  0  0  0  0  0  0  0  0
   -0.0663    1.8838   -0.1160 H   0  0  0  0  0  0  0  0  0  0  0  0
    0.5311    0.8844   -1.4491 H   0  0  0  0  0  0  0  0  0  0  0  0
   -1.6119    1.1334   -1.4075 C   0  0  0  0  0  0  0  0  0  0  0  0
   -1.5172    0.7863   -2.4393 H   0  0  0  0  0  0  0  0  0  0  0  0
   -2.3373    0.4912   -0.9011 H   0  0  0  0  0  0  0  0  0  0  0  0
   -2.1354    2.5773   -1.4195 C   0  0  0  0  0  0  0  0  0  0  0  0
   -1.5114    3.4409   -0.7627 O   0  5  0  0  0  0  0  0  0  0  0  0
   -3.1511    2.8000   -2.1152 O   0  0  0  0  0  0  0  0  0  0  0  0
    0.1881    0.1678    1.7015 C   0  0  0  0  0  0  0  0  0  0  0  0
    1.3379    0.0002    2.1133 O   0  0  0  0  0  0  0  0  0  0  0  0
   -0.7666    0.7145    2.4656 N   0  0  0  0  0  0  0  0  0  0  0  0
   -1.6971    0.7705    2.0790 H   0  0  0  0  0  0  0  0  0  0  0  0
   -0.5716    1.1232    3.8542 C   0  0  0  0  0  0  0  0  0  0  0  0
    0.3083    1.7643    3.9293 H   0  0  0  0  0  0  0  0  0  0  0  0
   -1.4485    1.6640    4.2131 H   0  0  0  0  0  0  0  0  0  0  0  0
   -0.4137    0.2381    4.4736 H   0  0  0  0  0  0  0  0  0  0  0  0
  5  6  2  0  0  0  0
  5  7  1  0  0  0  0
  2  3  1  0  0  0  0
  2  4  1  0  0  0  0
  2  5  1  0  0  0  0
  1  2  1  0  0  0  0
 20 21  2  0  0  0  0
 20 22  1  0  0  0  0
 17 18  1  0  0  0  0
 17 19  2  0  0  0  0
 14 15  1  0  0  0  0
 14 16  1  0  0  0  0
 14 17  1  0  0  0  0
 11 12  1  0  0  0  0
 11 13  1  0  0  0  0
 11 14  1  0  0  0  0
  9 10  1  0  0  0  0
  9 11  1  0  0  0  0
  9 20  1  0  0  0  0
  7  8  1  0  0  0  0
  7  9  1  0  0  0  0
 24 25  1  0  0  0  0
 24 26  1  0  0  0  0
 24 27  1  0  0  0  0
 22 23  1  0  0  0  0
 22 24  1  0  0  0  0
M  CHG  1  18  -1
M  END
$$$$
default_name
  -OEChem-02102213163D

 27 26  0     1  0  0  0  0  0999 V2000
   -3.2406   -3.5400    1.2326 H   0  0  0  0  0  0  0  0  0  0  0  0
   -3.1436   -2.6190    0.6606 C   0  0  0  0  0  0  0  0  0  0  0  0
   -3.8786   -1.8920    0.9996 H   0  0  0  0  0  0  0  0  0  0  0  0
   -3.2846   -2.8280   -0.3984 H   0  0  0  0  0  0  0  0  0  0  0  0
   -1.7586   -2.0580    0.8686 C   0  0  0  0  0  0  0  0  0  0  0  0
   -0.9666   -2.6340    1.6026 O   0  0  0  0  0  0  0  0  0  0  0  0
   -1.4866   -0.9220    0.2366 N   0  0  0  0  0  0  0  0  0  0  0  0
   -2.2166   -0.4790   -0.2994 H   0  0  0  0  0  0  0  0  0  0  0  0
   -0.1956   -0.2250    0.2596 C   0  0  1  0  0  0  0  0  0  0  0  0
    0.5755   -0.9013   -0.1105 H   0  0  0  0  0  0  0  0  0  0  0  0
   -0.2553    0.9811   -0.6992 C   0  0  0  0  0  0  0  0  0  0  0  0
   -0.0663    1.8838   -0.1160 H   0  0  0  0  0  0  0  0  0  0  0  0
    0.5311    0.8844   -1.4491 H   0  0  0  0  0  0  0  0  0  0  0  0
   -1.6119    1.1334   -1.4075 C   0  0  0  0  0  0  0  0  0  0  0  0
   -1.5990    0.5525   -2.3329 H   0  0  0  0  0  0  0  0  0  0  0  0
   -2.3865    0.7164   -0.7585 H   0  0  0  0  0  0  0  0  0  0  0  0
   -1.9641    2.5898   -1.7449 C   0  0  0  0  0  0  0  0  0  0  0  0
   -1.2185    3.4970   -1.3116 O   0  5  0  0  0  0  0  0  0  0  0  0
   -2.9737    2.7714   -2.4612 O   0  0  0  0  0  0  0  0  0  0  0  0
    0.1881    0.1678    1.7015 C   0  0  0  0  0  0  0  0  0  0  0  0
    1.3379    0.0002    2.1133 O   0  0  0  0  0  0  0  0  0  0  0  0
   -0.7666    0.7145    2.4656 N   0  0  0  0  0  0  0  0  0  0  0  0
   -1.6971    0.7705    2.0790 H   0  0  0  0  0  0  0  0  0  0  0  0
   -0.5716    1.1232    3.8542 C   0  0  0  0  0  0  0  0  0  0  0  0
    0.3083    1.7643    3.9293 H   0  0  0  0  0  0  0  0  0  0  0  0
   -1.4485    1.6640    4.2131 H   0  0  0  0  0  0  0  0  0  0  0  0
   -0.4137    0.2381    4.4736 H   0  0  0  0  0  0  0  0  0  0  0  0
  5  6  2  0  0  0  0
  5  7  1  0  0  0  0
  2  3  1  0  0  0  0
  2  4  1  0  0  0  0
  2  5  1  0  0  0  0
  1  2  1  0  0  0  0
 20 21  2  0  0  0  0
 20 22  1  0  0  0  0
 17 18  1  0  0  0  0
 17 19  2  0  0  0  0
 14 15  1  0  0  0  0
 14 16  1  0  0  0  0
 14 17  1  0  0  0  0
 11 12  1  0  0  0  0
 11 13  1  0  0  0  0
 11 14  1  0  0  0  0
  9 10  1  0  0  0  0
  9 11  1  0  0  0  0
  9 20  1  0  0  0  0
  7  8  1  0  0  0  0
  7  9  1  0  0  0  0
 24 25  1  0  0  0  0
 24 26  1  0  0  0  0
 24 27  1  0  0  0  0
 22 23  1  0  0  0  0
 22 24  1  0  0  0  0
M  CHG  1  18  -1
M  END
$$$$
default_name
  -OEChem-02102213163D

 27 26  0     1  0  0  0  0  0999 V2000
   -3.2406   -3.5400    1.2326 H   0  0  0  0  0  0  0  0  0  0  0  0
   -3.1436   -2.6190    0.6606 C   0  0  0  0  0  0  0  0  0  0  0  0
   -3.8786   -1.8920    0.9996 H   0  0  0  0  0  0  0  0  0  0  0  0
   -3.2846   -2.8280   -0.3984 H   0  0  0  0  0  0  0  0  0  0  0  0
   -1.7586   -2.0580    0.8686 C   0  0  0  0  0  0  0  0  0  0  0  0
   -0.9666   -2.6340    1.6026 O   0  0  0  0  0  0  0  0  0  0  0  0
   -1.4866   -0.9220    0.2366 N   0  0  0  0  0  0  0  0  0  0  0  0
   -2.2166   -0.4790   -0.2994 H   0  0  0  0  0  0  0  0  0  0  0  0
   -0.1956   -0.2250    0.2596 C   0  0  1  0  0  0  0  0  0  0  0  0
    0.5755   -0.9013   -0.1105 H   0  0  0  0  0  0  0  0  0  0  0  0
   -0.2553    0.9811   -0.6992 C   0  0  0  0  0  0  0  0  0  0  0  0
   -0.0663    1.8838   -0.1160 H   0  0  0  0  0  0  0  0  0  0  0  0
    0.5311    0.8844   -1.4491 H   0  0  0  0  0  0  0  0  0  0  0  0
   -1.6119    1.1334   -1.4075 C   0  0  0  0  0  0  0  0  0  0  0  0
   -1.7031    0.3607   -2.1747 H   0  0  0  0  0  0  0  0  0  0  0  0
   -2.4035    0.9722   -0.6710 H   0  0  0  0  0  0  0  0  0  0  0  0
   -1.8055    2.5072   -2.0665 C   0  0  0  0  0  0  0  0  0  0  0  0
   -0.9430    3.3909   -1.8620 O   0  5  0  0  0  0  0  0  0  0  0  0
   -2.8146    2.6436   -2.7933 O   0  0  0  0  0  0  0  0  0  0  0  0
    0.1881    0.1678    1.7015 C   0  0  0  0  0  0  0  0  0  0  0  0
    1.3379    0.0002    2.1133 O   0  0  0  0  0  0  0  0  0  0  0  0
   -0.7666    0.7145    2.4656 N   0  0  0  0  0  0  0  0  0  0  0  0
   -1.6971    0.7705    2.0790 H   0  0  0  0  0  0  0  0  0  0  0  0
   -0.5716    1.1232    3.8542 C   0  0  0  0  0  0  0  0  0  0  0  0
    0.3083    1.7643    3.9293 H   0  0  0  0  0  0  0  0  0  0  0  0
   -1.4485    1.6640    4.2131 H   0  0  0  0  0  0  0  0  0  0  0  0
   -0.4137    0.2381    4.4736 H   0  0  0  0  0  0  0  0  0  0  0  0
  5  6  2  0  0  0  0
  5  7  1  0  0  0  0
  2  3  1  0  0  0  0
  2  4  1  0  0  0  0
  2  5  1  0  0  0  0
  1  2  1  0  0  0  0
 20 21  2  0  0  0  0
 20 22  1  0  0  0  0
 17 18  1  0  0  0  0
 17 19  2  0  0  0  0
 14 15  1  0  0  0  0
 14 16  1  0  0  0  0
 14 17  1  0  0  0  0
 11 12  1  0  0  0  0
 11 13  1  0  0  0  0
 11 14  1  0  0  0  0
  9 10  1  0  0  0  0
  9 11  1  0  0  0  0
  9 20  1  0  0  0  0
  7  8  1  0  0  0  0
  7  9  1  0  0  0  0
 24 25  1  0  0  0  0
 24 26  1  0  0  0  0
 24 27  1  0  0  0  0
 22 23  1  0  0  0  0
 22 24  1  0  0  0  0
M  CHG  1  18  -1
M  END
$$$$
default_name
  -OEChem-02102213163D

 27 26  0     1  0  0  0  0  0999 V2000
   -3.2406   -3.5400    1.2326 H   0  0  0  0  0  0  0  0  0  0  0  0
   -3.1436   -2.6190    0.6606 C   0  0  0  0  0  0  0  0  0  0  0  0
   -3.8786   -1.8920    0.9996 H   0  0  0  0  0  0  0  0  0  0  0  0
   -3.2846   -2.8280   -0.3984 H   0  0  0  0  0  0  0  0  0  0  0  0
   -1.7586   -2.0580    0.8686 C   0  0  0  0  0  0  0  0  0  0  0  0
   -0.9666   -2.6340    1.6026 O   0  0  0  0  0  0  0  0  0  0  0  0
   -1.4866   -0.9220    0.2366 N   0  0  0  0  0  0  0  0  0  0  0  0
   -2.2166   -0.4790   -0.2994 H   0  0  0  0  0  0  0  0  0  0  0  0
   -0.1956   -0.2250    0.2596 C   0  0  1  0  0  0  0  0  0  0  0  0
    0.5755   -0.9013   -0.1105 H   0  0  0  0  0  0  0  0  0  0  0  0
   -0.2553    0.9811   -0.6992 C   0  0  0  0  0  0  0  0  0  0  0  0
    0.1901    1.8375   -0.1904 H   0  0  0  0  0  0  0  0  0  0  0  0
    0.3365    0.7632   -1.5894 H   0  0  0  0  0  0  0  0  0  0  0  0
   -1.6854    1.3558   -1.1232 C   0  0  0  0  0  0  0  0  0  0  0  0
   -2.1497    0.4962   -1.6126 H   0  0  0  0  0  0  0  0  0  0  0  0
   -2.2619    1.5829   -0.2226 H   0  0  0  0  0  0  0  0  0  0  0  0
   -1.7438    2.5573   -2.0782 C   0  0  0  0  0  0  0  0  0  0  0  0
   -0.6858    3.1851   -2.3083 O   0  5  0  0  0  0  0  0  0  0  0  0
   -2.8569    2.8154   -2.5877 O   0  0  0  0  0  0  0  0  0  0  0  0
    0.1881    0.1678    1.7015 C   0  0  0  0  0  0  0  0  0  0  0  0
    1.3379    0.0002    2.1133 O   0  0  0  0  0  0  0  0  0  0  0  0
   -0.7666    0.7145    2.4656 N   0  0  0  0  0  0  0  0  0  0  0  0
   -1.6971    0.7705    2.0790 H   0  0  0  0  0  0  0  0  0  0  0  0
   -0.5716    1.1232    3.8542 C   0  0  0  0  0  0  0  0  0  0  0  0
    0.3083    1.7643    3.9293 H   0  0  0  0  0  0  0  0  0  0  0  0
   -1.4485    1.6640    4.2131 H   0  0  0  0  0  0  0  0  0  0  0  0
   -0.4137    0.2381    4.4736 H   0  0  0  0  0  0  0  0  0  0  0  0
  5  6  2  0  0  0  0
  5  7  1  0  0  0  0
  2  3  1  0  0  0  0
  2  4  1  0  0  0  0
  2  5  1  0  0  0  0
  1  2  1  0  0  0  0
 20 21  2  0  0  0  0
 20 22  1  0  0  0  0
 17 18  1  0  0  0  0
 17 19  2  0  0  0  0
 14 15  1  0  0  0  0
 14 16  1  0  0  0  0
 14 17  1  0  0  0  0
 11 12  1  0  0  0  0
 11 13  1  0  0  0  0
 11 14  1  0  0  0  0
  9 10  1  0  0  0  0
  9 11  1  0  0  0  0
  9 20  1  0  0  0  0
  7  8  1  0  0  0  0
  7  9  1  0  0  0  0
 24 25  1  0  0  0  0
 24 26  1  0  0  0  0
 24 27  1  0  0  0  0
 22 23  1  0  0  0  0
 22 24  1  0  0  0  0
M  CHG  1  18  -1
M  END
$$$$
default_name
  -OEChem-02102213163D

 27 26  0     1  0  0  0  0  0999 V2000
   -3.2406   -3.5400    1.2326 H   0  0  0  0  0  0  0  0  0  0  0  0
   -3.1436   -2.6190    0.6606 C   0  0  0  0  0  0  0  0  0  0  0  0
   -3.8786   -1.8920    0.9996 H   0  0  0  0  0  0  0  0  0  0  0  0
   -3.2846   -2.8280   -0.3984 H   0  0  0  0  0  0  0  0  0  0  0  0
   -1.7586   -2.0580    0.8686 C   0  0  0  0  0  0  0  0  0  0  0  0
   -0.9666   -2.6340    1.6026 O   0  0  0  0  0  0  0  0  0  0  0  0
   -1.4866   -0.9220    0.2366 N   0  0  0  0  0  0  0  0  0  0  0  0
   -2.2166   -0.4790   -0.2994 H   0  0  0  0  0  0  0  0  0  0  0  0
   -0.1956   -0.2250    0.2596 C   0  0  1  0  0  0  0  0  0  0  0  0
    0.5755   -0.9013   -0.1105 H   0  0  0  0  0  0  0  0  0  0  0  0
   -0.2553    0.9811   -0.6992 C   0  0  0  0  0  0  0  0  0  0  0  0
    0.1901    1.8375   -0.1904 H   0  0  0  0  0  0  0  0  0  0  0  0
    0.3365    0.7632   -1.5894 H   0  0  0  0  0  0  0  0  0  0  0  0
   -1.6854    1.3558   -1.1232 C   0  0  0  0  0  0  0  0  0  0  0  0
   -2.2374    0.4438   -1.3631 H   0  0  0  0  0  0  0  0  0  0  0  0
   -2.1801    1.8359   -0.2748 H   0  0  0  0  0  0  0  0  0  0  0  0
   -1.7356    2.2957   -2.3369 C   0  0  0  0  0  0  0  0  0  0  0  0
   -0.6590    2.7649   -2.7697 O   0  5  0  0  0  0  0  0  0  0  0  0
   -2.8637    2.5122   -2.8326 O   0  0  0  0  0  0  0  0  0  0  0  0
    0.1881    0.1678    1.7015 C   0  0  0  0  0  0  0  0  0  0  0  0
    1.3379    0.0002    2.1133 O   0  0  0  0  0  0  0  0  0  0  0  0
   -0.7666    0.7145    2.4656 N   0  0  0  0  0  0  0  0  0  0  0  0
   -1.6971    0.7705    2.0790 H   0  0  0  0  0  0  0  0  0  0  0  0
   -0.5716    1.1232    3.8542 C   0  0  0  0  0  0  0  0  0  0  0  0
    0.3083    1.7643    3.9293 H   0  0  0  0  0  0  0  0  0  0  0  0
   -1.4485    1.6640    4.2131 H   0  0  0  0  0  0  0  0  0  0  0  0
   -0.4137    0.2381    4.4736 H   0  0  0  0  0  0  0  0  0  0  0  0
  5  6  2  0  0  0  0
  5  7  1  0  0  0  0
  2  3  1  0  0  0  0
  2  4  1  0  0  0  0
  2  5  1  0  0  0  0
  1  2  1  0  0  0  0
 20 21  2  0  0  0  0
 20 22  1  0  0  0  0
 17 18  1  0  0  0  0
 17 19  2  0  0  0  0
 14 15  1  0  0  0  0
 14 16  1  0  0  0  0
 14 17  1  0  0  0  0
 11 12  1  0  0  0  0
 11 13  1  0  0  0  0
 11 14  1  0  0  0  0
  9 10  1  0  0  0  0
  9 11  1  0  0  0  0
  9 20  1  0  0  0  0
  7  8  1  0  0  0  0
  7  9  1  0  0  0  0
 24 25  1  0  0  0  0
 24 26  1  0  0  0  0
 24 27  1  0  0  0  0
 22 23  1  0  0  0  0
 22 24  1  0  0  0  0
M  CHG  1  18  -1
M  END
$$$$
default_name
  -OEChem-02102213163D

 27 26  0     1  0  0  0  0  0999 V2000
   -3.2406   -3.5400    1.2326 H   0  0  0  0  0  0  0  0  0  0  0  0
   -3.1436   -2.6190    0.6606 C   0  0  0  0  0  0  0  0  0  0  0  0
   -3.8786   -1.8920    0.9996 H   0  0  0  0  0  0  0  0  0  0  0  0
   -3.2846   -2.8280   -0.3984 H   0  0  0  0  0  0  0  0  0  0  0  0
   -1.7586   -2.0580    0.8686 C   0  0  0  0  0  0  0  0  0  0  0  0
   -0.9666   -2.6340    1.6026 O   0  0  0  0  0  0  0  0  0  0  0  0
   -1.4866   -0.9220    0.2366 N   0  0  0  0  0  0  0  0  0  0  0  0
   -2.2166   -0.4790   -0.2994 H   0  0  0  0  0  0  0  0  0  0  0  0
   -0.1956   -0.2250    0.2596 C   0  0  1  0  0  0  0  0  0  0  0  0
    0.5755   -0.9013   -0.1105 H   0  0  0  0  0  0  0  0  0  0  0  0
   -0.2553    0.9811   -0.6992 C   0  0  0  0  0  0  0  0  0  0  0  0
    0.1901    1.8375   -0.1904 H   0  0  0  0  0  0  0  0  0  0  0  0
    0.3365    0.7632   -1.5894 H   0  0  0  0  0  0  0  0  0  0  0  0
   -1.6854    1.3558   -1.1232 C   0  0  0  0  0  0  0  0  0  0  0  0
   -2.3101    0.4595   -1.1040 H   0  0  0  0  0  0  0  0  0  0  0  0
   -2.0864    2.0619   -0.3913 H   0  0  0  0  0  0  0  0  0  0  0  0
   -1.7626    1.9803   -2.5243 C   0  0  0  0  0  0  0  0  0  0  0  0
   -0.6922    2.2461   -3.1160 O   0  5  0  0  0  0  0  0  0  0  0  0
   -2.9074    2.1609   -2.9957 O   0  0  0  0  0  0  0  0  0  0  0  0
    0.1881    0.1678    1.7015 C   0  0  0  0  0  0  0  0  0  0  0  0
    1.3379    0.0002    2.1133 O   0  0  0  0  0  0  0  0  0  0  0  0
   -0.7666    0.7145    2.4656 N   0  0  0  0  0  0  0  0  0  0  0  0
   -1.6971    0.7705    2.0790 H   0  0  0  0  0  0  0  0  0  0  0  0
   -0.5716    1.1232    3.8542 C   0  0  0  0  0  0  0  0  0  0  0  0
    0.3083    1.7643    3.9293 H   0  0  0  0  0  0  0  0  0  0  0  0
   -1.4485    1.6640    4.2131 H   0  0  0  0  0  0  0  0  0  0  0  0
   -0.4137    0.2381    4.4736 H   0  0  0  0  0  0  0  0  0  0  0  0
  5  6  2  0  0  0  0
  5  7  1  0  0  0  0
  2  3  1  0  0  0  0
  2  4  1  0  0  0  0
  2  5  1  0  0  0  0
  1  2  1  0  0  0  0
 20 21  2  0  0  0  0
 20 22  1  0  0  0  0
 17 18  1  0  0  0  0
 17 19  2  0  0  0  0
 14 15  1  0  0  0  0
 14 16  1  0  0  0  0
 14 17  1  0  0  0  0
 11 12  1  0  0  0  0
 11 13  1  0  0  0  0
 11 14  1  0  0  0  0
  9 10  1  0  0  0  0
  9 11  1  0  0  0  0
  9 20  1  0  0  0  0
  7  8  1  0  0  0  0
  7  9  1  0  0  0  0
 24 25  1  0  0  0  0
 24 26  1  0  0  0  0
 24 27  1  0  0  0  0
 22 23  1  0  0  0  0
 22 24  1  0  0  0  0
M  CHG  1  18  -1
M  END
$$$$
default_name
  -OEChem-02102213163D

 27 26  0     1  0  0  0  0  0999 V2000
   -3.2406   -3.5400    1.2326 H   0  0  0  0  0  0  0  0  0  0  0  0
   -3.1436   -2.6190    0.6606 C   0  0  0  0  0  0  0  0  0  0  0  0
   -3.8786   -1.8920    0.9996 H   0  0  0  0  0  0  0  0  0  0  0  0
   -3.2846   -2.8280   -0.3984 H   0  0  0  0  0  0  0  0  0  0  0  0
   -1.7586   -2.0580    0.8686 C   0  0  0  0  0  0  0  0  0  0  0  0
   -0.9666   -2.6340    1.6026 O   0  0  0  0  0  0  0  0  0  0  0  0
   -1.4866   -0.9220    0.2366 N   0  0  0  0  0  0  0  0  0  0  0  0
   -2.2166   -0.4790   -0.2994 H   0  0  0  0  0  0  0  0  0  0  0  0
   -0.1956   -0.2250    0.2596 C   0  0  1  0  0  0  0  0  0  0  0  0
    0.5755   -0.9013   -0.1105 H   0  0  0  0  0  0  0  0  0  0  0  0
   -0.2553    0.9811   -0.6992 C   0  0  0  0  0  0  0  0  0  0  0  0
    0.1901    1.8375   -0.1904 H   0  0  0  0  0  0  0  0  0  0  0  0
    0.3365    0.7632   -1.5894 H   0  0  0  0  0  0  0  0  0  0  0  0
   -1.6854    1.3558   -1.1232 C   0  0  0  0  0  0  0  0  0  0  0  0
   -2.3629    0.5422   -0.8530 H   0  0  0  0  0  0  0  0  0  0  0  0
   -1.9871    2.2455   -0.5641 H   0  0  0  0  0  0  0  0  0  0  0  0
   -1.8231    1.6324   -2.6277 C   0  0  0  0  0  0  0  0  0  0  0  0
   -0.7832    1.6640   -3.3235 O   0  5  0  0  0  0  0  0  0  0  0  0
   -2.9849    1.7853   -3.0660 O   0  0  0  0  0  0  0  0  0  0  0  0
    0.1881    0.1678    1.7015 C   0  0  0  0  0  0  0  0  0  0  0  0
    1.3379    0.0002    2.1133 O   0  0  0  0  0  0  0  0  0  0  0  0
   -0.7666    0.7145    2.4656 N   0  0  0  0  0  0  0  0  0  0  0  0
   -1.6971    0.7705    2.0790 H   0  0  0  0  0  0  0  0  0  0  0  0
   -0.5716    1.1232    3.8542 C   0  0  0  0  0  0  0  0  0  0  0  0
    0.3083    1.7643    3.9293 H   0  0  0  0  0  0  0  0  0  0  0  0
   -1.4485    1.6640    4.2131 H   0  0  0  0  0  0  0  0  0  0  0  0
   -0.4137    0.2381    4.4736 H   0  0  0  0  0  0  0  0  0  0  0  0
  5  6  2  0  0  0  0
  5  7  1  0  0  0  0
  2  3  1  0  0  0  0
  2  4  1  0  0  0  0
  2  5  1  0  0  0  0
  1  2  1  0  0  0  0
 20 21  2  0  0  0  0
 20 22  1  0  0  0  0
 17 18  1  0  0  0  0
 17 19  2  0  0  0  0
 14 15  1  0  0  0  0
 14 16  1  0  0  0  0
 14 17  1  0  0  0  0
 11 12  1  0  0  0  0
 11 13  1  0  0  0  0
 11 14  1  0  0  0  0
  9 10  1  0  0  0  0
  9 11  1  0  0  0  0
  9 20  1  0  0  0  0
  7  8  1  0  0  0  0
  7  9  1  0  0  0  0
 24 25  1  0  0  0  0
 24 26  1  0  0  0  0
 24 27  1  0  0  0  0
 22 23  1  0  0  0  0
 22 24  1  0  0  0  0
M  CHG  1  18  -1
M  END
$$$$
default_name
  -OEChem-02102213163D

 27 26  0     1  0  0  0  0  0999 V2000
   -3.2406   -3.5400    1.2326 H   0  0  0  0  0  0  0  0  0  0  0  0
   -3.1436   -2.6190    0.6606 C   0  0  0  0  0  0  0  0  0  0  0  0
   -3.8786   -1.8920    0.9996 H   0  0  0  0  0  0  0  0  0  0  0  0
   -3.2846   -2.8280   -0.3984 H   0  0  0  0  0  0  0  0  0  0  0  0
   -1.7586   -2.0580    0.8686 C   0  0  0  0  0  0  0  0  0  0  0  0
   -0.9666   -2.6340    1.6026 O   0  0  0  0  0  0  0  0  0  0  0  0
   -1.4866   -0.9220    0.2366 N   0  0  0  0  0  0  0  0  0  0  0  0
   -2.2166   -0.4790   -0.2994 H   0  0  0  0  0  0  0  0  0  0  0  0
   -0.1956   -0.2250    0.2596 C   0  0  1  0  0  0  0  0  0  0  0  0
    0.5755   -0.9013   -0.1105 H   0  0  0  0  0  0  0  0  0  0  0  0
   -0.2553    0.9811   -0.6992 C   0  0  0  0  0  0  0  0  0  0  0  0
    0.1901    1.8375   -0.1904 H   0  0  0  0  0  0  0  0  0  0  0  0
    0.3365    0.7632   -1.5894 H   0  0  0  0  0  0  0  0  0  0  0  0
   -1.6854    1.3558   -1.1232 C   0  0  0  0  0  0  0  0  0  0  0  0
   -2.3922    0.6863   -0.6270 H   0  0  0  0  0  0  0  0  0  0  0  0
   -1.8889    2.3741   -0.7815 H   0  0  0  0  0  0  0  0  0  0  0  0
   -1.9129    1.2758   -2.6401 C   0  0  0  0  0  0  0  0  0  0  0  0
   -0.9257    1.0583   -3.3781 O   0  5  0  0  0  0  0  0  0  0  0  0
   -3.0910    1.4112   -3.0386 O   0  0  0  0  0  0  0  0  0  0  0  0
    0.1881    0.1678    1.7015 C   0  0  0  0  0  0  0  0  0  0  0  0
    1.3379    0.0002    2.1133 O   0  0  0  0  0  0  0  0  0  0  0  0
   -0.7666    0.7145    2.4656 N   0  0  0  0  0  0  0  0  0  0  0  0
   -1.6971    0.7705    2.0790 H   0  0  0  0  0  0  0  0  0  0  0  0
   -0.5716    1.1232    3.8542 C   0  0  0  0  0  0  0  0  0  0  0  0
    0.3083    1.7643    3.9293 H   0  0  0  0  0  0  0  0  0  0  0  0
   -1.4485    1.6640    4.2131 H   0  0  0  0  0  0  0  0  0  0  0  0
   -0.4137    0.2381    4.4736 H   0  0  0  0  0  0  0  0  0  0  0  0
  5  6  2  0  0  0  0
  5  7  1  0  0  0  0
  2  3  1  0  0  0  0
  2  4  1  0  0  0  0
  2  5  1  0  0  0  0
  1  2  1  0  0  0  0
 20 21  2  0  0  0  0
 20 22  1  0  0  0  0
 17 18  1  0  0  0  0
 17 19  2  0  0  0  0
 14 15  1  0  0  0  0
 14 16  1  0  0  0  0
 14 17  1  0  0  0  0
 11 12  1  0  0  0  0
 11 13  1  0  0  0  0
 11 14  1  0  0  0  0
  9 10  1  0  0  0  0
  9 11  1  0  0  0  0
  9 20  1  0  0  0  0
  7  8  1  0  0  0  0
  7  9  1  0  0  0  0
 24 25  1  0  0  0  0
 24 26  1  0  0  0  0
 24 27  1  0  0  0  0
 22 23  1  0  0  0  0
 22 24  1  0  0  0  0
M  CHG  1  18  -1
M  END
$$$$
default_name
  -OEChem-02102213163D

 27 26  0     1  0  0  0  0  0999 V2000
   -3.2406   -3.5400    1.2326 H   0  0  0  0  0  0  0  0  0  0  0  0
   -3.1436   -2.6190    0.6606 C   0  0  0  0  0  0  0  0  0  0  0  0
   -3.8786   -1.8920    0.9996 H   0  0  0  0  0  0  0  0  0  0  0  0
   -3.2846   -2.8280   -0.3984 H   0  0  0  0  0  0  0  0  0  0  0  0
   -1.7586   -2.0580    0.8686 C   0  0  0  0  0  0  0  0  0  0  0  0
   -0.9666   -2.6340    1.6026 O   0  0  0  0  0  0  0  0  0  0  0  0
   -1.4866   -0.9220    0.2366 N   0  0  0  0  0  0  0  0  0  0  0  0
   -2.2166   -0.4790   -0.2994 H   0  0  0  0  0  0  0  0  0  0  0  0
   -0.1956   -0.2250    0.2596 C   0  0  1  0  0  0  0  0  0  0  0  0
    0.5755   -0.9013   -0.1105 H   0  0  0  0  0  0  0  0  0  0  0  0
   -0.2553    0.9811   -0.6992 C   0  0  0  0  0  0  0  0  0  0  0  0
    0.1901    1.8375   -0.1904 H   0  0  0  0  0  0  0  0  0  0  0  0
    0.3365    0.7632   -1.5894 H   0  0  0  0  0  0  0  0  0  0  0  0
   -1.6854    1.3558   -1.1232 C   0  0  0  0  0  0  0  0  0  0  0  0
   -2.3959    0.8820   -0.4416 H   0  0  0  0  0  0  0  0  0  0  0  0
   -1.7986    2.4390   -1.0286 H   0  0  0  0  0  0  0  0  0  0  0  0
   -2.0258    0.9348   -2.5605 C   0  0  0  0  0  0  0  0  0  0  0  0
   -1.1100    0.4702   -3.2761 O   0  5  0  0  0  0  0  0  0  0  0  0
   -3.2185    1.0641   -2.9154 O   0  0  0  0  0  0  0  0  0  0  0  0
    0.1881    0.1678    1.7015 C   0  0  0  0  0  0  0  0  0  0  0  0
    1.3379    0.0002    2.1133 O   0  0  0  0  0  0  0  0  0  0  0  0
   -0.7666    0.7145    2.4656 N   0  0  0  0  0  0  0  0  0  0  0  0
   -1.6971    0.7705    2.0790 H   0  0  0  0  0  0  0  0  0  0  0  0
   -0.5716    1.1232    3.8542 C   0  0  0  0  0  0  0  0  0  0  0  0
    0.3083    1.7643    3.9293 H   0  0  0  0  0  0  0  0  0  0  0  0
   -1.4485    1.6640    4.2131 H   0  0  0  0  0  0  0  0  0  0  0  0
   -0.4137    0.2381    4.4736 H   0  0  0  0  0  0  0  0  0  0  0  0
  5  6  2  0  0  0  0
  5  7  1  0  0  0  0
  2  3  1  0  0  0  0
  2  4  1  0  0  0  0
  2  5  1  0  0  0  0
  1  2  1  0  0  0  0
 20 21  2  0  0  0  0
 20 22  1  0  0  0  0
 17 18  1  0  0  0  0
 17 19  2  0  0  0  0
 14 15  1  0  0  0  0
 14 16  1  0  0  0  0
 14 17  1  0  0  0  0
 11 12  1  0  0  0  0
 11 13  1  0  0  0  0
 11 14  1  0  0  0  0
  9 10  1  0  0  0  0
  9 11  1  0  0  0  0
  9 20  1  0  0  0  0
  7  8  1  0  0  0  0
  7  9  1  0  0  0  0
 24 25  1  0  0  0  0
 24 26  1  0  0  0  0
 24 27  1  0  0  0  0
 22 23  1  0  0  0  0
 22 24  1  0  0  0  0
M  CHG  1  18  -1
M  END
$$$$
default_name
  -OEChem-02102213163D

 27 26  0     1  0  0  0  0  0999 V2000
   -3.2406   -3.5400    1.2326 H   0  0  0  0  0  0  0  0  0  0  0  0
   -3.1436   -2.6190    0.6606 C   0  0  0  0  0  0  0  0  0  0  0  0
   -3.8786   -1.8920    0.9996 H   0  0  0  0  0  0  0  0  0  0  0  0
   -3.2846   -2.8280   -0.3984 H   0  0  0  0  0  0  0  0  0  0  0  0
   -1.7586   -2.0580    0.8686 C   0  0  0  0  0  0  0  0  0  0  0  0
   -0.9666   -2.6340    1.6026 O   0  0  0  0  0  0  0  0  0  0  0  0
   -1.4866   -0.9220    0.2366 N   0  0  0  0  0  0  0  0  0  0  0  0
   -2.2166   -0.4790   -0.2994 H   0  0  0  0  0  0  0  0  0  0  0  0
   -0.1956   -0.2250    0.2596 C   0  0  1  0  0  0  0  0  0  0  0  0
    0.5755   -0.9013   -0.1105 H   0  0  0  0  0  0  0  0  0  0  0  0
   -0.2553    0.9811   -0.6992 C   0  0  0  0  0  0  0  0  0  0  0  0
    0.1901    1.8375   -0.1904 H   0  0  0  0  0  0  0  0  0  0  0  0
    0.3365    0.7632   -1.5894 H   0  0  0  0  0  0  0  0  0  0  0  0
   -1.6854    1.3558   -1.1232 C   0  0  0  0  0  0  0  0  0  0  0  0
   -2.3738    1.1158   -0.3094 H   0  0  0  0  0  0  0  0  0  0  0  0
   -1.7224    2.4358   -1.2886 H   0  0  0  0  0  0  0  0  0  0  0  0
   -2.1542    0.6326   -2.3945 C   0  0  0  0  0  0  0  0  0  0  0  0
   -1.3236   -0.0601   -3.0244 O   0  5  0  0  0  0  0  0  0  0  0  0
   -3.3587    0.7674   -2.7049 O   0  0  0  0  0  0  0  0  0  0  0  0
    0.1881    0.1678    1.7015 C   0  0  0  0  0  0  0  0  0  0  0  0
    1.3379    0.0002    2.1133 O   0  0  0  0  0  0  0  0  0  0  0  0
   -0.7666    0.7145    2.4656 N   0  0  0  0  0  0  0  0  0  0  0  0
   -1.6971    0.7705    2.0790 H   0  0  0  0  0  0  0  0  0  0  0  0
   -0.5716    1.1232    3.8542 C   0  0  0  0  0  0  0  0  0  0  0  0
    0.3083    1.7643    3.9293 H   0  0  0  0  0  0  0  0  0  0  0  0
   -1.4485    1.6640    4.2131 H   0  0  0  0  0  0  0  0  0  0  0  0
   -0.4137    0.2381    4.4736 H   0  0  0  0  0  0  0  0  0  0  0  0
  5  6  2  0  0  0  0
  5  7  1  0  0  0  0
  2  3  1  0  0  0  0
  2  4  1  0  0  0  0
  2  5  1  0  0  0  0
  1  2  1  0  0  0  0
 20 21  2  0  0  0  0
 20 22  1  0  0  0  0
 17 18  1  0  0  0  0
 17 19  2  0  0  0  0
 14 15  1  0  0  0  0
 14 16  1  0  0  0  0
 14 17  1  0  0  0  0
 11 12  1  0  0  0  0
 11 13  1  0  0  0  0
 11 14  1  0  0  0  0
  9 10  1  0  0  0  0
  9 11  1  0  0  0  0
  9 20  1  0  0  0  0
  7  8  1  0  0  0  0
  7  9  1  0  0  0  0
 24 25  1  0  0  0  0
 24 26  1  0  0  0  0
 24 27  1  0  0  0  0
 22 23  1  0  0  0  0
 22 24  1  0  0  0  0
M  CHG  1  18  -1
M  END
$$$$
default_name
  -OEChem-02102213163D

 27 26  0     1  0  0  0  0  0999 V2000
   -3.2406   -3.5400    1.2326 H   0  0  0  0  0  0  0  0  0  0  0  0
   -3.1436   -2.6190    0.6606 C   0  0  0  0  0  0  0  0  0  0  0  0
   -3.8786   -1.8920    0.9996 H   0  0  0  0  0  0  0  0  0  0  0  0
   -3.2846   -2.8280   -0.3984 H   0  0  0  0  0  0  0  0  0  0  0  0
   -1.7586   -2.0580    0.8686 C   0  0  0  0  0  0  0  0  0  0  0  0
   -0.9666   -2.6340    1.6026 O   0  0  0  0  0  0  0  0  0  0  0  0
   -1.4866   -0.9220    0.2366 N   0  0  0  0  0  0  0  0  0  0  0  0
   -2.2166   -0.4790   -0.2994 H   0  0  0  0  0  0  0  0  0  0  0  0
   -0.1956   -0.2250    0.2596 C   0  0  1  0  0  0  0  0  0  0  0  0
    0.5755   -0.9013   -0.1105 H   0  0  0  0  0  0  0  0  0  0  0  0
   -0.2553    0.9811   -0.6992 C   0  0  0  0  0  0  0  0  0  0  0  0
    0.1901    1.8375   -0.1904 H   0  0  0  0  0  0  0  0  0  0  0  0
    0.3365    0.7632   -1.5894 H   0  0  0  0  0  0  0  0  0  0  0  0
   -1.6854    1.3558   -1.1232 C   0  0  0  0  0  0  0  0  0  0  0  0
   -2.3275    1.3720   -0.2393 H   0  0  0  0  0  0  0  0  0  0  0  0
   -1.6653    2.3647   -1.5438 H   0  0  0  0  0  0  0  0  0  0  0  0
   -2.2893    0.3898   -2.1533 C   0  0  0  0  0  0  0  0  0  0  0  0
   -1.5518   -0.4965   -2.6403 O   0  5  0  0  0  0  0  0  0  0  0  0
   -3.5019    0.5416   -2.4212 O   0  0  0  0  0  0  0  0  0  0  0  0
    0.1881    0.1678    1.7015 C   0  0  0  0  0  0  0  0  0  0  0  0
    1.3379    0.0002    2.1133 O   0  0  0  0  0  0  0  0  0  0  0  0
   -0.7666    0.7145    2.4656 N   0  0  0  0  0  0  0  0  0  0  0  0
   -1.6971    0.7705    2.0790 H   0  0  0  0  0  0  0  0  0  0  0  0
   -0.5716    1.1232    3.8542 C   0  0  0  0  0  0  0  0  0  0  0  0
    0.3083    1.7643    3.9293 H   0  0  0  0  0  0  0  0  0  0  0  0
   -1.4485    1.6640    4.2131 H   0  0  0  0  0  0  0  0  0  0  0  0
   -0.4137    0.2381    4.4736 H   0  0  0  0  0  0  0  0  0  0  0  0
  5  6  2  0  0  0  0
  5  7  1  0  0  0  0
  2  3  1  0  0  0  0
  2  4  1  0  0  0  0
  2  5  1  0  0  0  0
  1  2  1  0  0  0  0
 20 21  2  0  0  0  0
 20 22  1  0  0  0  0
 17 18  1  0  0  0  0
 17 19  2  0  0  0  0
 14 15  1  0  0  0  0
 14 16  1  0  0  0  0
 14 17  1  0  0  0  0
 11 12  1  0  0  0  0
 11 13  1  0  0  0  0
 11 14  1  0  0  0  0
  9 10  1  0  0  0  0
  9 11  1  0  0  0  0
  9 20  1  0  0  0  0
  7  8  1  0  0  0  0
  7  9  1  0  0  0  0
 24 25  1  0  0  0  0
 24 26  1  0  0  0  0
 24 27  1  0  0  0  0
 22 23  1  0  0  0  0
 22 24  1  0  0  0  0
M  CHG  1  18  -1
M  END
$$$$
default_name
  -OEChem-02102213163D

 27 26  0     1  0  0  0  0  0999 V2000
   -3.2406   -3.5400    1.2326 H   0  0  0  0  0  0  0  0  0  0  0  0
   -3.1436   -2.6190    0.6606 C   0  0  0  0  0  0  0  0  0  0  0  0
   -3.8786   -1.8920    0.9996 H   0  0  0  0  0  0  0  0  0  0  0  0
   -3.2846   -2.8280   -0.3984 H   0  0  0  0  0  0  0  0  0  0  0  0
   -1.7586   -2.0580    0.8686 C   0  0  0  0  0  0  0  0  0  0  0  0
   -0.9666   -2.6340    1.6026 O   0  0  0  0  0  0  0  0  0  0  0  0
   -1.4866   -0.9220    0.2366 N   0  0  0  0  0  0  0  0  0  0  0  0
   -2.2166   -0.4790   -0.2994 H   0  0  0  0  0  0  0  0  0  0  0  0
   -0.1956   -0.2250    0.2596 C   0  0  1  0  0  0  0  0  0  0  0  0
    0.5755   -0.9013   -0.1105 H   0  0  0  0  0  0  0  0  0  0  0  0
   -0.2553    0.9811   -0.6992 C   0  0  0  0  0  0  0  0  0  0  0  0
    0.1901    1.8375   -0.1904 H   0  0  0  0  0  0  0  0  0  0  0  0
    0.3365    0.7632   -1.5894 H   0  0  0  0  0  0  0  0  0  0  0  0
   -1.6854    1.3558   -1.1232 C   0  0  0  0  0  0  0  0  0  0  0  0
   -2.2601    1.6329   -0.2362 H   0  0  0  0  0  0  0  0  0  0  0  0
   -1.6314    2.2305   -1.7767 H   0  0  0  0  0  0  0  0  0  0  0  0
   -2.4220    0.2229   -1.8534 C   0  0  0  0  0  0  0  0  0  0  0  0
   -1.7792   -0.8093   -2.1497 O   0  5  0  0  0  0  0  0  0  0  0  0
   -3.6386    0.4019   -2.0839 O   0  0  0  0  0  0  0  0  0  0  0  0
    0.1881    0.1678    1.7015 C   0  0  0  0  0  0  0  0  0  0  0  0
    1.3379    0.0002    2.1133 O   0  0  0  0  0  0  0  0  0  0  0  0
   -0.7666    0.7145    2.4656 N   0  0  0  0  0  0  0  0  0  0  0  0
   -1.6971    0.7705    2.0790 H   0  0  0  0  0  0  0  0  0  0  0  0
   -0.5716    1.1232    3.8542 C   0  0  0  0  0  0  0  0  0  0  0  0
    0.3083    1.7643    3.9293 H   0  0  0  0  0  0  0  0  0  0  0  0
   -1.4485    1.6640    4.2131 H   0  0  0  0  0  0  0  0  0  0  0  0
   -0.4137    0.2381    4.4736 H   0  0  0  0  0  0  0  0  0  0  0  0
  5  6  2  0  0  0  0
  5  7  1  0  0  0  0
  2  3  1  0  0  0  0
  2  4  1  0  0  0  0
  2  5  1  0  0  0  0
  1  2  1  0  0  0  0
 20 21  2  0  0  0  0
 20 22  1  0  0  0  0
 17 18  1  0  0  0  0
 17 19  2  0  0  0  0
 14 15  1  0  0  0  0
 14 16  1  0  0  0  0
 14 17  1  0  0  0  0
 11 12  1  0  0  0  0
 11 13  1  0  0  0  0
 11 14  1  0  0  0  0
  9 10  1  0  0  0  0
  9 11  1  0  0  0  0
  9 20  1  0  0  0  0
  7  8  1  0  0  0  0
  7  9  1  0  0  0  0
 24 25  1  0  0  0  0
 24 26  1  0  0  0  0
 24 27  1  0  0  0  0
 22 23  1  0  0  0  0
 22 24  1  0  0  0  0
M  CHG  1  18  -1
M  END
$$$$
default_name
  -OEChem-02102213163D

 27 26  0     1  0  0  0  0  0999 V2000
   -3.2406   -3.5400    1.2326 H   0  0  0  0  0  0  0  0  0  0  0  0
   -3.1436   -2.6190    0.6606 C   0  0  0  0  0  0  0  0  0  0  0  0
   -3.8786   -1.8920    0.9996 H   0  0  0  0  0  0  0  0  0  0  0  0
   -3.2846   -2.8280   -0.3984 H   0  0  0  0  0  0  0  0  0  0  0  0
   -1.7586   -2.0580    0.8686 C   0  0  0  0  0  0  0  0  0  0  0  0
   -0.9666   -2.6340    1.6026 O   0  0  0  0  0  0  0  0  0  0  0  0
   -1.4866   -0.9220    0.2366 N   0  0  0  0  0  0  0  0  0  0  0  0
   -2.2166   -0.4790   -0.2994 H   0  0  0  0  0  0  0  0  0  0  0  0
   -0.1956   -0.2250    0.2596 C   0  0  1  0  0  0  0  0  0  0  0  0
    0.5755   -0.9013   -0.1105 H   0  0  0  0  0  0  0  0  0  0  0  0
   -0.2553    0.9811   -0.6992 C   0  0  0  0  0  0  0  0  0  0  0  0
    0.1901    1.8375   -0.1904 H   0  0  0  0  0  0  0  0  0  0  0  0
    0.3365    0.7632   -1.5894 H   0  0  0  0  0  0  0  0  0  0  0  0
   -1.6854    1.3558   -1.1232 C   0  0  0  0  0  0  0  0  0  0  0  0
   -2.1761    1.8810   -0.3002 H   0  0  0  0  0  0  0  0  0  0  0  0
   -1.6229    2.0424   -1.9716 H   0  0  0  0  0  0  0  0  0  0  0  0
   -2.5431    0.1435   -1.5152 C   0  0  0  0  0  0  0  0  0  0  0  0
   -1.9903   -0.9772   -1.5863 O   0  5  0  0  0  0  0  0  0  0  0  0
   -3.7592    0.3580   -1.7159 O   0  0  0  0  0  0  0  0  0  0  0  0
    0.1881    0.1678    1.7015 C   0  0  0  0  0  0  0  0  0  0  0  0
    1.3379    0.0002    2.1133 O   0  0  0  0  0  0  0  0  0  0  0  0
   -0.7666    0.7145    2.4656 N   0  0  0  0  0  0  0  0  0  0  0  0
   -1.6971    0.7705    2.0790 H   0  0  0  0  0  0  0  0  0  0  0  0
   -0.5716    1.1232    3.8542 C   0  0  0  0  0  0  0  0  0  0  0  0
    0.3083    1.7643    3.9293 H   0  0  0  0  0  0  0  0  0  0  0  0
   -1.4485    1.6640    4.2131 H   0  0  0  0  0  0  0  0  0  0  0  0
   -0.4137    0.2381    4.4736 H   0  0  0  0  0  0  0  0  0  0  0  0
  5  6  2  0  0  0  0
  5  7  1  0  0  0  0
  2  3  1  0  0  0  0
  2  4  1  0  0  0  0
  2  5  1  0  0  0  0
  1  2  1  0  0  0  0
 20 21  2  0  0  0  0
 20 22  1  0  0  0  0
 17 18  1  0  0  0  0
 17 19  2  0  0  0  0
 14 15  1  0  0  0  0
 14 16  1  0  0  0  0
 14 17  1  0  0  0  0
 11 12  1  0  0  0  0
 11 13  1  0  0  0  0
 11 14  1  0  0  0  0
  9 10  1  0  0  0  0
  9 11  1  0  0  0  0
  9 20  1  0  0  0  0
  7  8  1  0  0  0  0
  7  9  1  0  0  0  0
 24 25  1  0  0  0  0
 24 26  1  0  0  0  0
 24 27  1  0  0  0  0
 22 23  1  0  0  0  0
 22 24  1  0  0  0  0
M  CHG  1  18  -1
M  END
$$$$
default_name
  -OEChem-02102213163D

 27 26  0     1  0  0  0  0  0999 V2000
   -3.2406   -3.5400    1.2326 H   0  0  0  0  0  0  0  0  0  0  0  0
   -3.1436   -2.6190    0.6606 C   0  0  0  0  0  0  0  0  0  0  0  0
   -3.8786   -1.8920    0.9996 H   0  0  0  0  0  0  0  0  0  0  0  0
   -3.2846   -2.8280   -0.3984 H   0  0  0  0  0  0  0  0  0  0  0  0
   -1.7586   -2.0580    0.8686 C   0  0  0  0  0  0  0  0  0  0  0  0
   -0.9666   -2.6340    1.6026 O   0  0  0  0  0  0  0  0  0  0  0  0
   -1.4866   -0.9220    0.2366 N   0  0  0  0  0  0  0  0  0  0  0  0
   -2.2166   -0.4790   -0.2994 H   0  0  0  0  0  0  0  0  0  0  0  0
   -0.1956   -0.2250    0.2596 C   0  0  1  0  0  0  0  0  0  0  0  0
    0.5755   -0.9013   -0.1105 H   0  0  0  0  0  0  0  0  0  0  0  0
   -0.2553    0.9811   -0.6992 C   0  0  0  0  0  0  0  0  0  0  0  0
    0.1901    1.8375   -0.1904 H   0  0  0  0  0  0  0  0  0  0  0  0
    0.3365    0.7632   -1.5894 H   0  0  0  0  0  0  0  0  0  0  0  0
   -1.6854    1.3558   -1.1232 C   0  0  0  0  0  0  0  0  0  0  0  0
   -2.0813    2.0991   -0.4271 H   0  0  0  0  0  0  0  0  0  0  0  0
   -1.6403    1.8133   -2.1151 H   0  0  0  0  0  0  0  0  0  0  0  0
   -2.6444    0.1567   -1.1617 C   0  0  0  0  0  0  0  0  0  0  0  0
   -2.1706   -0.9887   -0.9884 O   0  5  0  0  0  0  0  0  0  0  0  0
   -3.8557    0.4127   -1.3421 O   0  0  0  0  0  0  0  0  0  0  0  0
    0.1881    0.1678    1.7015 C   0  0  0  0  0  0  0  0  0  0  0  0
    1.3379    0.0002    2.1133 O   0  0  0  0  0  0  0  0  0  0  0  0
   -0.7666    0.7145    2.4656 N   0  0  0  0  0  0  0  0  0  0  0  0
   -1.6971    0.7705    2.0790 H   0  0  0  0  0  0  0  0  0  0  0  0
   -0.5716    1.1232    3.8542 C   0  0  0  0  0  0  0  0  0  0  0  0
    0.3083    1.7643    3.9293 H   0  0  0  0  0  0  0  0  0  0  0  0
   -1.4485    1.6640    4.2131 H   0  0  0  0  0  0  0  0  0  0  0  0
   -0.4137    0.2381    4.4736 H   0  0  0  0  0  0  0  0  0  0  0  0
  5  6  2  0  0  0  0
  5  7  1  0  0  0  0
  2  3  1  0  0  0  0
  2  4  1  0  0  0  0
  2  5  1  0  0  0  0
  1  2  1  0  0  0  0
 20 21  2  0  0  0  0
 20 22  1  0  0  0  0
 17 18  1  0  0  0  0
 17 19  2  0  0  0  0
 14 15  1  0  0  0  0
 14 16  1  0  0  0  0
 14 17  1  0  0  0  0
 11 12  1  0  0  0  0
 11 13  1  0  0  0  0
 11 14  1  0  0  0  0
  9 10  1  0  0  0  0
  9 11  1  0  0  0  0
  9 20  1  0  0  0  0
  7  8  1  0  0  0  0
  7  9  1  0  0  0  0
 24 25  1  0  0  0  0
 24 26  1  0  0  0  0
 24 27  1  0  0  0  0
 22 23  1  0  0  0  0
 22 24  1  0  0  0  0
M  CHG  1  18  -1
M  END
$$$$
default_name
  -OEChem-02102213163D

 27 26  0     1  0  0  0  0  0999 V2000
   -3.2406   -3.5400    1.2326 H   0  0  0  0  0  0  0  0  0  0  0  0
   -3.1436   -2.6190    0.6606 C   0  0  0  0  0  0  0  0  0  0  0  0
   -3.8786   -1.8920    0.9996 H   0  0  0  0  0  0  0  0  0  0  0  0
   -3.2846   -2.8280   -0.3984 H   0  0  0  0  0  0  0  0  0  0  0  0
   -1.7586   -2.0580    0.8686 C   0  0  0  0  0  0  0  0  0  0  0  0
   -0.9666   -2.6340    1.6026 O   0  0  0  0  0  0  0  0  0  0  0  0
   -1.4866   -0.9220    0.2366 N   0  0  0  0  0  0  0  0  0  0  0  0
   -2.2166   -0.4790   -0.2994 H   0  0  0  0  0  0  0  0  0  0  0  0
   -0.1956   -0.2250    0.2596 C   0  0  1  0  0  0  0  0  0  0  0  0
    0.5755   -0.9013   -0.1105 H   0  0  0  0  0  0  0  0  0  0  0  0
   -0.2553    0.9811   -0.6992 C   0  0  0  0  0  0  0  0  0  0  0  0
    0.1901    1.8375   -0.1904 H   0  0  0  0  0  0  0  0  0  0  0  0
    0.3365    0.7632   -1.5894 H   0  0  0  0  0  0  0  0  0  0  0  0
   -1.6854    1.3558   -1.1232 C   0  0  0  0  0  0  0  0  0  0  0  0
   -1.9822    2.2725   -0.6081 H   0  0  0  0  0  0  0  0  0  0  0  0
   -1.6826    1.5586   -2.1975 H   0  0  0  0  0  0  0  0  0  0  0  0
   -2.7191    0.2618   -0.8171 C   0  0  0  0  0  0  0  0  0  0  0  0
   -2.3079   -0.8430   -0.3967 O   0  5  0  0  0  0  0  0  0  0  0  0
   -3.9214    0.5624   -0.9883 O   0  0  0  0  0  0  0  0  0  0  0  0
    0.1881    0.1678    1.7015 C   0  0  0  0  0  0  0  0  0  0  0  0
    1.3379    0.0002    2.1133 O   0  0  0  0  0  0  0  0  0  0  0  0
   -0.7666    0.7145    2.4656 N   0  0  0  0  0  0  0  0  0  0  0  0
   -1.6971    0.7705    2.0790 H   0  0  0  0  0  0  0  0  0  0  0  0
   -0.5716    1.1232    3.8542 C   0  0  0  0  0  0  0  0  0  0  0  0
    0.3083    1.7643    3.9293 H   0  0  0  0  0  0  0  0  0  0  0  0
   -1.4485    1.6640    4.2131 H   0  0  0  0  0  0  0  0  0  0  0  0
   -0.4137    0.2381    4.4736 H   0  0  0  0  0  0  0  0  0  0  0  0
  5  6  2  0  0  0  0
  5  7  1  0  0  0  0
  2  3  1  0  0  0  0
  2  4  1  0  0  0  0
  2  5  1  0  0  0  0
  1  2  1  0  0  0  0
 20 21  2  0  0  0  0
 20 22  1  0  0  0  0
 17 18  1  0  0  0  0
 17 19  2  0  0  0  0
 14 15  1  0  0  0  0
 14 16  1  0  0  0  0
 14 17  1  0  0  0  0
 11 12  1  0  0  0  0
 11 13  1  0  0  0  0
 11 14  1  0  0  0  0
  9 10  1  0  0  0  0
  9 11  1  0  0  0  0
  9 20  1  0  0  0  0
  7  8  1  0  0  0  0
  7  9  1  0  0  0  0
 24 25  1  0  0  0  0
 24 26  1  0  0  0  0
 24 27  1  0  0  0  0
 22 23  1  0  0  0  0
 22 24  1  0  0  0  0
M  CHG  1  18  -1
M  END
$$$$
default_name
  -OEChem-02102213163D

 27 26  0     1  0  0  0  0  0999 V2000
   -3.2406   -3.5400    1.2326 H   0  0  0  0  0  0  0  0  0  0  0  0
   -3.1436   -2.6190    0.6606 C   0  0  0  0  0  0  0  0  0  0  0  0
   -3.8786   -1.8920    0.9996 H   0  0  0  0  0  0  0  0  0  0  0  0
   -3.2846   -2.8280   -0.3984 H   0  0  0  0  0  0  0  0  0  0  0  0
   -1.7586   -2.0580    0.8686 C   0  0  0  0  0  0  0  0  0  0  0  0
   -0.9666   -2.6340    1.6026 O   0  0  0  0  0  0  0  0  0  0  0  0
   -1.4866   -0.9220    0.2366 N   0  0  0  0  0  0  0  0  0  0  0  0
   -2.2166   -0.4790   -0.2994 H   0  0  0  0  0  0  0  0  0  0  0  0
   -0.1956   -0.2250    0.2596 C   0  0  1  0  0  0  0  0  0  0  0  0
    0.5755   -0.9013   -0.1105 H   0  0  0  0  0  0  0  0  0  0  0  0
   -0.2553    0.9811   -0.6992 C   0  0  0  0  0  0  0  0  0  0  0  0
    0.1901    1.8375   -0.1904 H   0  0  0  0  0  0  0  0  0  0  0  0
    0.3365    0.7632   -1.5894 H   0  0  0  0  0  0  0  0  0  0  0  0
   -1.6854    1.3558   -1.1232 C   0  0  0  0  0  0  0  0  0  0  0  0
   -1.8855    2.3894   -0.8309 H   0  0  0  0  0  0  0  0  0  0  0  0
   -1.7469    1.2958   -2.2131 H   0  0  0  0  0  0  0  0  0  0  0  0
   -2.7620    0.4516   -0.5048 C   0  0  0  0  0  0  0  0  0  0  0  0
   -2.3928   -0.5501    0.1485 O   0  5  0  0  0  0  0  0  0  0  0  0
   -3.9519    0.7968   -0.6783 O   0  0  0  0  0  0  0  0  0  0  0  0
    0.1881    0.1678    1.7015 C   0  0  0  0  0  0  0  0  0  0  0  0
    1.3379    0.0002    2.1133 O   0  0  0  0  0  0  0  0  0  0  0  0
   -0.7666    0.7145    2.4656 N   0  0  0  0  0  0  0  0  0  0  0  0
   -1.6971    0.7705    2.0790 H   0  0  0  0  0  0  0  0  0  0  0  0
   -0.5716    1.1232    3.8542 C   0  0  0  0  0  0  0  0  0  0  0  0
    0.3083    1.7643    3.9293 H   0  0  0  0  0  0  0  0  0  0  0  0
   -1.4485    1.6640    4.2131 H   0  0  0  0  0  0  0  0  0  0  0  0
   -0.4137    0.2381    4.4736 H   0  0  0  0  0  0  0  0  0  0  0  0
  5  6  2  0  0  0  0
  5  7  1  0  0  0  0
  2  3  1  0  0  0  0
  2  4  1  0  0  0  0
  2  5  1  0  0  0  0
  1  2  1  0  0  0  0
 20 21  2  0  0  0  0
 20 22  1  0  0  0  0
 17 18  1  0  0  0  0
 17 19  2  0  0  0  0
 14 15  1  0  0  0  0
 14 16  1  0  0  0  0
 14 17  1  0  0  0  0
 11 12  1  0  0  0  0
 11 13  1  0  0  0  0
 11 14  1  0  0  0  0
  9 10  1  0  0  0  0
  9 11  1  0  0  0  0
  9 20  1  0  0  0  0
  7  8  1  0  0  0  0
  7  9  1  0  0  0  0
 24 25  1  0  0  0  0
 24 26  1  0  0  0  0
 24 27  1  0  0  0  0
 22 23  1  0  0  0  0
 22 24  1  0  0  0  0
M  CHG  1  18  -1
M  END
$$$$
default_name
  -OEChem-02102213163D

 27 26  0     1  0  0  0  0  0999 V2000
   -3.2406   -3.5400    1.2326 H   0  0  0  0  0  0  0  0  0  0  0  0
   -3.1436   -2.6190    0.6606 C   0  0  0  0  0  0  0  0  0  0  0  0
   -3.8786   -1.8920    0.9996 H   0  0  0  0  0  0  0  0  0  0  0  0
   -3.2846   -2.8280   -0.3984 H   0  0  0  0  0  0  0  0  0  0  0  0
   -1.7586   -2.0580    0.8686 C   0  0  0  0  0  0  0  0  0  0  0  0
   -0.9666   -2.6340    1.6026 O   0  0  0  0  0  0  0  0  0  0  0  0
   -1.4866   -0.9220    0.2366 N   0  0  0  0  0  0  0  0  0  0  0  0
   -2.2166   -0.4790   -0.2994 H   0  0  0  0  0  0  0  0  0  0  0  0
   -0.1956   -0.2250    0.2596 C   0  0  1  0  0  0  0  0  0  0  0  0
    0.5755   -0.9013   -0.1105 H   0  0  0  0  0  0  0  0  0  0  0  0
   -0.2553    0.9811   -0.6992 C   0  0  0  0  0  0  0  0  0  0  0  0
    0.1901    1.8375   -0.1904 H   0  0  0  0  0  0  0  0  0  0  0  0
    0.3365    0.7632   -1.5894 H   0  0  0  0  0  0  0  0  0  0  0  0
   -1.6854    1.3558   -1.1232 C   0  0  0  0  0  0  0  0  0  0  0  0
   -1.7978    2.4418   -1.0804 H   0  0  0  0  0  0  0  0  0  0  0  0
   -1.8286    1.0428   -2.1609 H   0  0  0  0  0  0  0  0  0  0  0  0
   -2.7701    0.7131   -0.2461 C   0  0  0  0  0  0  0  0  0  0  0  0
   -2.4196   -0.1299    0.6099 O   0  5  0  0  0  0  0  0  0  0  0  0
   -3.9451    1.1000   -0.4334 O   0  0  0  0  0  0  0  0  0  0  0  0
    0.1881    0.1678    1.7015 C   0  0  0  0  0  0  0  0  0  0  0  0
    1.3379    0.0002    2.1133 O   0  0  0  0  0  0  0  0  0  0  0  0
   -0.7666    0.7145    2.4656 N   0  0  0  0  0  0  0  0  0  0  0  0
   -1.6971    0.7705    2.0790 H   0  0  0  0  0  0  0  0  0  0  0  0
   -0.5716    1.1232    3.8542 C   0  0  0  0  0  0  0  0  0  0  0  0
    0.3083    1.7643    3.9293 H   0  0  0  0  0  0  0  0  0  0  0  0
   -1.4485    1.6640    4.2131 H   0  0  0  0  0  0  0  0  0  0  0  0
   -0.4137    0.2381    4.4736 H   0  0  0  0  0  0  0  0  0  0  0  0
  5  6  2  0  0  0  0
  5  7  1  0  0  0  0
  2  3  1  0  0  0  0
  2  4  1  0  0  0  0
  2  5  1  0  0  0  0
  1  2  1  0  0  0  0
 20 21  2  0  0  0  0
 20 22  1  0  0  0  0
 17 18  1  0  0  0  0
 17 19  2  0  0  0  0
 14 15  1  0  0  0  0
 14 16  1  0  0  0  0
 14 17  1  0  0  0  0
 11 12  1  0  0  0  0
 11 13  1  0  0  0  0
 11 14  1  0  0  0  0
  9 10  1  0  0  0  0
  9 11  1  0  0  0  0
  9 20  1  0  0  0  0
  7  8  1  0  0  0  0
  7  9  1  0  0  0  0
 24 25  1  0  0  0  0
 24 26  1  0  0  0  0
 24 27  1  0  0  0  0
 22 23  1  0  0  0  0
 22 24  1  0  0  0  0
M  CHG  1  18  -1
M  END
$$$$
default_name
  -OEChem-02102213163D

 27 26  0     1  0  0  0  0  0999 V2000
   -3.2406   -3.5400    1.2326 H   0  0  0  0  0  0  0  0  0  0  0  0
   -3.1436   -2.6190    0.6606 C   0  0  0  0  0  0  0  0  0  0  0  0
   -3.8786   -1.8920    0.9996 H   0  0  0  0  0  0  0  0  0  0  0  0
   -3.2846   -2.8280   -0.3984 H   0  0  0  0  0  0  0  0  0  0  0  0
   -1.7586   -2.0580    0.8686 C   0  0  0  0  0  0  0  0  0  0  0  0
   -0.9666   -2.6340    1.6026 O   0  0  0  0  0  0  0  0  0  0  0  0
   -1.4866   -0.9220    0.2366 N   0  0  0  0  0  0  0  0  0  0  0  0
   -2.2166   -0.4790   -0.2994 H   0  0  0  0  0  0  0  0  0  0  0  0
   -0.1956   -0.2250    0.2596 C   0  0  1  0  0  0  0  0  0  0  0  0
    0.5755   -0.9013   -0.1105 H   0  0  0  0  0  0  0  0  0  0  0  0
   -0.2553    0.9811   -0.6992 C   0  0  0  0  0  0  0  0  0  0  0  0
    0.1901    1.8375   -0.1904 H   0  0  0  0  0  0  0  0  0  0  0  0
    0.3365    0.7632   -1.5894 H   0  0  0  0  0  0  0  0  0  0  0  0
   -1.6854    1.3558   -1.1232 C   0  0  0  0  0  0  0  0  0  0  0  0
   -1.7251    2.4261   -1.3395 H   0  0  0  0  0  0  0  0  0  0  0  0
   -1.9224    0.8168   -2.0444 H   0  0  0  0  0  0  0  0  0  0  0  0
   -2.7431    1.0286   -0.0587 C   0  0  0  0  0  0  0  0  0  0  0  0
   -2.3863    0.3889    0.9562 O   0  5  0  0  0  0  0  0  0  0  0  0
   -3.9014    1.4514   -0.2703 O   0  0  0  0  0  0  0  0  0  0  0  0
    0.1881    0.1678    1.7015 C   0  0  0  0  0  0  0  0  0  0  0  0
    1.3379    0.0002    2.1133 O   0  0  0  0  0  0  0  0  0  0  0  0
   -0.7666    0.7145    2.4656 N   0  0  0  0  0  0  0  0  0  0  0  0
   -1.6971    0.7705    2.0790 H   0  0  0  0  0  0  0  0  0  0  0  0
   -0.5716    1.1232    3.8542 C   0  0  0  0  0  0  0  0  0  0  0  0
    0.3083    1.7643    3.9293 H   0  0  0  0  0  0  0  0  0  0  0  0
   -1.4485    1.6640    4.2131 H   0  0  0  0  0  0  0  0  0  0  0  0
   -0.4137    0.2381    4.4736 H   0  0  0  0  0  0  0  0  0  0  0  0
  5  6  2  0  0  0  0
  5  7  1  0  0  0  0
  2  3  1  0  0  0  0
  2  4  1  0  0  0  0
  2  5  1  0  0  0  0
  1  2  1  0  0  0  0
 20 21  2  0  0  0  0
 20 22  1  0  0  0  0
 17 18  1  0  0  0  0
 17 19  2  0  0  0  0
 14 15  1  0  0  0  0
 14 16  1  0  0  0  0
 14 17  1  0  0  0  0
 11 12  1  0  0  0  0
 11 13  1  0  0  0  0
 11 14  1  0  0  0  0
  9 10  1  0  0  0  0
  9 11  1  0  0  0  0
  9 20  1  0  0  0  0
  7  8  1  0  0  0  0
  7  9  1  0  0  0  0
 24 25  1  0  0  0  0
 24 26  1  0  0  0  0
 24 27  1  0  0  0  0
 22 23  1  0  0  0  0
 22 24  1  0  0  0  0
M  CHG  1  18  -1
M  END
$$$$
default_name
  -OEChem-02102213163D

 27 26  0     1  0  0  0  0  0999 V2000
   -3.2406   -3.5400    1.2326 H   0  0  0  0  0  0  0  0  0  0  0  0
   -3.1436   -2.6190    0.6606 C   0  0  0  0  0  0  0  0  0  0  0  0
   -3.8786   -1.8920    0.9996 H   0  0  0  0  0  0  0  0  0  0  0  0
   -3.2846   -2.8280   -0.3984 H   0  0  0  0  0  0  0  0  0  0  0  0
   -1.7586   -2.0580    0.8686 C   0  0  0  0  0  0  0  0  0  0  0  0
   -0.9666   -2.6340    1.6026 O   0  0  0  0  0  0  0  0  0  0  0  0
   -1.4866   -0.9220    0.2366 N   0  0  0  0  0  0  0  0  0  0  0  0
   -2.2166   -0.4790   -0.2994 H   0  0  0  0  0  0  0  0  0  0  0  0
   -0.1956   -0.2250    0.2596 C   0  0  1  0  0  0  0  0  0  0  0  0
    0.5755   -0.9013   -0.1105 H   0  0  0  0  0  0  0  0  0  0  0  0
   -0.2553    0.9811   -0.6992 C   0  0  0  0  0  0  0  0  0  0  0  0
    0.1901    1.8375   -0.1904 H   0  0  0  0  0  0  0  0  0  0  0  0
    0.3365    0.7632   -1.5894 H   0  0  0  0  0  0  0  0  0  0  0  0
   -1.6854    1.3558   -1.1232 C   0  0  0  0  0  0  0  0  0  0  0  0
   -1.6723    2.3434   -1.5906 H   0  0  0  0  0  0  0  0  0  0  0  0
   -2.0217    0.6332   -1.8716 H   0  0  0  0  0  0  0  0  0  0  0  0
   -2.6826    1.3765    0.0447 C   0  0  0  0  0  0  0  0  0  0  0  0
   -2.2954    0.9710    1.1637 O   0  5  0  0  0  0  0  0  0  0  0  0
   -3.8239    1.8269   -0.2000 O   0  0  0  0  0  0  0  0  0  0  0  0
    0.1881    0.1678    1.7015 C   0  0  0  0  0  0  0  0  0  0  0  0
    1.3379    0.0002    2.1133 O   0  0  0  0  0  0  0  0  0  0  0  0
   -0.7666    0.7145    2.4656 N   0  0  0  0  0  0  0  0  0  0  0  0
   -1.6971    0.7705    2.0790 H   0  0  0  0  0  0  0  0  0  0  0  0
   -0.5716    1.1232    3.8542 C   0  0  0  0  0  0  0  0  0  0  0  0
    0.3083    1.7643    3.9293 H   0  0  0  0  0  0  0  0  0  0  0  0
   -1.4485    1.6640    4.2131 H   0  0  0  0  0  0  0  0  0  0  0  0
   -0.4137    0.2381    4.4736 H   0  0  0  0  0  0  0  0  0  0  0  0
  5  6  2  0  0  0  0
  5  7  1  0  0  0  0
  2  3  1  0  0  0  0
  2  4  1  0  0  0  0
  2  5  1  0  0  0  0
  1  2  1  0  0  0  0
 20 21  2  0  0  0  0
 20 22  1  0  0  0  0
 17 18  1  0  0  0  0
 17 19  2  0  0  0  0
 14 15  1  0  0  0  0
 14 16  1  0  0  0  0
 14 17  1  0  0  0  0
 11 12  1  0  0  0  0
 11 13  1  0  0  0  0
 11 14  1  0  0  0  0
  9 10  1  0  0  0  0
  9 11  1  0  0  0  0
  9 20  1  0  0  0  0
  7  8  1  0  0  0  0
  7  9  1  0  0  0  0
 24 25  1  0  0  0  0
 24 26  1  0  0  0  0
 24 27  1  0  0  0  0
 22 23  1  0  0  0  0
 22 24  1  0  0  0  0
M  CHG  1  18  -1
M  END
$$$$
default_name
  -OEChem-02102213163D

 27 26  0     1  0  0  0  0  0999 V2000
   -3.2406   -3.5400    1.2326 H   0  0  0  0  0  0  0  0  0  0  0  0
   -3.1436   -2.6190    0.6606 C   0  0  0  0  0  0  0  0  0  0  0  0
   -3.8786   -1.8920    0.9996 H   0  0  0  0  0  0  0  0  0  0  0  0
   -3.2846   -2.8280   -0.3984 H   0  0  0  0  0  0  0  0  0  0  0  0
   -1.7586   -2.0580    0.8686 C   0  0  0  0  0  0  0  0  0  0  0  0
   -0.9666   -2.6340    1.6026 O   0  0  0  0  0  0  0  0  0  0  0  0
   -1.4866   -0.9220    0.2366 N   0  0  0  0  0  0  0  0  0  0  0  0
   -2.2166   -0.4790   -0.2994 H   0  0  0  0  0  0  0  0  0  0  0  0
   -0.1956   -0.2250    0.2596 C   0  0  1  0  0  0  0  0  0  0  0  0
    0.5755   -0.9013   -0.1105 H   0  0  0  0  0  0  0  0  0  0  0  0
   -0.2553    0.9811   -0.6992 C   0  0  0  0  0  0  0  0  0  0  0  0
    0.1901    1.8375   -0.1904 H   0  0  0  0  0  0  0  0  0  0  0  0
    0.3365    0.7632   -1.5894 H   0  0  0  0  0  0  0  0  0  0  0  0
   -1.6854    1.3558   -1.1232 C   0  0  0  0  0  0  0  0  0  0  0  0
   -1.6431    2.1993   -1.8165 H   0  0  0  0  0  0  0  0  0  0  0  0
   -2.1199    0.5046   -1.6542 H   0  0  0  0  0  0  0  0  0  0  0  0
   -2.5929    1.7331    0.0571 C   0  0  0  0  0  0  0  0  0  0  0  0
   -2.1529    1.5767    1.2183 O   0  5  0  0  0  0  0  0  0  0  0  0
   -3.7178    2.2010   -0.2274 O   0  0  0  0  0  0  0  0  0  0  0  0
    0.1881    0.1678    1.7015 C   0  0  0  0  0  0  0  0  0  0  0  0
    1.3379    0.0002    2.1133 O   0  0  0  0  0  0  0  0  0  0  0  0
   -0.7666    0.7145    2.4656 N   0  0  0  0  0  0  0  0  0  0  0  0
   -1.6971    0.7705    2.0790 H   0  0  0  0  0  0  0  0  0  0  0  0
   -0.5716    1.1232    3.8542 C   0  0  0  0  0  0  0  0  0  0  0  0
    0.3083    1.7643    3.9293 H   0  0  0  0  0  0  0  0  0  0  0  0
   -1.4485    1.6640    4.2131 H   0  0  0  0  0  0  0  0  0  0  0  0
   -0.4137    0.2381    4.4736 H   0  0  0  0  0  0  0  0  0  0  0  0
  5  6  2  0  0  0  0
  5  7  1  0  0  0  0
  2  3  1  0  0  0  0
  2  4  1  0  0  0  0
  2  5  1  0  0  0  0
  1  2  1  0  0  0  0
 20 21  2  0  0  0  0
 20 22  1  0  0  0  0
 17 18  1  0  0  0  0
 17 19  2  0  0  0  0
 14 15  1  0  0  0  0
 14 16  1  0  0  0  0
 14 17  1  0  0  0  0
 11 12  1  0  0  0  0
 11 13  1  0  0  0  0
 11 14  1  0  0  0  0
  9 10  1  0  0  0  0
  9 11  1  0  0  0  0
  9 20  1  0  0  0  0
  7  8  1  0  0  0  0
  7  9  1  0  0  0  0
 24 25  1  0  0  0  0
 24 26  1  0  0  0  0
 24 27  1  0  0  0  0
 22 23  1  0  0  0  0
 22 24  1  0  0  0  0
M  CHG  1  18  -1
M  END
$$$$
default_name
  -OEChem-02102213163D

 27 26  0     1  0  0  0  0  0999 V2000
   -3.2406   -3.5400    1.2326 H   0  0  0  0  0  0  0  0  0  0  0  0
   -3.1436   -2.6190    0.6606 C   0  0  0  0  0  0  0  0  0  0  0  0
   -3.8786   -1.8920    0.9996 H   0  0  0  0  0  0  0  0  0  0  0  0
   -3.2846   -2.8280   -0.3984 H   0  0  0  0  0  0  0  0  0  0  0  0
   -1.7586   -2.0580    0.8686 C   0  0  0  0  0  0  0  0  0  0  0  0
   -0.9666   -2.6340    1.6026 O   0  0  0  0  0  0  0  0  0  0  0  0
   -1.4866   -0.9220    0.2366 N   0  0  0  0  0  0  0  0  0  0  0  0
   -2.2166   -0.4790   -0.2994 H   0  0  0  0  0  0  0  0  0  0  0  0
   -0.1956   -0.2250    0.2596 C   0  0  1  0  0  0  0  0  0  0  0  0
    0.5755   -0.9013   -0.1105 H   0  0  0  0  0  0  0  0  0  0  0  0
   -0.2553    0.9811   -0.6992 C   0  0  0  0  0  0  0  0  0  0  0  0
    0.1901    1.8375   -0.1904 H   0  0  0  0  0  0  0  0  0  0  0  0
    0.3365    0.7632   -1.5894 H   0  0  0  0  0  0  0  0  0  0  0  0
   -1.6854    1.3558   -1.1232 C   0  0  0  0  0  0  0  0  0  0  0  0
   -1.6394    2.0037   -2.0019 H   0  0  0  0  0  0  0  0  0  0  0  0
   -2.2101    0.4397   -1.4071 H   0  0  0  0  0  0  0  0  0  0  0  0
   -2.4799    2.0741   -0.0225 C   0  0  0  0  0  0  0  0  0  0  0  0
   -1.9686    2.1648    1.1163 O   0  5  0  0  0  0  0  0  0  0  0  0
   -3.5903    2.5482   -0.3505 O   0  0  0  0  0  0  0  0  0  0  0  0
    0.1881    0.1678    1.7015 C   0  0  0  0  0  0  0  0  0  0  0  0
    1.3379    0.0002    2.1133 O   0  0  0  0  0  0  0  0  0  0  0  0
   -0.7666    0.7145    2.4656 N   0  0  0  0  0  0  0  0  0  0  0  0
   -1.6971    0.7705    2.0790 H   0  0  0  0  0  0  0  0  0  0  0  0
   -0.5716    1.1232    3.8542 C   0  0  0  0  0  0  0  0  0  0  0  0
    0.3083    1.7643    3.9293 H   0  0  0  0  0  0  0  0  0  0  0  0
   -1.4485    1.6640    4.2131 H   0  0  0  0  0  0  0  0  0  0  0  0
   -0.4137    0.2381    4.4736 H   0  0  0  0  0  0  0  0  0  0  0  0
  5  6  2  0  0  0  0
  5  7  1  0  0  0  0
  2  3  1  0  0  0  0
  2  4  1  0  0  0  0
  2  5  1  0  0  0  0
  1  2  1  0  0  0  0
 20 21  2  0  0  0  0
 20 22  1  0  0  0  0
 17 18  1  0  0  0  0
 17 19  2  0  0  0  0
 14 15  1  0  0  0  0
 14 16  1  0  0  0  0
 14 17  1  0  0  0  0
 11 12  1  0  0  0  0
 11 13  1  0  0  0  0
 11 14  1  0  0  0  0
  9 10  1  0  0  0  0
  9 11  1  0  0  0  0
  9 20  1  0  0  0  0
  7  8  1  0  0  0  0
  7  9  1  0  0  0  0
 24 25  1  0  0  0  0
 24 26  1  0  0  0  0
 24 27  1  0  0  0  0
 22 23  1  0  0  0  0
 22 24  1  0  0  0  0
M  CHG  1  18  -1
M  END
$$$$
default_name
  -OEChem-02102213163D

 27 26  0     1  0  0  0  0  0999 V2000
   -3.2406   -3.5400    1.2326 H   0  0  0  0  0  0  0  0  0  0  0  0
   -3.1436   -2.6190    0.6606 C   0  0  0  0  0  0  0  0  0  0  0  0
   -3.8786   -1.8920    0.9996 H   0  0  0  0  0  0  0  0  0  0  0  0
   -3.2846   -2.8280   -0.3984 H   0  0  0  0  0  0  0  0  0  0  0  0
   -1.7586   -2.0580    0.8686 C   0  0  0  0  0  0  0  0  0  0  0  0
   -0.9666   -2.6340    1.6026 O   0  0  0  0  0  0  0  0  0  0  0  0
   -1.4866   -0.9220    0.2366 N   0  0  0  0  0  0  0  0  0  0  0  0
   -2.2166   -0.4790   -0.2994 H   0  0  0  0  0  0  0  0  0  0  0  0
   -0.1956   -0.2250    0.2596 C   0  0  1  0  0  0  0  0  0  0  0  0
    0.5755   -0.9013   -0.1105 H   0  0  0  0  0  0  0  0  0  0  0  0
   -0.2553    0.9811   -0.6992 C   0  0  0  0  0  0  0  0  0  0  0  0
    0.1901    1.8375   -0.1904 H   0  0  0  0  0  0  0  0  0  0  0  0
    0.3365    0.7632   -1.5894 H   0  0  0  0  0  0  0  0  0  0  0  0
   -1.6854    1.3558   -1.1232 C   0  0  0  0  0  0  0  0  0  0  0  0
   -1.6614    1.7698   -2.1341 H   0  0  0  0  0  0  0  0  0  0  0  0
   -2.2864    0.4429   -1.1471 H   0  0  0  0  0  0  0  0  0  0  0  0
   -2.3515    2.3763   -0.1885 C   0  0  0  0  0  0  0  0  0  0  0  0
   -1.7550    2.6951    0.8646 O   0  5  0  0  0  0  0  0  0  0  0  0
   -3.4502    2.8448   -0.5611 O   0  0  0  0  0  0  0  0  0  0  0  0
    0.1881    0.1678    1.7015 C   0  0  0  0  0  0  0  0  0  0  0  0
    1.3379    0.0002    2.1133 O   0  0  0  0  0  0  0  0  0  0  0  0
   -0.7666    0.7145    2.4656 N   0  0  0  0  0  0  0  0  0  0  0  0
   -1.6971    0.7705    2.0790 H   0  0  0  0  0  0  0  0  0  0  0  0
   -0.5716    1.1232    3.8542 C   0  0  0  0  0  0  0  0  0  0  0  0
    0.3083    1.7643    3.9293 H   0  0  0  0  0  0  0  0  0  0  0  0
   -1.4485    1.6640    4.2131 H   0  0  0  0  0  0  0  0  0  0  0  0
   -0.4137    0.2381    4.4736 H   0  0  0  0  0  0  0  0  0  0  0  0
  5  6  2  0  0  0  0
  5  7  1  0  0  0  0
  2  3  1  0  0  0  0
  2  4  1  0  0  0  0
  2  5  1  0  0  0  0
  1  2  1  0  0  0  0
 20 21  2  0  0  0  0
 20 22  1  0  0  0  0
 17 18  1  0  0  0  0
 17 19  2  0  0  0  0
 14 15  1  0  0  0  0
 14 16  1  0  0  0  0
 14 17  1  0  0  0  0
 11 12  1  0  0  0  0
 11 13  1  0  0  0  0
 11 14  1  0  0  0  0
  9 10  1  0  0  0  0
  9 11  1  0  0  0  0
  9 20  1  0  0  0  0
  7  8  1  0  0  0  0
  7  9  1  0  0  0  0
 24 25  1  0  0  0  0
 24 26  1  0  0  0  0
 24 27  1  0  0  0  0
 22 23  1  0  0  0  0
 22 24  1  0  0  0  0
M  CHG  1  18  -1
M  END
$$$$
default_name
  -OEChem-02102213163D

 27 26  0     1  0  0  0  0  0999 V2000
   -3.2406   -3.5400    1.2326 H   0  0  0  0  0  0  0  0  0  0  0  0
   -3.1436   -2.6190    0.6606 C   0  0  0  0  0  0  0  0  0  0  0  0
   -3.8786   -1.8920    0.9996 H   0  0  0  0  0  0  0  0  0  0  0  0
   -3.2846   -2.8280   -0.3984 H   0  0  0  0  0  0  0  0  0  0  0  0
   -1.7586   -2.0580    0.8686 C   0  0  0  0  0  0  0  0  0  0  0  0
   -0.9666   -2.6340    1.6026 O   0  0  0  0  0  0  0  0  0  0  0  0
   -1.4866   -0.9220    0.2366 N   0  0  0  0  0  0  0  0  0  0  0  0
   -2.2166   -0.4790   -0.2994 H   0  0  0  0  0  0  0  0  0  0  0  0
   -0.1956   -0.2250    0.2596 C   0  0  1  0  0  0  0  0  0  0  0  0
    0.5755   -0.9013   -0.1105 H   0  0  0  0  0  0  0  0  0  0  0  0
   -0.2553    0.9811   -0.6992 C   0  0  0  0  0  0  0  0  0  0  0  0
    0.1901    1.8375   -0.1904 H   0  0  0  0  0  0  0  0  0  0  0  0
    0.3365    0.7632   -1.5894 H   0  0  0  0  0  0  0  0  0  0  0  0
   -1.6854    1.3558   -1.1232 C   0  0  0  0  0  0  0  0  0  0  0  0
   -1.7077    1.5137   -2.2042 H   0  0  0  0  0  0  0  0  0  0  0  0
   -2.3434    0.5140   -0.8919 H   0  0  0  0  0  0  0  0  0  0  0  0
   -2.2164    2.6191   -0.4297 C   0  0  0  0  0  0  0  0  0  0  0  0
   -1.5268    3.1315    0.4804 O   0  5  0  0  0  0  0  0  0  0  0  0
   -3.3069    3.0706   -0.8447 O   0  0  0  0  0  0  0  0  0  0  0  0
    0.1881    0.1678    1.7015 C   0  0  0  0  0  0  0  0  0  0  0  0
    1.3379    0.0002    2.1133 O   0  0  0  0  0  0  0  0  0  0  0  0
   -0.7666    0.7145    2.4656 N   0  0  0  0  0  0  0  0  0  0  0  0
   -1.6971    0.7705    2.0790 H   0  0  0  0  0  0  0  0  0  0  0  0
   -0.5716    1.1232    3.8542 C   0  0  0  0  0  0  0  0  0  0  0  0
    0.3083    1.7643    3.9293 H   0  0  0  0  0  0  0  0  0  0  0  0
   -1.4485    1.6640    4.2131 H   0  0  0  0  0  0  0  0  0  0  0  0
   -0.4137    0.2381    4.4736 H   0  0  0  0  0  0  0  0  0  0  0  0
  5  6  2  0  0  0  0
  5  7  1  0  0  0  0
  2  3  1  0  0  0  0
  2  4  1  0  0  0  0
  2  5  1  0  0  0  0
  1  2  1  0  0  0  0
 20 21  2  0  0  0  0
 20 22  1  0  0  0  0
 17 18  1  0  0  0  0
 17 19  2  0  0  0  0
 14 15  1  0  0  0  0
 14 16  1  0  0  0  0
 14 17  1  0  0  0  0
 11 12  1  0  0  0  0
 11 13  1  0  0  0  0
 11 14  1  0  0  0  0
  9 10  1  0  0  0  0
  9 11  1  0  0  0  0
  9 20  1  0  0  0  0
  7  8  1  0  0  0  0
  7  9  1  0  0  0  0
 24 25  1  0  0  0  0
 24 26  1  0  0  0  0
 24 27  1  0  0  0  0
 22 23  1  0  0  0  0
 22 24  1  0  0  0  0
M  CHG  1  18  -1
M  END
$$$$
default_name
  -OEChem-02102213163D

 27 26  0     1  0  0  0  0  0999 V2000
   -3.2406   -3.5400    1.2326 H   0  0  0  0  0  0  0  0  0  0  0  0
   -3.1436   -2.6190    0.6606 C   0  0  0  0  0  0  0  0  0  0  0  0
   -3.8786   -1.8920    0.9996 H   0  0  0  0  0  0  0  0  0  0  0  0
   -3.2846   -2.8280   -0.3984 H   0  0  0  0  0  0  0  0  0  0  0  0
   -1.7586   -2.0580    0.8686 C   0  0  0  0  0  0  0  0  0  0  0  0
   -0.9666   -2.6340    1.6026 O   0  0  0  0  0  0  0  0  0  0  0  0
   -1.4866   -0.9220    0.2366 N   0  0  0  0  0  0  0  0  0  0  0  0
   -2.2166   -0.4790   -0.2994 H   0  0  0  0  0  0  0  0  0  0  0  0
   -0.1956   -0.2250    0.2596 C   0  0  1  0  0  0  0  0  0  0  0  0
    0.5755   -0.9013   -0.1105 H   0  0  0  0  0  0  0  0  0  0  0  0
   -0.2553    0.9811   -0.6992 C   0  0  0  0  0  0  0  0  0  0  0  0
    0.1901    1.8375   -0.1904 H   0  0  0  0  0  0  0  0  0  0  0  0
    0.3365    0.7632   -1.5894 H   0  0  0  0  0  0  0  0  0  0  0  0
   -1.6854    1.3558   -1.1232 C   0  0  0  0  0  0  0  0  0  0  0  0
   -1.7752    1.2527   -2.2073 H   0  0  0  0  0  0  0  0  0  0  0  0
   -2.3774    0.6482   -0.6589 H   0  0  0  0  0  0  0  0  0  0  0  0
   -2.0838    2.7859   -0.7296 C   0  0  0  0  0  0  0  0  0  0  0  0
   -1.2994    3.4443   -0.0101 O   0  5  0  0  0  0  0  0  0  0  0  0
   -3.1703    3.2103   -1.1821 O   0  0  0  0  0  0  0  0  0  0  0  0
    0.1881    0.1678    1.7015 C   0  0  0  0  0  0  0  0  0  0  0  0
    1.3379    0.0002    2.1133 O   0  0  0  0  0  0  0  0  0  0  0  0
   -0.7666    0.7145    2.4656 N   0  0  0  0  0  0  0  0  0  0  0  0
   -1.6971    0.7705    2.0790 H   0  0  0  0  0  0  0  0  0  0  0  0
   -0.5716    1.1232    3.8542 C   0  0  0  0  0  0  0  0  0  0  0  0
    0.3083    1.7643    3.9293 H   0  0  0  0  0  0  0  0  0  0  0  0
   -1.4485    1.6640    4.2131 H   0  0  0  0  0  0  0  0  0  0  0  0
   -0.4137    0.2381    4.4736 H   0  0  0  0  0  0  0  0  0  0  0  0
  5  6  2  0  0  0  0
  5  7  1  0  0  0  0
  2  3  1  0  0  0  0
  2  4  1  0  0  0  0
  2  5  1  0  0  0  0
  1  2  1  0  0  0  0
 20 21  2  0  0  0  0
 20 22  1  0  0  0  0
 17 18  1  0  0  0  0
 17 19  2  0  0  0  0
 14 15  1  0  0  0  0
 14 16  1  0  0  0  0
 14 17  1  0  0  0  0
 11 12  1  0  0  0  0
 11 13  1  0  0  0  0
 11 14  1  0  0  0  0
  9 10  1  0  0  0  0
  9 11  1  0  0  0  0
  9 20  1  0  0  0  0
  7  8  1  0  0  0  0
  7  9  1  0  0  0  0
 24 25  1  0  0  0  0
 24 26  1  0  0  0  0
 24 27  1  0  0  0  0
 22 23  1  0  0  0  0
 22 24  1  0  0  0  0
M  CHG  1  18  -1
M  END
$$$$
default_name
  -OEChem-02102213163D

 27 26  0     1  0  0  0  0  0999 V2000
   -3.2406   -3.5400    1.2326 H   0  0  0  0  0  0  0  0  0  0  0  0
   -3.1436   -2.6190    0.6606 C   0  0  0  0  0  0  0  0  0  0  0  0
   -3.8786   -1.8920    0.9996 H   0  0  0  0  0  0  0  0  0  0  0  0
   -3.2846   -2.8280   -0.3984 H   0  0  0  0  0  0  0  0  0  0  0  0
   -1.7586   -2.0580    0.8686 C   0  0  0  0  0  0  0  0  0  0  0  0
   -0.9666   -2.6340    1.6026 O   0  0  0  0  0  0  0  0  0  0  0  0
   -1.4866   -0.9220    0.2366 N   0  0  0  0  0  0  0  0  0  0  0  0
   -2.2166   -0.4790   -0.2994 H   0  0  0  0  0  0  0  0  0  0  0  0
   -0.1956   -0.2250    0.2596 C   0  0  1  0  0  0  0  0  0  0  0  0
    0.5755   -0.9013   -0.1105 H   0  0  0  0  0  0  0  0  0  0  0  0
   -0.2553    0.9811   -0.6992 C   0  0  0  0  0  0  0  0  0  0  0  0
    0.1901    1.8375   -0.1904 H   0  0  0  0  0  0  0  0  0  0  0  0
    0.3365    0.7632   -1.5894 H   0  0  0  0  0  0  0  0  0  0  0  0
   -1.6854    1.3558   -1.1232 C   0  0  0  0  0  0  0  0  0  0  0  0
   -1.8591    1.0047   -2.1433 H   0  0  0  0  0  0  0  0  0  0  0  0
   -2.3859    0.8363   -0.4640 H   0  0  0  0  0  0  0  0  0  0  0  0
   -1.9626    2.8654   -1.0679 C   0  0  0  0  0  0  0  0  0  0  0  0
   -1.0883    3.6122   -0.5735 O   0  5  0  0  0  0  0  0  0  0  0  0
   -3.0496    3.2543   -1.5501 O   0  0  0  0  0  0  0  0  0  0  0  0
    0.1881    0.1678    1.7015 C   0  0  0  0  0  0  0  0  0  0  0  0
    1.3379    0.0002    2.1133 O   0  0  0  0  0  0  0  0  0  0  0  0
   -0.7666    0.7145    2.4656 N   0  0  0  0  0  0  0  0  0  0  0  0
   -1.6971    0.7705    2.0790 H   0  0  0  0  0  0  0  0  0  0  0  0
   -0.5716    1.1232    3.8542 C   0  0  0  0  0  0  0  0  0  0  0  0
    0.3083    1.7643    3.9293 H   0  0  0  0  0  0  0  0  0  0  0  0
   -1.4485    1.6640    4.2131 H   0  0  0  0  0  0  0  0  0  0  0  0
   -0.4137    0.2381    4.4736 H   0  0  0  0  0  0  0  0  0  0  0  0
  5  6  2  0  0  0  0
  5  7  1  0  0  0  0
  2  3  1  0  0  0  0
  2  4  1  0  0  0  0
  2  5  1  0  0  0  0
  1  2  1  0  0  0  0
 20 21  2  0  0  0  0
 20 22  1  0  0  0  0
 17 18  1  0  0  0  0
 17 19  2  0  0  0  0
 14 15  1  0  0  0  0
 14 16  1  0  0  0  0
 14 17  1  0  0  0  0
 11 12  1  0  0  0  0
 11 13  1  0  0  0  0
 11 14  1  0  0  0  0
  9 10  1  0  0  0  0
  9 11  1  0  0  0  0
  9 20  1  0  0  0  0
  7  8  1  0  0  0  0
  7  9  1  0  0  0  0
 24 25  1  0  0  0  0
 24 26  1  0  0  0  0
 24 27  1  0  0  0  0
 22 23  1  0  0  0  0
 22 24  1  0  0  0  0
M  CHG  1  18  -1
M  END
$$$$
default_name
  -OEChem-02102213163D

 27 26  0     1  0  0  0  0  0999 V2000
   -3.2406   -3.5400    1.2326 H   0  0  0  0  0  0  0  0  0  0  0  0
   -3.1436   -2.6190    0.6606 C   0  0  0  0  0  0  0  0  0  0  0  0
   -3.8786   -1.8920    0.9996 H   0  0  0  0  0  0  0  0  0  0  0  0
   -3.2846   -2.8280   -0.3984 H   0  0  0  0  0  0  0  0  0  0  0  0
   -1.7586   -2.0580    0.8686 C   0  0  0  0  0  0  0  0  0  0  0  0
   -0.9666   -2.6340    1.6026 O   0  0  0  0  0  0  0  0  0  0  0  0
   -1.4866   -0.9220    0.2366 N   0  0  0  0  0  0  0  0  0  0  0  0
   -2.2166   -0.4790   -0.2994 H   0  0  0  0  0  0  0  0  0  0  0  0
   -0.1956   -0.2250    0.2596 C   0  0  1  0  0  0  0  0  0  0  0  0
    0.5755   -0.9013   -0.1105 H   0  0  0  0  0  0  0  0  0  0  0  0
   -0.2553    0.9811   -0.6992 C   0  0  0  0  0  0  0  0  0  0  0  0
    0.1901    1.8375   -0.1904 H   0  0  0  0  0  0  0  0  0  0  0  0
    0.3365    0.7632   -1.5894 H   0  0  0  0  0  0  0  0  0  0  0  0
   -1.6854    1.3558   -1.1232 C   0  0  0  0  0  0  0  0  0  0  0  0
   -1.9539    0.7865   -2.0164 H   0  0  0  0  0  0  0  0  0  0  0  0
   -2.3684    1.0654   -0.3205 H   0  0  0  0  0  0  0  0  0  0  0  0
   -1.8613    2.8522   -1.4213 C   0  0  0  0  0  0  0  0  0  0  0  0
   -0.9080    3.6237   -1.1715 O   0  5  0  0  0  0  0  0  0  0  0  0
   -2.9531    3.1995   -1.9238 O   0  0  0  0  0  0  0  0  0  0  0  0
    0.1881    0.1678    1.7015 C   0  0  0  0  0  0  0  0  0  0  0  0
    1.3379    0.0002    2.1133 O   0  0  0  0  0  0  0  0  0  0  0  0
   -0.7666    0.7145    2.4656 N   0  0  0  0  0  0  0  0  0  0  0  0
   -1.6971    0.7705    2.0790 H   0  0  0  0  0  0  0  0  0  0  0  0
   -0.5716    1.1232    3.8542 C   0  0  0  0  0  0  0  0  0  0  0  0
    0.3083    1.7643    3.9293 H   0  0  0  0  0  0  0  0  0  0  0  0
   -1.4485    1.6640    4.2131 H   0  0  0  0  0  0  0  0  0  0  0  0
   -0.4137    0.2381    4.4736 H   0  0  0  0  0  0  0  0  0  0  0  0
  5  6  2  0  0  0  0
  5  7  1  0  0  0  0
  2  3  1  0  0  0  0
  2  4  1  0  0  0  0
  2  5  1  0  0  0  0
  1  2  1  0  0  0  0
 20 21  2  0  0  0  0
 20 22  1  0  0  0  0
 17 18  1  0  0  0  0
 17 19  2  0  0  0  0
 14 15  1  0  0  0  0
 14 16  1  0  0  0  0
 14 17  1  0  0  0  0
 11 12  1  0  0  0  0
 11 13  1  0  0  0  0
 11 14  1  0  0  0  0
  9 10  1  0  0  0  0
  9 11  1  0  0  0  0
  9 20  1  0  0  0  0
  7  8  1  0  0  0  0
  7  9  1  0  0  0  0
 24 25  1  0  0  0  0
 24 26  1  0  0  0  0
 24 27  1  0  0  0  0
 22 23  1  0  0  0  0
 22 24  1  0  0  0  0
M  CHG  1  18  -1
M  END
$$$$
default_name
  -OEChem-02102213163D

 27 26  0     1  0  0  0  0  0999 V2000
   -3.2406   -3.5400    1.2326 H   0  0  0  0  0  0  0  0  0  0  0  0
   -3.1436   -2.6190    0.6606 C   0  0  0  0  0  0  0  0  0  0  0  0
   -3.8786   -1.8920    0.9996 H   0  0  0  0  0  0  0  0  0  0  0  0
   -3.2846   -2.8280   -0.3984 H   0  0  0  0  0  0  0  0  0  0  0  0
   -1.7586   -2.0580    0.8686 C   0  0  0  0  0  0  0  0  0  0  0  0
   -0.9666   -2.6340    1.6026 O   0  0  0  0  0  0  0  0  0  0  0  0
   -1.4866   -0.9220    0.2366 N   0  0  0  0  0  0  0  0  0  0  0  0
   -2.2166   -0.4790   -0.2994 H   0  0  0  0  0  0  0  0  0  0  0  0
   -0.1956   -0.2250    0.2596 C   0  0  1  0  0  0  0  0  0  0  0  0
    0.5755   -0.9013   -0.1105 H   0  0  0  0  0  0  0  0  0  0  0  0
   -0.2553    0.9811   -0.6992 C   0  0  0  0  0  0  0  0  0  0  0  0
    0.1901    1.8375   -0.1904 H   0  0  0  0  0  0  0  0  0  0  0  0
    0.3365    0.7632   -1.5894 H   0  0  0  0  0  0  0  0  0  0  0  0
   -1.6854    1.3558   -1.1232 C   0  0  0  0  0  0  0  0  0  0  0  0
   -2.0530    0.6131   -1.8354 H   0  0  0  0  0  0  0  0  0  0  0  0
   -2.3261    1.3201   -0.2382 H   0  0  0  0  0  0  0  0  0  0  0  0
   -1.7866    2.7471   -1.7659 C   0  0  0  0  0  0  0  0  0  0  0  0
   -0.7707    3.4780   -1.7632 O   0  5  0  0  0  0  0  0  0  0  0  0
   -2.8874    3.0499   -2.2777 O   0  0  0  0  0  0  0  0  0  0  0  0
    0.1881    0.1678    1.7015 C   0  0  0  0  0  0  0  0  0  0  0  0
    1.3379    0.0002    2.1133 O   0  0  0  0  0  0  0  0  0  0  0  0
   -0.7666    0.7145    2.4656 N   0  0  0  0  0  0  0  0  0  0  0  0
   -1.6971    0.7705    2.0790 H   0  0  0  0  0  0  0  0  0  0  0  0
   -0.5716    1.1232    3.8542 C   0  0  0  0  0  0  0  0  0  0  0  0
    0.3083    1.7643    3.9293 H   0  0  0  0  0  0  0  0  0  0  0  0
   -1.4485    1.6640    4.2131 H   0  0  0  0  0  0  0  0  0  0  0  0
   -0.4137    0.2381    4.4736 H   0  0  0  0  0  0  0  0  0  0  0  0
  5  6  2  0  0  0  0
  5  7  1  0  0  0  0
  2  3  1  0  0  0  0
  2  4  1  0  0  0  0
  2  5  1  0  0  0  0
  1  2  1  0  0  0  0
 20 21  2  0  0  0  0
 20 22  1  0  0  0  0
 17 18  1  0  0  0  0
 17 19  2  0  0  0  0
 14 15  1  0  0  0  0
 14 16  1  0  0  0  0
 14 17  1  0  0  0  0
 11 12  1  0  0  0  0
 11 13  1  0  0  0  0
 11 14  1  0  0  0  0
  9 10  1  0  0  0  0
  9 11  1  0  0  0  0
  9 20  1  0  0  0  0
  7  8  1  0  0  0  0
  7  9  1  0  0  0  0
 24 25  1  0  0  0  0
 24 26  1  0  0  0  0
 24 27  1  0  0  0  0
 22 23  1  0  0  0  0
 22 24  1  0  0  0  0
M  CHG  1  18  -1
M  END
$$$$
default_name
  -OEChem-02102213163D

 27 26  0     1  0  0  0  0  0999 V2000
   -3.2406   -3.5400    1.2326 H   0  0  0  0  0  0  0  0  0  0  0  0
   -3.1436   -2.6190    0.6606 C   0  0  0  0  0  0  0  0  0  0  0  0
   -3.8786   -1.8920    0.9996 H   0  0  0  0  0  0  0  0  0  0  0  0
   -3.2846   -2.8280   -0.3984 H   0  0  0  0  0  0  0  0  0  0  0  0
   -1.7586   -2.0580    0.8686 C   0  0  0  0  0  0  0  0  0  0  0  0
   -0.9666   -2.6340    1.6026 O   0  0  0  0  0  0  0  0  0  0  0  0
   -1.4866   -0.9220    0.2366 N   0  0  0  0  0  0  0  0  0  0  0  0
   -2.2166   -0.4790   -0.2994 H   0  0  0  0  0  0  0  0  0  0  0  0
   -0.1956   -0.2250    0.2596 C   0  0  1  0  0  0  0  0  0  0  0  0
    0.5755   -0.9013   -0.1105 H   0  0  0  0  0  0  0  0  0  0  0  0
   -0.2553    0.9811   -0.6992 C   0  0  0  0  0  0  0  0  0  0  0  0
    0.4153    1.7507   -0.3136 H   0  0  0  0  0  0  0  0  0  0  0  0
    0.1005    0.6760   -1.6843 H   0  0  0  0  0  0  0  0  0  0  0  0
   -1.6631    1.5852   -0.8360 C   0  0  0  0  0  0  0  0  0  0  0  0
   -2.3485    0.8154   -1.1986 H   0  0  0  0  0  0  0  0  0  0  0  0
   -2.0005    1.8968    0.1561 H   0  0  0  0  0  0  0  0  0  0  0  0
   -1.7214    2.7865   -1.7912 C   0  0  0  0  0  0  0  0  0  0  0  0
   -0.6458    3.2362   -2.2465 O   0  5  0  0  0  0  0  0  0  0  0  0
   -2.8590    3.2249   -2.0724 O   0  0  0  0  0  0  0  0  0  0  0  0
    0.1881    0.1678    1.7015 C   0  0  0  0  0  0  0  0  0  0  0  0
    1.3379    0.0002    2.1133 O   0  0  0  0  0  0  0  0  0  0  0  0
   -0.7666    0.7145    2.4656 N   0  0  0  0  0  0  0  0  0  0  0  0
   -1.6971    0.7705    2.0790 H   0  0  0  0  0  0  0  0  0  0  0  0
   -0.5716    1.1232    3.8542 C   0  0  0  0  0  0  0  0  0  0  0  0
    0.3083    1.7643    3.9293 H   0  0  0  0  0  0  0  0  0  0  0  0
   -1.4485    1.6640    4.2131 H   0  0  0  0  0  0  0  0  0  0  0  0
   -0.4137    0.2381    4.4736 H   0  0  0  0  0  0  0  0  0  0  0  0
  5  6  2  0  0  0  0
  5  7  1  0  0  0  0
  2  3  1  0  0  0  0
  2  4  1  0  0  0  0
  2  5  1  0  0  0  0
  1  2  1  0  0  0  0
 20 21  2  0  0  0  0
 20 22  1  0  0  0  0
 17 18  1  0  0  0  0
 17 19  2  0  0  0  0
 14 15  1  0  0  0  0
 14 16  1  0  0  0  0
 14 17  1  0  0  0  0
 11 12  1  0  0  0  0
 11 13  1  0  0  0  0
 11 14  1  0  0  0  0
  9 10  1  0  0  0  0
  9 11  1  0  0  0  0
  9 20  1  0  0  0  0
  7  8  1  0  0  0  0
  7  9  1  0  0  0  0
 24 25  1  0  0  0  0
 24 26  1  0  0  0  0
 24 27  1  0  0  0  0
 22 23  1  0  0  0  0
 22 24  1  0  0  0  0
M  CHG  1  18  -1
M  END
$$$$
default_name
  -OEChem-02102213163D

 27 26  0     1  0  0  0  0  0999 V2000
   -3.2406   -3.5400    1.2326 H   0  0  0  0  0  0  0  0  0  0  0  0
   -3.1436   -2.6190    0.6606 C   0  0  0  0  0  0  0  0  0  0  0  0
   -3.8786   -1.8920    0.9996 H   0  0  0  0  0  0  0  0  0  0  0  0
   -3.2846   -2.8280   -0.3984 H   0  0  0  0  0  0  0  0  0  0  0  0
   -1.7586   -2.0580    0.8686 C   0  0  0  0  0  0  0  0  0  0  0  0
   -0.9666   -2.6340    1.6026 O   0  0  0  0  0  0  0  0  0  0  0  0
   -1.4866   -0.9220    0.2366 N   0  0  0  0  0  0  0  0  0  0  0  0
   -2.2166   -0.4790   -0.2994 H   0  0  0  0  0  0  0  0  0  0  0  0
   -0.1956   -0.2250    0.2596 C   0  0  1  0  0  0  0  0  0  0  0  0
    0.5755   -0.9013   -0.1105 H   0  0  0  0  0  0  0  0  0  0  0  0
   -0.2553    0.9811   -0.6992 C   0  0  0  0  0  0  0  0  0  0  0  0
    0.4153    1.7507   -0.3136 H   0  0  0  0  0  0  0  0  0  0  0  0
    0.1005    0.6760   -1.6843 H   0  0  0  0  0  0  0  0  0  0  0  0
   -1.6631    1.5852   -0.8360 C   0  0  0  0  0  0  0  0  0  0  0  0
   -2.3909    0.7763   -0.9353 H   0  0  0  0  0  0  0  0  0  0  0  0
   -1.8917    2.1336    0.0817 H   0  0  0  0  0  0  0  0  0  0  0  0
   -1.8079    2.5288   -2.0391 C   0  0  0  0  0  0  0  0  0  0  0  0
   -0.7809    2.8203   -2.6925 O   0  5  0  0  0  0  0  0  0  0  0  0
   -2.9638    2.9284   -2.3028 O   0  0  0  0  0  0  0  0  0  0  0  0
    0.1881    0.1678    1.7015 C   0  0  0  0  0  0  0  0  0  0  0  0
    1.3379    0.0002    2.1133 O   0  0  0  0  0  0  0  0  0  0  0  0
   -0.7666    0.7145    2.4656 N   0  0  0  0  0  0  0  0  0  0  0  0
   -1.6971    0.7705    2.0790 H   0  0  0  0  0  0  0  0  0  0  0  0
   -0.5716    1.1232    3.8542 C   0  0  0  0  0  0  0  0  0  0  0  0
    0.3083    1.7643    3.9293 H   0  0  0  0  0  0  0  0  0  0  0  0
   -1.4485    1.6640    4.2131 H   0  0  0  0  0  0  0  0  0  0  0  0
   -0.4137    0.2381    4.4736 H   0  0  0  0  0  0  0  0  0  0  0  0
  5  6  2  0  0  0  0
  5  7  1  0  0  0  0
  2  3  1  0  0  0  0
  2  4  1  0  0  0  0
  2  5  1  0  0  0  0
  1  2  1  0  0  0  0
 20 21  2  0  0  0  0
 20 22  1  0  0  0  0
 17 18  1  0  0  0  0
 17 19  2  0  0  0  0
 14 15  1  0  0  0  0
 14 16  1  0  0  0  0
 14 17  1  0  0  0  0
 11 12  1  0  0  0  0
 11 13  1  0  0  0  0
 11 14  1  0  0  0  0
  9 10  1  0  0  0  0
  9 11  1  0  0  0  0
  9 20  1  0  0  0  0
  7  8  1  0  0  0  0
  7  9  1  0  0  0  0
 24 25  1  0  0  0  0
 24 26  1  0  0  0  0
 24 27  1  0  0  0  0
 22 23  1  0  0  0  0
 22 24  1  0  0  0  0
M  CHG  1  18  -1
M  END
$$$$
default_name
  -OEChem-02102213163D

 27 26  0     1  0  0  0  0  0999 V2000
   -3.2406   -3.5400    1.2326 H   0  0  0  0  0  0  0  0  0  0  0  0
   -3.1436   -2.6190    0.6606 C   0  0  0  0  0  0  0  0  0  0  0  0
   -3.8786   -1.8920    0.9996 H   0  0  0  0  0  0  0  0  0  0  0  0
   -3.2846   -2.8280   -0.3984 H   0  0  0  0  0  0  0  0  0  0  0  0
   -1.7586   -2.0580    0.8686 C   0  0  0  0  0  0  0  0  0  0  0  0
   -0.9666   -2.6340    1.6026 O   0  0  0  0  0  0  0  0  0  0  0  0
   -1.4866   -0.9220    0.2366 N   0  0  0  0  0  0  0  0  0  0  0  0
   -2.2166   -0.4790   -0.2994 H   0  0  0  0  0  0  0  0  0  0  0  0
   -0.1956   -0.2250    0.2596 C   0  0  1  0  0  0  0  0  0  0  0  0
    0.5755   -0.9013   -0.1105 H   0  0  0  0  0  0  0  0  0  0  0  0
   -0.2553    0.9811   -0.6992 C   0  0  0  0  0  0  0  0  0  0  0  0
    0.4153    1.7507   -0.3136 H   0  0  0  0  0  0  0  0  0  0  0  0
    0.1005    0.6760   -1.6843 H   0  0  0  0  0  0  0  0  0  0  0  0
   -1.6631    1.5852   -0.8360 C   0  0  0  0  0  0  0  0  0  0  0  0
   -2.4059    0.8019   -0.6674 H   0  0  0  0  0  0  0  0  0  0  0  0
   -1.7887    2.3422   -0.0573 H   0  0  0  0  0  0  0  0  0  0  0  0
   -1.9226    2.2231   -2.2088 C   0  0  0  0  0  0  0  0  0  0  0  0
   -0.9664    2.3160   -3.0110 O   0  5  0  0  0  0  0  0  0  0  0  0
   -3.0953    2.5898   -2.4443 O   0  0  0  0  0  0  0  0  0  0  0  0
    0.1881    0.1678    1.7015 C   0  0  0  0  0  0  0  0  0  0  0  0
    1.3379    0.0002    2.1133 O   0  0  0  0  0  0  0  0  0  0  0  0
   -0.7666    0.7145    2.4656 N   0  0  0  0  0  0  0  0  0  0  0  0
   -1.6971    0.7705    2.0790 H   0  0  0  0  0  0  0  0  0  0  0  0
   -0.5716    1.1232    3.8542 C   0  0  0  0  0  0  0  0  0  0  0  0
    0.3083    1.7643    3.9293 H   0  0  0  0  0  0  0  0  0  0  0  0
   -1.4485    1.6640    4.2131 H   0  0  0  0  0  0  0  0  0  0  0  0
   -0.4137    0.2381    4.4736 H   0  0  0  0  0  0  0  0  0  0  0  0
  5  6  2  0  0  0  0
  5  7  1  0  0  0  0
  2  3  1  0  0  0  0
  2  4  1  0  0  0  0
  2  5  1  0  0  0  0
  1  2  1  0  0  0  0
 20 21  2  0  0  0  0
 20 22  1  0  0  0  0
 17 18  1  0  0  0  0
 17 19  2  0  0  0  0
 14 15  1  0  0  0  0
 14 16  1  0  0  0  0
 14 17  1  0  0  0  0
 11 12  1  0  0  0  0
 11 13  1  0  0  0  0
 11 14  1  0  0  0  0
  9 10  1  0  0  0  0
  9 11  1  0  0  0  0
  9 20  1  0  0  0  0
  7  8  1  0  0  0  0
  7  9  1  0  0  0  0
 24 25  1  0  0  0  0
 24 26  1  0  0  0  0
 24 27  1  0  0  0  0
 22 23  1  0  0  0  0
 22 24  1  0  0  0  0
M  CHG  1  18  -1
M  END
$$$$
default_name
  -OEChem-02102213163D

 27 26  0     1  0  0  0  0  0999 V2000
   -3.2406   -3.5400    1.2326 H   0  0  0  0  0  0  0  0  0  0  0  0
   -3.1436   -2.6190    0.6606 C   0  0  0  0  0  0  0  0  0  0  0  0
   -3.8786   -1.8920    0.9996 H   0  0  0  0  0  0  0  0  0  0  0  0
   -3.2846   -2.8280   -0.3984 H   0  0  0  0  0  0  0  0  0  0  0  0
   -1.7586   -2.0580    0.8686 C   0  0  0  0  0  0  0  0  0  0  0  0
   -0.9666   -2.6340    1.6026 O   0  0  0  0  0  0  0  0  0  0  0  0
   -1.4866   -0.9220    0.2366 N   0  0  0  0  0  0  0  0  0  0  0  0
   -2.2166   -0.4790   -0.2994 H   0  0  0  0  0  0  0  0  0  0  0  0
   -0.1956   -0.2250    0.2596 C   0  0  1  0  0  0  0  0  0  0  0  0
    0.5755   -0.9013   -0.1105 H   0  0  0  0  0  0  0  0  0  0  0  0
   -0.2553    0.9811   -0.6992 C   0  0  0  0  0  0  0  0  0  0  0  0
    0.4153    1.7507   -0.3136 H   0  0  0  0  0  0  0  0  0  0  0  0
    0.1005    0.6760   -1.6843 H   0  0  0  0  0  0  0  0  0  0  0  0
   -1.6631    1.5852   -0.8360 C   0  0  0  0  0  0  0  0  0  0  0  0
   -2.3927    0.8904   -0.4131 H   0  0  0  0  0  0  0  0  0  0  0  0
   -1.6985    2.5083   -0.2514 H   0  0  0  0  0  0  0  0  0  0  0  0
   -2.0577    1.8903   -2.2886 C   0  0  0  0  0  0  0  0  0  0  0  0
   -1.1895    1.7577   -3.1804 O   0  5  0  0  0  0  0  0  0  0  0  0
   -3.2446    2.2323   -2.4875 O   0  0  0  0  0  0  0  0  0  0  0  0
    0.1881    0.1678    1.7015 C   0  0  0  0  0  0  0  0  0  0  0  0
    1.3379    0.0002    2.1133 O   0  0  0  0  0  0  0  0  0  0  0  0
   -0.7666    0.7145    2.4656 N   0  0  0  0  0  0  0  0  0  0  0  0
   -1.6971    0.7705    2.0790 H   0  0  0  0  0  0  0  0  0  0  0  0
   -0.5716    1.1232    3.8542 C   0  0  0  0  0  0  0  0  0  0  0  0
    0.3083    1.7643    3.9293 H   0  0  0  0  0  0  0  0  0  0  0  0
   -1.4485    1.6640    4.2131 H   0  0  0  0  0  0  0  0  0  0  0  0
   -0.4137    0.2381    4.4736 H   0  0  0  0  0  0  0  0  0  0  0  0
  5  6  2  0  0  0  0
  5  7  1  0  0  0  0
  2  3  1  0  0  0  0
  2  4  1  0  0  0  0
  2  5  1  0  0  0  0
  1  2  1  0  0  0  0
 20 21  2  0  0  0  0
 20 22  1  0  0  0  0
 17 18  1  0  0  0  0
 17 19  2  0  0  0  0
 14 15  1  0  0  0  0
 14 16  1  0  0  0  0
 14 17  1  0  0  0  0
 11 12  1  0  0  0  0
 11 13  1  0  0  0  0
 11 14  1  0  0  0  0
  9 10  1  0  0  0  0
  9 11  1  0  0  0  0
  9 20  1  0  0  0  0
  7  8  1  0  0  0  0
  7  9  1  0  0  0  0
 24 25  1  0  0  0  0
 24 26  1  0  0  0  0
 24 27  1  0  0  0  0
 22 23  1  0  0  0  0
 22 24  1  0  0  0  0
M  CHG  1  18  -1
M  END
$$$$
default_name
  -OEChem-02102213163D

 27 26  0     1  0  0  0  0  0999 V2000
   -3.2406   -3.5400    1.2326 H   0  0  0  0  0  0  0  0  0  0  0  0
   -3.1436   -2.6190    0.6606 C   0  0  0  0  0  0  0  0  0  0  0  0
   -3.8786   -1.8920    0.9996 H   0  0  0  0  0  0  0  0  0  0  0  0
   -3.2846   -2.8280   -0.3984 H   0  0  0  0  0  0  0  0  0  0  0  0
   -1.7586   -2.0580    0.8686 C   0  0  0  0  0  0  0  0  0  0  0  0
   -0.9666   -2.6340    1.6026 O   0  0  0  0  0  0  0  0  0  0  0  0
   -1.4866   -0.9220    0.2366 N   0  0  0  0  0  0  0  0  0  0  0  0
   -2.2166   -0.4790   -0.2994 H   0  0  0  0  0  0  0  0  0  0  0  0
   -0.1956   -0.2250    0.2596 C   0  0  1  0  0  0  0  0  0  0  0  0
    0.5755   -0.9013   -0.1105 H   0  0  0  0  0  0  0  0  0  0  0  0
   -0.2553    0.9811   -0.6992 C   0  0  0  0  0  0  0  0  0  0  0  0
    0.4153    1.7507   -0.3136 H   0  0  0  0  0  0  0  0  0  0  0  0
    0.1005    0.6760   -1.6843 H   0  0  0  0  0  0  0  0  0  0  0  0
   -1.6631    1.5852   -0.8360 C   0  0  0  0  0  0  0  0  0  0  0  0
   -2.3519    1.0359   -0.1898 H   0  0  0  0  0  0  0  0  0  0  0  0
   -1.6273    2.6208   -0.4874 H   0  0  0  0  0  0  0  0  0  0  0  0
   -2.2039    1.5531   -2.2731 C   0  0  0  0  0  0  0  0  0  0  0  0
   -1.4351    1.1834   -3.1890 O   0  5  0  0  0  0  0  0  0  0  0  0
   -3.4013    1.8802   -2.4294 O   0  0  0  0  0  0  0  0  0  0  0  0
    0.1881    0.1678    1.7015 C   0  0  0  0  0  0  0  0  0  0  0  0
    1.3379    0.0002    2.1133 O   0  0  0  0  0  0  0  0  0  0  0  0
   -0.7666    0.7145    2.4656 N   0  0  0  0  0  0  0  0  0  0  0  0
   -1.6971    0.7705    2.0790 H   0  0  0  0  0  0  0  0  0  0  0  0
   -0.5716    1.1232    3.8542 C   0  0  0  0  0  0  0  0  0  0  0  0
    0.3083    1.7643    3.9293 H   0  0  0  0  0  0  0  0  0  0  0  0
   -1.4485    1.6640    4.2131 H   0  0  0  0  0  0  0  0  0  0  0  0
   -0.4137    0.2381    4.4736 H   0  0  0  0  0  0  0  0  0  0  0  0
  5  6  2  0  0  0  0
  5  7  1  0  0  0  0
  2  3  1  0  0  0  0
  2  4  1  0  0  0  0
  2  5  1  0  0  0  0
  1  2  1  0  0  0  0
 20 21  2  0  0  0  0
 20 22  1  0  0  0  0
 17 18  1  0  0  0  0
 17 19  2  0  0  0  0
 14 15  1  0  0  0  0
 14 16  1  0  0  0  0
 14 17  1  0  0  0  0
 11 12  1  0  0  0  0
 11 13  1  0  0  0  0
 11 14  1  0  0  0  0
  9 10  1  0  0  0  0
  9 11  1  0  0  0  0
  9 20  1  0  0  0  0
  7  8  1  0  0  0  0
  7  9  1  0  0  0  0
 24 25  1  0  0  0  0
 24 26  1  0  0  0  0
 24 27  1  0  0  0  0
 22 23  1  0  0  0  0
 22 24  1  0  0  0  0
M  CHG  1  18  -1
M  END
$$$$
default_name
  -OEChem-02102213163D

 27 26  0     1  0  0  0  0  0999 V2000
   -3.2406   -3.5400    1.2326 H   0  0  0  0  0  0  0  0  0  0  0  0
   -3.1436   -2.6190    0.6606 C   0  0  0  0  0  0  0  0  0  0  0  0
   -3.8786   -1.8920    0.9996 H   0  0  0  0  0  0  0  0  0  0  0  0
   -3.2846   -2.8280   -0.3984 H   0  0  0  0  0  0  0  0  0  0  0  0
   -1.7586   -2.0580    0.8686 C   0  0  0  0  0  0  0  0  0  0  0  0
   -0.9666   -2.6340    1.6026 O   0  0  0  0  0  0  0  0  0  0  0  0
   -1.4866   -0.9220    0.2366 N   0  0  0  0  0  0  0  0  0  0  0  0
   -2.2166   -0.4790   -0.2994 H   0  0  0  0  0  0  0  0  0  0  0  0
   -0.1956   -0.2250    0.2596 C   0  0  1  0  0  0  0  0  0  0  0  0
    0.5755   -0.9013   -0.1105 H   0  0  0  0  0  0  0  0  0  0  0  0
   -0.2553    0.9811   -0.6992 C   0  0  0  0  0  0  0  0  0  0  0  0
    0.4153    1.7507   -0.3136 H   0  0  0  0  0  0  0  0  0  0  0  0
    0.1005    0.6760   -1.6843 H   0  0  0  0  0  0  0  0  0  0  0  0
   -1.6631    1.5852   -0.8360 C   0  0  0  0  0  0  0  0  0  0  0  0
   -2.2866    1.2283   -0.0127 H   0  0  0  0  0  0  0  0  0  0  0  0
   -1.5800    2.6718   -0.7493 H   0  0  0  0  0  0  0  0  0  0  0  0
   -2.3513    1.2343   -2.1634 C   0  0  0  0  0  0  0  0  0  0  0  0
   -1.6864    0.6323   -3.0363 O   0  5  0  0  0  0  0  0  0  0  0  0
   -3.5550    1.5574   -2.2738 O   0  0  0  0  0  0  0  0  0  0  0  0
    0.1881    0.1678    1.7015 C   0  0  0  0  0  0  0  0  0  0  0  0
    1.3379    0.0002    2.1133 O   0  0  0  0  0  0  0  0  0  0  0  0
   -0.7666    0.7145    2.4656 N   0  0  0  0  0  0  0  0  0  0  0  0
   -1.6971    0.7705    2.0790 H   0  0  0  0  0  0  0  0  0  0  0  0
   -0.5716    1.1232    3.8542 C   0  0  0  0  0  0  0  0  0  0  0  0
    0.3083    1.7643    3.9293 H   0  0  0  0  0  0  0  0  0  0  0  0
   -1.4485    1.6640    4.2131 H   0  0  0  0  0  0  0  0  0  0  0  0
   -0.4137    0.2381    4.4736 H   0  0  0  0  0  0  0  0  0  0  0  0
  5  6  2  0  0  0  0
  5  7  1  0  0  0  0
  2  3  1  0  0  0  0
  2  4  1  0  0  0  0
  2  5  1  0  0  0  0
  1  2  1  0  0  0  0
 20 21  2  0  0  0  0
 20 22  1  0  0  0  0
 17 18  1  0  0  0  0
 17 19  2  0  0  0  0
 14 15  1  0  0  0  0
 14 16  1  0  0  0  0
 14 17  1  0  0  0  0
 11 12  1  0  0  0  0
 11 13  1  0  0  0  0
 11 14  1  0  0  0  0
  9 10  1  0  0  0  0
  9 11  1  0  0  0  0
  9 20  1  0  0  0  0
  7  8  1  0  0  0  0
  7  9  1  0  0  0  0
 24 25  1  0  0  0  0
 24 26  1  0  0  0  0
 24 27  1  0  0  0  0
 22 23  1  0  0  0  0
 22 24  1  0  0  0  0
M  CHG  1  18  -1
M  END
$$$$
default_name
  -OEChem-02102213163D

 27 26  0     1  0  0  0  0  0999 V2000
   -3.2406   -3.5400    1.2326 H   0  0  0  0  0  0  0  0  0  0  0  0
   -3.1436   -2.6190    0.6606 C   0  0  0  0  0  0  0  0  0  0  0  0
   -3.8786   -1.8920    0.9996 H   0  0  0  0  0  0  0  0  0  0  0  0
   -3.2846   -2.8280   -0.3984 H   0  0  0  0  0  0  0  0  0  0  0  0
   -1.7586   -2.0580    0.8686 C   0  0  0  0  0  0  0  0  0  0  0  0
   -0.9666   -2.6340    1.6026 O   0  0  0  0  0  0  0  0  0  0  0  0
   -1.4866   -0.9220    0.2366 N   0  0  0  0  0  0  0  0  0  0  0  0
   -2.2166   -0.4790   -0.2994 H   0  0  0  0  0  0  0  0  0  0  0  0
   -0.1956   -0.2250    0.2596 C   0  0  1  0  0  0  0  0  0  0  0  0
    0.5755   -0.9013   -0.1105 H   0  0  0  0  0  0  0  0  0  0  0  0
   -0.2553    0.9811   -0.6992 C   0  0  0  0  0  0  0  0  0  0  0  0
    0.4153    1.7507   -0.3136 H   0  0  0  0  0  0  0  0  0  0  0  0
    0.1005    0.6760   -1.6843 H   0  0  0  0  0  0  0  0  0  0  0  0
   -1.6631    1.5852   -0.8360 C   0  0  0  0  0  0  0  0  0  0  0  0
   -2.2010    1.4546    0.1061 H   0  0  0  0  0  0  0  0  0  0  0  0
   -1.5597    2.6580   -1.0191 H   0  0  0  0  0  0  0  0  0  0  0  0
   -2.4899    0.9558   -1.9669 C   0  0  0  0  0  0  0  0  0  0  0  0
   -1.9264    0.1419   -2.7328 O   0  5  0  0  0  0  0  0  0  0  0  0
   -3.6950    1.2860   -2.0315 O   0  0  0  0  0  0  0  0  0  0  0  0
    0.1881    0.1678    1.7015 C   0  0  0  0  0  0  0  0  0  0  0  0
    1.3379    0.0002    2.1133 O   0  0  0  0  0  0  0  0  0  0  0  0
   -0.7666    0.7145    2.4656 N   0  0  0  0  0  0  0  0  0  0  0  0
   -1.6971    0.7705    2.0790 H   0  0  0  0  0  0  0  0  0  0  0  0
   -0.5716    1.1232    3.8542 C   0  0  0  0  0  0  0  0  0  0  0  0
    0.3083    1.7643    3.9293 H   0  0  0  0  0  0  0  0  0  0  0  0
   -1.4485    1.6640    4.2131 H   0  0  0  0  0  0  0  0  0  0  0  0
   -0.4137    0.2381    4.4736 H   0  0  0  0  0  0  0  0  0  0  0  0
  5  6  2  0  0  0  0
  5  7  1  0  0  0  0
  2  3  1  0  0  0  0
  2  4  1  0  0  0  0
  2  5  1  0  0  0  0
  1  2  1  0  0  0  0
 20 21  2  0  0  0  0
 20 22  1  0  0  0  0
 17 18  1  0  0  0  0
 17 19  2  0  0  0  0
 14 15  1  0  0  0  0
 14 16  1  0  0  0  0
 14 17  1  0  0  0  0
 11 12  1  0  0  0  0
 11 13  1  0  0  0  0
 11 14  1  0  0  0  0
  9 10  1  0  0  0  0
  9 11  1  0  0  0  0
  9 20  1  0  0  0  0
  7  8  1  0  0  0  0
  7  9  1  0  0  0  0
 24 25  1  0  0  0  0
 24 26  1  0  0  0  0
 24 27  1  0  0  0  0
 22 23  1  0  0  0  0
 22 24  1  0  0  0  0
M  CHG  1  18  -1
M  END
$$$$
default_name
  -OEChem-02102213163D

 27 26  0     1  0  0  0  0  0999 V2000
   -3.2406   -3.5400    1.2326 H   0  0  0  0  0  0  0  0  0  0  0  0
   -3.1436   -2.6190    0.6606 C   0  0  0  0  0  0  0  0  0  0  0  0
   -3.8786   -1.8920    0.9996 H   0  0  0  0  0  0  0  0  0  0  0  0
   -3.2846   -2.8280   -0.3984 H   0  0  0  0  0  0  0  0  0  0  0  0
   -1.7586   -2.0580    0.8686 C   0  0  0  0  0  0  0  0  0  0  0  0
   -0.9666   -2.6340    1.6026 O   0  0  0  0  0  0  0  0  0  0  0  0
   -1.4866   -0.9220    0.2366 N   0  0  0  0  0  0  0  0  0  0  0  0
   -2.2166   -0.4790   -0.2994 H   0  0  0  0  0  0  0  0  0  0  0  0
   -0.1956   -0.2250    0.2596 C   0  0  1  0  0  0  0  0  0  0  0  0
    0.5755   -0.9013   -0.1105 H   0  0  0  0  0  0  0  0  0  0  0  0
   -0.2553    0.9811   -0.6992 C   0  0  0  0  0  0  0  0  0  0  0  0
    0.4153    1.7507   -0.3136 H   0  0  0  0  0  0  0  0  0  0  0  0
    0.1005    0.6760   -1.6843 H   0  0  0  0  0  0  0  0  0  0  0  0
   -1.6631    1.5852   -0.8360 C   0  0  0  0  0  0  0  0  0  0  0  0
   -2.1010    1.6994    0.1585 H   0  0  0  0  0  0  0  0  0  0  0  0
   -1.5678    2.5803   -1.2786 H   0  0  0  0  0  0  0  0  0  0  0  0
   -2.6103    0.7365   -1.6971 C   0  0  0  0  0  0  0  0  0  0  0  0
   -2.1386   -0.2543   -2.2990 O   0  5  0  0  0  0  0  0  0  0  0  0
   -3.8118    1.0845   -1.7189 O   0  0  0  0  0  0  0  0  0  0  0  0
    0.1881    0.1678    1.7015 C   0  0  0  0  0  0  0  0  0  0  0  0
    1.3379    0.0002    2.1133 O   0  0  0  0  0  0  0  0  0  0  0  0
   -0.7666    0.7145    2.4656 N   0  0  0  0  0  0  0  0  0  0  0  0
   -1.6971    0.7705    2.0790 H   0  0  0  0  0  0  0  0  0  0  0  0
   -0.5716    1.1232    3.8542 C   0  0  0  0  0  0  0  0  0  0  0  0
    0.3083    1.7643    3.9293 H   0  0  0  0  0  0  0  0  0  0  0  0
   -1.4485    1.6640    4.2131 H   0  0  0  0  0  0  0  0  0  0  0  0
   -0.4137    0.2381    4.4736 H   0  0  0  0  0  0  0  0  0  0  0  0
  5  6  2  0  0  0  0
  5  7  1  0  0  0  0
  2  3  1  0  0  0  0
  2  4  1  0  0  0  0
  2  5  1  0  0  0  0
  1  2  1  0  0  0  0
 20 21  2  0  0  0  0
 20 22  1  0  0  0  0
 17 18  1  0  0  0  0
 17 19  2  0  0  0  0
 14 15  1  0  0  0  0
 14 16  1  0  0  0  0
 14 17  1  0  0  0  0
 11 12  1  0  0  0  0
 11 13  1  0  0  0  0
 11 14  1  0  0  0  0
  9 10  1  0  0  0  0
  9 11  1  0  0  0  0
  9 20  1  0  0  0  0
  7  8  1  0  0  0  0
  7  9  1  0  0  0  0
 24 25  1  0  0  0  0
 24 26  1  0  0  0  0
 24 27  1  0  0  0  0
 22 23  1  0  0  0  0
 22 24  1  0  0  0  0
M  CHG  1  18  -1
M  END
$$$$
default_name
  -OEChem-02102213163D

 27 26  0     1  0  0  0  0  0999 V2000
   -3.2406   -3.5400    1.2326 H   0  0  0  0  0  0  0  0  0  0  0  0
   -3.1436   -2.6190    0.6606 C   0  0  0  0  0  0  0  0  0  0  0  0
   -3.8786   -1.8920    0.9996 H   0  0  0  0  0  0  0  0  0  0  0  0
   -3.2846   -2.8280   -0.3984 H   0  0  0  0  0  0  0  0  0  0  0  0
   -1.7586   -2.0580    0.8686 C   0  0  0  0  0  0  0  0  0  0  0  0
   -0.9666   -2.6340    1.6026 O   0  0  0  0  0  0  0  0  0  0  0  0
   -1.4866   -0.9220    0.2366 N   0  0  0  0  0  0  0  0  0  0  0  0
   -2.2166   -0.4790   -0.2994 H   0  0  0  0  0  0  0  0  0  0  0  0
   -0.1956   -0.2250    0.2596 C   0  0  1  0  0  0  0  0  0  0  0  0
    0.5755   -0.9013   -0.1105 H   0  0  0  0  0  0  0  0  0  0  0  0
   -0.2553    0.9811   -0.6992 C   0  0  0  0  0  0  0  0  0  0  0  0
    0.4153    1.7507   -0.3136 H   0  0  0  0  0  0  0  0  0  0  0  0
    0.1005    0.6760   -1.6843 H   0  0  0  0  0  0  0  0  0  0  0  0
   -1.6631    1.5852   -0.8360 C   0  0  0  0  0  0  0  0  0  0  0  0
   -1.9935    1.9460    0.1410 H   0  0  0  0  0  0  0  0  0  0  0  0
   -1.6038    2.4439   -1.5100 H   0  0  0  0  0  0  0  0  0  0  0  0
   -2.7041    0.5915   -1.3722 C   0  0  0  0  0  0  0  0  0  0  0  0
   -2.3085   -0.5293   -1.7645 O   0  5  0  0  0  0  0  0  0  0  0  0
   -3.8975    0.9666   -1.3574 O   0  0  0  0  0  0  0  0  0  0  0  0
    0.1881    0.1678    1.7015 C   0  0  0  0  0  0  0  0  0  0  0  0
    1.3379    0.0002    2.1133 O   0  0  0  0  0  0  0  0  0  0  0  0
   -0.7666    0.7145    2.4656 N   0  0  0  0  0  0  0  0  0  0  0  0
   -1.6971    0.7705    2.0790 H   0  0  0  0  0  0  0  0  0  0  0  0
   -0.5716    1.1232    3.8542 C   0  0  0  0  0  0  0  0  0  0  0  0
    0.3083    1.7643    3.9293 H   0  0  0  0  0  0  0  0  0  0  0  0
   -1.4485    1.6640    4.2131 H   0  0  0  0  0  0  0  0  0  0  0  0
   -0.4137    0.2381    4.4736 H   0  0  0  0  0  0  0  0  0  0  0  0
  5  6  2  0  0  0  0
  5  7  1  0  0  0  0
  2  3  1  0  0  0  0
  2  4  1  0  0  0  0
  2  5  1  0  0  0  0
  1  2  1  0  0  0  0
 20 21  2  0  0  0  0
 20 22  1  0  0  0  0
 17 18  1  0  0  0  0
 17 19  2  0  0  0  0
 14 15  1  0  0  0  0
 14 16  1  0  0  0  0
 14 17  1  0  0  0  0
 11 12  1  0  0  0  0
 11 13  1  0  0  0  0
 11 14  1  0  0  0  0
  9 10  1  0  0  0  0
  9 11  1  0  0  0  0
  9 20  1  0  0  0  0
  7  8  1  0  0  0  0
  7  9  1  0  0  0  0
 24 25  1  0  0  0  0
 24 26  1  0  0  0  0
 24 27  1  0  0  0  0
 22 23  1  0  0  0  0
 22 24  1  0  0  0  0
M  CHG  1  18  -1
M  END
$$$$
default_name
  -OEChem-02102213163D

 27 26  0     1  0  0  0  0  0999 V2000
   -3.2406   -3.5400    1.2326 H   0  0  0  0  0  0  0  0  0  0  0  0
   -3.1436   -2.6190    0.6606 C   0  0  0  0  0  0  0  0  0  0  0  0
   -3.8786   -1.8920    0.9996 H   0  0  0  0  0  0  0  0  0  0  0  0
   -3.2846   -2.8280   -0.3984 H   0  0  0  0  0  0  0  0  0  0  0  0
   -1.7586   -2.0580    0.8686 C   0  0  0  0  0  0  0  0  0  0  0  0
   -0.9666   -2.6340    1.6026 O   0  0  0  0  0  0  0  0  0  0  0  0
   -1.4866   -0.9220    0.2366 N   0  0  0  0  0  0  0  0  0  0  0  0
   -2.2166   -0.4790   -0.2994 H   0  0  0  0  0  0  0  0  0  0  0  0
   -0.1956   -0.2250    0.2596 C   0  0  1  0  0  0  0  0  0  0  0  0
    0.5755   -0.9013   -0.1105 H   0  0  0  0  0  0  0  0  0  0  0  0
   -0.2553    0.9811   -0.6992 C   0  0  0  0  0  0  0  0  0  0  0  0
    0.4153    1.7507   -0.3136 H   0  0  0  0  0  0  0  0  0  0  0  0
    0.1005    0.6760   -1.6843 H   0  0  0  0  0  0  0  0  0  0  0  0
   -1.6631    1.5852   -0.8360 C   0  0  0  0  0  0  0  0  0  0  0  0
   -1.8858    2.1776    0.0548 H   0  0  0  0  0  0  0  0  0  0  0  0
   -1.6653    2.2582   -1.6975 H   0  0  0  0  0  0  0  0  0  0  0  0
   -2.7651    0.5304   -1.0145 C   0  0  0  0  0  0  0  0  0  0  0  0
   -2.4247   -0.6645   -1.1658 O   0  5  0  0  0  0  0  0  0  0  0  0
   -3.9463    0.9404   -0.9715 O   0  0  0  0  0  0  0  0  0  0  0  0
    0.1881    0.1678    1.7015 C   0  0  0  0  0  0  0  0  0  0  0  0
    1.3379    0.0002    2.1133 O   0  0  0  0  0  0  0  0  0  0  0  0
   -0.7666    0.7145    2.4656 N   0  0  0  0  0  0  0  0  0  0  0  0
   -1.6971    0.7705    2.0790 H   0  0  0  0  0  0  0  0  0  0  0  0
   -0.5716    1.1232    3.8542 C   0  0  0  0  0  0  0  0  0  0  0  0
    0.3083    1.7643    3.9293 H   0  0  0  0  0  0  0  0  0  0  0  0
   -1.4485    1.6640    4.2131 H   0  0  0  0  0  0  0  0  0  0  0  0
   -0.4137    0.2381    4.4736 H   0  0  0  0  0  0  0  0  0  0  0  0
  5  6  2  0  0  0  0
  5  7  1  0  0  0  0
  2  3  1  0  0  0  0
  2  4  1  0  0  0  0
  2  5  1  0  0  0  0
  1  2  1  0  0  0  0
 20 21  2  0  0  0  0
 20 22  1  0  0  0  0
 17 18  1  0  0  0  0
 17 19  2  0  0  0  0
 14 15  1  0  0  0  0
 14 16  1  0  0  0  0
 14 17  1  0  0  0  0
 11 12  1  0  0  0  0
 11 13  1  0  0  0  0
 11 14  1  0  0  0  0
  9 10  1  0  0  0  0
  9 11  1  0  0  0  0
  9 20  1  0  0  0  0
  7  8  1  0  0  0  0
  7  9  1  0  0  0  0
 24 25  1  0  0  0  0
 24 26  1  0  0  0  0
 24 27  1  0  0  0  0
 22 23  1  0  0  0  0
 22 24  1  0  0  0  0
M  CHG  1  18  -1
M  END
$$$$
default_name
  -OEChem-02102213163D

 27 26  0     1  0  0  0  0  0999 V2000
   -3.2406   -3.5400    1.2326 H   0  0  0  0  0  0  0  0  0  0  0  0
   -3.1436   -2.6190    0.6606 C   0  0  0  0  0  0  0  0  0  0  0  0
   -3.8786   -1.8920    0.9996 H   0  0  0  0  0  0  0  0  0  0  0  0
   -3.2846   -2.8280   -0.3984 H   0  0  0  0  0  0  0  0  0  0  0  0
   -1.7586   -2.0580    0.8686 C   0  0  0  0  0  0  0  0  0  0  0  0
   -0.9666   -2.6340    1.6026 O   0  0  0  0  0  0  0  0  0  0  0  0
   -1.4866   -0.9220    0.2366 N   0  0  0  0  0  0  0  0  0  0  0  0
   -2.2166   -0.4790   -0.2994 H   0  0  0  0  0  0  0  0  0  0  0  0
   -0.1956   -0.2250    0.2596 C   0  0  1  0  0  0  0  0  0  0  0  0
    0.5755   -0.9013   -0.1105 H   0  0  0  0  0  0  0  0  0  0  0  0
   -0.2553    0.9811   -0.6992 C   0  0  0  0  0  0  0  0  0  0  0  0
    0.4153    1.7507   -0.3136 H   0  0  0  0  0  0  0  0  0  0  0  0
    0.1005    0.6760   -1.6843 H   0  0  0  0  0  0  0  0  0  0  0  0
   -1.6631    1.5852   -0.8360 C   0  0  0  0  0  0  0  0  0  0  0  0
   -1.7851    2.3783   -0.0943 H   0  0  0  0  0  0  0  0  0  0  0  0
   -1.7480    2.0358   -1.8284 H   0  0  0  0  0  0  0  0  0  0  0  0
   -2.7890    0.5576   -0.6484 C   0  0  0  0  0  0  0  0  0  0  0  0
   -2.4792   -0.6505   -0.5437 O   0  5  0  0  0  0  0  0  0  0  0  0
   -3.9548    1.0076   -0.5876 O   0  0  0  0  0  0  0  0  0  0  0  0
    0.1881    0.1678    1.7015 C   0  0  0  0  0  0  0  0  0  0  0  0
    1.3379    0.0002    2.1133 O   0  0  0  0  0  0  0  0  0  0  0  0
   -0.7666    0.7145    2.4656 N   0  0  0  0  0  0  0  0  0  0  0  0
   -1.6971    0.7705    2.0790 H   0  0  0  0  0  0  0  0  0  0  0  0
   -0.5716    1.1232    3.8542 C   0  0  0  0  0  0  0  0  0  0  0  0
    0.3083    1.7643    3.9293 H   0  0  0  0  0  0  0  0  0  0  0  0
   -1.4485    1.6640    4.2131 H   0  0  0  0  0  0  0  0  0  0  0  0
   -0.4137    0.2381    4.4736 H   0  0  0  0  0  0  0  0  0  0  0  0
  5  6  2  0  0  0  0
  5  7  1  0  0  0  0
  2  3  1  0  0  0  0
  2  4  1  0  0  0  0
  2  5  1  0  0  0  0
  1  2  1  0  0  0  0
 20 21  2  0  0  0  0
 20 22  1  0  0  0  0
 17 18  1  0  0  0  0
 17 19  2  0  0  0  0
 14 15  1  0  0  0  0
 14 16  1  0  0  0  0
 14 17  1  0  0  0  0
 11 12  1  0  0  0  0
 11 13  1  0  0  0  0
 11 14  1  0  0  0  0
  9 10  1  0  0  0  0
  9 11  1  0  0  0  0
  9 20  1  0  0  0  0
  7  8  1  0  0  0  0
  7  9  1  0  0  0  0
 24 25  1  0  0  0  0
 24 26  1  0  0  0  0
 24 27  1  0  0  0  0
 22 23  1  0  0  0  0
 22 24  1  0  0  0  0
M  CHG  1  18  -1
M  END
$$$$
default_name
  -OEChem-02102213163D

 27 26  0     1  0  0  0  0  0999 V2000
   -3.2406   -3.5400    1.2326 H   0  0  0  0  0  0  0  0  0  0  0  0
   -3.1436   -2.6190    0.6606 C   0  0  0  0  0  0  0  0  0  0  0  0
   -3.8786   -1.8920    0.9996 H   0  0  0  0  0  0  0  0  0  0  0  0
   -3.2846   -2.8280   -0.3984 H   0  0  0  0  0  0  0  0  0  0  0  0
   -1.7586   -2.0580    0.8686 C   0  0  0  0  0  0  0  0  0  0  0  0
   -0.9666   -2.6340    1.6026 O   0  0  0  0  0  0  0  0  0  0  0  0
   -1.4866   -0.9220    0.2366 N   0  0  0  0  0  0  0  0  0  0  0  0
   -2.2166   -0.4790   -0.2994 H   0  0  0  0  0  0  0  0  0  0  0  0
   -0.1956   -0.2250    0.2596 C   0  0  1  0  0  0  0  0  0  0  0  0
    0.5755   -0.9013   -0.1105 H   0  0  0  0  0  0  0  0  0  0  0  0
   -0.2553    0.9811   -0.6992 C   0  0  0  0  0  0  0  0  0  0  0  0
    0.4153    1.7507   -0.3136 H   0  0  0  0  0  0  0  0  0  0  0  0
    0.1005    0.6760   -1.6843 H   0  0  0  0  0  0  0  0  0  0  0  0
   -1.6631    1.5852   -0.8360 C   0  0  0  0  0  0  0  0  0  0  0  0
   -1.6985    2.5346   -0.2962 H   0  0  0  0  0  0  0  0  0  0  0  0
   -1.8463    1.7919   -1.8937 H   0  0  0  0  0  0  0  0  0  0  0  0
   -2.7742    0.6712   -0.2987 C   0  0  0  0  0  0  0  0  0  0  0  0
   -2.4683   -0.4884    0.0594 O   0  5  0  0  0  0  0  0  0  0  0  0
   -3.9224    1.1636   -0.2319 O   0  0  0  0  0  0  0  0  0  0  0  0
    0.1881    0.1678    1.7015 C   0  0  0  0  0  0  0  0  0  0  0  0
    1.3379    0.0002    2.1133 O   0  0  0  0  0  0  0  0  0  0  0  0
   -0.7666    0.7145    2.4656 N   0  0  0  0  0  0  0  0  0  0  0  0
   -1.6971    0.7705    2.0790 H   0  0  0  0  0  0  0  0  0  0  0  0
   -0.5716    1.1232    3.8542 C   0  0  0  0  0  0  0  0  0  0  0  0
    0.3083    1.7643    3.9293 H   0  0  0  0  0  0  0  0  0  0  0  0
   -1.4485    1.6640    4.2131 H   0  0  0  0  0  0  0  0  0  0  0  0
   -0.4137    0.2381    4.4736 H   0  0  0  0  0  0  0  0  0  0  0  0
  5  6  2  0  0  0  0
  5  7  1  0  0  0  0
  2  3  1  0  0  0  0
  2  4  1  0  0  0  0
  2  5  1  0  0  0  0
  1  2  1  0  0  0  0
 20 21  2  0  0  0  0
 20 22  1  0  0  0  0
 17 18  1  0  0  0  0
 17 19  2  0  0  0  0
 14 15  1  0  0  0  0
 14 16  1  0  0  0  0
 14 17  1  0  0  0  0
 11 12  1  0  0  0  0
 11 13  1  0  0  0  0
 11 14  1  0  0  0  0
  9 10  1  0  0  0  0
  9 11  1  0  0  0  0
  9 20  1  0  0  0  0
  7  8  1  0  0  0  0
  7  9  1  0  0  0  0
 24 25  1  0  0  0  0
 24 26  1  0  0  0  0
 24 27  1  0  0  0  0
 22 23  1  0  0  0  0
 22 24  1  0  0  0  0
M  CHG  1  18  -1
M  END
$$$$
default_name
  -OEChem-02102213163D

 27 26  0     1  0  0  0  0  0999 V2000
   -3.2406   -3.5400    1.2326 H   0  0  0  0  0  0  0  0  0  0  0  0
   -3.1436   -2.6190    0.6606 C   0  0  0  0  0  0  0  0  0  0  0  0
   -3.8786   -1.8920    0.9996 H   0  0  0  0  0  0  0  0  0  0  0  0
   -3.2846   -2.8280   -0.3984 H   0  0  0  0  0  0  0  0  0  0  0  0
   -1.7586   -2.0580    0.8686 C   0  0  0  0  0  0  0  0  0  0  0  0
   -0.9666   -2.6340    1.6026 O   0  0  0  0  0  0  0  0  0  0  0  0
   -1.4866   -0.9220    0.2366 N   0  0  0  0  0  0  0  0  0  0  0  0
   -2.2166   -0.4790   -0.2994 H   0  0  0  0  0  0  0  0  0  0  0  0
   -0.1956   -0.2250    0.2596 C   0  0  1  0  0  0  0  0  0  0  0  0
    0.5755   -0.9013   -0.1105 H   0  0  0  0  0  0  0  0  0  0  0  0
   -0.2553    0.9811   -0.6992 C   0  0  0  0  0  0  0  0  0  0  0  0
    0.4153    1.7507   -0.3136 H   0  0  0  0  0  0  0  0  0  0  0  0
    0.1005    0.6760   -1.6843 H   0  0  0  0  0  0  0  0  0  0  0  0
   -1.6631    1.5852   -0.8360 C   0  0  0  0  0  0  0  0  0  0  0  0
   -1.6317    2.6357   -0.5369 H   0  0  0  0  0  0  0  0  0  0  0  0
   -1.9535    1.5431   -1.8891 H   0  0  0  0  0  0  0  0  0  0  0  0
   -2.7218    0.8633    0.0106 C   0  0  0  0  0  0  0  0  0  0  0  0
   -2.3926   -0.1892    0.6025 O   0  5  0  0  0  0  0  0  0  0  0  0
   -3.8514    1.3978    0.0715 O   0  0  0  0  0  0  0  0  0  0  0  0
    0.1881    0.1678    1.7015 C   0  0  0  0  0  0  0  0  0  0  0  0
    1.3379    0.0002    2.1133 O   0  0  0  0  0  0  0  0  0  0  0  0
   -0.7666    0.7145    2.4656 N   0  0  0  0  0  0  0  0  0  0  0  0
   -1.6971    0.7705    2.0790 H   0  0  0  0  0  0  0  0  0  0  0  0
   -0.5716    1.1232    3.8542 C   0  0  0  0  0  0  0  0  0  0  0  0
    0.3083    1.7643    3.9293 H   0  0  0  0  0  0  0  0  0  0  0  0
   -1.4485    1.6640    4.2131 H   0  0  0  0  0  0  0  0  0  0  0  0
   -0.4137    0.2381    4.4736 H   0  0  0  0  0  0  0  0  0  0  0  0
  5  6  2  0  0  0  0
  5  7  1  0  0  0  0
  2  3  1  0  0  0  0
  2  4  1  0  0  0  0
  2  5  1  0  0  0  0
  1  2  1  0  0  0  0
 20 21  2  0  0  0  0
 20 22  1  0  0  0  0
 17 18  1  0  0  0  0
 17 19  2  0  0  0  0
 14 15  1  0  0  0  0
 14 16  1  0  0  0  0
 14 17  1  0  0  0  0
 11 12  1  0  0  0  0
 11 13  1  0  0  0  0
 11 14  1  0  0  0  0
  9 10  1  0  0  0  0
  9 11  1  0  0  0  0
  9 20  1  0  0  0  0
  7  8  1  0  0  0  0
  7  9  1  0  0  0  0
 24 25  1  0  0  0  0
 24 26  1  0  0  0  0
 24 27  1  0  0  0  0
 22 23  1  0  0  0  0
 22 24  1  0  0  0  0
M  CHG  1  18  -1
M  END
$$$$
default_name
  -OEChem-02102213163D

 27 26  0     1  0  0  0  0  0999 V2000
   -3.2406   -3.5400    1.2326 H   0  0  0  0  0  0  0  0  0  0  0  0
   -3.1436   -2.6190    0.6606 C   0  0  0  0  0  0  0  0  0  0  0  0
   -3.8786   -1.8920    0.9996 H   0  0  0  0  0  0  0  0  0  0  0  0
   -3.2846   -2.8280   -0.3984 H   0  0  0  0  0  0  0  0  0  0  0  0
   -1.7586   -2.0580    0.8686 C   0  0  0  0  0  0  0  0  0  0  0  0
   -0.9666   -2.6340    1.6026 O   0  0  0  0  0  0  0  0  0  0  0  0
   -1.4866   -0.9220    0.2366 N   0  0  0  0  0  0  0  0  0  0  0  0
   -2.2166   -0.4790   -0.2994 H   0  0  0  0  0  0  0  0  0  0  0  0
   -0.1956   -0.2250    0.2596 C   0  0  1  0  0  0  0  0  0  0  0  0
    0.5755   -0.9013   -0.1105 H   0  0  0  0  0  0  0  0  0  0  0  0
   -0.2553    0.9811   -0.6992 C   0  0  0  0  0  0  0  0  0  0  0  0
    0.4153    1.7507   -0.3136 H   0  0  0  0  0  0  0  0  0  0  0  0
    0.1005    0.6760   -1.6843 H   0  0  0  0  0  0  0  0  0  0  0  0
   -1.6631    1.5852   -0.8360 C   0  0  0  0  0  0  0  0  0  0  0  0
   -1.5893    2.6748   -0.8003 H   0  0  0  0  0  0  0  0  0  0  0  0
   -2.0624    1.3064   -1.8147 H   0  0  0  0  0  0  0  0  0  0  0  0
   -2.6353    1.1210    0.2586 C   0  0  0  0  0  0  0  0  0  0  0  0
   -2.2575    0.2267    1.0485 O   0  5  0  0  0  0  0  0  0  0  0  0
   -3.7465    1.6943    0.3019 O   0  0  0  0  0  0  0  0  0  0  0  0
    0.1881    0.1678    1.7015 C   0  0  0  0  0  0  0  0  0  0  0  0
    1.3379    0.0002    2.1133 O   0  0  0  0  0  0  0  0  0  0  0  0
   -0.7666    0.7145    2.4656 N   0  0  0  0  0  0  0  0  0  0  0  0
   -1.6971    0.7705    2.0790 H   0  0  0  0  0  0  0  0  0  0  0  0
   -0.5716    1.1232    3.8542 C   0  0  0  0  0  0  0  0  0  0  0  0
    0.3083    1.7643    3.9293 H   0  0  0  0  0  0  0  0  0  0  0  0
   -1.4485    1.6640    4.2131 H   0  0  0  0  0  0  0  0  0  0  0  0
   -0.4137    0.2381    4.4736 H   0  0  0  0  0  0  0  0  0  0  0  0
  5  6  2  0  0  0  0
  5  7  1  0  0  0  0
  2  3  1  0  0  0  0
  2  4  1  0  0  0  0
  2  5  1  0  0  0  0
  1  2  1  0  0  0  0
 20 21  2  0  0  0  0
 20 22  1  0  0  0  0
 17 18  1  0  0  0  0
 17 19  2  0  0  0  0
 14 15  1  0  0  0  0
 14 16  1  0  0  0  0
 14 17  1  0  0  0  0
 11 12  1  0  0  0  0
 11 13  1  0  0  0  0
 11 14  1  0  0  0  0
  9 10  1  0  0  0  0
  9 11  1  0  0  0  0
  9 20  1  0  0  0  0
  7  8  1  0  0  0  0
  7  9  1  0  0  0  0
 24 25  1  0  0  0  0
 24 26  1  0  0  0  0
 24 27  1  0  0  0  0
 22 23  1  0  0  0  0
 22 24  1  0  0  0  0
M  CHG  1  18  -1
M  END
$$$$
default_name
  -OEChem-02102213163D

 27 26  0     1  0  0  0  0  0999 V2000
   -3.2406   -3.5400    1.2326 H   0  0  0  0  0  0  0  0  0  0  0  0
   -3.1436   -2.6190    0.6606 C   0  0  0  0  0  0  0  0  0  0  0  0
   -3.8786   -1.8920    0.9996 H   0  0  0  0  0  0  0  0  0  0  0  0
   -3.2846   -2.8280   -0.3984 H   0  0  0  0  0  0  0  0  0  0  0  0
   -1.7586   -2.0580    0.8686 C   0  0  0  0  0  0  0  0  0  0  0  0
   -0.9666   -2.6340    1.6026 O   0  0  0  0  0  0  0  0  0  0  0  0
   -1.4866   -0.9220    0.2366 N   0  0  0  0  0  0  0  0  0  0  0  0
   -2.2166   -0.4790   -0.2994 H   0  0  0  0  0  0  0  0  0  0  0  0
   -0.1956   -0.2250    0.2596 C   0  0  1  0  0  0  0  0  0  0  0  0
    0.5755   -0.9013   -0.1105 H   0  0  0  0  0  0  0  0  0  0  0  0
   -0.2553    0.9811   -0.6992 C   0  0  0  0  0  0  0  0  0  0  0  0
    0.4153    1.7507   -0.3136 H   0  0  0  0  0  0  0  0  0  0  0  0
    0.1005    0.6760   -1.6843 H   0  0  0  0  0  0  0  0  0  0  0  0
   -1.6631    1.5852   -0.8360 C   0  0  0  0  0  0  0  0  0  0  0  0
   -1.5742    2.6492   -1.0682 H   0  0  0  0  0  0  0  0  0  0  0  0
   -2.1654    1.0978   -1.6757 H   0  0  0  0  0  0  0  0  0  0  0  0
   -2.5207    1.4267    0.4283 C   0  0  0  0  0  0  0  0  0  0  0  0
   -2.0720    0.7310    1.3670 O   0  5  0  0  0  0  0  0  0  0  0  0
   -3.6150    2.0329    0.4434 O   0  0  0  0  0  0  0  0  0  0  0  0
    0.1881    0.1678    1.7015 C   0  0  0  0  0  0  0  0  0  0  0  0
    1.3379    0.0002    2.1133 O   0  0  0  0  0  0  0  0  0  0  0  0
   -0.7666    0.7145    2.4656 N   0  0  0  0  0  0  0  0  0  0  0  0
   -1.6971    0.7705    2.0790 H   0  0  0  0  0  0  0  0  0  0  0  0
   -0.5716    1.1232    3.8542 C   0  0  0  0  0  0  0  0  0  0  0  0
    0.3083    1.7643    3.9293 H   0  0  0  0  0  0  0  0  0  0  0  0
   -1.4485    1.6640    4.2131 H   0  0  0  0  0  0  0  0  0  0  0  0
   -0.4137    0.2381    4.4736 H   0  0  0  0  0  0  0  0  0  0  0  0
  5  6  2  0  0  0  0
  5  7  1  0  0  0  0
  2  3  1  0  0  0  0
  2  4  1  0  0  0  0
  2  5  1  0  0  0  0
  1  2  1  0  0  0  0
 20 21  2  0  0  0  0
 20 22  1  0  0  0  0
 17 18  1  0  0  0  0
 17 19  2  0  0  0  0
 14 15  1  0  0  0  0
 14 16  1  0  0  0  0
 14 17  1  0  0  0  0
 11 12  1  0  0  0  0
 11 13  1  0  0  0  0
 11 14  1  0  0  0  0
  9 10  1  0  0  0  0
  9 11  1  0  0  0  0
  9 20  1  0  0  0  0
  7  8  1  0  0  0  0
  7  9  1  0  0  0  0
 24 25  1  0  0  0  0
 24 26  1  0  0  0  0
 24 27  1  0  0  0  0
 22 23  1  0  0  0  0
 22 24  1  0  0  0  0
M  CHG  1  18  -1
M  END
$$$$
default_name
  -OEChem-02102213163D

 27 26  0     1  0  0  0  0  0999 V2000
   -3.2406   -3.5400    1.2326 H   0  0  0  0  0  0  0  0  0  0  0  0
   -3.1436   -2.6190    0.6606 C   0  0  0  0  0  0  0  0  0  0  0  0
   -3.8786   -1.8920    0.9996 H   0  0  0  0  0  0  0  0  0  0  0  0
   -3.2846   -2.8280   -0.3984 H   0  0  0  0  0  0  0  0  0  0  0  0
   -1.7586   -2.0580    0.8686 C   0  0  0  0  0  0  0  0  0  0  0  0
   -0.9666   -2.6340    1.6026 O   0  0  0  0  0  0  0  0  0  0  0  0
   -1.4866   -0.9220    0.2366 N   0  0  0  0  0  0  0  0  0  0  0  0
   -2.2166   -0.4790   -0.2994 H   0  0  0  0  0  0  0  0  0  0  0  0
   -0.1956   -0.2250    0.2596 C   0  0  1  0  0  0  0  0  0  0  0  0
    0.5755   -0.9013   -0.1105 H   0  0  0  0  0  0  0  0  0  0  0  0
   -0.2553    0.9811   -0.6992 C   0  0  0  0  0  0  0  0  0  0  0  0
    0.4153    1.7507   -0.3136 H   0  0  0  0  0  0  0  0  0  0  0  0
    0.1005    0.6760   -1.6843 H   0  0  0  0  0  0  0  0  0  0  0  0
   -1.6631    1.5852   -0.8360 C   0  0  0  0  0  0  0  0  0  0  0  0
   -1.5875    2.5607   -1.3224 H   0  0  0  0  0  0  0  0  0  0  0  0
   -2.2555    0.9316   -1.4816 H   0  0  0  0  0  0  0  0  0  0  0  0
   -2.3856    1.7595    0.5081 C   0  0  0  0  0  0  0  0  0  0  0  0
   -1.8489    1.2894    1.5364 O   0  5  0  0  0  0  0  0  0  0  0  0
   -3.4658    2.3904    0.4866 O   0  0  0  0  0  0  0  0  0  0  0  0
    0.1881    0.1678    1.7015 C   0  0  0  0  0  0  0  0  0  0  0  0
    1.3379    0.0002    2.1133 O   0  0  0  0  0  0  0  0  0  0  0  0
   -0.7666    0.7145    2.4656 N   0  0  0  0  0  0  0  0  0  0  0  0
   -1.6971    0.7705    2.0790 H   0  0  0  0  0  0  0  0  0  0  0  0
   -0.5716    1.1232    3.8542 C   0  0  0  0  0  0  0  0  0  0  0  0
    0.3083    1.7643    3.9293 H   0  0  0  0  0  0  0  0  0  0  0  0
   -1.4485    1.6640    4.2131 H   0  0  0  0  0  0  0  0  0  0  0  0
   -0.4137    0.2381    4.4736 H   0  0  0  0  0  0  0  0  0  0  0  0
  5  6  2  0  0  0  0
  5  7  1  0  0  0  0
  2  3  1  0  0  0  0
  2  4  1  0  0  0  0
  2  5  1  0  0  0  0
  1  2  1  0  0  0  0
 20 21  2  0  0  0  0
 20 22  1  0  0  0  0
 17 18  1  0  0  0  0
 17 19  2  0  0  0  0
 14 15  1  0  0  0  0
 14 16  1  0  0  0  0
 14 17  1  0  0  0  0
 11 12  1  0  0  0  0
 11 13  1  0  0  0  0
 11 14  1  0  0  0  0
  9 10  1  0  0  0  0
  9 11  1  0  0  0  0
  9 20  1  0  0  0  0
  7  8  1  0  0  0  0
  7  9  1  0  0  0  0
 24 25  1  0  0  0  0
 24 26  1  0  0  0  0
 24 27  1  0  0  0  0
 22 23  1  0  0  0  0
 22 24  1  0  0  0  0
M  CHG  1  18  -1
M  END
$$$$
default_name
  -OEChem-02102213163D

 27 26  0     1  0  0  0  0  0999 V2000
   -3.2406   -3.5400    1.2326 H   0  0  0  0  0  0  0  0  0  0  0  0
   -3.1436   -2.6190    0.6606 C   0  0  0  0  0  0  0  0  0  0  0  0
   -3.8786   -1.8920    0.9996 H   0  0  0  0  0  0  0  0  0  0  0  0
   -3.2846   -2.8280   -0.3984 H   0  0  0  0  0  0  0  0  0  0  0  0
   -1.7586   -2.0580    0.8686 C   0  0  0  0  0  0  0  0  0  0  0  0
   -0.9666   -2.6340    1.6026 O   0  0  0  0  0  0  0  0  0  0  0  0
   -1.4866   -0.9220    0.2366 N   0  0  0  0  0  0  0  0  0  0  0  0
   -2.2166   -0.4790   -0.2994 H   0  0  0  0  0  0  0  0  0  0  0  0
   -0.1956   -0.2250    0.2596 C   0  0  1  0  0  0  0  0  0  0  0  0
    0.5755   -0.9013   -0.1105 H   0  0  0  0  0  0  0  0  0  0  0  0
   -0.2553    0.9811   -0.6992 C   0  0  0  0  0  0  0  0  0  0  0  0
    0.4153    1.7507   -0.3136 H   0  0  0  0  0  0  0  0  0  0  0  0
    0.1005    0.6760   -1.6843 H   0  0  0  0  0  0  0  0  0  0  0  0
   -1.6631    1.5852   -0.8360 C   0  0  0  0  0  0  0  0  0  0  0  0
   -1.6282    2.4153   -1.5457 H   0  0  0  0  0  0  0  0  0  0  0  0
   -2.3267    0.8192   -1.2456 H   0  0  0  0  0  0  0  0  0  0  0  0
   -2.2394    2.0968    0.4926 C   0  0  0  0  0  0  0  0  0  0  0  0
   -1.6033    1.8636    1.5450 O   0  5  0  0  0  0  0  0  0  0  0  0
   -3.3090    2.7426    0.4285 O   0  0  0  0  0  0  0  0  0  0  0  0
    0.1881    0.1678    1.7015 C   0  0  0  0  0  0  0  0  0  0  0  0
    1.3379    0.0002    2.1133 O   0  0  0  0  0  0  0  0  0  0  0  0
   -0.7666    0.7145    2.4656 N   0  0  0  0  0  0  0  0  0  0  0  0
   -1.6971    0.7705    2.0790 H   0  0  0  0  0  0  0  0  0  0  0  0
   -0.5716    1.1232    3.8542 C   0  0  0  0  0  0  0  0  0  0  0  0
    0.3083    1.7643    3.9293 H   0  0  0  0  0  0  0  0  0  0  0  0
   -1.4485    1.6640    4.2131 H   0  0  0  0  0  0  0  0  0  0  0  0
   -0.4137    0.2381    4.4736 H   0  0  0  0  0  0  0  0  0  0  0  0
  5  6  2  0  0  0  0
  5  7  1  0  0  0  0
  2  3  1  0  0  0  0
  2  4  1  0  0  0  0
  2  5  1  0  0  0  0
  1  2  1  0  0  0  0
 20 21  2  0  0  0  0
 20 22  1  0  0  0  0
 17 18  1  0  0  0  0
 17 19  2  0  0  0  0
 14 15  1  0  0  0  0
 14 16  1  0  0  0  0
 14 17  1  0  0  0  0
 11 12  1  0  0  0  0
 11 13  1  0  0  0  0
 11 14  1  0  0  0  0
  9 10  1  0  0  0  0
  9 11  1  0  0  0  0
  9 20  1  0  0  0  0
  7  8  1  0  0  0  0
  7  9  1  0  0  0  0
 24 25  1  0  0  0  0
 24 26  1  0  0  0  0
 24 27  1  0  0  0  0
 22 23  1  0  0  0  0
 22 24  1  0  0  0  0
M  CHG  1  18  -1
M  END
$$$$
default_name
  -OEChem-02102213163D

 27 26  0     1  0  0  0  0  0999 V2000
   -3.2406   -3.5400    1.2326 H   0  0  0  0  0  0  0  0  0  0  0  0
   -3.1436   -2.6190    0.6606 C   0  0  0  0  0  0  0  0  0  0  0  0
   -3.8786   -1.8920    0.9996 H   0  0  0  0  0  0  0  0  0  0  0  0
   -3.2846   -2.8280   -0.3984 H   0  0  0  0  0  0  0  0  0  0  0  0
   -1.7586   -2.0580    0.8686 C   0  0  0  0  0  0  0  0  0  0  0  0
   -0.9666   -2.6340    1.6026 O   0  0  0  0  0  0  0  0  0  0  0  0
   -1.4866   -0.9220    0.2366 N   0  0  0  0  0  0  0  0  0  0  0  0
   -2.2166   -0.4790   -0.2994 H   0  0  0  0  0  0  0  0  0  0  0  0
   -0.1956   -0.2250    0.2596 C   0  0  1  0  0  0  0  0  0  0  0  0
    0.5755   -0.9013   -0.1105 H   0  0  0  0  0  0  0  0  0  0  0  0
   -0.2553    0.9811   -0.6992 C   0  0  0  0  0  0  0  0  0  0  0  0
    0.4153    1.7507   -0.3136 H   0  0  0  0  0  0  0  0  0  0  0  0
    0.1005    0.6760   -1.6843 H   0  0  0  0  0  0  0  0  0  0  0  0
   -1.6631    1.5852   -0.8360 C   0  0  0  0  0  0  0  0  0  0  0  0
   -1.6936    2.2228   -1.7228 H   0  0  0  0  0  0  0  0  0  0  0  0
   -2.3741    0.7681   -0.9837 H   0  0  0  0  0  0  0  0  0  0  0  0
   -2.0919    2.4156    0.3829 C   0  0  0  0  0  0  0  0  0  0  0  0
   -1.3520    2.4147    1.3923 O   0  5  0  0  0  0  0  0  0  0  0  0
   -3.1554    3.0653    0.2729 O   0  0  0  0  0  0  0  0  0  0  0  0
    0.1881    0.1678    1.7015 C   0  0  0  0  0  0  0  0  0  0  0  0
    1.3379    0.0002    2.1133 O   0  0  0  0  0  0  0  0  0  0  0  0
   -0.7666    0.7145    2.4656 N   0  0  0  0  0  0  0  0  0  0  0  0
   -1.6971    0.7705    2.0790 H   0  0  0  0  0  0  0  0  0  0  0  0
   -0.5716    1.1232    3.8542 C   0  0  0  0  0  0  0  0  0  0  0  0
    0.3083    1.7643    3.9293 H   0  0  0  0  0  0  0  0  0  0  0  0
   -1.4485    1.6640    4.2131 H   0  0  0  0  0  0  0  0  0  0  0  0
   -0.4137    0.2381    4.4736 H   0  0  0  0  0  0  0  0  0  0  0  0
  5  6  2  0  0  0  0
  5  7  1  0  0  0  0
  2  3  1  0  0  0  0
  2  4  1  0  0  0  0
  2  5  1  0  0  0  0
  1  2  1  0  0  0  0
 20 21  2  0  0  0  0
 20 22  1  0  0  0  0
 17 18  1  0  0  0  0
 17 19  2  0  0  0  0
 14 15  1  0  0  0  0
 14 16  1  0  0  0  0
 14 17  1  0  0  0  0
 11 12  1  0  0  0  0
 11 13  1  0  0  0  0
 11 14  1  0  0  0  0
  9 10  1  0  0  0  0
  9 11  1  0  0  0  0
  9 20  1  0  0  0  0
  7  8  1  0  0  0  0
  7  9  1  0  0  0  0
 24 25  1  0  0  0  0
 24 26  1  0  0  0  0
 24 27  1  0  0  0  0
 22 23  1  0  0  0  0
 22 24  1  0  0  0  0
M  CHG  1  18  -1
M  END
$$$$
default_name
  -OEChem-02102213163D

 27 26  0     1  0  0  0  0  0999 V2000
   -3.2406   -3.5400    1.2326 H   0  0  0  0  0  0  0  0  0  0  0  0
   -3.1436   -2.6190    0.6606 C   0  0  0  0  0  0  0  0  0  0  0  0
   -3.8786   -1.8920    0.9996 H   0  0  0  0  0  0  0  0  0  0  0  0
   -3.2846   -2.8280   -0.3984 H   0  0  0  0  0  0  0  0  0  0  0  0
   -1.7586   -2.0580    0.8686 C   0  0  0  0  0  0  0  0  0  0  0  0
   -0.9666   -2.6340    1.6026 O   0  0  0  0  0  0  0  0  0  0  0  0
   -1.4866   -0.9220    0.2366 N   0  0  0  0  0  0  0  0  0  0  0  0
   -2.2166   -0.4790   -0.2994 H   0  0  0  0  0  0  0  0  0  0  0  0
   -0.1956   -0.2250    0.2596 C   0  0  1  0  0  0  0  0  0  0  0  0
    0.5755   -0.9013   -0.1105 H   0  0  0  0  0  0  0  0  0  0  0  0
   -0.2553    0.9811   -0.6992 C   0  0  0  0  0  0  0  0  0  0  0  0
    0.4153    1.7507   -0.3136 H   0  0  0  0  0  0  0  0  0  0  0  0
    0.1005    0.6760   -1.6843 H   0  0  0  0  0  0  0  0  0  0  0  0
   -1.6631    1.5852   -0.8360 C   0  0  0  0  0  0  0  0  0  0  0  0
   -1.7792    1.9965   -1.8416 H   0  0  0  0  0  0  0  0  0  0  0  0
   -2.3944    0.7819   -0.7139 H   0  0  0  0  0  0  0  0  0  0  0  0
   -1.9533    2.6941    0.1864 C   0  0  0  0  0  0  0  0  0  0  0  0
   -1.1121    2.9051    1.0887 O   0  5  0  0  0  0  0  0  0  0  0  0
   -3.0154    3.3367    0.0306 O   0  0  0  0  0  0  0  0  0  0  0  0
    0.1881    0.1678    1.7015 C   0  0  0  0  0  0  0  0  0  0  0  0
    1.3379    0.0002    2.1133 O   0  0  0  0  0  0  0  0  0  0  0  0
   -0.7666    0.7145    2.4656 N   0  0  0  0  0  0  0  0  0  0  0  0
   -1.6971    0.7705    2.0790 H   0  0  0  0  0  0  0  0  0  0  0  0
   -0.5716    1.1232    3.8542 C   0  0  0  0  0  0  0  0  0  0  0  0
    0.3083    1.7643    3.9293 H   0  0  0  0  0  0  0  0  0  0  0  0
   -1.4485    1.6640    4.2131 H   0  0  0  0  0  0  0  0  0  0  0  0
   -0.4137    0.2381    4.4736 H   0  0  0  0  0  0  0  0  0  0  0  0
  5  6  2  0  0  0  0
  5  7  1  0  0  0  0
  2  3  1  0  0  0  0
  2  4  1  0  0  0  0
  2  5  1  0  0  0  0
  1  2  1  0  0  0  0
 20 21  2  0  0  0  0
 20 22  1  0  0  0  0
 17 18  1  0  0  0  0
 17 19  2  0  0  0  0
 14 15  1  0  0  0  0
 14 16  1  0  0  0  0
 14 17  1  0  0  0  0
 11 12  1  0  0  0  0
 11 13  1  0  0  0  0
 11 14  1  0  0  0  0
  9 10  1  0  0  0  0
  9 11  1  0  0  0  0
  9 20  1  0  0  0  0
  7  8  1  0  0  0  0
  7  9  1  0  0  0  0
 24 25  1  0  0  0  0
 24 26  1  0  0  0  0
 24 27  1  0  0  0  0
 22 23  1  0  0  0  0
 22 24  1  0  0  0  0
M  CHG  1  18  -1
M  END
$$$$
default_name
  -OEChem-02102213163D

 27 26  0     1  0  0  0  0  0999 V2000
   -3.2406   -3.5400    1.2326 H   0  0  0  0  0  0  0  0  0  0  0  0
   -3.1436   -2.6190    0.6606 C   0  0  0  0  0  0  0  0  0  0  0  0
   -3.8786   -1.8920    0.9996 H   0  0  0  0  0  0  0  0  0  0  0  0
   -3.2846   -2.8280   -0.3984 H   0  0  0  0  0  0  0  0  0  0  0  0
   -1.7586   -2.0580    0.8686 C   0  0  0  0  0  0  0  0  0  0  0  0
   -0.9666   -2.6340    1.6026 O   0  0  0  0  0  0  0  0  0  0  0  0
   -1.4866   -0.9220    0.2366 N   0  0  0  0  0  0  0  0  0  0  0  0
   -2.2166   -0.4790   -0.2994 H   0  0  0  0  0  0  0  0  0  0  0  0
   -0.1956   -0.2250    0.2596 C   0  0  1  0  0  0  0  0  0  0  0  0
    0.5755   -0.9013   -0.1105 H   0  0  0  0  0  0  0  0  0  0  0  0
   -0.2553    0.9811   -0.6992 C   0  0  0  0  0  0  0  0  0  0  0  0
    0.4153    1.7507   -0.3136 H   0  0  0  0  0  0  0  0  0  0  0  0
    0.1005    0.6760   -1.6843 H   0  0  0  0  0  0  0  0  0  0  0  0
   -1.6631    1.5852   -0.8360 C   0  0  0  0  0  0  0  0  0  0  0  0
   -1.8791    1.7517   -1.8941 H   0  0  0  0  0  0  0  0  0  0  0  0
   -2.3863    0.8596   -0.4544 H   0  0  0  0  0  0  0  0  0  0  0  0
   -1.8330    2.9133   -0.0835 C   0  0  0  0  0  0  0  0  0  0  0  0
   -0.8999    3.3013    0.6549 O   0  5  0  0  0  0  0  0  0  0  0  0
   -2.8985    3.5382   -0.2820 O   0  0  0  0  0  0  0  0  0  0  0  0
    0.1881    0.1678    1.7015 C   0  0  0  0  0  0  0  0  0  0  0  0
    1.3379    0.0002    2.1133 O   0  0  0  0  0  0  0  0  0  0  0  0
   -0.7666    0.7145    2.4656 N   0  0  0  0  0  0  0  0  0  0  0  0
   -1.6971    0.7705    2.0790 H   0  0  0  0  0  0  0  0  0  0  0  0
   -0.5716    1.1232    3.8542 C   0  0  0  0  0  0  0  0  0  0  0  0
    0.3083    1.7643    3.9293 H   0  0  0  0  0  0  0  0  0  0  0  0
   -1.4485    1.6640    4.2131 H   0  0  0  0  0  0  0  0  0  0  0  0
   -0.4137    0.2381    4.4736 H   0  0  0  0  0  0  0  0  0  0  0  0
  5  6  2  0  0  0  0
  5  7  1  0  0  0  0
  2  3  1  0  0  0  0
  2  4  1  0  0  0  0
  2  5  1  0  0  0  0
  1  2  1  0  0  0  0
 20 21  2  0  0  0  0
 20 22  1  0  0  0  0
 17 18  1  0  0  0  0
 17 19  2  0  0  0  0
 14 15  1  0  0  0  0
 14 16  1  0  0  0  0
 14 17  1  0  0  0  0
 11 12  1  0  0  0  0
 11 13  1  0  0  0  0
 11 14  1  0  0  0  0
  9 10  1  0  0  0  0
  9 11  1  0  0  0  0
  9 20  1  0  0  0  0
  7  8  1  0  0  0  0
  7  9  1  0  0  0  0
 24 25  1  0  0  0  0
 24 26  1  0  0  0  0
 24 27  1  0  0  0  0
 22 23  1  0  0  0  0
 22 24  1  0  0  0  0
M  CHG  1  18  -1
M  END
$$$$
default_name
  -OEChem-02102213163D

 27 26  0     1  0  0  0  0  0999 V2000
   -3.2406   -3.5400    1.2326 H   0  0  0  0  0  0  0  0  0  0  0  0
   -3.1436   -2.6190    0.6606 C   0  0  0  0  0  0  0  0  0  0  0  0
   -3.8786   -1.8920    0.9996 H   0  0  0  0  0  0  0  0  0  0  0  0
   -3.2846   -2.8280   -0.3984 H   0  0  0  0  0  0  0  0  0  0  0  0
   -1.7586   -2.0580    0.8686 C   0  0  0  0  0  0  0  0  0  0  0  0
   -0.9666   -2.6340    1.6026 O   0  0  0  0  0  0  0  0  0  0  0  0
   -1.4866   -0.9220    0.2366 N   0  0  0  0  0  0  0  0  0  0  0  0
   -2.2166   -0.4790   -0.2994 H   0  0  0  0  0  0  0  0  0  0  0  0
   -0.1956   -0.2250    0.2596 C   0  0  1  0  0  0  0  0  0  0  0  0
    0.5755   -0.9013   -0.1105 H   0  0  0  0  0  0  0  0  0  0  0  0
   -0.2553    0.9811   -0.6992 C   0  0  0  0  0  0  0  0  0  0  0  0
    0.4153    1.7507   -0.3136 H   0  0  0  0  0  0  0  0  0  0  0  0
    0.1005    0.6760   -1.6843 H   0  0  0  0  0  0  0  0  0  0  0  0
   -1.6631    1.5852   -0.8360 C   0  0  0  0  0  0  0  0  0  0  0  0
   -1.9866    1.5051   -1.8766 H   0  0  0  0  0  0  0  0  0  0  0  0
   -2.3502    0.9960   -0.2230 H   0  0  0  0  0  0  0  0  0  0  0  0
   -1.7392    3.0584   -0.4083 C   0  0  0  0  0  0  0  0  0  0  0  0
   -0.7299    3.5764    0.1205 O   0  5  0  0  0  0  0  0  0  0  0  0
   -2.8128    3.6561   -0.6435 O   0  0  0  0  0  0  0  0  0  0  0  0
    0.1881    0.1678    1.7015 C   0  0  0  0  0  0  0  0  0  0  0  0
    1.3379    0.0002    2.1133 O   0  0  0  0  0  0  0  0  0  0  0  0
   -0.7666    0.7145    2.4656 N   0  0  0  0  0  0  0  0  0  0  0  0
   -1.6971    0.7705    2.0790 H   0  0  0  0  0  0  0  0  0  0  0  0
   -0.5716    1.1232    3.8542 C   0  0  0  0  0  0  0  0  0  0  0  0
    0.3083    1.7643    3.9293 H   0  0  0  0  0  0  0  0  0  0  0  0
   -1.4485    1.6640    4.2131 H   0  0  0  0  0  0  0  0  0  0  0  0
   -0.4137    0.2381    4.4736 H   0  0  0  0  0  0  0  0  0  0  0  0
  5  6  2  0  0  0  0
  5  7  1  0  0  0  0
  2  3  1  0  0  0  0
  2  4  1  0  0  0  0
  2  5  1  0  0  0  0
  1  2  1  0  0  0  0
 20 21  2  0  0  0  0
 20 22  1  0  0  0  0
 17 18  1  0  0  0  0
 17 19  2  0  0  0  0
 14 15  1  0  0  0  0
 14 16  1  0  0  0  0
 14 17  1  0  0  0  0
 11 12  1  0  0  0  0
 11 13  1  0  0  0  0
 11 14  1  0  0  0  0
  9 10  1  0  0  0  0
  9 11  1  0  0  0  0
  9 20  1  0  0  0  0
  7  8  1  0  0  0  0
  7  9  1  0  0  0  0
 24 25  1  0  0  0  0
 24 26  1  0  0  0  0
 24 27  1  0  0  0  0
 22 23  1  0  0  0  0
 22 24  1  0  0  0  0
M  CHG  1  18  -1
M  END
$$$$
default_name
  -OEChem-02102213163D

 27 26  0     1  0  0  0  0  0999 V2000
   -3.2406   -3.5400    1.2326 H   0  0  0  0  0  0  0  0  0  0  0  0
   -3.1436   -2.6190    0.6606 C   0  0  0  0  0  0  0  0  0  0  0  0
   -3.8786   -1.8920    0.9996 H   0  0  0  0  0  0  0  0  0  0  0  0
   -3.2846   -2.8280   -0.3984 H   0  0  0  0  0  0  0  0  0  0  0  0
   -1.7586   -2.0580    0.8686 C   0  0  0  0  0  0  0  0  0  0  0  0
   -0.9666   -2.6340    1.6026 O   0  0  0  0  0  0  0  0  0  0  0  0
   -1.4866   -0.9220    0.2366 N   0  0  0  0  0  0  0  0  0  0  0  0
   -2.2166   -0.4790   -0.2994 H   0  0  0  0  0  0  0  0  0  0  0  0
   -0.1956   -0.2250    0.2596 C   0  0  1  0  0  0  0  0  0  0  0  0
    0.5755   -0.9013   -0.1105 H   0  0  0  0  0  0  0  0  0  0  0  0
   -0.2553    0.9811   -0.6992 C   0  0  0  0  0  0  0  0  0  0  0  0
    0.4153    1.7507   -0.3136 H   0  0  0  0  0  0  0  0  0  0  0  0
    0.1005    0.6760   -1.6843 H   0  0  0  0  0  0  0  0  0  0  0  0
   -1.6631    1.5852   -0.8360 C   0  0  0  0  0  0  0  0  0  0  0  0
   -2.0944    1.2736   -1.7903 H   0  0  0  0  0  0  0  0  0  0  0  0
   -2.2888    1.1817   -0.0355 H   0  0  0  0  0  0  0  0  0  0  0  0
   -1.6782    3.1195   -0.7660 C   0  0  0  0  0  0  0  0  0  0  0  0
   -0.6137    3.7115   -0.4782 O   0  5  0  0  0  0  0  0  0  0  0  0
   -2.7640    3.6823   -1.0294 O   0  0  0  0  0  0  0  0  0  0  0  0
    0.1881    0.1678    1.7015 C   0  0  0  0  0  0  0  0  0  0  0  0
    1.3379    0.0002    2.1133 O   0  0  0  0  0  0  0  0  0  0  0  0
   -0.7666    0.7145    2.4656 N   0  0  0  0  0  0  0  0  0  0  0  0
   -1.6971    0.7705    2.0790 H   0  0  0  0  0  0  0  0  0  0  0  0
   -0.5716    1.1232    3.8542 C   0  0  0  0  0  0  0  0  0  0  0  0
    0.3083    1.7643    3.9293 H   0  0  0  0  0  0  0  0  0  0  0  0
   -1.4485    1.6640    4.2131 H   0  0  0  0  0  0  0  0  0  0  0  0
   -0.4137    0.2381    4.4736 H   0  0  0  0  0  0  0  0  0  0  0  0
  5  6  2  0  0  0  0
  5  7  1  0  0  0  0
  2  3  1  0  0  0  0
  2  4  1  0  0  0  0
  2  5  1  0  0  0  0
  1  2  1  0  0  0  0
 20 21  2  0  0  0  0
 20 22  1  0  0  0  0
 17 18  1  0  0  0  0
 17 19  2  0  0  0  0
 14 15  1  0  0  0  0
 14 16  1  0  0  0  0
 14 17  1  0  0  0  0
 11 12  1  0  0  0  0
 11 13  1  0  0  0  0
 11 14  1  0  0  0  0
  9 10  1  0  0  0  0
  9 11  1  0  0  0  0
  9 20  1  0  0  0  0
  7  8  1  0  0  0  0
  7  9  1  0  0  0  0
 24 25  1  0  0  0  0
 24 26  1  0  0  0  0
 24 27  1  0  0  0  0
 22 23  1  0  0  0  0
 22 24  1  0  0  0  0
M  CHG  1  18  -1
M  END
$$$$
default_name
  -OEChem-02102213163D

 27 26  0     1  0  0  0  0  0999 V2000
   -3.2406   -3.5400    1.2326 H   0  0  0  0  0  0  0  0  0  0  0  0
   -3.1436   -2.6190    0.6606 C   0  0  0  0  0  0  0  0  0  0  0  0
   -3.8786   -1.8920    0.9996 H   0  0  0  0  0  0  0  0  0  0  0  0
   -3.2846   -2.8280   -0.3984 H   0  0  0  0  0  0  0  0  0  0  0  0
   -1.7586   -2.0580    0.8686 C   0  0  0  0  0  0  0  0  0  0  0  0
   -0.9666   -2.6340    1.6026 O   0  0  0  0  0  0  0  0  0  0  0  0
   -1.4866   -0.9220    0.2366 N   0  0  0  0  0  0  0  0  0  0  0  0
   -2.2166   -0.4790   -0.2994 H   0  0  0  0  0  0  0  0  0  0  0  0
   -0.1956   -0.2250    0.2596 C   0  0  1  0  0  0  0  0  0  0  0  0
    0.5755   -0.9013   -0.1105 H   0  0  0  0  0  0  0  0  0  0  0  0
   -0.2553    0.9811   -0.6992 C   0  0  0  0  0  0  0  0  0  0  0  0
    0.4153    1.7507   -0.3136 H   0  0  0  0  0  0  0  0  0  0  0  0
    0.1005    0.6760   -1.6843 H   0  0  0  0  0  0  0  0  0  0  0  0
   -1.6631    1.5852   -0.8360 C   0  0  0  0  0  0  0  0  0  0  0  0
   -2.1950    1.0728   -1.6412 H   0  0  0  0  0  0  0  0  0  0  0  0
   -2.2061    1.4041    0.0954 H   0  0  0  0  0  0  0  0  0  0  0  0
   -1.6543    3.0923   -1.1322 C   0  0  0  0  0  0  0  0  0  0  0  0
   -0.5592    3.6976   -1.1003 O   0  5  0  0  0  0  0  0  0  0  0  0
   -2.7556    3.6152   -1.4133 O   0  0  0  0  0  0  0  0  0  0  0  0
    0.1881    0.1678    1.7015 C   0  0  0  0  0  0  0  0  0  0  0  0
    1.3379    0.0002    2.1133 O   0  0  0  0  0  0  0  0  0  0  0  0
   -0.7666    0.7145    2.4656 N   0  0  0  0  0  0  0  0  0  0  0  0
   -1.6971    0.7705    2.0790 H   0  0  0  0  0  0  0  0  0  0  0  0
   -0.5716    1.1232    3.8542 C   0  0  0  0  0  0  0  0  0  0  0  0
    0.3083    1.7643    3.9293 H   0  0  0  0  0  0  0  0  0  0  0  0
   -1.4485    1.6640    4.2131 H   0  0  0  0  0  0  0  0  0  0  0  0
   -0.4137    0.2381    4.4736 H   0  0  0  0  0  0  0  0  0  0  0  0
  5  6  2  0  0  0  0
  5  7  1  0  0  0  0
  2  3  1  0  0  0  0
  2  4  1  0  0  0  0
  2  5  1  0  0  0  0
  1  2  1  0  0  0  0
 20 21  2  0  0  0  0
 20 22  1  0  0  0  0
 17 18  1  0  0  0  0
 17 19  2  0  0  0  0
 14 15  1  0  0  0  0
 14 16  1  0  0  0  0
 14 17  1  0  0  0  0
 11 12  1  0  0  0  0
 11 13  1  0  0  0  0
 11 14  1  0  0  0  0
  9 10  1  0  0  0  0
  9 11  1  0  0  0  0
  9 20  1  0  0  0  0
  7  8  1  0  0  0  0
  7  9  1  0  0  0  0
 24 25  1  0  0  0  0
 24 26  1  0  0  0  0
 24 27  1  0  0  0  0
 22 23  1  0  0  0  0
 22 24  1  0  0  0  0
M  CHG  1  18  -1
M  END
$$$$
default_name
  -OEChem-02102213163D

 27 26  0     1  0  0  0  0  0999 V2000
   -3.2406   -3.5400    1.2326 H   0  0  0  0  0  0  0  0  0  0  0  0
   -3.1436   -2.6190    0.6606 C   0  0  0  0  0  0  0  0  0  0  0  0
   -3.8786   -1.8920    0.9996 H   0  0  0  0  0  0  0  0  0  0  0  0
   -3.2846   -2.8280   -0.3984 H   0  0  0  0  0  0  0  0  0  0  0  0
   -1.7586   -2.0580    0.8686 C   0  0  0  0  0  0  0  0  0  0  0  0
   -0.9666   -2.6340    1.6026 O   0  0  0  0  0  0  0  0  0  0  0  0
   -1.4866   -0.9220    0.2366 N   0  0  0  0  0  0  0  0  0  0  0  0
   -2.2166   -0.4790   -0.2994 H   0  0  0  0  0  0  0  0  0  0  0  0
   -0.1956   -0.2250    0.2596 C   0  0  1  0  0  0  0  0  0  0  0  0
    0.5755   -0.9013   -0.1105 H   0  0  0  0  0  0  0  0  0  0  0  0
   -0.2553    0.9811   -0.6992 C   0  0  0  0  0  0  0  0  0  0  0  0
    0.4153    1.7507   -0.3136 H   0  0  0  0  0  0  0  0  0  0  0  0
    0.1005    0.6760   -1.6843 H   0  0  0  0  0  0  0  0  0  0  0  0
   -1.6631    1.5852   -0.8360 C   0  0  0  0  0  0  0  0  0  0  0  0
   -2.2817    0.9166   -1.4394 H   0  0  0  0  0  0  0  0  0  0  0  0
   -2.1078    1.6480    0.1607 H   0  0  0  0  0  0  0  0  0  0  0  0
   -1.6690    2.9787   -1.4818 C   0  0  0  0  0  0  0  0  0  0  0  0
   -0.5702    3.5354   -1.7034 O   0  5  0  0  0  0  0  0  0  0  0  0
   -2.7879    3.4591   -1.7690 O   0  0  0  0  0  0  0  0  0  0  0  0
    0.1881    0.1678    1.7015 C   0  0  0  0  0  0  0  0  0  0  0  0
    1.3379    0.0002    2.1133 O   0  0  0  0  0  0  0  0  0  0  0  0
   -0.7666    0.7145    2.4656 N   0  0  0  0  0  0  0  0  0  0  0  0
   -1.6971    0.7705    2.0790 H   0  0  0  0  0  0  0  0  0  0  0  0
   -0.5716    1.1232    3.8542 C   0  0  0  0  0  0  0  0  0  0  0  0
    0.3083    1.7643    3.9293 H   0  0  0  0  0  0  0  0  0  0  0  0
   -1.4485    1.6640    4.2131 H   0  0  0  0  0  0  0  0  0  0  0  0
   -0.4137    0.2381    4.4736 H   0  0  0  0  0  0  0  0  0  0  0  0
  5  6  2  0  0  0  0
  5  7  1  0  0  0  0
  2  3  1  0  0  0  0
  2  4  1  0  0  0  0
  2  5  1  0  0  0  0
  1  2  1  0  0  0  0
 20 21  2  0  0  0  0
 20 22  1  0  0  0  0
 17 18  1  0  0  0  0
 17 19  2  0  0  0  0
 14 15  1  0  0  0  0
 14 16  1  0  0  0  0
 14 17  1  0  0  0  0
 11 12  1  0  0  0  0
 11 13  1  0  0  0  0
 11 14  1  0  0  0  0
  9 10  1  0  0  0  0
  9 11  1  0  0  0  0
  9 20  1  0  0  0  0
  7  8  1  0  0  0  0
  7  9  1  0  0  0  0
 24 25  1  0  0  0  0
 24 26  1  0  0  0  0
 24 27  1  0  0  0  0
 22 23  1  0  0  0  0
 22 24  1  0  0  0  0
M  CHG  1  18  -1
M  END
$$$$
default_name
  -OEChem-02102213163D

 27 26  0     1  0  0  0  0  0999 V2000
   -3.2406   -3.5400    1.2326 H   0  0  0  0  0  0  0  0  0  0  0  0
   -3.1436   -2.6190    0.6606 C   0  0  0  0  0  0  0  0  0  0  0  0
   -3.8786   -1.8920    0.9996 H   0  0  0  0  0  0  0  0  0  0  0  0
   -3.2846   -2.8280   -0.3984 H   0  0  0  0  0  0  0  0  0  0  0  0
   -1.7586   -2.0580    0.8686 C   0  0  0  0  0  0  0  0  0  0  0  0
   -0.9666   -2.6340    1.6026 O   0  0  0  0  0  0  0  0  0  0  0  0
   -1.4866   -0.9220    0.2366 N   0  0  0  0  0  0  0  0  0  0  0  0
   -2.2166   -0.4790   -0.2994 H   0  0  0  0  0  0  0  0  0  0  0  0
   -0.1956   -0.2250    0.2596 C   0  0  1  0  0  0  0  0  0  0  0  0
    0.5755   -0.9013   -0.1105 H   0  0  0  0  0  0  0  0  0  0  0  0
   -0.2553    0.9811   -0.6992 C   0  0  0  0  0  0  0  0  0  0  0  0
    0.5939    1.6293   -0.4773 H   0  0  0  0  0  0  0  0  0  0  0  0
   -0.1606    0.6289   -1.7274 H   0  0  0  0  0  0  0  0  0  0  0  0
   -1.5464    1.8062   -0.5653 C   0  0  0  0  0  0  0  0  0  0  0  0
   -2.4053    1.1599   -0.7617 H   0  0  0  0  0  0  0  0  0  0  0  0
   -1.6209    2.1618    0.4657 H   0  0  0  0  0  0  0  0  0  0  0  0
   -1.6048    3.0073   -1.5208 C   0  0  0  0  0  0  0  0  0  0  0  0
   -0.5865    3.2798   -2.1954 O   0  5  0  0  0  0  0  0  0  0  0  0
   -2.6908    3.6259   -1.5784 O   0  0  0  0  0  0  0  0  0  0  0  0
    0.1881    0.1678    1.7015 C   0  0  0  0  0  0  0  0  0  0  0  0
    1.3379    0.0002    2.1133 O   0  0  0  0  0  0  0  0  0  0  0  0
   -0.7666    0.7145    2.4656 N   0  0  0  0  0  0  0  0  0  0  0  0
   -1.6971    0.7705    2.0790 H   0  0  0  0  0  0  0  0  0  0  0  0
   -0.5716    1.1232    3.8542 C   0  0  0  0  0  0  0  0  0  0  0  0
    0.3083    1.7643    3.9293 H   0  0  0  0  0  0  0  0  0  0  0  0
   -1.4485    1.6640    4.2131 H   0  0  0  0  0  0  0  0  0  0  0  0
   -0.4137    0.2381    4.4736 H   0  0  0  0  0  0  0  0  0  0  0  0
  5  6  2  0  0  0  0
  5  7  1  0  0  0  0
  2  3  1  0  0  0  0
  2  4  1  0  0  0  0
  2  5  1  0  0  0  0
  1  2  1  0  0  0  0
 20 21  2  0  0  0  0
 20 22  1  0  0  0  0
 17 18  1  0  0  0  0
 17 19  2  0  0  0  0
 14 15  1  0  0  0  0
 14 16  1  0  0  0  0
 14 17  1  0  0  0  0
 11 12  1  0  0  0  0
 11 13  1  0  0  0  0
 11 14  1  0  0  0  0
  9 10  1  0  0  0  0
  9 11  1  0  0  0  0
  9 20  1  0  0  0  0
  7  8  1  0  0  0  0
  7  9  1  0  0  0  0
 24 25  1  0  0  0  0
 24 26  1  0  0  0  0
 24 27  1  0  0  0  0
 22 23  1  0  0  0  0
 22 24  1  0  0  0  0
M  CHG  1  18  -1
M  END
$$$$
default_name
  -OEChem-02102213163D

 27 26  0     1  0  0  0  0  0999 V2000
   -3.2406   -3.5400    1.2326 H   0  0  0  0  0  0  0  0  0  0  0  0
   -3.1436   -2.6190    0.6606 C   0  0  0  0  0  0  0  0  0  0  0  0
   -3.8786   -1.8920    0.9996 H   0  0  0  0  0  0  0  0  0  0  0  0
   -3.2846   -2.8280   -0.3984 H   0  0  0  0  0  0  0  0  0  0  0  0
   -1.7586   -2.0580    0.8686 C   0  0  0  0  0  0  0  0  0  0  0  0
   -0.9666   -2.6340    1.6026 O   0  0  0  0  0  0  0  0  0  0  0  0
   -1.4866   -0.9220    0.2366 N   0  0  0  0  0  0  0  0  0  0  0  0
   -2.2166   -0.4790   -0.2994 H   0  0  0  0  0  0  0  0  0  0  0  0
   -0.1956   -0.2250    0.2596 C   0  0  1  0  0  0  0  0  0  0  0  0
    0.5755   -0.9013   -0.1105 H   0  0  0  0  0  0  0  0  0  0  0  0
   -0.2553    0.9811   -0.6992 C   0  0  0  0  0  0  0  0  0  0  0  0
    0.5939    1.6293   -0.4773 H   0  0  0  0  0  0  0  0  0  0  0  0
   -0.1606    0.6289   -1.7274 H   0  0  0  0  0  0  0  0  0  0  0  0
   -1.5464    1.8062   -0.5653 C   0  0  0  0  0  0  0  0  0  0  0  0
   -2.3990    1.1265   -0.4943 H   0  0  0  0  0  0  0  0  0  0  0  0
   -1.4930    2.3783    0.3647 H   0  0  0  0  0  0  0  0  0  0  0  0
   -1.7800    2.7686   -1.7393 C   0  0  0  0  0  0  0  0  0  0  0  0
   -0.8742    2.8941   -2.5938 O   0  5  0  0  0  0  0  0  0  0  0  0
   -2.8863    3.3518   -1.7749 O   0  0  0  0  0  0  0  0  0  0  0  0
    0.1881    0.1678    1.7015 C   0  0  0  0  0  0  0  0  0  0  0  0
    1.3379    0.0002    2.1133 O   0  0  0  0  0  0  0  0  0  0  0  0
   -0.7666    0.7145    2.4656 N   0  0  0  0  0  0  0  0  0  0  0  0
   -1.6971    0.7705    2.0790 H   0  0  0  0  0  0  0  0  0  0  0  0
   -0.5716    1.1232    3.8542 C   0  0  0  0  0  0  0  0  0  0  0  0
    0.3083    1.7643    3.9293 H   0  0  0  0  0  0  0  0  0  0  0  0
   -1.4485    1.6640    4.2131 H   0  0  0  0  0  0  0  0  0  0  0  0
   -0.4137    0.2381    4.4736 H   0  0  0  0  0  0  0  0  0  0  0  0
  5  6  2  0  0  0  0
  5  7  1  0  0  0  0
  2  3  1  0  0  0  0
  2  4  1  0  0  0  0
  2  5  1  0  0  0  0
  1  2  1  0  0  0  0
 20 21  2  0  0  0  0
 20 22  1  0  0  0  0
 17 18  1  0  0  0  0
 17 19  2  0  0  0  0
 14 15  1  0  0  0  0
 14 16  1  0  0  0  0
 14 17  1  0  0  0  0
 11 12  1  0  0  0  0
 11 13  1  0  0  0  0
 11 14  1  0  0  0  0
  9 10  1  0  0  0  0
  9 11  1  0  0  0  0
  9 20  1  0  0  0  0
  7  8  1  0  0  0  0
  7  9  1  0  0  0  0
 24 25  1  0  0  0  0
 24 26  1  0  0  0  0
 24 27  1  0  0  0  0
 22 23  1  0  0  0  0
 22 24  1  0  0  0  0
M  CHG  1  18  -1
M  END
$$$$
default_name
  -OEChem-02102213163D

 27 26  0     1  0  0  0  0  0999 V2000
   -3.2406   -3.5400    1.2326 H   0  0  0  0  0  0  0  0  0  0  0  0
   -3.1436   -2.6190    0.6606 C   0  0  0  0  0  0  0  0  0  0  0  0
   -3.8786   -1.8920    0.9996 H   0  0  0  0  0  0  0  0  0  0  0  0
   -3.2846   -2.8280   -0.3984 H   0  0  0  0  0  0  0  0  0  0  0  0
   -1.7586   -2.0580    0.8686 C   0  0  0  0  0  0  0  0  0  0  0  0
   -0.9666   -2.6340    1.6026 O   0  0  0  0  0  0  0  0  0  0  0  0
   -1.4866   -0.9220    0.2366 N   0  0  0  0  0  0  0  0  0  0  0  0
   -2.2166   -0.4790   -0.2994 H   0  0  0  0  0  0  0  0  0  0  0  0
   -0.1956   -0.2250    0.2596 C   0  0  1  0  0  0  0  0  0  0  0  0
    0.5755   -0.9013   -0.1105 H   0  0  0  0  0  0  0  0  0  0  0  0
   -0.2553    0.9811   -0.6992 C   0  0  0  0  0  0  0  0  0  0  0  0
    0.5939    1.6293   -0.4773 H   0  0  0  0  0  0  0  0  0  0  0  0
   -0.1606    0.6289   -1.7274 H   0  0  0  0  0  0  0  0  0  0  0  0
   -1.5464    1.8062   -0.5653 C   0  0  0  0  0  0  0  0  0  0  0  0
   -2.3550    1.1524   -0.2296 H   0  0  0  0  0  0  0  0  0  0  0  0
   -1.3884    2.5683    0.2023 H   0  0  0  0  0  0  0  0  0  0  0  0
   -1.9741    2.4866   -1.8741 C   0  0  0  0  0  0  0  0  0  0  0  0
   -1.1987    2.4286   -2.8549 O   0  5  0  0  0  0  0  0  0  0  0  0
   -3.0962    3.0400   -1.8780 O   0  0  0  0  0  0  0  0  0  0  0  0
    0.1881    0.1678    1.7015 C   0  0  0  0  0  0  0  0  0  0  0  0
    1.3379    0.0002    2.1133 O   0  0  0  0  0  0  0  0  0  0  0  0
   -0.7666    0.7145    2.4656 N   0  0  0  0  0  0  0  0  0  0  0  0
   -1.6971    0.7705    2.0790 H   0  0  0  0  0  0  0  0  0  0  0  0
   -0.5716    1.1232    3.8542 C   0  0  0  0  0  0  0  0  0  0  0  0
    0.3083    1.7643    3.9293 H   0  0  0  0  0  0  0  0  0  0  0  0
   -1.4485    1.6640    4.2131 H   0  0  0  0  0  0  0  0  0  0  0  0
   -0.4137    0.2381    4.4736 H   0  0  0  0  0  0  0  0  0  0  0  0
  5  6  2  0  0  0  0
  5  7  1  0  0  0  0
  2  3  1  0  0  0  0
  2  4  1  0  0  0  0
  2  5  1  0  0  0  0
  1  2  1  0  0  0  0
 20 21  2  0  0  0  0
 20 22  1  0  0  0  0
 17 18  1  0  0  0  0
 17 19  2  0  0  0  0
 14 15  1  0  0  0  0
 14 16  1  0  0  0  0
 14 17  1  0  0  0  0
 11 12  1  0  0  0  0
 11 13  1  0  0  0  0
 11 14  1  0  0  0  0
  9 10  1  0  0  0  0
  9 11  1  0  0  0  0
  9 20  1  0  0  0  0
  7  8  1  0  0  0  0
  7  9  1  0  0  0  0
 24 25  1  0  0  0  0
 24 26  1  0  0  0  0
 24 27  1  0  0  0  0
 22 23  1  0  0  0  0
 22 24  1  0  0  0  0
M  CHG  1  18  -1
M  END
$$$$
default_name
  -OEChem-02102213163D

 27 26  0     1  0  0  0  0  0999 V2000
   -3.2406   -3.5400    1.2326 H   0  0  0  0  0  0  0  0  0  0  0  0
   -3.1436   -2.6190    0.6606 C   0  0  0  0  0  0  0  0  0  0  0  0
   -3.8786   -1.8920    0.9996 H   0  0  0  0  0  0  0  0  0  0  0  0
   -3.2846   -2.8280   -0.3984 H   0  0  0  0  0  0  0  0  0  0  0  0
   -1.7586   -2.0580    0.8686 C   0  0  0  0  0  0  0  0  0  0  0  0
   -0.9666   -2.6340    1.6026 O   0  0  0  0  0  0  0  0  0  0  0  0
   -1.4866   -0.9220    0.2366 N   0  0  0  0  0  0  0  0  0  0  0  0
   -2.2166   -0.4790   -0.2994 H   0  0  0  0  0  0  0  0  0  0  0  0
   -0.1956   -0.2250    0.2596 C   0  0  1  0  0  0  0  0  0  0  0  0
    0.5755   -0.9013   -0.1105 H   0  0  0  0  0  0  0  0  0  0  0  0
   -0.2553    0.9811   -0.6992 C   0  0  0  0  0  0  0  0  0  0  0  0
    0.5939    1.6293   -0.4773 H   0  0  0  0  0  0  0  0  0  0  0  0
   -0.1606    0.6289   -1.7274 H   0  0  0  0  0  0  0  0  0  0  0  0
   -1.5464    1.8062   -0.5653 C   0  0  0  0  0  0  0  0  0  0  0  0
   -2.2763    1.2359    0.0143 H   0  0  0  0  0  0  0  0  0  0  0  0
   -1.3142    2.7190   -0.0104 H   0  0  0  0  0  0  0  0  0  0  0  0
   -2.1741    2.1806   -1.9162 C   0  0  0  0  0  0  0  0  0  0  0  0
   -1.5379    1.9149   -2.9608 O   0  5  0  0  0  0  0  0  0  0  0  0
   -3.3063    2.7116   -1.8807 O   0  0  0  0  0  0  0  0  0  0  0  0
    0.1881    0.1678    1.7015 C   0  0  0  0  0  0  0  0  0  0  0  0
    1.3379    0.0002    2.1133 O   0  0  0  0  0  0  0  0  0  0  0  0
   -0.7666    0.7145    2.4656 N   0  0  0  0  0  0  0  0  0  0  0  0
   -1.6971    0.7705    2.0790 H   0  0  0  0  0  0  0  0  0  0  0  0
   -0.5716    1.1232    3.8542 C   0  0  0  0  0  0  0  0  0  0  0  0
    0.3083    1.7643    3.9293 H   0  0  0  0  0  0  0  0  0  0  0  0
   -1.4485    1.6640    4.2131 H   0  0  0  0  0  0  0  0  0  0  0  0
   -0.4137    0.2381    4.4736 H   0  0  0  0  0  0  0  0  0  0  0  0
  5  6  2  0  0  0  0
  5  7  1  0  0  0  0
  2  3  1  0  0  0  0
  2  4  1  0  0  0  0
  2  5  1  0  0  0  0
  1  2  1  0  0  0  0
 20 21  2  0  0  0  0
 20 22  1  0  0  0  0
 17 18  1  0  0  0  0
 17 19  2  0  0  0  0
 14 15  1  0  0  0  0
 14 16  1  0  0  0  0
 14 17  1  0  0  0  0
 11 12  1  0  0  0  0
 11 13  1  0  0  0  0
 11 14  1  0  0  0  0
  9 10  1  0  0  0  0
  9 11  1  0  0  0  0
  9 20  1  0  0  0  0
  7  8  1  0  0  0  0
  7  9  1  0  0  0  0
 24 25  1  0  0  0  0
 24 26  1  0  0  0  0
 24 27  1  0  0  0  0
 22 23  1  0  0  0  0
 22 24  1  0  0  0  0
M  CHG  1  18  -1
M  END
$$$$
default_name
  -OEChem-02102213163D

 27 26  0     1  0  0  0  0  0999 V2000
   -3.2406   -3.5400    1.2326 H   0  0  0  0  0  0  0  0  0  0  0  0
   -3.1436   -2.6190    0.6606 C   0  0  0  0  0  0  0  0  0  0  0  0
   -3.8786   -1.8920    0.9996 H   0  0  0  0  0  0  0  0  0  0  0  0
   -3.2846   -2.8280   -0.3984 H   0  0  0  0  0  0  0  0  0  0  0  0
   -1.7586   -2.0580    0.8686 C   0  0  0  0  0  0  0  0  0  0  0  0
   -0.9666   -2.6340    1.6026 O   0  0  0  0  0  0  0  0  0  0  0  0
   -1.4866   -0.9220    0.2366 N   0  0  0  0  0  0  0  0  0  0  0  0
   -2.2166   -0.4790   -0.2994 H   0  0  0  0  0  0  0  0  0  0  0  0
   -0.1956   -0.2250    0.2596 C   0  0  1  0  0  0  0  0  0  0  0  0
    0.5755   -0.9013   -0.1105 H   0  0  0  0  0  0  0  0  0  0  0  0
   -0.2553    0.9811   -0.6992 C   0  0  0  0  0  0  0  0  0  0  0  0
    0.5939    1.6293   -0.4773 H   0  0  0  0  0  0  0  0  0  0  0  0
   -0.1606    0.6289   -1.7274 H   0  0  0  0  0  0  0  0  0  0  0  0
   -1.5464    1.8062   -0.5653 C   0  0  0  0  0  0  0  0  0  0  0  0
   -2.1683    1.3714    0.2208 H   0  0  0  0  0  0  0  0  0  0  0  0
   -1.2754    2.8199   -0.2588 H   0  0  0  0  0  0  0  0  0  0  0  0
   -2.3661    1.8714   -1.8626 C   0  0  0  0  0  0  0  0  0  0  0  0
   -1.8688    1.3881   -2.9045 O   0  5  0  0  0  0  0  0  0  0  0  0
   -3.5023    2.3891   -1.7828 O   0  0  0  0  0  0  0  0  0  0  0  0
    0.1881    0.1678    1.7015 C   0  0  0  0  0  0  0  0  0  0  0  0
    1.3379    0.0002    2.1133 O   0  0  0  0  0  0  0  0  0  0  0  0
   -0.7666    0.7145    2.4656 N   0  0  0  0  0  0  0  0  0  0  0  0
   -1.6971    0.7705    2.0790 H   0  0  0  0  0  0  0  0  0  0  0  0
   -0.5716    1.1232    3.8542 C   0  0  0  0  0  0  0  0  0  0  0  0
    0.3083    1.7643    3.9293 H   0  0  0  0  0  0  0  0  0  0  0  0
   -1.4485    1.6640    4.2131 H   0  0  0  0  0  0  0  0  0  0  0  0
   -0.4137    0.2381    4.4736 H   0  0  0  0  0  0  0  0  0  0  0  0
  5  6  2  0  0  0  0
  5  7  1  0  0  0  0
  2  3  1  0  0  0  0
  2  4  1  0  0  0  0
  2  5  1  0  0  0  0
  1  2  1  0  0  0  0
 20 21  2  0  0  0  0
 20 22  1  0  0  0  0
 17 18  1  0  0  0  0
 17 19  2  0  0  0  0
 14 15  1  0  0  0  0
 14 16  1  0  0  0  0
 14 17  1  0  0  0  0
 11 12  1  0  0  0  0
 11 13  1  0  0  0  0
 11 14  1  0  0  0  0
  9 10  1  0  0  0  0
  9 11  1  0  0  0  0
  9 20  1  0  0  0  0
  7  8  1  0  0  0  0
  7  9  1  0  0  0  0
 24 25  1  0  0  0  0
 24 26  1  0  0  0  0
 24 27  1  0  0  0  0
 22 23  1  0  0  0  0
 22 24  1  0  0  0  0
M  CHG  1  18  -1
M  END
$$$$
default_name
  -OEChem-02102213163D

 27 26  0     1  0  0  0  0  0999 V2000
   -3.2406   -3.5400    1.2326 H   0  0  0  0  0  0  0  0  0  0  0  0
   -3.1436   -2.6190    0.6606 C   0  0  0  0  0  0  0  0  0  0  0  0
   -3.8786   -1.8920    0.9996 H   0  0  0  0  0  0  0  0  0  0  0  0
   -3.2846   -2.8280   -0.3984 H   0  0  0  0  0  0  0  0  0  0  0  0
   -1.7586   -2.0580    0.8686 C   0  0  0  0  0  0  0  0  0  0  0  0
   -0.9666   -2.6340    1.6026 O   0  0  0  0  0  0  0  0  0  0  0  0
   -1.4866   -0.9220    0.2366 N   0  0  0  0  0  0  0  0  0  0  0  0
   -2.2166   -0.4790   -0.2994 H   0  0  0  0  0  0  0  0  0  0  0  0
   -0.1956   -0.2250    0.2596 C   0  0  1  0  0  0  0  0  0  0  0  0
    0.5755   -0.9013   -0.1105 H   0  0  0  0  0  0  0  0  0  0  0  0
   -0.2553    0.9811   -0.6992 C   0  0  0  0  0  0  0  0  0  0  0  0
    0.5939    1.6293   -0.4773 H   0  0  0  0  0  0  0  0  0  0  0  0
   -0.1606    0.6289   -1.7274 H   0  0  0  0  0  0  0  0  0  0  0  0
   -1.5464    1.8062   -0.5653 C   0  0  0  0  0  0  0  0  0  0  0  0
   -2.0384    1.5495    0.3759 H   0  0  0  0  0  0  0  0  0  0  0  0
   -1.2747    2.8644   -0.5261 H   0  0  0  0  0  0  0  0  0  0  0  0
   -2.5372    1.5800   -1.7169 C   0  0  0  0  0  0  0  0  0  0  0  0
   -2.1686    0.8840   -2.6896 O   0  5  0  0  0  0  0  0  0  0  0  0
   -3.6706    2.0945   -1.5909 O   0  0  0  0  0  0  0  0  0  0  0  0
    0.1881    0.1678    1.7015 C   0  0  0  0  0  0  0  0  0  0  0  0
    1.3379    0.0002    2.1133 O   0  0  0  0  0  0  0  0  0  0  0  0
   -0.7666    0.7145    2.4656 N   0  0  0  0  0  0  0  0  0  0  0  0
   -1.6971    0.7705    2.0790 H   0  0  0  0  0  0  0  0  0  0  0  0
   -0.5716    1.1232    3.8542 C   0  0  0  0  0  0  0  0  0  0  0  0
    0.3083    1.7643    3.9293 H   0  0  0  0  0  0  0  0  0  0  0  0
   -1.4485    1.6640    4.2131 H   0  0  0  0  0  0  0  0  0  0  0  0
   -0.4137    0.2381    4.4736 H   0  0  0  0  0  0  0  0  0  0  0  0
  5  6  2  0  0  0  0
  5  7  1  0  0  0  0
  2  3  1  0  0  0  0
  2  4  1  0  0  0  0
  2  5  1  0  0  0  0
  1  2  1  0  0  0  0
 20 21  2  0  0  0  0
 20 22  1  0  0  0  0
 17 18  1  0  0  0  0
 17 19  2  0  0  0  0
 14 15  1  0  0  0  0
 14 16  1  0  0  0  0
 14 17  1  0  0  0  0
 11 12  1  0  0  0  0
 11 13  1  0  0  0  0
 11 14  1  0  0  0  0
  9 10  1  0  0  0  0
  9 11  1  0  0  0  0
  9 20  1  0  0  0  0
  7  8  1  0  0  0  0
  7  9  1  0  0  0  0
 24 25  1  0  0  0  0
 24 26  1  0  0  0  0
 24 27  1  0  0  0  0
 22 23  1  0  0  0  0
 22 24  1  0  0  0  0
M  CHG  1  18  -1
M  END
$$$$
default_name
  -OEChem-02102213163D

 27 26  0     1  0  0  0  0  0999 V2000
   -3.2406   -3.5400    1.2326 H   0  0  0  0  0  0  0  0  0  0  0  0
   -3.1436   -2.6190    0.6606 C   0  0  0  0  0  0  0  0  0  0  0  0
   -3.8786   -1.8920    0.9996 H   0  0  0  0  0  0  0  0  0  0  0  0
   -3.2846   -2.8280   -0.3984 H   0  0  0  0  0  0  0  0  0  0  0  0
   -1.7586   -2.0580    0.8686 C   0  0  0  0  0  0  0  0  0  0  0  0
   -0.9666   -2.6340    1.6026 O   0  0  0  0  0  0  0  0  0  0  0  0
   -1.4866   -0.9220    0.2366 N   0  0  0  0  0  0  0  0  0  0  0  0
   -2.2166   -0.4790   -0.2994 H   0  0  0  0  0  0  0  0  0  0  0  0
   -0.1956   -0.2250    0.2596 C   0  0  1  0  0  0  0  0  0  0  0  0
    0.5755   -0.9013   -0.1105 H   0  0  0  0  0  0  0  0  0  0  0  0
   -0.2553    0.9811   -0.6992 C   0  0  0  0  0  0  0  0  0  0  0  0
    0.5939    1.6293   -0.4773 H   0  0  0  0  0  0  0  0  0  0  0  0
   -0.1606    0.6289   -1.7274 H   0  0  0  0  0  0  0  0  0  0  0  0
   -1.5464    1.8062   -0.5653 C   0  0  0  0  0  0  0  0  0  0  0  0
   -1.8954    1.7582    0.4690 H   0  0  0  0  0  0  0  0  0  0  0  0
   -1.3122    2.8492   -0.7941 H   0  0  0  0  0  0  0  0  0  0  0  0
   -2.6757    1.3264   -1.4892 C   0  0  0  0  0  0  0  0  0  0  0  0
   -2.4171    0.4370   -2.3310 O   0  5  0  0  0  0  0  0  0  0  0  0
   -3.8000    1.8478   -1.3182 O   0  0  0  0  0  0  0  0  0  0  0  0
    0.1881    0.1678    1.7015 C   0  0  0  0  0  0  0  0  0  0  0  0
    1.3379    0.0002    2.1133 O   0  0  0  0  0  0  0  0  0  0  0  0
   -0.7666    0.7145    2.4656 N   0  0  0  0  0  0  0  0  0  0  0  0
   -1.6971    0.7705    2.0790 H   0  0  0  0  0  0  0  0  0  0  0  0
   -0.5716    1.1232    3.8542 C   0  0  0  0  0  0  0  0  0  0  0  0
    0.3083    1.7643    3.9293 H   0  0  0  0  0  0  0  0  0  0  0  0
   -1.4485    1.6640    4.2131 H   0  0  0  0  0  0  0  0  0  0  0  0
   -0.4137    0.2381    4.4736 H   0  0  0  0  0  0  0  0  0  0  0  0
  5  6  2  0  0  0  0
  5  7  1  0  0  0  0
  2  3  1  0  0  0  0
  2  4  1  0  0  0  0
  2  5  1  0  0  0  0
  1  2  1  0  0  0  0
 20 21  2  0  0  0  0
 20 22  1  0  0  0  0
 17 18  1  0  0  0  0
 17 19  2  0  0  0  0
 14 15  1  0  0  0  0
 14 16  1  0  0  0  0
 14 17  1  0  0  0  0
 11 12  1  0  0  0  0
 11 13  1  0  0  0  0
 11 14  1  0  0  0  0
  9 10  1  0  0  0  0
  9 11  1  0  0  0  0
  9 20  1  0  0  0  0
  7  8  1  0  0  0  0
  7  9  1  0  0  0  0
 24 25  1  0  0  0  0
 24 26  1  0  0  0  0
 24 27  1  0  0  0  0
 22 23  1  0  0  0  0
 22 24  1  0  0  0  0
M  CHG  1  18  -1
M  END
$$$$
default_name
  -OEChem-02102213163D

 27 26  0     1  0  0  0  0  0999 V2000
   -3.2406   -3.5400    1.2326 H   0  0  0  0  0  0  0  0  0  0  0  0
   -3.1436   -2.6190    0.6606 C   0  0  0  0  0  0  0  0  0  0  0  0
   -3.8786   -1.8920    0.9996 H   0  0  0  0  0  0  0  0  0  0  0  0
   -3.2846   -2.8280   -0.3984 H   0  0  0  0  0  0  0  0  0  0  0  0
   -1.7586   -2.0580    0.8686 C   0  0  0  0  0  0  0  0  0  0  0  0
   -0.9666   -2.6340    1.6026 O   0  0  0  0  0  0  0  0  0  0  0  0
   -1.4866   -0.9220    0.2366 N   0  0  0  0  0  0  0  0  0  0  0  0
   -2.2166   -0.4790   -0.2994 H   0  0  0  0  0  0  0  0  0  0  0  0
   -0.1956   -0.2250    0.2596 C   0  0  1  0  0  0  0  0  0  0  0  0
    0.5755   -0.9013   -0.1105 H   0  0  0  0  0  0  0  0  0  0  0  0
   -0.2553    0.9811   -0.6992 C   0  0  0  0  0  0  0  0  0  0  0  0
    0.5939    1.6293   -0.4773 H   0  0  0  0  0  0  0  0  0  0  0  0
   -0.1606    0.6289   -1.7274 H   0  0  0  0  0  0  0  0  0  0  0  0
   -1.5464    1.8062   -0.5653 C   0  0  0  0  0  0  0  0  0  0  0  0
   -1.7490    1.9833    0.4936 H   0  0  0  0  0  0  0  0  0  0  0  0
   -1.3852    2.7755   -1.0444 H   0  0  0  0  0  0  0  0  0  0  0  0
   -2.7721    1.1277   -1.1949 C   0  0  0  0  0  0  0  0  0  0  0  0
   -2.5972    0.0776   -1.8529 O   0  5  0  0  0  0  0  0  0  0  0  0
   -3.8816    1.6659   -0.9833 O   0  0  0  0  0  0  0  0  0  0  0  0
    0.1881    0.1678    1.7015 C   0  0  0  0  0  0  0  0  0  0  0  0
    1.3379    0.0002    2.1133 O   0  0  0  0  0  0  0  0  0  0  0  0
   -0.7666    0.7145    2.4656 N   0  0  0  0  0  0  0  0  0  0  0  0
   -1.6971    0.7705    2.0790 H   0  0  0  0  0  0  0  0  0  0  0  0
   -0.5716    1.1232    3.8542 C   0  0  0  0  0  0  0  0  0  0  0  0
    0.3083    1.7643    3.9293 H   0  0  0  0  0  0  0  0  0  0  0  0
   -1.4485    1.6640    4.2131 H   0  0  0  0  0  0  0  0  0  0  0  0
   -0.4137    0.2381    4.4736 H   0  0  0  0  0  0  0  0  0  0  0  0
  5  6  2  0  0  0  0
  5  7  1  0  0  0  0
  2  3  1  0  0  0  0
  2  4  1  0  0  0  0
  2  5  1  0  0  0  0
  1  2  1  0  0  0  0
 20 21  2  0  0  0  0
 20 22  1  0  0  0  0
 17 18  1  0  0  0  0
 17 19  2  0  0  0  0
 14 15  1  0  0  0  0
 14 16  1  0  0  0  0
 14 17  1  0  0  0  0
 11 12  1  0  0  0  0
 11 13  1  0  0  0  0
 11 14  1  0  0  0  0
  9 10  1  0  0  0  0
  9 11  1  0  0  0  0
  9 20  1  0  0  0  0
  7  8  1  0  0  0  0
  7  9  1  0  0  0  0
 24 25  1  0  0  0  0
 24 26  1  0  0  0  0
 24 27  1  0  0  0  0
 22 23  1  0  0  0  0
 22 24  1  0  0  0  0
M  CHG  1  18  -1
M  END
$$$$
default_name
  -OEChem-02102213163D

 27 26  0     1  0  0  0  0  0999 V2000
   -3.2406   -3.5400    1.2326 H   0  0  0  0  0  0  0  0  0  0  0  0
   -3.1436   -2.6190    0.6606 C   0  0  0  0  0  0  0  0  0  0  0  0
   -3.8786   -1.8920    0.9996 H   0  0  0  0  0  0  0  0  0  0  0  0
   -3.2846   -2.8280   -0.3984 H   0  0  0  0  0  0  0  0  0  0  0  0
   -1.7586   -2.0580    0.8686 C   0  0  0  0  0  0  0  0  0  0  0  0
   -0.9666   -2.6340    1.6026 O   0  0  0  0  0  0  0  0  0  0  0  0
   -1.4866   -0.9220    0.2366 N   0  0  0  0  0  0  0  0  0  0  0  0
   -2.2166   -0.4790   -0.2994 H   0  0  0  0  0  0  0  0  0  0  0  0
   -0.1956   -0.2250    0.2596 C   0  0  1  0  0  0  0  0  0  0  0  0
    0.5755   -0.9013   -0.1105 H   0  0  0  0  0  0  0  0  0  0  0  0
   -0.2553    0.9811   -0.6992 C   0  0  0  0  0  0  0  0  0  0  0  0
    0.5939    1.6293   -0.4773 H   0  0  0  0  0  0  0  0  0  0  0  0
   -0.1606    0.6289   -1.7274 H   0  0  0  0  0  0  0  0  0  0  0  0
   -1.5464    1.8062   -0.5653 C   0  0  0  0  0  0  0  0  0  0  0  0
   -1.6093    2.2093    0.4483 H   0  0  0  0  0  0  0  0  0  0  0  0
   -1.4889    2.6483   -1.2600 H   0  0  0  0  0  0  0  0  0  0  0  0
   -2.8199    0.9976   -0.8540 C   0  0  0  0  0  0  0  0  0  0  0  0
   -2.6968   -0.1698   -1.2881 O   0  5  0  0  0  0  0  0  0  0  0  0
   -3.9097    1.5610   -0.6088 O   0  0  0  0  0  0  0  0  0  0  0  0
    0.1881    0.1678    1.7015 C   0  0  0  0  0  0  0  0  0  0  0  0
    1.3379    0.0002    2.1133 O   0  0  0  0  0  0  0  0  0  0  0  0
   -0.7666    0.7145    2.4656 N   0  0  0  0  0  0  0  0  0  0  0  0
   -1.6971    0.7705    2.0790 H   0  0  0  0  0  0  0  0  0  0  0  0
   -0.5716    1.1232    3.8542 C   0  0  0  0  0  0  0  0  0  0  0  0
    0.3083    1.7643    3.9293 H   0  0  0  0  0  0  0  0  0  0  0  0
   -1.4485    1.6640    4.2131 H   0  0  0  0  0  0  0  0  0  0  0  0
   -0.4137    0.2381    4.4736 H   0  0  0  0  0  0  0  0  0  0  0  0
  5  6  2  0  0  0  0
  5  7  1  0  0  0  0
  2  3  1  0  0  0  0
  2  4  1  0  0  0  0
  2  5  1  0  0  0  0
  1  2  1  0  0  0  0
 20 21  2  0  0  0  0
 20 22  1  0  0  0  0
 17 18  1  0  0  0  0
 17 19  2  0  0  0  0
 14 15  1  0  0  0  0
 14 16  1  0  0  0  0
 14 17  1  0  0  0  0
 11 12  1  0  0  0  0
 11 13  1  0  0  0  0
 11 14  1  0  0  0  0
  9 10  1  0  0  0  0
  9 11  1  0  0  0  0
  9 20  1  0  0  0  0
  7  8  1  0  0  0  0
  7  9  1  0  0  0  0
 24 25  1  0  0  0  0
 24 26  1  0  0  0  0
 24 27  1  0  0  0  0
 22 23  1  0  0  0  0
 22 24  1  0  0  0  0
M  CHG  1  18  -1
M  END
$$$$
default_name
  -OEChem-02102213163D

 27 26  0     1  0  0  0  0  0999 V2000
   -3.2406   -3.5400    1.2326 H   0  0  0  0  0  0  0  0  0  0  0  0
   -3.1436   -2.6190    0.6606 C   0  0  0  0  0  0  0  0  0  0  0  0
   -3.8786   -1.8920    0.9996 H   0  0  0  0  0  0  0  0  0  0  0  0
   -3.2846   -2.8280   -0.3984 H   0  0  0  0  0  0  0  0  0  0  0  0
   -1.7586   -2.0580    0.8686 C   0  0  0  0  0  0  0  0  0  0  0  0
   -0.9666   -2.6340    1.6026 O   0  0  0  0  0  0  0  0  0  0  0  0
   -1.4866   -0.9220    0.2366 N   0  0  0  0  0  0  0  0  0  0  0  0
   -2.2166   -0.4790   -0.2994 H   0  0  0  0  0  0  0  0  0  0  0  0
   -0.1956   -0.2250    0.2596 C   0  0  1  0  0  0  0  0  0  0  0  0
    0.5755   -0.9013   -0.1105 H   0  0  0  0  0  0  0  0  0  0  0  0
   -0.2553    0.9811   -0.6992 C   0  0  0  0  0  0  0  0  0  0  0  0
    0.5939    1.6293   -0.4773 H   0  0  0  0  0  0  0  0  0  0  0  0
   -0.1606    0.6289   -1.7274 H   0  0  0  0  0  0  0  0  0  0  0  0
   -1.5464    1.8062   -0.5653 C   0  0  0  0  0  0  0  0  0  0  0  0
   -1.4857    2.4209    0.3360 H   0  0  0  0  0  0  0  0  0  0  0  0
   -1.6160    2.4762   -1.4263 H   0  0  0  0  0  0  0  0  0  0  0  0
   -2.8158    0.9449   -0.4899 C   0  0  0  0  0  0  0  0  0  0  0  0
   -2.7089   -0.2883   -0.6749 O   0  5  0  0  0  0  0  0  0  0  0  0
   -3.8826    1.5405   -0.2205 O   0  0  0  0  0  0  0  0  0  0  0  0
    0.1881    0.1678    1.7015 C   0  0  0  0  0  0  0  0  0  0  0  0
    1.3379    0.0002    2.1133 O   0  0  0  0  0  0  0  0  0  0  0  0
   -0.7666    0.7145    2.4656 N   0  0  0  0  0  0  0  0  0  0  0  0
   -1.6971    0.7705    2.0790 H   0  0  0  0  0  0  0  0  0  0  0  0
   -0.5716    1.1232    3.8542 C   0  0  0  0  0  0  0  0  0  0  0  0
    0.3083    1.7643    3.9293 H   0  0  0  0  0  0  0  0  0  0  0  0
   -1.4485    1.6640    4.2131 H   0  0  0  0  0  0  0  0  0  0  0  0
   -0.4137    0.2381    4.4736 H   0  0  0  0  0  0  0  0  0  0  0  0
  5  6  2  0  0  0  0
  5  7  1  0  0  0  0
  2  3  1  0  0  0  0
  2  4  1  0  0  0  0
  2  5  1  0  0  0  0
  1  2  1  0  0  0  0
 20 21  2  0  0  0  0
 20 22  1  0  0  0  0
 17 18  1  0  0  0  0
 17 19  2  0  0  0  0
 14 15  1  0  0  0  0
 14 16  1  0  0  0  0
 14 17  1  0  0  0  0
 11 12  1  0  0  0  0
 11 13  1  0  0  0  0
 11 14  1  0  0  0  0
  9 10  1  0  0  0  0
  9 11  1  0  0  0  0
  9 20  1  0  0  0  0
  7  8  1  0  0  0  0
  7  9  1  0  0  0  0
 24 25  1  0  0  0  0
 24 26  1  0  0  0  0
 24 27  1  0  0  0  0
 22 23  1  0  0  0  0
 22 24  1  0  0  0  0
M  CHG  1  18  -1
M  END
$$$$
default_name
  -OEChem-02102213163D

 27 26  0     1  0  0  0  0  0999 V2000
   -3.2406   -3.5400    1.2326 H   0  0  0  0  0  0  0  0  0  0  0  0
   -3.1436   -2.6190    0.6606 C   0  0  0  0  0  0  0  0  0  0  0  0
   -3.8786   -1.8920    0.9996 H   0  0  0  0  0  0  0  0  0  0  0  0
   -3.2846   -2.8280   -0.3984 H   0  0  0  0  0  0  0  0  0  0  0  0
   -1.7586   -2.0580    0.8686 C   0  0  0  0  0  0  0  0  0  0  0  0
   -0.9666   -2.6340    1.6026 O   0  0  0  0  0  0  0  0  0  0  0  0
   -1.4866   -0.9220    0.2366 N   0  0  0  0  0  0  0  0  0  0  0  0
   -2.2166   -0.4790   -0.2994 H   0  0  0  0  0  0  0  0  0  0  0  0
   -0.1956   -0.2250    0.2596 C   0  0  1  0  0  0  0  0  0  0  0  0
    0.5755   -0.9013   -0.1105 H   0  0  0  0  0  0  0  0  0  0  0  0
   -0.2553    0.9811   -0.6992 C   0  0  0  0  0  0  0  0  0  0  0  0
    0.5939    1.6293   -0.4773 H   0  0  0  0  0  0  0  0  0  0  0  0
   -0.1606    0.6289   -1.7274 H   0  0  0  0  0  0  0  0  0  0  0  0
   -1.5464    1.8062   -0.5653 C   0  0  0  0  0  0  0  0  0  0  0  0
   -1.3867    2.6036    0.1643 H   0  0  0  0  0  0  0  0  0  0  0  0
   -1.7581    2.2711   -1.5319 H   0  0  0  0  0  0  0  0  0  0  0  0
   -2.7602    0.9732   -0.1273 C   0  0  0  0  0  0  0  0  0  0  0  0
   -2.6328   -0.2698   -0.0552 O   0  5  0  0  0  0  0  0  0  0  0  0
   -3.8020    1.6057    0.1553 O   0  0  0  0  0  0  0  0  0  0  0  0
    0.1881    0.1678    1.7015 C   0  0  0  0  0  0  0  0  0  0  0  0
    1.3379    0.0002    2.1133 O   0  0  0  0  0  0  0  0  0  0  0  0
   -0.7666    0.7145    2.4656 N   0  0  0  0  0  0  0  0  0  0  0  0
   -1.6971    0.7705    2.0790 H   0  0  0  0  0  0  0  0  0  0  0  0
   -0.5716    1.1232    3.8542 C   0  0  0  0  0  0  0  0  0  0  0  0
    0.3083    1.7643    3.9293 H   0  0  0  0  0  0  0  0  0  0  0  0
   -1.4485    1.6640    4.2131 H   0  0  0  0  0  0  0  0  0  0  0  0
   -0.4137    0.2381    4.4736 H   0  0  0  0  0  0  0  0  0  0  0  0
  5  6  2  0  0  0  0
  5  7  1  0  0  0  0
  2  3  1  0  0  0  0
  2  4  1  0  0  0  0
  2  5  1  0  0  0  0
  1  2  1  0  0  0  0
 20 21  2  0  0  0  0
 20 22  1  0  0  0  0
 17 18  1  0  0  0  0
 17 19  2  0  0  0  0
 14 15  1  0  0  0  0
 14 16  1  0  0  0  0
 14 17  1  0  0  0  0
 11 12  1  0  0  0  0
 11 13  1  0  0  0  0
 11 14  1  0  0  0  0
  9 10  1  0  0  0  0
  9 11  1  0  0  0  0
  9 20  1  0  0  0  0
  7  8  1  0  0  0  0
  7  9  1  0  0  0  0
 24 25  1  0  0  0  0
 24 26  1  0  0  0  0
 24 27  1  0  0  0  0
 22 23  1  0  0  0  0
 22 24  1  0  0  0  0
M  CHG  1  18  -1
M  END
$$$$
default_name
  -OEChem-02102213163D

 27 26  0     1  0  0  0  0  0999 V2000
   -3.2406   -3.5400    1.2326 H   0  0  0  0  0  0  0  0  0  0  0  0
   -3.1436   -2.6190    0.6606 C   0  0  0  0  0  0  0  0  0  0  0  0
   -3.8786   -1.8920    0.9996 H   0  0  0  0  0  0  0  0  0  0  0  0
   -3.2846   -2.8280   -0.3984 H   0  0  0  0  0  0  0  0  0  0  0  0
   -1.7586   -2.0580    0.8686 C   0  0  0  0  0  0  0  0  0  0  0  0
   -0.9666   -2.6340    1.6026 O   0  0  0  0  0  0  0  0  0  0  0  0
   -1.4866   -0.9220    0.2366 N   0  0  0  0  0  0  0  0  0  0  0  0
   -2.2166   -0.4790   -0.2994 H   0  0  0  0  0  0  0  0  0  0  0  0
   -0.1956   -0.2250    0.2596 C   0  0  1  0  0  0  0  0  0  0  0  0
    0.5755   -0.9013   -0.1105 H   0  0  0  0  0  0  0  0  0  0  0  0
   -0.2553    0.9811   -0.6992 C   0  0  0  0  0  0  0  0  0  0  0  0
    0.5939    1.6293   -0.4773 H   0  0  0  0  0  0  0  0  0  0  0  0
   -0.1606    0.6289   -1.7274 H   0  0  0  0  0  0  0  0  0  0  0  0
   -1.5464    1.8062   -0.5653 C   0  0  0  0  0  0  0  0  0  0  0  0
   -1.3191    2.7451   -0.0549 H   0  0  0  0  0  0  0  0  0  0  0  0
   -1.9054    2.0467   -1.5695 H   0  0  0  0  0  0  0  0  0  0  0  0
   -2.6567    1.0806    0.2091 C   0  0  0  0  0  0  0  0  0  0  0  0
   -2.4737   -0.1155    0.5289 O   0  5  0  0  0  0  0  0  0  0  0  0
   -3.6735    1.7521    0.4929 O   0  0  0  0  0  0  0  0  0  0  0  0
    0.1881    0.1678    1.7015 C   0  0  0  0  0  0  0  0  0  0  0  0
    1.3379    0.0002    2.1133 O   0  0  0  0  0  0  0  0  0  0  0  0
   -0.7666    0.7145    2.4656 N   0  0  0  0  0  0  0  0  0  0  0  0
   -1.6971    0.7705    2.0790 H   0  0  0  0  0  0  0  0  0  0  0  0
   -0.5716    1.1232    3.8542 C   0  0  0  0  0  0  0  0  0  0  0  0
    0.3083    1.7643    3.9293 H   0  0  0  0  0  0  0  0  0  0  0  0
   -1.4485    1.6640    4.2131 H   0  0  0  0  0  0  0  0  0  0  0  0
   -0.4137    0.2381    4.4736 H   0  0  0  0  0  0  0  0  0  0  0  0
  5  6  2  0  0  0  0
  5  7  1  0  0  0  0
  2  3  1  0  0  0  0
  2  4  1  0  0  0  0
  2  5  1  0  0  0  0
  1  2  1  0  0  0  0
 20 21  2  0  0  0  0
 20 22  1  0  0  0  0
 17 18  1  0  0  0  0
 17 19  2  0  0  0  0
 14 15  1  0  0  0  0
 14 16  1  0  0  0  0
 14 17  1  0  0  0  0
 11 12  1  0  0  0  0
 11 13  1  0  0  0  0
 11 14  1  0  0  0  0
  9 10  1  0  0  0  0
  9 11  1  0  0  0  0
  9 20  1  0  0  0  0
  7  8  1  0  0  0  0
  7  9  1  0  0  0  0
 24 25  1  0  0  0  0
 24 26  1  0  0  0  0
 24 27  1  0  0  0  0
 22 23  1  0  0  0  0
 22 24  1  0  0  0  0
M  CHG  1  18  -1
M  END
$$$$
default_name
  -OEChem-02102213163D

 27 26  0     1  0  0  0  0  0999 V2000
   -3.2406   -3.5400    1.2326 H   0  0  0  0  0  0  0  0  0  0  0  0
   -3.1436   -2.6190    0.6606 C   0  0  0  0  0  0  0  0  0  0  0  0
   -3.8786   -1.8920    0.9996 H   0  0  0  0  0  0  0  0  0  0  0  0
   -3.2846   -2.8280   -0.3984 H   0  0  0  0  0  0  0  0  0  0  0  0
   -1.7586   -2.0580    0.8686 C   0  0  0  0  0  0  0  0  0  0  0  0
   -0.9666   -2.6340    1.6026 O   0  0  0  0  0  0  0  0  0  0  0  0
   -1.4866   -0.9220    0.2366 N   0  0  0  0  0  0  0  0  0  0  0  0
   -2.2166   -0.4790   -0.2994 H   0  0  0  0  0  0  0  0  0  0  0  0
   -0.1956   -0.2250    0.2596 C   0  0  1  0  0  0  0  0  0  0  0  0
    0.5755   -0.9013   -0.1105 H   0  0  0  0  0  0  0  0  0  0  0  0
   -0.2553    0.9811   -0.6992 C   0  0  0  0  0  0  0  0  0  0  0  0
    0.5939    1.6293   -0.4773 H   0  0  0  0  0  0  0  0  0  0  0  0
   -0.1606    0.6289   -1.7274 H   0  0  0  0  0  0  0  0  0  0  0  0
   -1.5464    1.8062   -0.5653 C   0  0  0  0  0  0  0  0  0  0  0  0
   -1.2873    2.8357   -0.3068 H   0  0  0  0  0  0  0  0  0  0  0  0
   -2.0478    1.8185   -1.5367 H   0  0  0  0  0  0  0  0  0  0  0  0
   -2.5125    1.2597    0.4963 C   0  0  0  0  0  0  0  0  0  0  0  0
   -2.2425    0.1639    1.0374 O   0  5  0  0  0  0  0  0  0  0  0  0
   -3.5057    1.9697    0.7694 O   0  0  0  0  0  0  0  0  0  0  0  0
    0.1881    0.1678    1.7015 C   0  0  0  0  0  0  0  0  0  0  0  0
    1.3379    0.0002    2.1133 O   0  0  0  0  0  0  0  0  0  0  0  0
   -0.7666    0.7145    2.4656 N   0  0  0  0  0  0  0  0  0  0  0  0
   -1.6971    0.7705    2.0790 H   0  0  0  0  0  0  0  0  0  0  0  0
   -0.5716    1.1232    3.8542 C   0  0  0  0  0  0  0  0  0  0  0  0
    0.3083    1.7643    3.9293 H   0  0  0  0  0  0  0  0  0  0  0  0
   -1.4485    1.6640    4.2131 H   0  0  0  0  0  0  0  0  0  0  0  0
   -0.4137    0.2381    4.4736 H   0  0  0  0  0  0  0  0  0  0  0  0
  5  6  2  0  0  0  0
  5  7  1  0  0  0  0
  2  3  1  0  0  0  0
  2  4  1  0  0  0  0
  2  5  1  0  0  0  0
  1  2  1  0  0  0  0
 20 21  2  0  0  0  0
 20 22  1  0  0  0  0
 17 18  1  0  0  0  0
 17 19  2  0  0  0  0
 14 15  1  0  0  0  0
 14 16  1  0  0  0  0
 14 17  1  0  0  0  0
 11 12  1  0  0  0  0
 11 13  1  0  0  0  0
 11 14  1  0  0  0  0
  9 10  1  0  0  0  0
  9 11  1  0  0  0  0
  9 20  1  0  0  0  0
  7  8  1  0  0  0  0
  7  9  1  0  0  0  0
 24 25  1  0  0  0  0
 24 26  1  0  0  0  0
 24 27  1  0  0  0  0
 22 23  1  0  0  0  0
 22 24  1  0  0  0  0
M  CHG  1  18  -1
M  END
$$$$
default_name
  -OEChem-02102213163D

 27 26  0     1  0  0  0  0  0999 V2000
   -3.2406   -3.5400    1.2326 H   0  0  0  0  0  0  0  0  0  0  0  0
   -3.1436   -2.6190    0.6606 C   0  0  0  0  0  0  0  0  0  0  0  0
   -3.8786   -1.8920    0.9996 H   0  0  0  0  0  0  0  0  0  0  0  0
   -3.2846   -2.8280   -0.3984 H   0  0  0  0  0  0  0  0  0  0  0  0
   -1.7586   -2.0580    0.8686 C   0  0  0  0  0  0  0  0  0  0  0  0
   -0.9666   -2.6340    1.6026 O   0  0  0  0  0  0  0  0  0  0  0  0
   -1.4866   -0.9220    0.2366 N   0  0  0  0  0  0  0  0  0  0  0  0
   -2.2166   -0.4790   -0.2994 H   0  0  0  0  0  0  0  0  0  0  0  0
   -0.1956   -0.2250    0.2596 C   0  0  1  0  0  0  0  0  0  0  0  0
    0.5755   -0.9013   -0.1105 H   0  0  0  0  0  0  0  0  0  0  0  0
   -0.2553    0.9811   -0.6992 C   0  0  0  0  0  0  0  0  0  0  0  0
    0.5939    1.6293   -0.4773 H   0  0  0  0  0  0  0  0  0  0  0  0
   -0.1606    0.6289   -1.7274 H   0  0  0  0  0  0  0  0  0  0  0  0
   -1.5464    1.8062   -0.5653 C   0  0  0  0  0  0  0  0  0  0  0  0
   -1.2936    2.8691   -0.5742 H   0  0  0  0  0  0  0  0  0  0  0  0
   -2.1756    1.6020   -1.4357 H   0  0  0  0  0  0  0  0  0  0  0  0
   -2.3373    1.4984    0.7148 C   0  0  0  0  0  0  0  0  0  0  0  0
   -1.9547    0.5496    1.4357 O   0  5  0  0  0  0  0  0  0  0  0  0
   -3.3102    2.2438    0.9659 O   0  0  0  0  0  0  0  0  0  0  0  0
    0.1881    0.1678    1.7015 C   0  0  0  0  0  0  0  0  0  0  0  0
    1.3379    0.0002    2.1133 O   0  0  0  0  0  0  0  0  0  0  0  0
   -0.7666    0.7145    2.4656 N   0  0  0  0  0  0  0  0  0  0  0  0
   -1.6971    0.7705    2.0790 H   0  0  0  0  0  0  0  0  0  0  0  0
   -0.5716    1.1232    3.8542 C   0  0  0  0  0  0  0  0  0  0  0  0
    0.3083    1.7643    3.9293 H   0  0  0  0  0  0  0  0  0  0  0  0
   -1.4485    1.6640    4.2131 H   0  0  0  0  0  0  0  0  0  0  0  0
   -0.4137    0.2381    4.4736 H   0  0  0  0  0  0  0  0  0  0  0  0
  5  6  2  0  0  0  0
  5  7  1  0  0  0  0
  2  3  1  0  0  0  0
  2  4  1  0  0  0  0
  2  5  1  0  0  0  0
  1  2  1  0  0  0  0
 20 21  2  0  0  0  0
 20 22  1  0  0  0  0
 17 18  1  0  0  0  0
 17 19  2  0  0  0  0
 14 15  1  0  0  0  0
 14 16  1  0  0  0  0
 14 17  1  0  0  0  0
 11 12  1  0  0  0  0
 11 13  1  0  0  0  0
 11 14  1  0  0  0  0
  9 10  1  0  0  0  0
  9 11  1  0  0  0  0
  9 20  1  0  0  0  0
  7  8  1  0  0  0  0
  7  9  1  0  0  0  0
 24 25  1  0  0  0  0
 24 26  1  0  0  0  0
 24 27  1  0  0  0  0
 22 23  1  0  0  0  0
 22 24  1  0  0  0  0
M  CHG  1  18  -1
M  END
$$$$
default_name
  -OEChem-02102213163D

 27 26  0     1  0  0  0  0  0999 V2000
   -3.2406   -3.5400    1.2326 H   0  0  0  0  0  0  0  0  0  0  0  0
   -3.1436   -2.6190    0.6606 C   0  0  0  0  0  0  0  0  0  0  0  0
   -3.8786   -1.8920    0.9996 H   0  0  0  0  0  0  0  0  0  0  0  0
   -3.2846   -2.8280   -0.3984 H   0  0  0  0  0  0  0  0  0  0  0  0
   -1.7586   -2.0580    0.8686 C   0  0  0  0  0  0  0  0  0  0  0  0
   -0.9666   -2.6340    1.6026 O   0  0  0  0  0  0  0  0  0  0  0  0
   -1.4866   -0.9220    0.2366 N   0  0  0  0  0  0  0  0  0  0  0  0
   -2.2166   -0.4790   -0.2994 H   0  0  0  0  0  0  0  0  0  0  0  0
   -0.1956   -0.2250    0.2596 C   0  0  1  0  0  0  0  0  0  0  0  0
    0.5755   -0.9013   -0.1105 H   0  0  0  0  0  0  0  0  0  0  0  0
   -0.2553    0.9811   -0.6992 C   0  0  0  0  0  0  0  0  0  0  0  0
    0.5939    1.6293   -0.4773 H   0  0  0  0  0  0  0  0  0  0  0  0
   -0.1606    0.6289   -1.7274 H   0  0  0  0  0  0  0  0  0  0  0  0
   -1.5464    1.8062   -0.5653 C   0  0  0  0  0  0  0  0  0  0  0  0
   -1.3376    2.8432   -0.8389 H   0  0  0  0  0  0  0  0  0  0  0  0
   -2.2802    1.4120   -1.2733 H   0  0  0  0  0  0  0  0  0  0  0  0
   -2.1432    1.7804    0.8496 C   0  0  0  0  0  0  0  0  0  0  0  0
   -1.6302    1.0151    1.6968 O   0  5  0  0  0  0  0  0  0  0  0  0
   -3.1003    2.5557    1.0690 O   0  0  0  0  0  0  0  0  0  0  0  0
    0.1881    0.1678    1.7015 C   0  0  0  0  0  0  0  0  0  0  0  0
    1.3379    0.0002    2.1133 O   0  0  0  0  0  0  0  0  0  0  0  0
   -0.7666    0.7145    2.4656 N   0  0  0  0  0  0  0  0  0  0  0  0
   -1.6971    0.7705    2.0790 H   0  0  0  0  0  0  0  0  0  0  0  0
   -0.5716    1.1232    3.8542 C   0  0  0  0  0  0  0  0  0  0  0  0
    0.3083    1.7643    3.9293 H   0  0  0  0  0  0  0  0  0  0  0  0
   -1.4485    1.6640    4.2131 H   0  0  0  0  0  0  0  0  0  0  0  0
   -0.4137    0.2381    4.4736 H   0  0  0  0  0  0  0  0  0  0  0  0
  5  6  2  0  0  0  0
  5  7  1  0  0  0  0
  2  3  1  0  0  0  0
  2  4  1  0  0  0  0
  2  5  1  0  0  0  0
  1  2  1  0  0  0  0
 20 21  2  0  0  0  0
 20 22  1  0  0  0  0
 17 18  1  0  0  0  0
 17 19  2  0  0  0  0
 14 15  1  0  0  0  0
 14 16  1  0  0  0  0
 14 17  1  0  0  0  0
 11 12  1  0  0  0  0
 11 13  1  0  0  0  0
 11 14  1  0  0  0  0
  9 10  1  0  0  0  0
  9 11  1  0  0  0  0
  9 20  1  0  0  0  0
  7  8  1  0  0  0  0
  7  9  1  0  0  0  0
 24 25  1  0  0  0  0
 24 26  1  0  0  0  0
 24 27  1  0  0  0  0
 22 23  1  0  0  0  0
 22 24  1  0  0  0  0
M  CHG  1  18  -1
M  END
$$$$
default_name
  -OEChem-02102213163D

 27 26  0     1  0  0  0  0  0999 V2000
   -3.2406   -3.5400    1.2326 H   0  0  0  0  0  0  0  0  0  0  0  0
   -3.1436   -2.6190    0.6606 C   0  0  0  0  0  0  0  0  0  0  0  0
   -3.8786   -1.8920    0.9996 H   0  0  0  0  0  0  0  0  0  0  0  0
   -3.2846   -2.8280   -0.3984 H   0  0  0  0  0  0  0  0  0  0  0  0
   -1.7586   -2.0580    0.8686 C   0  0  0  0  0  0  0  0  0  0  0  0
   -0.9666   -2.6340    1.6026 O   0  0  0  0  0  0  0  0  0  0  0  0
   -1.4866   -0.9220    0.2366 N   0  0  0  0  0  0  0  0  0  0  0  0
   -2.2166   -0.4790   -0.2994 H   0  0  0  0  0  0  0  0  0  0  0  0
   -0.1956   -0.2250    0.2596 C   0  0  1  0  0  0  0  0  0  0  0  0
    0.5755   -0.9013   -0.1105 H   0  0  0  0  0  0  0  0  0  0  0  0
   -0.2553    0.9811   -0.6992 C   0  0  0  0  0  0  0  0  0  0  0  0
    0.5939    1.6293   -0.4773 H   0  0  0  0  0  0  0  0  0  0  0  0
   -0.1606    0.6289   -1.7274 H   0  0  0  0  0  0  0  0  0  0  0  0
   -1.5464    1.8062   -0.5653 C   0  0  0  0  0  0  0  0  0  0  0  0
   -1.4163    2.7597   -1.0828 H   0  0  0  0  0  0  0  0  0  0  0  0
   -2.3545    1.2614   -1.0606 H   0  0  0  0  0  0  0  0  0  0  0  0
   -1.9433    2.0864    0.8917 C   0  0  0  0  0  0  0  0  0  0  0  0
   -1.2910    1.5288    1.8028 O   0  5  0  0  0  0  0  0  0  0  0  0
   -2.8902    2.8840    1.0717 O   0  0  0  0  0  0  0  0  0  0  0  0
    0.1881    0.1678    1.7015 C   0  0  0  0  0  0  0  0  0  0  0  0
    1.3379    0.0002    2.1133 O   0  0  0  0  0  0  0  0  0  0  0  0
   -0.7666    0.7145    2.4656 N   0  0  0  0  0  0  0  0  0  0  0  0
   -1.6971    0.7705    2.0790 H   0  0  0  0  0  0  0  0  0  0  0  0
   -0.5716    1.1232    3.8542 C   0  0  0  0  0  0  0  0  0  0  0  0
    0.3083    1.7643    3.9293 H   0  0  0  0  0  0  0  0  0  0  0  0
   -1.4485    1.6640    4.2131 H   0  0  0  0  0  0  0  0  0  0  0  0
   -0.4137    0.2381    4.4736 H   0  0  0  0  0  0  0  0  0  0  0  0
  5  6  2  0  0  0  0
  5  7  1  0  0  0  0
  2  3  1  0  0  0  0
  2  4  1  0  0  0  0
  2  5  1  0  0  0  0
  1  2  1  0  0  0  0
 20 21  2  0  0  0  0
 20 22  1  0  0  0  0
 17 18  1  0  0  0  0
 17 19  2  0  0  0  0
 14 15  1  0  0  0  0
 14 16  1  0  0  0  0
 14 17  1  0  0  0  0
 11 12  1  0  0  0  0
 11 13  1  0  0  0  0
 11 14  1  0  0  0  0
  9 10  1  0  0  0  0
  9 11  1  0  0  0  0
  9 20  1  0  0  0  0
  7  8  1  0  0  0  0
  7  9  1  0  0  0  0
 24 25  1  0  0  0  0
 24 26  1  0  0  0  0
 24 27  1  0  0  0  0
 22 23  1  0  0  0  0
 22 24  1  0  0  0  0
M  CHG  1  18  -1
M  END
$$$$
default_name
  -OEChem-02102213163D

 27 26  0     1  0  0  0  0  0999 V2000
   -3.2406   -3.5400    1.2326 H   0  0  0  0  0  0  0  0  0  0  0  0
   -3.1436   -2.6190    0.6606 C   0  0  0  0  0  0  0  0  0  0  0  0
   -3.8786   -1.8920    0.9996 H   0  0  0  0  0  0  0  0  0  0  0  0
   -3.2846   -2.8280   -0.3984 H   0  0  0  0  0  0  0  0  0  0  0  0
   -1.7586   -2.0580    0.8686 C   0  0  0  0  0  0  0  0  0  0  0  0
   -0.9666   -2.6340    1.6026 O   0  0  0  0  0  0  0  0  0  0  0  0
   -1.4866   -0.9220    0.2366 N   0  0  0  0  0  0  0  0  0  0  0  0
   -2.2166   -0.4790   -0.2994 H   0  0  0  0  0  0  0  0  0  0  0  0
   -0.1956   -0.2250    0.2596 C   0  0  1  0  0  0  0  0  0  0  0  0
    0.5755   -0.9013   -0.1105 H   0  0  0  0  0  0  0  0  0  0  0  0
   -0.2553    0.9811   -0.6992 C   0  0  0  0  0  0  0  0  0  0  0  0
    0.5939    1.6293   -0.4773 H   0  0  0  0  0  0  0  0  0  0  0  0
   -0.1606    0.6289   -1.7274 H   0  0  0  0  0  0  0  0  0  0  0  0
   -1.5464    1.8062   -0.5653 C   0  0  0  0  0  0  0  0  0  0  0  0
   -1.5243    2.6242   -1.2894 H   0  0  0  0  0  0  0  0  0  0  0  0
   -2.3932    1.1604   -0.8122 H   0  0  0  0  0  0  0  0  0  0  0  0
   -1.7512    2.3956    0.8380 C   0  0  0  0  0  0  0  0  0  0  0  0
   -0.9602    2.0556    1.7464 O   0  5  0  0  0  0  0  0  0  0  0  0
   -2.6942    3.2065    0.9738 O   0  0  0  0  0  0  0  0  0  0  0  0
    0.1881    0.1678    1.7015 C   0  0  0  0  0  0  0  0  0  0  0  0
    1.3379    0.0002    2.1133 O   0  0  0  0  0  0  0  0  0  0  0  0
   -0.7666    0.7145    2.4656 N   0  0  0  0  0  0  0  0  0  0  0  0
   -1.6971    0.7705    2.0790 H   0  0  0  0  0  0  0  0  0  0  0  0
   -0.5716    1.1232    3.8542 C   0  0  0  0  0  0  0  0  0  0  0  0
    0.3083    1.7643    3.9293 H   0  0  0  0  0  0  0  0  0  0  0  0
   -1.4485    1.6640    4.2131 H   0  0  0  0  0  0  0  0  0  0  0  0
   -0.4137    0.2381    4.4736 H   0  0  0  0  0  0  0  0  0  0  0  0
  5  6  2  0  0  0  0
  5  7  1  0  0  0  0
  2  3  1  0  0  0  0
  2  4  1  0  0  0  0
  2  5  1  0  0  0  0
  1  2  1  0  0  0  0
 20 21  2  0  0  0  0
 20 22  1  0  0  0  0
 17 18  1  0  0  0  0
 17 19  2  0  0  0  0
 14 15  1  0  0  0  0
 14 16  1  0  0  0  0
 14 17  1  0  0  0  0
 11 12  1  0  0  0  0
 11 13  1  0  0  0  0
 11 14  1  0  0  0  0
  9 10  1  0  0  0  0
  9 11  1  0  0  0  0
  9 20  1  0  0  0  0
  7  8  1  0  0  0  0
  7  9  1  0  0  0  0
 24 25  1  0  0  0  0
 24 26  1  0  0  0  0
 24 27  1  0  0  0  0
 22 23  1  0  0  0  0
 22 24  1  0  0  0  0
M  CHG  1  18  -1
M  END
$$$$
default_name
  -OEChem-02102213163D

 27 26  0     1  0  0  0  0  0999 V2000
   -3.2406   -3.5400    1.2326 H   0  0  0  0  0  0  0  0  0  0  0  0
   -3.1436   -2.6190    0.6606 C   0  0  0  0  0  0  0  0  0  0  0  0
   -3.8786   -1.8920    0.9996 H   0  0  0  0  0  0  0  0  0  0  0  0
   -3.2846   -2.8280   -0.3984 H   0  0  0  0  0  0  0  0  0  0  0  0
   -1.7586   -2.0580    0.8686 C   0  0  0  0  0  0  0  0  0  0  0  0
   -0.9666   -2.6340    1.6026 O   0  0  0  0  0  0  0  0  0  0  0  0
   -1.4866   -0.9220    0.2366 N   0  0  0  0  0  0  0  0  0  0  0  0
   -2.2166   -0.4790   -0.2994 H   0  0  0  0  0  0  0  0  0  0  0  0
   -0.1956   -0.2250    0.2596 C   0  0  1  0  0  0  0  0  0  0  0  0
    0.5755   -0.9013   -0.1105 H   0  0  0  0  0  0  0  0  0  0  0  0
   -0.2553    0.9811   -0.6992 C   0  0  0  0  0  0  0  0  0  0  0  0
    0.5939    1.6293   -0.4773 H   0  0  0  0  0  0  0  0  0  0  0  0
   -0.1606    0.6289   -1.7274 H   0  0  0  0  0  0  0  0  0  0  0  0
   -1.5464    1.8062   -0.5653 C   0  0  0  0  0  0  0  0  0  0  0  0
   -1.6542    2.4461   -1.4444 H   0  0  0  0  0  0  0  0  0  0  0  0
   -2.3939    1.1160   -0.5449 H   0  0  0  0  0  0  0  0  0  0  0  0
   -1.5801    2.6870    0.6924 C   0  0  0  0  0  0  0  0  0  0  0  0
   -0.6603    2.5597    1.5316 O   0  5  0  0  0  0  0  0  0  0  0  0
   -2.5259    3.5011    0.7819 O   0  0  0  0  0  0  0  0  0  0  0  0
    0.1881    0.1678    1.7015 C   0  0  0  0  0  0  0  0  0  0  0  0
    1.3379    0.0002    2.1133 O   0  0  0  0  0  0  0  0  0  0  0  0
   -0.7666    0.7145    2.4656 N   0  0  0  0  0  0  0  0  0  0  0  0
   -1.6971    0.7705    2.0790 H   0  0  0  0  0  0  0  0  0  0  0  0
   -0.5716    1.1232    3.8542 C   0  0  0  0  0  0  0  0  0  0  0  0
    0.3083    1.7643    3.9293 H   0  0  0  0  0  0  0  0  0  0  0  0
   -1.4485    1.6640    4.2131 H   0  0  0  0  0  0  0  0  0  0  0  0
   -0.4137    0.2381    4.4736 H   0  0  0  0  0  0  0  0  0  0  0  0
  5  6  2  0  0  0  0
  5  7  1  0  0  0  0
  2  3  1  0  0  0  0
  2  4  1  0  0  0  0
  2  5  1  0  0  0  0
  1  2  1  0  0  0  0
 20 21  2  0  0  0  0
 20 22  1  0  0  0  0
 17 18  1  0  0  0  0
 17 19  2  0  0  0  0
 14 15  1  0  0  0  0
 14 16  1  0  0  0  0
 14 17  1  0  0  0  0
 11 12  1  0  0  0  0
 11 13  1  0  0  0  0
 11 14  1  0  0  0  0
  9 10  1  0  0  0  0
  9 11  1  0  0  0  0
  9 20  1  0  0  0  0
  7  8  1  0  0  0  0
  7  9  1  0  0  0  0
 24 25  1  0  0  0  0
 24 26  1  0  0  0  0
 24 27  1  0  0  0  0
 22 23  1  0  0  0  0
 22 24  1  0  0  0  0
M  CHG  1  18  -1
M  END
$$$$
default_name
  -OEChem-02102213163D

 27 26  0     1  0  0  0  0  0999 V2000
   -3.2406   -3.5400    1.2326 H   0  0  0  0  0  0  0  0  0  0  0  0
   -3.1436   -2.6190    0.6606 C   0  0  0  0  0  0  0  0  0  0  0  0
   -3.8786   -1.8920    0.9996 H   0  0  0  0  0  0  0  0  0  0  0  0
   -3.2846   -2.8280   -0.3984 H   0  0  0  0  0  0  0  0  0  0  0  0
   -1.7586   -2.0580    0.8686 C   0  0  0  0  0  0  0  0  0  0  0  0
   -0.9666   -2.6340    1.6026 O   0  0  0  0  0  0  0  0  0  0  0  0
   -1.4866   -0.9220    0.2366 N   0  0  0  0  0  0  0  0  0  0  0  0
   -2.2166   -0.4790   -0.2994 H   0  0  0  0  0  0  0  0  0  0  0  0
   -0.1956   -0.2250    0.2596 C   0  0  1  0  0  0  0  0  0  0  0  0
    0.5755   -0.9013   -0.1105 H   0  0  0  0  0  0  0  0  0  0  0  0
   -0.2553    0.9811   -0.6992 C   0  0  0  0  0  0  0  0  0  0  0  0
    0.5939    1.6293   -0.4773 H   0  0  0  0  0  0  0  0  0  0  0  0
   -0.1606    0.6289   -1.7274 H   0  0  0  0  0  0  0  0  0  0  0  0
   -1.5464    1.8062   -0.5653 C   0  0  0  0  0  0  0  0  0  0  0  0
   -1.7972    2.2374   -1.5375 H   0  0  0  0  0  0  0  0  0  0  0  0
   -2.3565    1.1311   -0.2769 H   0  0  0  0  0  0  0  0  0  0  0  0
   -1.4416    2.9406    0.4647 C   0  0  0  0  0  0  0  0  0  0  0  0
   -0.4118    3.0067    1.1729 O   0  5  0  0  0  0  0  0  0  0  0  0
   -2.3965    3.7478    0.5092 O   0  0  0  0  0  0  0  0  0  0  0  0
    0.1881    0.1678    1.7015 C   0  0  0  0  0  0  0  0  0  0  0  0
    1.3379    0.0002    2.1133 O   0  0  0  0  0  0  0  0  0  0  0  0
   -0.7666    0.7145    2.4656 N   0  0  0  0  0  0  0  0  0  0  0  0
   -1.6971    0.7705    2.0790 H   0  0  0  0  0  0  0  0  0  0  0  0
   -0.5716    1.1232    3.8542 C   0  0  0  0  0  0  0  0  0  0  0  0
    0.3083    1.7643    3.9293 H   0  0  0  0  0  0  0  0  0  0  0  0
   -1.4485    1.6640    4.2131 H   0  0  0  0  0  0  0  0  0  0  0  0
   -0.4137    0.2381    4.4736 H   0  0  0  0  0  0  0  0  0  0  0  0
  5  6  2  0  0  0  0
  5  7  1  0  0  0  0
  2  3  1  0  0  0  0
  2  4  1  0  0  0  0
  2  5  1  0  0  0  0
  1  2  1  0  0  0  0
 20 21  2  0  0  0  0
 20 22  1  0  0  0  0
 17 18  1  0  0  0  0
 17 19  2  0  0  0  0
 14 15  1  0  0  0  0
 14 16  1  0  0  0  0
 14 17  1  0  0  0  0
 11 12  1  0  0  0  0
 11 13  1  0  0  0  0
 11 14  1  0  0  0  0
  9 10  1  0  0  0  0
  9 11  1  0  0  0  0
  9 20  1  0  0  0  0
  7  8  1  0  0  0  0
  7  9  1  0  0  0  0
 24 25  1  0  0  0  0
 24 26  1  0  0  0  0
 24 27  1  0  0  0  0
 22 23  1  0  0  0  0
 22 24  1  0  0  0  0
M  CHG  1  18  -1
M  END
$$$$
default_name
  -OEChem-02102213163D

 27 26  0     1  0  0  0  0  0999 V2000
   -3.2406   -3.5400    1.2326 H   0  0  0  0  0  0  0  0  0  0  0  0
   -3.1436   -2.6190    0.6606 C   0  0  0  0  0  0  0  0  0  0  0  0
   -3.8786   -1.8920    0.9996 H   0  0  0  0  0  0  0  0  0  0  0  0
   -3.2846   -2.8280   -0.3984 H   0  0  0  0  0  0  0  0  0  0  0  0
   -1.7586   -2.0580    0.8686 C   0  0  0  0  0  0  0  0  0  0  0  0
   -0.9666   -2.6340    1.6026 O   0  0  0  0  0  0  0  0  0  0  0  0
   -1.4866   -0.9220    0.2366 N   0  0  0  0  0  0  0  0  0  0  0  0
   -2.2166   -0.4790   -0.2994 H   0  0  0  0  0  0  0  0  0  0  0  0
   -0.1956   -0.2250    0.2596 C   0  0  1  0  0  0  0  0  0  0  0  0
    0.5755   -0.9013   -0.1105 H   0  0  0  0  0  0  0  0  0  0  0  0
   -0.2553    0.9811   -0.6992 C   0  0  0  0  0  0  0  0  0  0  0  0
    0.5939    1.6293   -0.4773 H   0  0  0  0  0  0  0  0  0  0  0  0
   -0.1606    0.6289   -1.7274 H   0  0  0  0  0  0  0  0  0  0  0  0
   -1.5464    1.8062   -0.5653 C   0  0  0  0  0  0  0  0  0  0  0  0
   -1.9435    2.0123   -1.5622 H   0  0  0  0  0  0  0  0  0  0  0  0
   -2.2834    1.2048   -0.0266 H   0  0  0  0  0  0  0  0  0  0  0  0
   -1.3452    3.1393    0.1704 C   0  0  0  0  0  0  0  0  0  0  0  0
   -0.2317    3.3661    0.6949 O   0  5  0  0  0  0  0  0  0  0  0  0
   -2.3149    3.9298    0.1743 O   0  0  0  0  0  0  0  0  0  0  0  0
    0.1881    0.1678    1.7015 C   0  0  0  0  0  0  0  0  0  0  0  0
    1.3379    0.0002    2.1133 O   0  0  0  0  0  0  0  0  0  0  0  0
   -0.7666    0.7145    2.4656 N   0  0  0  0  0  0  0  0  0  0  0  0
   -1.6971    0.7705    2.0790 H   0  0  0  0  0  0  0  0  0  0  0  0
   -0.5716    1.1232    3.8542 C   0  0  0  0  0  0  0  0  0  0  0  0
    0.3083    1.7643    3.9293 H   0  0  0  0  0  0  0  0  0  0  0  0
   -1.4485    1.6640    4.2131 H   0  0  0  0  0  0  0  0  0  0  0  0
   -0.4137    0.2381    4.4736 H   0  0  0  0  0  0  0  0  0  0  0  0
  5  6  2  0  0  0  0
  5  7  1  0  0  0  0
  2  3  1  0  0  0  0
  2  4  1  0  0  0  0
  2  5  1  0  0  0  0
  1  2  1  0  0  0  0
 20 21  2  0  0  0  0
 20 22  1  0  0  0  0
 17 18  1  0  0  0  0
 17 19  2  0  0  0  0
 14 15  1  0  0  0  0
 14 16  1  0  0  0  0
 14 17  1  0  0  0  0
 11 12  1  0  0  0  0
 11 13  1  0  0  0  0
 11 14  1  0  0  0  0
  9 10  1  0  0  0  0
  9 11  1  0  0  0  0
  9 20  1  0  0  0  0
  7  8  1  0  0  0  0
  7  9  1  0  0  0  0
 24 25  1  0  0  0  0
 24 26  1  0  0  0  0
 24 27  1  0  0  0  0
 22 23  1  0  0  0  0
 22 24  1  0  0  0  0
M  CHG  1  18  -1
M  END
$$$$
default_name
  -OEChem-02102213163D

 27 26  0     1  0  0  0  0  0999 V2000
   -3.2406   -3.5400    1.2326 H   0  0  0  0  0  0  0  0  0  0  0  0
   -3.1436   -2.6190    0.6606 C   0  0  0  0  0  0  0  0  0  0  0  0
   -3.8786   -1.8920    0.9996 H   0  0  0  0  0  0  0  0  0  0  0  0
   -3.2846   -2.8280   -0.3984 H   0  0  0  0  0  0  0  0  0  0  0  0
   -1.7586   -2.0580    0.8686 C   0  0  0  0  0  0  0  0  0  0  0  0
   -0.9666   -2.6340    1.6026 O   0  0  0  0  0  0  0  0  0  0  0  0
   -1.4866   -0.9220    0.2366 N   0  0  0  0  0  0  0  0  0  0  0  0
   -2.2166   -0.4790   -0.2994 H   0  0  0  0  0  0  0  0  0  0  0  0
   -0.1956   -0.2250    0.2596 C   0  0  1  0  0  0  0  0  0  0  0  0
    0.5755   -0.9013   -0.1105 H   0  0  0  0  0  0  0  0  0  0  0  0
   -0.2553    0.9811   -0.6992 C   0  0  0  0  0  0  0  0  0  0  0  0
    0.5939    1.6293   -0.4773 H   0  0  0  0  0  0  0  0  0  0  0  0
   -0.1606    0.6289   -1.7274 H   0  0  0  0  0  0  0  0  0  0  0  0
   -1.5464    1.8062   -0.5653 C   0  0  0  0  0  0  0  0  0  0  0  0
   -2.0833    1.7863   -1.5168 H   0  0  0  0  0  0  0  0  0  0  0  0
   -2.1798    1.3320    0.1890 H   0  0  0  0  0  0  0  0  0  0  0  0
   -1.2974    3.2694   -0.1705 C   0  0  0  0  0  0  0  0  0  0  0  0
   -0.1322    3.6135    0.1300 O   0  5  0  0  0  0  0  0  0  0  0  0
   -2.2868    4.0346   -0.2002 O   0  0  0  0  0  0  0  0  0  0  0  0
    0.1881    0.1678    1.7015 C   0  0  0  0  0  0  0  0  0  0  0  0
    1.3379    0.0002    2.1133 O   0  0  0  0  0  0  0  0  0  0  0  0
   -0.7666    0.7145    2.4656 N   0  0  0  0  0  0  0  0  0  0  0  0
   -1.6971    0.7705    2.0790 H   0  0  0  0  0  0  0  0  0  0  0  0
   -0.5716    1.1232    3.8542 C   0  0  0  0  0  0  0  0  0  0  0  0
    0.3083    1.7643    3.9293 H   0  0  0  0  0  0  0  0  0  0  0  0
   -1.4485    1.6640    4.2131 H   0  0  0  0  0  0  0  0  0  0  0  0
   -0.4137    0.2381    4.4736 H   0  0  0  0  0  0  0  0  0  0  0  0
  5  6  2  0  0  0  0
  5  7  1  0  0  0  0
  2  3  1  0  0  0  0
  2  4  1  0  0  0  0
  2  5  1  0  0  0  0
  1  2  1  0  0  0  0
 20 21  2  0  0  0  0
 20 22  1  0  0  0  0
 17 18  1  0  0  0  0
 17 19  2  0  0  0  0
 14 15  1  0  0  0  0
 14 16  1  0  0  0  0
 14 17  1  0  0  0  0
 11 12  1  0  0  0  0
 11 13  1  0  0  0  0
 11 14  1  0  0  0  0
  9 10  1  0  0  0  0
  9 11  1  0  0  0  0
  9 20  1  0  0  0  0
  7  8  1  0  0  0  0
  7  9  1  0  0  0  0
 24 25  1  0  0  0  0
 24 26  1  0  0  0  0
 24 27  1  0  0  0  0
 22 23  1  0  0  0  0
 22 24  1  0  0  0  0
M  CHG  1  18  -1
M  END
$$$$
default_name
  -OEChem-02102213163D

 27 26  0     1  0  0  0  0  0999 V2000
   -3.2406   -3.5400    1.2326 H   0  0  0  0  0  0  0  0  0  0  0  0
   -3.1436   -2.6190    0.6606 C   0  0  0  0  0  0  0  0  0  0  0  0
   -3.8786   -1.8920    0.9996 H   0  0  0  0  0  0  0  0  0  0  0  0
   -3.2846   -2.8280   -0.3984 H   0  0  0  0  0  0  0  0  0  0  0  0
   -1.7586   -2.0580    0.8686 C   0  0  0  0  0  0  0  0  0  0  0  0
   -0.9666   -2.6340    1.6026 O   0  0  0  0  0  0  0  0  0  0  0  0
   -1.4866   -0.9220    0.2366 N   0  0  0  0  0  0  0  0  0  0  0  0
   -2.2166   -0.4790   -0.2994 H   0  0  0  0  0  0  0  0  0  0  0  0
   -0.1956   -0.2250    0.2596 C   0  0  1  0  0  0  0  0  0  0  0  0
    0.5755   -0.9013   -0.1105 H   0  0  0  0  0  0  0  0  0  0  0  0
   -0.2553    0.9811   -0.6992 C   0  0  0  0  0  0  0  0  0  0  0  0
    0.5939    1.6293   -0.4773 H   0  0  0  0  0  0  0  0  0  0  0  0
   -0.1606    0.6289   -1.7274 H   0  0  0  0  0  0  0  0  0  0  0  0
   -1.5464    1.8062   -0.5653 C   0  0  0  0  0  0  0  0  0  0  0  0
   -2.2068    1.5747   -1.4045 H   0  0  0  0  0  0  0  0  0  0  0  0
   -2.0526    1.5041    0.3553 H   0  0  0  0  0  0  0  0  0  0  0  0
   -1.3015    3.3221   -0.5346 C   0  0  0  0  0  0  0  0  0  0  0  0
   -0.1200    3.7320   -0.4832 O   0  5  0  0  0  0  0  0  0  0  0  0
   -2.3139    4.0551   -0.5885 O   0  0  0  0  0  0  0  0  0  0  0  0
    0.1881    0.1678    1.7015 C   0  0  0  0  0  0  0  0  0  0  0  0
    1.3379    0.0002    2.1133 O   0  0  0  0  0  0  0  0  0  0  0  0
   -0.7666    0.7145    2.4656 N   0  0  0  0  0  0  0  0  0  0  0  0
   -1.6971    0.7705    2.0790 H   0  0  0  0  0  0  0  0  0  0  0  0
   -0.5716    1.1232    3.8542 C   0  0  0  0  0  0  0  0  0  0  0  0
    0.3083    1.7643    3.9293 H   0  0  0  0  0  0  0  0  0  0  0  0
   -1.4485    1.6640    4.2131 H   0  0  0  0  0  0  0  0  0  0  0  0
   -0.4137    0.2381    4.4736 H   0  0  0  0  0  0  0  0  0  0  0  0
  5  6  2  0  0  0  0
  5  7  1  0  0  0  0
  2  3  1  0  0  0  0
  2  4  1  0  0  0  0
  2  5  1  0  0  0  0
  1  2  1  0  0  0  0
 20 21  2  0  0  0  0
 20 22  1  0  0  0  0
 17 18  1  0  0  0  0
 17 19  2  0  0  0  0
 14 15  1  0  0  0  0
 14 16  1  0  0  0  0
 14 17  1  0  0  0  0
 11 12  1  0  0  0  0
 11 13  1  0  0  0  0
 11 14  1  0  0  0  0
  9 10  1  0  0  0  0
  9 11  1  0  0  0  0
  9 20  1  0  0  0  0
  7  8  1  0  0  0  0
  7  9  1  0  0  0  0
 24 25  1  0  0  0  0
 24 26  1  0  0  0  0
 24 27  1  0  0  0  0
 22 23  1  0  0  0  0
 22 24  1  0  0  0  0
M  CHG  1  18  -1
M  END
$$$$
default_name
  -OEChem-02102213163D

 27 26  0     1  0  0  0  0  0999 V2000
   -3.2406   -3.5400    1.2326 H   0  0  0  0  0  0  0  0  0  0  0  0
   -3.1436   -2.6190    0.6606 C   0  0  0  0  0  0  0  0  0  0  0  0
   -3.8786   -1.8920    0.9996 H   0  0  0  0  0  0  0  0  0  0  0  0
   -3.2846   -2.8280   -0.3984 H   0  0  0  0  0  0  0  0  0  0  0  0
   -1.7586   -2.0580    0.8686 C   0  0  0  0  0  0  0  0  0  0  0  0
   -0.9666   -2.6340    1.6026 O   0  0  0  0  0  0  0  0  0  0  0  0
   -1.4866   -0.9220    0.2366 N   0  0  0  0  0  0  0  0  0  0  0  0
   -2.2166   -0.4790   -0.2994 H   0  0  0  0  0  0  0  0  0  0  0  0
   -0.1956   -0.2250    0.2596 C   0  0  1  0  0  0  0  0  0  0  0  0
    0.5755   -0.9013   -0.1105 H   0  0  0  0  0  0  0  0  0  0  0  0
   -0.2553    0.9811   -0.6992 C   0  0  0  0  0  0  0  0  0  0  0  0
    0.5939    1.6293   -0.4773 H   0  0  0  0  0  0  0  0  0  0  0  0
   -0.1606    0.6289   -1.7274 H   0  0  0  0  0  0  0  0  0  0  0  0
   -1.5464    1.8062   -0.5653 C   0  0  0  0  0  0  0  0  0  0  0  0
   -2.3058    1.3920   -1.2329 H   0  0  0  0  0  0  0  0  0  0  0  0
   -1.9106    1.7093    0.4609 H   0  0  0  0  0  0  0  0  0  0  0  0
   -1.3571    3.2938   -0.8972 C   0  0  0  0  0  0  0  0  0  0  0  0
   -0.1961    3.7135   -1.1029 O   0  5  0  0  0  0  0  0  0  0  0  0
   -2.3945    3.9900   -0.9643 O   0  0  0  0  0  0  0  0  0  0  0  0
    0.1881    0.1678    1.7015 C   0  0  0  0  0  0  0  0  0  0  0  0
    1.3379    0.0002    2.1133 O   0  0  0  0  0  0  0  0  0  0  0  0
   -0.7666    0.7145    2.4656 N   0  0  0  0  0  0  0  0  0  0  0  0
   -1.6971    0.7705    2.0790 H   0  0  0  0  0  0  0  0  0  0  0  0
   -0.5716    1.1232    3.8542 C   0  0  0  0  0  0  0  0  0  0  0  0
    0.3083    1.7643    3.9293 H   0  0  0  0  0  0  0  0  0  0  0  0
   -1.4485    1.6640    4.2131 H   0  0  0  0  0  0  0  0  0  0  0  0
   -0.4137    0.2381    4.4736 H   0  0  0  0  0  0  0  0  0  0  0  0
  5  6  2  0  0  0  0
  5  7  1  0  0  0  0
  2  3  1  0  0  0  0
  2  4  1  0  0  0  0
  2  5  1  0  0  0  0
  1  2  1  0  0  0  0
 20 21  2  0  0  0  0
 20 22  1  0  0  0  0
 17 18  1  0  0  0  0
 17 19  2  0  0  0  0
 14 15  1  0  0  0  0
 14 16  1  0  0  0  0
 14 17  1  0  0  0  0
 11 12  1  0  0  0  0
 11 13  1  0  0  0  0
 11 14  1  0  0  0  0
  9 10  1  0  0  0  0
  9 11  1  0  0  0  0
  9 20  1  0  0  0  0
  7  8  1  0  0  0  0
  7  9  1  0  0  0  0
 24 25  1  0  0  0  0
 24 26  1  0  0  0  0
 24 27  1  0  0  0  0
 22 23  1  0  0  0  0
 22 24  1  0  0  0  0
M  CHG  1  18  -1
M  END
$$$$
default_name
  -OEChem-02102213163D

 27 26  0     1  0  0  0  0  0999 V2000
   -3.2406   -3.5400    1.2326 H   0  0  0  0  0  0  0  0  0  0  0  0
   -3.1436   -2.6190    0.6606 C   0  0  0  0  0  0  0  0  0  0  0  0
   -3.8786   -1.8920    0.9996 H   0  0  0  0  0  0  0  0  0  0  0  0
   -3.2846   -2.8280   -0.3984 H   0  0  0  0  0  0  0  0  0  0  0  0
   -1.7586   -2.0580    0.8686 C   0  0  0  0  0  0  0  0  0  0  0  0
   -0.9666   -2.6340    1.6026 O   0  0  0  0  0  0  0  0  0  0  0  0
   -1.4866   -0.9220    0.2366 N   0  0  0  0  0  0  0  0  0  0  0  0
   -2.2166   -0.4790   -0.2994 H   0  0  0  0  0  0  0  0  0  0  0  0
   -0.1956   -0.2250    0.2596 C   0  0  1  0  0  0  0  0  0  0  0  0
    0.5755   -0.9013   -0.1105 H   0  0  0  0  0  0  0  0  0  0  0  0
   -0.2553    0.9811   -0.6992 C   0  0  0  0  0  0  0  0  0  0  0  0
    0.5939    1.6293   -0.4773 H   0  0  0  0  0  0  0  0  0  0  0  0
   -0.1606    0.6289   -1.7274 H   0  0  0  0  0  0  0  0  0  0  0  0
   -1.5464    1.8062   -0.5653 C   0  0  0  0  0  0  0  0  0  0  0  0
   -2.3735    1.2505   -1.0136 H   0  0  0  0  0  0  0  0  0  0  0  0
   -1.7633    1.9336    0.4985 H   0  0  0  0  0  0  0  0  0  0  0  0
   -1.4606    3.1864   -1.2336 C   0  0  0  0  0  0  0  0  0  0  0  0
   -0.3552    3.5592   -1.6869 O   0  5  0  0  0  0  0  0  0  0  0  0
   -2.5230    3.8436   -1.3019 O   0  0  0  0  0  0  0  0  0  0  0  0
    0.1881    0.1678    1.7015 C   0  0  0  0  0  0  0  0  0  0  0  0
    1.3379    0.0002    2.1133 O   0  0  0  0  0  0  0  0  0  0  0  0
   -0.7666    0.7145    2.4656 N   0  0  0  0  0  0  0  0  0  0  0  0
   -1.6971    0.7705    2.0790 H   0  0  0  0  0  0  0  0  0  0  0  0
   -0.5716    1.1232    3.8542 C   0  0  0  0  0  0  0  0  0  0  0  0
    0.3083    1.7643    3.9293 H   0  0  0  0  0  0  0  0  0  0  0  0
   -1.4485    1.6640    4.2131 H   0  0  0  0  0  0  0  0  0  0  0  0
   -0.4137    0.2381    4.4736 H   0  0  0  0  0  0  0  0  0  0  0  0
  5  6  2  0  0  0  0
  5  7  1  0  0  0  0
  2  3  1  0  0  0  0
  2  4  1  0  0  0  0
  2  5  1  0  0  0  0
  1  2  1  0  0  0  0
 20 21  2  0  0  0  0
 20 22  1  0  0  0  0
 17 18  1  0  0  0  0
 17 19  2  0  0  0  0
 14 15  1  0  0  0  0
 14 16  1  0  0  0  0
 14 17  1  0  0  0  0
 11 12  1  0  0  0  0
 11 13  1  0  0  0  0
 11 14  1  0  0  0  0
  9 10  1  0  0  0  0
  9 11  1  0  0  0  0
  9 20  1  0  0  0  0
  7  8  1  0  0  0  0
  7  9  1  0  0  0  0
 24 25  1  0  0  0  0
 24 26  1  0  0  0  0
 24 27  1  0  0  0  0
 22 23  1  0  0  0  0
 22 24  1  0  0  0  0
M  CHG  1  18  -1
M  END
$$$$
default_name
  -OEChem-02102213163D

 27 26  0     1  0  0  0  0  0999 V2000
   -3.2406   -3.5400    1.2326 H   0  0  0  0  0  0  0  0  0  0  0  0
   -3.1436   -2.6190    0.6606 C   0  0  0  0  0  0  0  0  0  0  0  0
   -3.8786   -1.8920    0.9996 H   0  0  0  0  0  0  0  0  0  0  0  0
   -3.2846   -2.8280   -0.3984 H   0  0  0  0  0  0  0  0  0  0  0  0
   -1.7586   -2.0580    0.8686 C   0  0  0  0  0  0  0  0  0  0  0  0
   -0.9666   -2.6340    1.6026 O   0  0  0  0  0  0  0  0  0  0  0  0
   -1.4866   -0.9220    0.2366 N   0  0  0  0  0  0  0  0  0  0  0  0
   -2.2166   -0.4790   -0.2994 H   0  0  0  0  0  0  0  0  0  0  0  0
   -0.1956   -0.2250    0.2596 C   0  0  1  0  0  0  0  0  0  0  0  0
    0.5755   -0.9013   -0.1105 H   0  0  0  0  0  0  0  0  0  0  0  0
   -0.2553    0.9811   -0.6992 C   0  0  0  0  0  0  0  0  0  0  0  0
    0.7138    1.4818   -0.6704 H   0  0  0  0  0  0  0  0  0  0  0  0
   -0.4292    0.6249   -1.7156 H   0  0  0  0  0  0  0  0  0  0  0  0
   -1.3433    2.0035   -0.3298 C   0  0  0  0  0  0  0  0  0  0  0  0
   -2.3163    1.5062   -0.3317 H   0  0  0  0  0  0  0  0  0  0  0  0
   -1.1489    2.3597    0.6853 H   0  0  0  0  0  0  0  0  0  0  0  0
   -1.4020    3.2044   -1.2854 C   0  0  0  0  0  0  0  0  0  0  0  0
   -0.5118    3.3128   -2.1585 O   0  5  0  0  0  0  0  0  0  0  0  0
   -2.3637    3.9911   -1.1393 O   0  0  0  0  0  0  0  0  0  0  0  0
    0.1881    0.1678    1.7015 C   0  0  0  0  0  0  0  0  0  0  0  0
    1.3379    0.0002    2.1133 O   0  0  0  0  0  0  0  0  0  0  0  0
   -0.7666    0.7145    2.4656 N   0  0  0  0  0  0  0  0  0  0  0  0
   -1.6971    0.7705    2.0790 H   0  0  0  0  0  0  0  0  0  0  0  0
   -0.5716    1.1232    3.8542 C   0  0  0  0  0  0  0  0  0  0  0  0
    0.3083    1.7643    3.9293 H   0  0  0  0  0  0  0  0  0  0  0  0
   -1.4485    1.6640    4.2131 H   0  0  0  0  0  0  0  0  0  0  0  0
   -0.4137    0.2381    4.4736 H   0  0  0  0  0  0  0  0  0  0  0  0
  5  6  2  0  0  0  0
  5  7  1  0  0  0  0
  2  3  1  0  0  0  0
  2  4  1  0  0  0  0
  2  5  1  0  0  0  0
  1  2  1  0  0  0  0
 20 21  2  0  0  0  0
 20 22  1  0  0  0  0
 17 18  1  0  0  0  0
 17 19  2  0  0  0  0
 14 15  1  0  0  0  0
 14 16  1  0  0  0  0
 14 17  1  0  0  0  0
 11 12  1  0  0  0  0
 11 13  1  0  0  0  0
 11 14  1  0  0  0  0
  9 10  1  0  0  0  0
  9 11  1  0  0  0  0
  9 20  1  0  0  0  0
  7  8  1  0  0  0  0
  7  9  1  0  0  0  0
 24 25  1  0  0  0  0
 24 26  1  0  0  0  0
 24 27  1  0  0  0  0
 22 23  1  0  0  0  0
 22 24  1  0  0  0  0
M  CHG  1  18  -1
M  END
$$$$
default_name
  -OEChem-02102213163D

 27 26  0     1  0  0  0  0  0999 V2000
   -3.2406   -3.5400    1.2326 H   0  0  0  0  0  0  0  0  0  0  0  0
   -3.1436   -2.6190    0.6606 C   0  0  0  0  0  0  0  0  0  0  0  0
   -3.8786   -1.8920    0.9996 H   0  0  0  0  0  0  0  0  0  0  0  0
   -3.2846   -2.8280   -0.3984 H   0  0  0  0  0  0  0  0  0  0  0  0
   -1.7586   -2.0580    0.8686 C   0  0  0  0  0  0  0  0  0  0  0  0
   -0.9666   -2.6340    1.6026 O   0  0  0  0  0  0  0  0  0  0  0  0
   -1.4866   -0.9220    0.2366 N   0  0  0  0  0  0  0  0  0  0  0  0
   -2.2166   -0.4790   -0.2994 H   0  0  0  0  0  0  0  0  0  0  0  0
   -0.1956   -0.2250    0.2596 C   0  0  1  0  0  0  0  0  0  0  0  0
    0.5755   -0.9013   -0.1105 H   0  0  0  0  0  0  0  0  0  0  0  0
   -0.2553    0.9811   -0.6992 C   0  0  0  0  0  0  0  0  0  0  0  0
    0.7138    1.4818   -0.6704 H   0  0  0  0  0  0  0  0  0  0  0  0
   -0.4292    0.6249   -1.7156 H   0  0  0  0  0  0  0  0  0  0  0  0
   -1.3433    2.0035   -0.3298 C   0  0  0  0  0  0  0  0  0  0  0  0
   -2.2611    1.4704   -0.0702 H   0  0  0  0  0  0  0  0  0  0  0  0
   -1.0113    2.5533    0.5548 H   0  0  0  0  0  0  0  0  0  0  0  0
   -1.6537    2.9987   -1.4576 C   0  0  0  0  0  0  0  0  0  0  0  0
   -0.9324    2.9815   -2.4803 O   0  5  0  0  0  0  0  0  0  0  0  0
   -2.6364    3.7536   -1.2850 O   0  0  0  0  0  0  0  0  0  0  0  0
    0.1881    0.1678    1.7015 C   0  0  0  0  0  0  0  0  0  0  0  0
    1.3379    0.0002    2.1133 O   0  0  0  0  0  0  0  0  0  0  0  0
   -0.7666    0.7145    2.4656 N   0  0  0  0  0  0  0  0  0  0  0  0
   -1.6971    0.7705    2.0790 H   0  0  0  0  0  0  0  0  0  0  0  0
   -0.5716    1.1232    3.8542 C   0  0  0  0  0  0  0  0  0  0  0  0
    0.3083    1.7643    3.9293 H   0  0  0  0  0  0  0  0  0  0  0  0
   -1.4485    1.6640    4.2131 H   0  0  0  0  0  0  0  0  0  0  0  0
   -0.4137    0.2381    4.4736 H   0  0  0  0  0  0  0  0  0  0  0  0
  5  6  2  0  0  0  0
  5  7  1  0  0  0  0
  2  3  1  0  0  0  0
  2  4  1  0  0  0  0
  2  5  1  0  0  0  0
  1  2  1  0  0  0  0
 20 21  2  0  0  0  0
 20 22  1  0  0  0  0
 17 18  1  0  0  0  0
 17 19  2  0  0  0  0
 14 15  1  0  0  0  0
 14 16  1  0  0  0  0
 14 17  1  0  0  0  0
 11 12  1  0  0  0  0
 11 13  1  0  0  0  0
 11 14  1  0  0  0  0
  9 10  1  0  0  0  0
  9 11  1  0  0  0  0
  9 20  1  0  0  0  0
  7  8  1  0  0  0  0
  7  9  1  0  0  0  0
 24 25  1  0  0  0  0
 24 26  1  0  0  0  0
 24 27  1  0  0  0  0
 22 23  1  0  0  0  0
 22 24  1  0  0  0  0
M  CHG  1  18  -1
M  END
$$$$
default_name
  -OEChem-02102213163D

 27 26  0     1  0  0  0  0  0999 V2000
   -3.2406   -3.5400    1.2326 H   0  0  0  0  0  0  0  0  0  0  0  0
   -3.1436   -2.6190    0.6606 C   0  0  0  0  0  0  0  0  0  0  0  0
   -3.8786   -1.8920    0.9996 H   0  0  0  0  0  0  0  0  0  0  0  0
   -3.2846   -2.8280   -0.3984 H   0  0  0  0  0  0  0  0  0  0  0  0
   -1.7586   -2.0580    0.8686 C   0  0  0  0  0  0  0  0  0  0  0  0
   -0.9666   -2.6340    1.6026 O   0  0  0  0  0  0  0  0  0  0  0  0
   -1.4866   -0.9220    0.2366 N   0  0  0  0  0  0  0  0  0  0  0  0
   -2.2166   -0.4790   -0.2994 H   0  0  0  0  0  0  0  0  0  0  0  0
   -0.1956   -0.2250    0.2596 C   0  0  1  0  0  0  0  0  0  0  0  0
    0.5755   -0.9013   -0.1105 H   0  0  0  0  0  0  0  0  0  0  0  0
   -0.2553    0.9811   -0.6992 C   0  0  0  0  0  0  0  0  0  0  0  0
    0.7138    1.4818   -0.6704 H   0  0  0  0  0  0  0  0  0  0  0  0
   -0.4292    0.6249   -1.7156 H   0  0  0  0  0  0  0  0  0  0  0  0
   -1.3433    2.0035   -0.3298 C   0  0  0  0  0  0  0  0  0  0  0  0
   -2.1607    1.4871    0.1794 H   0  0  0  0  0  0  0  0  0  0  0  0
   -0.9128    2.7249    0.3697 H   0  0  0  0  0  0  0  0  0  0  0  0
   -1.9138    2.7528   -1.5430 C   0  0  0  0  0  0  0  0  0  0  0  0
   -1.3734    2.5764   -2.6581 O   0  5  0  0  0  0  0  0  0  0  0  0
   -2.9100    3.4806   -1.3353 O   0  0  0  0  0  0  0  0  0  0  0  0
    0.1881    0.1678    1.7015 C   0  0  0  0  0  0  0  0  0  0  0  0
    1.3379    0.0002    2.1133 O   0  0  0  0  0  0  0  0  0  0  0  0
   -0.7666    0.7145    2.4656 N   0  0  0  0  0  0  0  0  0  0  0  0
   -1.6971    0.7705    2.0790 H   0  0  0  0  0  0  0  0  0  0  0  0
   -0.5716    1.1232    3.8542 C   0  0  0  0  0  0  0  0  0  0  0  0
    0.3083    1.7643    3.9293 H   0  0  0  0  0  0  0  0  0  0  0  0
   -1.4485    1.6640    4.2131 H   0  0  0  0  0  0  0  0  0  0  0  0
   -0.4137    0.2381    4.4736 H   0  0  0  0  0  0  0  0  0  0  0  0
  5  6  2  0  0  0  0
  5  7  1  0  0  0  0
  2  3  1  0  0  0  0
  2  4  1  0  0  0  0
  2  5  1  0  0  0  0
  1  2  1  0  0  0  0
 20 21  2  0  0  0  0
 20 22  1  0  0  0  0
 17 18  1  0  0  0  0
 17 19  2  0  0  0  0
 14 15  1  0  0  0  0
 14 16  1  0  0  0  0
 14 17  1  0  0  0  0
 11 12  1  0  0  0  0
 11 13  1  0  0  0  0
 11 14  1  0  0  0  0
  9 10  1  0  0  0  0
  9 11  1  0  0  0  0
  9 20  1  0  0  0  0
  7  8  1  0  0  0  0
  7  9  1  0  0  0  0
 24 25  1  0  0  0  0
 24 26  1  0  0  0  0
 24 27  1  0  0  0  0
 22 23  1  0  0  0  0
 22 24  1  0  0  0  0
M  CHG  1  18  -1
M  END
$$$$
default_name
  -OEChem-02102213163D

 27 26  0     1  0  0  0  0  0999 V2000
   -3.2406   -3.5400    1.2326 H   0  0  0  0  0  0  0  0  0  0  0  0
   -3.1436   -2.6190    0.6606 C   0  0  0  0  0  0  0  0  0  0  0  0
   -3.8786   -1.8920    0.9996 H   0  0  0  0  0  0  0  0  0  0  0  0
   -3.2846   -2.8280   -0.3984 H   0  0  0  0  0  0  0  0  0  0  0  0
   -1.7586   -2.0580    0.8686 C   0  0  0  0  0  0  0  0  0  0  0  0
   -0.9666   -2.6340    1.6026 O   0  0  0  0  0  0  0  0  0  0  0  0
   -1.4866   -0.9220    0.2366 N   0  0  0  0  0  0  0  0  0  0  0  0
   -2.2166   -0.4790   -0.2994 H   0  0  0  0  0  0  0  0  0  0  0  0
   -0.1956   -0.2250    0.2596 C   0  0  1  0  0  0  0  0  0  0  0  0
    0.5755   -0.9013   -0.1105 H   0  0  0  0  0  0  0  0  0  0  0  0
   -0.2553    0.9811   -0.6992 C   0  0  0  0  0  0  0  0  0  0  0  0
    0.7138    1.4818   -0.6704 H   0  0  0  0  0  0  0  0  0  0  0  0
   -0.4292    0.6249   -1.7156 H   0  0  0  0  0  0  0  0  0  0  0  0
   -1.3433    2.0035   -0.3298 C   0  0  0  0  0  0  0  0  0  0  0  0
   -2.0218    1.5552    0.4001 H   0  0  0  0  0  0  0  0  0  0  0  0
   -0.8603    2.8630    0.1425 H   0  0  0  0  0  0  0  0  0  0  0  0
   -2.1644    2.4835   -1.5358 C   0  0  0  0  0  0  0  0  0  0  0  0
   -1.8047    2.1251   -2.6798 O   0  5  0  0  0  0  0  0  0  0  0  0
   -3.1660    3.1906   -1.2868 O   0  0  0  0  0  0  0  0  0  0  0  0
    0.1881    0.1678    1.7015 C   0  0  0  0  0  0  0  0  0  0  0  0
    1.3379    0.0002    2.1133 O   0  0  0  0  0  0  0  0  0  0  0  0
   -0.7666    0.7145    2.4656 N   0  0  0  0  0  0  0  0  0  0  0  0
   -1.6971    0.7705    2.0790 H   0  0  0  0  0  0  0  0  0  0  0  0
   -0.5716    1.1232    3.8542 C   0  0  0  0  0  0  0  0  0  0  0  0
    0.3083    1.7643    3.9293 H   0  0  0  0  0  0  0  0  0  0  0  0
   -1.4485    1.6640    4.2131 H   0  0  0  0  0  0  0  0  0  0  0  0
   -0.4137    0.2381    4.4736 H   0  0  0  0  0  0  0  0  0  0  0  0
  5  6  2  0  0  0  0
  5  7  1  0  0  0  0
  2  3  1  0  0  0  0
  2  4  1  0  0  0  0
  2  5  1  0  0  0  0
  1  2  1  0  0  0  0
 20 21  2  0  0  0  0
 20 22  1  0  0  0  0
 17 18  1  0  0  0  0
 17 19  2  0  0  0  0
 14 15  1  0  0  0  0
 14 16  1  0  0  0  0
 14 17  1  0  0  0  0
 11 12  1  0  0  0  0
 11 13  1  0  0  0  0
 11 14  1  0  0  0  0
  9 10  1  0  0  0  0
  9 11  1  0  0  0  0
  9 20  1  0  0  0  0
  7  8  1  0  0  0  0
  7  9  1  0  0  0  0
 24 25  1  0  0  0  0
 24 26  1  0  0  0  0
 24 27  1  0  0  0  0
 22 23  1  0  0  0  0
 22 24  1  0  0  0  0
M  CHG  1  18  -1
M  END
$$$$
default_name
  -OEChem-02102213163D

 27 26  0     1  0  0  0  0  0999 V2000
   -3.2406   -3.5400    1.2326 H   0  0  0  0  0  0  0  0  0  0  0  0
   -3.1436   -2.6190    0.6606 C   0  0  0  0  0  0  0  0  0  0  0  0
   -3.8786   -1.8920    0.9996 H   0  0  0  0  0  0  0  0  0  0  0  0
   -3.2846   -2.8280   -0.3984 H   0  0  0  0  0  0  0  0  0  0  0  0
   -1.7586   -2.0580    0.8686 C   0  0  0  0  0  0  0  0  0  0  0  0
   -0.9666   -2.6340    1.6026 O   0  0  0  0  0  0  0  0  0  0  0  0
   -1.4866   -0.9220    0.2366 N   0  0  0  0  0  0  0  0  0  0  0  0
   -2.2166   -0.4790   -0.2994 H   0  0  0  0  0  0  0  0  0  0  0  0
   -0.1956   -0.2250    0.2596 C   0  0  1  0  0  0  0  0  0  0  0  0
    0.5755   -0.9013   -0.1105 H   0  0  0  0  0  0  0  0  0  0  0  0
   -0.2553    0.9811   -0.6992 C   0  0  0  0  0  0  0  0  0  0  0  0
    0.7138    1.4818   -0.6704 H   0  0  0  0  0  0  0  0  0  0  0  0
   -0.4292    0.6249   -1.7156 H   0  0  0  0  0  0  0  0  0  0  0  0
   -1.3433    2.0035   -0.3298 C   0  0  0  0  0  0  0  0  0  0  0  0
   -1.8538    1.6700    0.5769 H   0  0  0  0  0  0  0  0  0  0  0  0
   -0.8572    2.9579   -0.1112 H   0  0  0  0  0  0  0  0  0  0  0  0
   -2.3884    2.2091   -1.4363 C   0  0  0  0  0  0  0  0  0  0  0  0
   -2.1971    1.6585   -2.5439 O   0  5  0  0  0  0  0  0  0  0  0  0
   -3.3869    2.9035   -1.1429 O   0  0  0  0  0  0  0  0  0  0  0  0
    0.1881    0.1678    1.7015 C   0  0  0  0  0  0  0  0  0  0  0  0
    1.3379    0.0002    2.1133 O   0  0  0  0  0  0  0  0  0  0  0  0
   -0.7666    0.7145    2.4656 N   0  0  0  0  0  0  0  0  0  0  0  0
   -1.6971    0.7705    2.0790 H   0  0  0  0  0  0  0  0  0  0  0  0
   -0.5716    1.1232    3.8542 C   0  0  0  0  0  0  0  0  0  0  0  0
    0.3083    1.7643    3.9293 H   0  0  0  0  0  0  0  0  0  0  0  0
   -1.4485    1.6640    4.2131 H   0  0  0  0  0  0  0  0  0  0  0  0
   -0.4137    0.2381    4.4736 H   0  0  0  0  0  0  0  0  0  0  0  0
  5  6  2  0  0  0  0
  5  7  1  0  0  0  0
  2  3  1  0  0  0  0
  2  4  1  0  0  0  0
  2  5  1  0  0  0  0
  1  2  1  0  0  0  0
 20 21  2  0  0  0  0
 20 22  1  0  0  0  0
 17 18  1  0  0  0  0
 17 19  2  0  0  0  0
 14 15  1  0  0  0  0
 14 16  1  0  0  0  0
 14 17  1  0  0  0  0
 11 12  1  0  0  0  0
 11 13  1  0  0  0  0
 11 14  1  0  0  0  0
  9 10  1  0  0  0  0
  9 11  1  0  0  0  0
  9 20  1  0  0  0  0
  7  8  1  0  0  0  0
  7  9  1  0  0  0  0
 24 25  1  0  0  0  0
 24 26  1  0  0  0  0
 24 27  1  0  0  0  0
 22 23  1  0  0  0  0
 22 24  1  0  0  0  0
M  CHG  1  18  -1
M  END
$$$$
default_name
  -OEChem-02102213163D

 27 26  0     1  0  0  0  0  0999 V2000
   -3.2406   -3.5400    1.2326 H   0  0  0  0  0  0  0  0  0  0  0  0
   -3.1436   -2.6190    0.6606 C   0  0  0  0  0  0  0  0  0  0  0  0
   -3.8786   -1.8920    0.9996 H   0  0  0  0  0  0  0  0  0  0  0  0
   -3.2846   -2.8280   -0.3984 H   0  0  0  0  0  0  0  0  0  0  0  0
   -1.7586   -2.0580    0.8686 C   0  0  0  0  0  0  0  0  0  0  0  0
   -0.9666   -2.6340    1.6026 O   0  0  0  0  0  0  0  0  0  0  0  0
   -1.4866   -0.9220    0.2366 N   0  0  0  0  0  0  0  0  0  0  0  0
   -2.2166   -0.4790   -0.2994 H   0  0  0  0  0  0  0  0  0  0  0  0
   -0.1956   -0.2250    0.2596 C   0  0  1  0  0  0  0  0  0  0  0  0
    0.5755   -0.9013   -0.1105 H   0  0  0  0  0  0  0  0  0  0  0  0
   -0.2553    0.9811   -0.6992 C   0  0  0  0  0  0  0  0  0  0  0  0
    0.7138    1.4818   -0.6704 H   0  0  0  0  0  0  0  0  0  0  0  0
   -0.4292    0.6249   -1.7156 H   0  0  0  0  0  0  0  0  0  0  0  0
   -1.3433    2.0035   -0.3298 C   0  0  0  0  0  0  0  0  0  0  0  0
   -1.6683    1.8238    0.6979 H   0  0  0  0  0  0  0  0  0  0  0  0
   -0.9038    3.0034   -0.3743 H   0  0  0  0  0  0  0  0  0  0  0  0
   -2.5707    1.9484   -1.2515 C   0  0  0  0  0  0  0  0  0  0  0  0
   -2.5237    1.2082   -2.2597 O   0  5  0  0  0  0  0  0  0  0  0  0
   -3.5577    2.6388   -0.9133 O   0  0  0  0  0  0  0  0  0  0  0  0
    0.1881    0.1678    1.7015 C   0  0  0  0  0  0  0  0  0  0  0  0
    1.3379    0.0002    2.1133 O   0  0  0  0  0  0  0  0  0  0  0  0
   -0.7666    0.7145    2.4656 N   0  0  0  0  0  0  0  0  0  0  0  0
   -1.6971    0.7705    2.0790 H   0  0  0  0  0  0  0  0  0  0  0  0
   -0.5716    1.1232    3.8542 C   0  0  0  0  0  0  0  0  0  0  0  0
    0.3083    1.7643    3.9293 H   0  0  0  0  0  0  0  0  0  0  0  0
   -1.4485    1.6640    4.2131 H   0  0  0  0  0  0  0  0  0  0  0  0
   -0.4137    0.2381    4.4736 H   0  0  0  0  0  0  0  0  0  0  0  0
  5  6  2  0  0  0  0
  5  7  1  0  0  0  0
  2  3  1  0  0  0  0
  2  4  1  0  0  0  0
  2  5  1  0  0  0  0
  1  2  1  0  0  0  0
 20 21  2  0  0  0  0
 20 22  1  0  0  0  0
 17 18  1  0  0  0  0
 17 19  2  0  0  0  0
 14 15  1  0  0  0  0
 14 16  1  0  0  0  0
 14 17  1  0  0  0  0
 11 12  1  0  0  0  0
 11 13  1  0  0  0  0
 11 14  1  0  0  0  0
  9 10  1  0  0  0  0
  9 11  1  0  0  0  0
  9 20  1  0  0  0  0
  7  8  1  0  0  0  0
  7  9  1  0  0  0  0
 24 25  1  0  0  0  0
 24 26  1  0  0  0  0
 24 27  1  0  0  0  0
 22 23  1  0  0  0  0
 22 24  1  0  0  0  0
M  CHG  1  18  -1
M  END
$$$$
default_name
  -OEChem-02102213163D

 27 26  0     1  0  0  0  0  0999 V2000
   -3.2406   -3.5400    1.2326 H   0  0  0  0  0  0  0  0  0  0  0  0
   -3.1436   -2.6190    0.6606 C   0  0  0  0  0  0  0  0  0  0  0  0
   -3.8786   -1.8920    0.9996 H   0  0  0  0  0  0  0  0  0  0  0  0
   -3.2846   -2.8280   -0.3984 H   0  0  0  0  0  0  0  0  0  0  0  0
   -1.7586   -2.0580    0.8686 C   0  0  0  0  0  0  0  0  0  0  0  0
   -0.9666   -2.6340    1.6026 O   0  0  0  0  0  0  0  0  0  0  0  0
   -1.4866   -0.9220    0.2366 N   0  0  0  0  0  0  0  0  0  0  0  0
   -2.2166   -0.4790   -0.2994 H   0  0  0  0  0  0  0  0  0  0  0  0
   -0.1956   -0.2250    0.2596 C   0  0  1  0  0  0  0  0  0  0  0  0
    0.5755   -0.9013   -0.1105 H   0  0  0  0  0  0  0  0  0  0  0  0
   -0.2553    0.9811   -0.6992 C   0  0  0  0  0  0  0  0  0  0  0  0
    0.7138    1.4818   -0.6704 H   0  0  0  0  0  0  0  0  0  0  0  0
   -0.4292    0.6249   -1.7156 H   0  0  0  0  0  0  0  0  0  0  0  0
   -1.3433    2.0035   -0.3298 C   0  0  0  0  0  0  0  0  0  0  0  0
   -1.4779    2.0059    0.7546 H   0  0  0  0  0  0  0  0  0  0  0  0
   -0.9968    2.9963   -0.6287 H   0  0  0  0  0  0  0  0  0  0  0  0
   -2.6987    1.7190   -0.9938 C   0  0  0  0  0  0  0  0  0  0  0  0
   -2.7622    0.8050   -1.8465 O   0  5  0  0  0  0  0  0  0  0  0  0
   -3.6667    2.4145   -0.6136 O   0  0  0  0  0  0  0  0  0  0  0  0
    0.1881    0.1678    1.7015 C   0  0  0  0  0  0  0  0  0  0  0  0
    1.3379    0.0002    2.1133 O   0  0  0  0  0  0  0  0  0  0  0  0
   -0.7666    0.7145    2.4656 N   0  0  0  0  0  0  0  0  0  0  0  0
   -1.6971    0.7705    2.0790 H   0  0  0  0  0  0  0  0  0  0  0  0
   -0.5716    1.1232    3.8542 C   0  0  0  0  0  0  0  0  0  0  0  0
    0.3083    1.7643    3.9293 H   0  0  0  0  0  0  0  0  0  0  0  0
   -1.4485    1.6640    4.2131 H   0  0  0  0  0  0  0  0  0  0  0  0
   -0.4137    0.2381    4.4736 H   0  0  0  0  0  0  0  0  0  0  0  0
  5  6  2  0  0  0  0
  5  7  1  0  0  0  0
  2  3  1  0  0  0  0
  2  4  1  0  0  0  0
  2  5  1  0  0  0  0
  1  2  1  0  0  0  0
 20 21  2  0  0  0  0
 20 22  1  0  0  0  0
 17 18  1  0  0  0  0
 17 19  2  0  0  0  0
 14 15  1  0  0  0  0
 14 16  1  0  0  0  0
 14 17  1  0  0  0  0
 11 12  1  0  0  0  0
 11 13  1  0  0  0  0
 11 14  1  0  0  0  0
  9 10  1  0  0  0  0
  9 11  1  0  0  0  0
  9 20  1  0  0  0  0
  7  8  1  0  0  0  0
  7  9  1  0  0  0  0
 24 25  1  0  0  0  0
 24 26  1  0  0  0  0
 24 27  1  0  0  0  0
 22 23  1  0  0  0  0
 22 24  1  0  0  0  0
M  CHG  1  18  -1
M  END
$$$$
default_name
  -OEChem-02102213163D

 27 26  0     1  0  0  0  0  0999 V2000
   -3.2406   -3.5400    1.2326 H   0  0  0  0  0  0  0  0  0  0  0  0
   -3.1436   -2.6190    0.6606 C   0  0  0  0  0  0  0  0  0  0  0  0
   -3.8786   -1.8920    0.9996 H   0  0  0  0  0  0  0  0  0  0  0  0
   -3.2846   -2.8280   -0.3984 H   0  0  0  0  0  0  0  0  0  0  0  0
   -1.7586   -2.0580    0.8686 C   0  0  0  0  0  0  0  0  0  0  0  0
   -0.9666   -2.6340    1.6026 O   0  0  0  0  0  0  0  0  0  0  0  0
   -1.4866   -0.9220    0.2366 N   0  0  0  0  0  0  0  0  0  0  0  0
   -2.2166   -0.4790   -0.2994 H   0  0  0  0  0  0  0  0  0  0  0  0
   -0.1956   -0.2250    0.2596 C   0  0  1  0  0  0  0  0  0  0  0  0
    0.5755   -0.9013   -0.1105 H   0  0  0  0  0  0  0  0  0  0  0  0
   -0.2553    0.9811   -0.6992 C   0  0  0  0  0  0  0  0  0  0  0  0
    0.7138    1.4818   -0.6704 H   0  0  0  0  0  0  0  0  0  0  0  0
   -0.4292    0.6249   -1.7156 H   0  0  0  0  0  0  0  0  0  0  0  0
   -1.3433    2.0035   -0.3298 C   0  0  0  0  0  0  0  0  0  0  0  0
   -1.2955    2.2041    0.7432 H   0  0  0  0  0  0  0  0  0  0  0  0
   -1.1300    2.9371   -0.8571 H   0  0  0  0  0  0  0  0  0  0  0  0
   -2.7638    1.5367   -0.6809 C   0  0  0  0  0  0  0  0  0  0  0  0
   -2.8966    0.4764   -1.3326 O   0  5  0  0  0  0  0  0  0  0  0  0
   -3.7065    2.2460   -0.2644 O   0  0  0  0  0  0  0  0  0  0  0  0
    0.1881    0.1678    1.7015 C   0  0  0  0  0  0  0  0  0  0  0  0
    1.3379    0.0002    2.1133 O   0  0  0  0  0  0  0  0  0  0  0  0
   -0.7666    0.7145    2.4656 N   0  0  0  0  0  0  0  0  0  0  0  0
   -1.6971    0.7705    2.0790 H   0  0  0  0  0  0  0  0  0  0  0  0
   -0.5716    1.1232    3.8542 C   0  0  0  0  0  0  0  0  0  0  0  0
    0.3083    1.7643    3.9293 H   0  0  0  0  0  0  0  0  0  0  0  0
   -1.4485    1.6640    4.2131 H   0  0  0  0  0  0  0  0  0  0  0  0
   -0.4137    0.2381    4.4736 H   0  0  0  0  0  0  0  0  0  0  0  0
  5  6  2  0  0  0  0
  5  7  1  0  0  0  0
  2  3  1  0  0  0  0
  2  4  1  0  0  0  0
  2  5  1  0  0  0  0
  1  2  1  0  0  0  0
 20 21  2  0  0  0  0
 20 22  1  0  0  0  0
 17 18  1  0  0  0  0
 17 19  2  0  0  0  0
 14 15  1  0  0  0  0
 14 16  1  0  0  0  0
 14 17  1  0  0  0  0
 11 12  1  0  0  0  0
 11 13  1  0  0  0  0
 11 14  1  0  0  0  0
  9 10  1  0  0  0  0
  9 11  1  0  0  0  0
  9 20  1  0  0  0  0
  7  8  1  0  0  0  0
  7  9  1  0  0  0  0
 24 25  1  0  0  0  0
 24 26  1  0  0  0  0
 24 27  1  0  0  0  0
 22 23  1  0  0  0  0
 22 24  1  0  0  0  0
M  CHG  1  18  -1
M  END
$$$$
default_name
  -OEChem-02102213163D

 27 26  0     1  0  0  0  0  0999 V2000
   -3.2406   -3.5400    1.2326 H   0  0  0  0  0  0  0  0  0  0  0  0
   -3.1436   -2.6190    0.6606 C   0  0  0  0  0  0  0  0  0  0  0  0
   -3.8786   -1.8920    0.9996 H   0  0  0  0  0  0  0  0  0  0  0  0
   -3.2846   -2.8280   -0.3984 H   0  0  0  0  0  0  0  0  0  0  0  0
   -1.7586   -2.0580    0.8686 C   0  0  0  0  0  0  0  0  0  0  0  0
   -0.9666   -2.6340    1.6026 O   0  0  0  0  0  0  0  0  0  0  0  0
   -1.4866   -0.9220    0.2366 N   0  0  0  0  0  0  0  0  0  0  0  0
   -2.2166   -0.4790   -0.2994 H   0  0  0  0  0  0  0  0  0  0  0  0
   -0.1956   -0.2250    0.2596 C   0  0  1  0  0  0  0  0  0  0  0  0
    0.5755   -0.9013   -0.1105 H   0  0  0  0  0  0  0  0  0  0  0  0
   -0.2553    0.9811   -0.6992 C   0  0  0  0  0  0  0  0  0  0  0  0
    0.7138    1.4818   -0.6704 H   0  0  0  0  0  0  0  0  0  0  0  0
   -0.4292    0.6249   -1.7156 H   0  0  0  0  0  0  0  0  0  0  0  0
   -1.3433    2.0035   -0.3298 C   0  0  0  0  0  0  0  0  0  0  0  0
   -1.1336    2.4048    0.6646 H   0  0  0  0  0  0  0  0  0  0  0  0
   -1.2943    2.8297   -1.0439 H   0  0  0  0  0  0  0  0  0  0  0  0
   -2.7615    1.4138   -0.3341 C   0  0  0  0  0  0  0  0  0  0  0  0
   -2.9174    0.2447   -0.7529 O   0  5  0  0  0  0  0  0  0  0  0  0
   -3.6743    2.1447    0.1107 O   0  0  0  0  0  0  0  0  0  0  0  0
    0.1881    0.1678    1.7015 C   0  0  0  0  0  0  0  0  0  0  0  0
    1.3379    0.0002    2.1133 O   0  0  0  0  0  0  0  0  0  0  0  0
   -0.7666    0.7145    2.4656 N   0  0  0  0  0  0  0  0  0  0  0  0
   -1.6971    0.7705    2.0790 H   0  0  0  0  0  0  0  0  0  0  0  0
   -0.5716    1.1232    3.8542 C   0  0  0  0  0  0  0  0  0  0  0  0
    0.3083    1.7643    3.9293 H   0  0  0  0  0  0  0  0  0  0  0  0
   -1.4485    1.6640    4.2131 H   0  0  0  0  0  0  0  0  0  0  0  0
   -0.4137    0.2381    4.4736 H   0  0  0  0  0  0  0  0  0  0  0  0
  5  6  2  0  0  0  0
  5  7  1  0  0  0  0
  2  3  1  0  0  0  0
  2  4  1  0  0  0  0
  2  5  1  0  0  0  0
  1  2  1  0  0  0  0
 20 21  2  0  0  0  0
 20 22  1  0  0  0  0
 17 18  1  0  0  0  0
 17 19  2  0  0  0  0
 14 15  1  0  0  0  0
 14 16  1  0  0  0  0
 14 17  1  0  0  0  0
 11 12  1  0  0  0  0
 11 13  1  0  0  0  0
 11 14  1  0  0  0  0
  9 10  1  0  0  0  0
  9 11  1  0  0  0  0
  9 20  1  0  0  0  0
  7  8  1  0  0  0  0
  7  9  1  0  0  0  0
 24 25  1  0  0  0  0
 24 26  1  0  0  0  0
 24 27  1  0  0  0  0
 22 23  1  0  0  0  0
 22 24  1  0  0  0  0
M  CHG  1  18  -1
M  END
$$$$
default_name
  -OEChem-02102213163D

 27 26  0     1  0  0  0  0  0999 V2000
   -3.2406   -3.5400    1.2326 H   0  0  0  0  0  0  0  0  0  0  0  0
   -3.1436   -2.6190    0.6606 C   0  0  0  0  0  0  0  0  0  0  0  0
   -3.8786   -1.8920    0.9996 H   0  0  0  0  0  0  0  0  0  0  0  0
   -3.2846   -2.8280   -0.3984 H   0  0  0  0  0  0  0  0  0  0  0  0
   -1.7586   -2.0580    0.8686 C   0  0  0  0  0  0  0  0  0  0  0  0
   -0.9666   -2.6340    1.6026 O   0  0  0  0  0  0  0  0  0  0  0  0
   -1.4866   -0.9220    0.2366 N   0  0  0  0  0  0  0  0  0  0  0  0
   -2.2166   -0.4790   -0.2994 H   0  0  0  0  0  0  0  0  0  0  0  0
   -0.1956   -0.2250    0.2596 C   0  0  1  0  0  0  0  0  0  0  0  0
    0.5755   -0.9013   -0.1105 H   0  0  0  0  0  0  0  0  0  0  0  0
   -0.2553    0.9811   -0.6992 C   0  0  0  0  0  0  0  0  0  0  0  0
    0.7138    1.4818   -0.6704 H   0  0  0  0  0  0  0  0  0  0  0  0
   -0.4292    0.6249   -1.7156 H   0  0  0  0  0  0  0  0  0  0  0  0
   -1.3433    2.0035   -0.3298 C   0  0  0  0  0  0  0  0  0  0  0  0
   -1.0033    2.5943    0.5241 H   0  0  0  0  0  0  0  0  0  0  0  0
   -1.4785    2.6816   -1.1765 H   0  0  0  0  0  0  0  0  0  0  0  0
   -2.6920    1.3588    0.0230 C   0  0  0  0  0  0  0  0  0  0  0  0
   -2.8235    0.1257   -0.1469 O   0  5  0  0  0  0  0  0  0  0  0  0
   -3.5725    2.1175    0.4860 O   0  0  0  0  0  0  0  0  0  0  0  0
    0.1881    0.1678    1.7015 C   0  0  0  0  0  0  0  0  0  0  0  0
    1.3379    0.0002    2.1133 O   0  0  0  0  0  0  0  0  0  0  0  0
   -0.7666    0.7145    2.4656 N   0  0  0  0  0  0  0  0  0  0  0  0
   -1.6971    0.7705    2.0790 H   0  0  0  0  0  0  0  0  0  0  0  0
   -0.5716    1.1232    3.8542 C   0  0  0  0  0  0  0  0  0  0  0  0
    0.3083    1.7643    3.9293 H   0  0  0  0  0  0  0  0  0  0  0  0
   -1.4485    1.6640    4.2131 H   0  0  0  0  0  0  0  0  0  0  0  0
   -0.4137    0.2381    4.4736 H   0  0  0  0  0  0  0  0  0  0  0  0
  5  6  2  0  0  0  0
  5  7  1  0  0  0  0
  2  3  1  0  0  0  0
  2  4  1  0  0  0  0
  2  5  1  0  0  0  0
  1  2  1  0  0  0  0
 20 21  2  0  0  0  0
 20 22  1  0  0  0  0
 17 18  1  0  0  0  0
 17 19  2  0  0  0  0
 14 15  1  0  0  0  0
 14 16  1  0  0  0  0
 14 17  1  0  0  0  0
 11 12  1  0  0  0  0
 11 13  1  0  0  0  0
 11 14  1  0  0  0  0
  9 10  1  0  0  0  0
  9 11  1  0  0  0  0
  9 20  1  0  0  0  0
  7  8  1  0  0  0  0
  7  9  1  0  0  0  0
 24 25  1  0  0  0  0
 24 26  1  0  0  0  0
 24 27  1  0  0  0  0
 22 23  1  0  0  0  0
 22 24  1  0  0  0  0
M  CHG  1  18  -1
M  END
$$$$
default_name
  -OEChem-02102213163D

 27 26  0     1  0  0  0  0  0999 V2000
   -3.2406   -3.5400    1.2326 H   0  0  0  0  0  0  0  0  0  0  0  0
   -3.1436   -2.6190    0.6606 C   0  0  0  0  0  0  0  0  0  0  0  0
   -3.8786   -1.8920    0.9996 H   0  0  0  0  0  0  0  0  0  0  0  0
   -3.2846   -2.8280   -0.3984 H   0  0  0  0  0  0  0  0  0  0  0  0
   -1.7586   -2.0580    0.8686 C   0  0  0  0  0  0  0  0  0  0  0  0
   -0.9666   -2.6340    1.6026 O   0  0  0  0  0  0  0  0  0  0  0  0
   -1.4866   -0.9220    0.2366 N   0  0  0  0  0  0  0  0  0  0  0  0
   -2.2166   -0.4790   -0.2994 H   0  0  0  0  0  0  0  0  0  0  0  0
   -0.1956   -0.2250    0.2596 C   0  0  1  0  0  0  0  0  0  0  0  0
    0.5755   -0.9013   -0.1105 H   0  0  0  0  0  0  0  0  0  0  0  0
   -0.2553    0.9811   -0.6992 C   0  0  0  0  0  0  0  0  0  0  0  0
    0.7138    1.4818   -0.6704 H   0  0  0  0  0  0  0  0  0  0  0  0
   -0.4292    0.6249   -1.7156 H   0  0  0  0  0  0  0  0  0  0  0  0
   -1.3433    2.0035   -0.3298 C   0  0  0  0  0  0  0  0  0  0  0  0
   -0.9133    2.7598    0.3313 H   0  0  0  0  0  0  0  0  0  0  0  0
   -1.6700    2.5028   -1.2458 H   0  0  0  0  0  0  0  0  0  0  0  0
   -2.5600    1.3753    0.3660 C   0  0  0  0  0  0  0  0  0  0  0  0
   -2.6211    0.1276    0.4441 O   0  5  0  0  0  0  0  0  0  0  0  0
   -3.4078    2.1663    0.8359 O   0  0  0  0  0  0  0  0  0  0  0  0
    0.1881    0.1678    1.7015 C   0  0  0  0  0  0  0  0  0  0  0  0
    1.3379    0.0002    2.1133 O   0  0  0  0  0  0  0  0  0  0  0  0
   -0.7666    0.7145    2.4656 N   0  0  0  0  0  0  0  0  0  0  0  0
   -1.6971    0.7705    2.0790 H   0  0  0  0  0  0  0  0  0  0  0  0
   -0.5716    1.1232    3.8542 C   0  0  0  0  0  0  0  0  0  0  0  0
    0.3083    1.7643    3.9293 H   0  0  0  0  0  0  0  0  0  0  0  0
   -1.4485    1.6640    4.2131 H   0  0  0  0  0  0  0  0  0  0  0  0
   -0.4137    0.2381    4.4736 H   0  0  0  0  0  0  0  0  0  0  0  0
  5  6  2  0  0  0  0
  5  7  1  0  0  0  0
  2  3  1  0  0  0  0
  2  4  1  0  0  0  0
  2  5  1  0  0  0  0
  1  2  1  0  0  0  0
 20 21  2  0  0  0  0
 20 22  1  0  0  0  0
 17 18  1  0  0  0  0
 17 19  2  0  0  0  0
 14 15  1  0  0  0  0
 14 16  1  0  0  0  0
 14 17  1  0  0  0  0
 11 12  1  0  0  0  0
 11 13  1  0  0  0  0
 11 14  1  0  0  0  0
  9 10  1  0  0  0  0
  9 11  1  0  0  0  0
  9 20  1  0  0  0  0
  7  8  1  0  0  0  0
  7  9  1  0  0  0  0
 24 25  1  0  0  0  0
 24 26  1  0  0  0  0
 24 27  1  0  0  0  0
 22 23  1  0  0  0  0
 22 24  1  0  0  0  0
M  CHG  1  18  -1
M  END
$$$$
default_name
  -OEChem-02102213163D

 27 26  0     1  0  0  0  0  0999 V2000
   -3.2406   -3.5400    1.2326 H   0  0  0  0  0  0  0  0  0  0  0  0
   -3.1436   -2.6190    0.6606 C   0  0  0  0  0  0  0  0  0  0  0  0
   -3.8786   -1.8920    0.9996 H   0  0  0  0  0  0  0  0  0  0  0  0
   -3.2846   -2.8280   -0.3984 H   0  0  0  0  0  0  0  0  0  0  0  0
   -1.7586   -2.0580    0.8686 C   0  0  0  0  0  0  0  0  0  0  0  0
   -0.9666   -2.6340    1.6026 O   0  0  0  0  0  0  0  0  0  0  0  0
   -1.4866   -0.9220    0.2366 N   0  0  0  0  0  0  0  0  0  0  0  0
   -2.2166   -0.4790   -0.2994 H   0  0  0  0  0  0  0  0  0  0  0  0
   -0.1956   -0.2250    0.2596 C   0  0  1  0  0  0  0  0  0  0  0  0
    0.5755   -0.9013   -0.1105 H   0  0  0  0  0  0  0  0  0  0  0  0
   -0.2553    0.9811   -0.6992 C   0  0  0  0  0  0  0  0  0  0  0  0
    0.7138    1.4818   -0.6704 H   0  0  0  0  0  0  0  0  0  0  0  0
   -0.4292    0.6249   -1.7156 H   0  0  0  0  0  0  0  0  0  0  0  0
   -1.3433    2.0035   -0.3298 C   0  0  0  0  0  0  0  0  0  0  0  0
   -0.8698    2.8899    0.0992 H   0  0  0  0  0  0  0  0  0  0  0  0
   -1.8558    2.3056   -1.2470 H   0  0  0  0  0  0  0  0  0  0  0  0
   -2.3745    1.4623    0.6716 C   0  0  0  0  0  0  0  0  0  0  0  0
   -2.3240    0.2502    0.9797 O   0  5  0  0  0  0  0  0  0  0  0  0
   -3.1916    2.2877    1.1367 O   0  0  0  0  0  0  0  0  0  0  0  0
    0.1881    0.1678    1.7015 C   0  0  0  0  0  0  0  0  0  0  0  0
    1.3379    0.0002    2.1133 O   0  0  0  0  0  0  0  0  0  0  0  0
   -0.7666    0.7145    2.4656 N   0  0  0  0  0  0  0  0  0  0  0  0
   -1.6971    0.7705    2.0790 H   0  0  0  0  0  0  0  0  0  0  0  0
   -0.5716    1.1232    3.8542 C   0  0  0  0  0  0  0  0  0  0  0  0
    0.3083    1.7643    3.9293 H   0  0  0  0  0  0  0  0  0  0  0  0
   -1.4485    1.6640    4.2131 H   0  0  0  0  0  0  0  0  0  0  0  0
   -0.4137    0.2381    4.4736 H   0  0  0  0  0  0  0  0  0  0  0  0
  5  6  2  0  0  0  0
  5  7  1  0  0  0  0
  2  3  1  0  0  0  0
  2  4  1  0  0  0  0
  2  5  1  0  0  0  0
  1  2  1  0  0  0  0
 20 21  2  0  0  0  0
 20 22  1  0  0  0  0
 17 18  1  0  0  0  0
 17 19  2  0  0  0  0
 14 15  1  0  0  0  0
 14 16  1  0  0  0  0
 14 17  1  0  0  0  0
 11 12  1  0  0  0  0
 11 13  1  0  0  0  0
 11 14  1  0  0  0  0
  9 10  1  0  0  0  0
  9 11  1  0  0  0  0
  9 20  1  0  0  0  0
  7  8  1  0  0  0  0
  7  9  1  0  0  0  0
 24 25  1  0  0  0  0
 24 26  1  0  0  0  0
 24 27  1  0  0  0  0
 22 23  1  0  0  0  0
 22 24  1  0  0  0  0
M  CHG  1  18  -1
M  END
$$$$
default_name
  -OEChem-02102213163D

 27 26  0     1  0  0  0  0  0999 V2000
   -3.2406   -3.5400    1.2326 H   0  0  0  0  0  0  0  0  0  0  0  0
   -3.1436   -2.6190    0.6606 C   0  0  0  0  0  0  0  0  0  0  0  0
   -3.8786   -1.8920    0.9996 H   0  0  0  0  0  0  0  0  0  0  0  0
   -3.2846   -2.8280   -0.3984 H   0  0  0  0  0  0  0  0  0  0  0  0
   -1.7586   -2.0580    0.8686 C   0  0  0  0  0  0  0  0  0  0  0  0
   -0.9666   -2.6340    1.6026 O   0  0  0  0  0  0  0  0  0  0  0  0
   -1.4866   -0.9220    0.2366 N   0  0  0  0  0  0  0  0  0  0  0  0
   -2.2166   -0.4790   -0.2994 H   0  0  0  0  0  0  0  0  0  0  0  0
   -0.1956   -0.2250    0.2596 C   0  0  1  0  0  0  0  0  0  0  0  0
    0.5755   -0.9013   -0.1105 H   0  0  0  0  0  0  0  0  0  0  0  0
   -0.2553    0.9811   -0.6992 C   0  0  0  0  0  0  0  0  0  0  0  0
    0.7138    1.4818   -0.6704 H   0  0  0  0  0  0  0  0  0  0  0  0
   -0.4292    0.6249   -1.7156 H   0  0  0  0  0  0  0  0  0  0  0  0
   -1.3433    2.0035   -0.3298 C   0  0  0  0  0  0  0  0  0  0  0  0
   -0.8759    2.9757   -0.1563 H   0  0  0  0  0  0  0  0  0  0  0  0
   -2.0231    2.1033   -1.1801 H   0  0  0  0  0  0  0  0  0  0  0  0
   -2.1481    1.6138    0.9190 C   0  0  0  0  0  0  0  0  0  0  0  0
   -1.9525    0.4852    1.4235 O   0  5  0  0  0  0  0  0  0  0  0  0
   -2.9385    2.4735    1.3678 O   0  0  0  0  0  0  0  0  0  0  0  0
    0.1881    0.1678    1.7015 C   0  0  0  0  0  0  0  0  0  0  0  0
    1.3379    0.0002    2.1133 O   0  0  0  0  0  0  0  0  0  0  0  0
   -0.7666    0.7145    2.4656 N   0  0  0  0  0  0  0  0  0  0  0  0
   -1.6971    0.7705    2.0790 H   0  0  0  0  0  0  0  0  0  0  0  0
   -0.5716    1.1232    3.8542 C   0  0  0  0  0  0  0  0  0  0  0  0
    0.3083    1.7643    3.9293 H   0  0  0  0  0  0  0  0  0  0  0  0
   -1.4485    1.6640    4.2131 H   0  0  0  0  0  0  0  0  0  0  0  0
   -0.4137    0.2381    4.4736 H   0  0  0  0  0  0  0  0  0  0  0  0
  5  6  2  0  0  0  0
  5  7  1  0  0  0  0
  2  3  1  0  0  0  0
  2  4  1  0  0  0  0
  2  5  1  0  0  0  0
  1  2  1  0  0  0  0
 20 21  2  0  0  0  0
 20 22  1  0  0  0  0
 17 18  1  0  0  0  0
 17 19  2  0  0  0  0
 14 15  1  0  0  0  0
 14 16  1  0  0  0  0
 14 17  1  0  0  0  0
 11 12  1  0  0  0  0
 11 13  1  0  0  0  0
 11 14  1  0  0  0  0
  9 10  1  0  0  0  0
  9 11  1  0  0  0  0
  9 20  1  0  0  0  0
  7  8  1  0  0  0  0
  7  9  1  0  0  0  0
 24 25  1  0  0  0  0
 24 26  1  0  0  0  0
 24 27  1  0  0  0  0
 22 23  1  0  0  0  0
 22 24  1  0  0  0  0
M  CHG  1  18  -1
M  END
$$$$
default_name
  -OEChem-02102213163D

 27 26  0     1  0  0  0  0  0999 V2000
   -3.2406   -3.5400    1.2326 H   0  0  0  0  0  0  0  0  0  0  0  0
   -3.1436   -2.6190    0.6606 C   0  0  0  0  0  0  0  0  0  0  0  0
   -3.8786   -1.8920    0.9996 H   0  0  0  0  0  0  0  0  0  0  0  0
   -3.2846   -2.8280   -0.3984 H   0  0  0  0  0  0  0  0  0  0  0  0
   -1.7586   -2.0580    0.8686 C   0  0  0  0  0  0  0  0  0  0  0  0
   -0.9666   -2.6340    1.6026 O   0  0  0  0  0  0  0  0  0  0  0  0
   -1.4866   -0.9220    0.2366 N   0  0  0  0  0  0  0  0  0  0  0  0
   -2.2166   -0.4790   -0.2994 H   0  0  0  0  0  0  0  0  0  0  0  0
   -0.1956   -0.2250    0.2596 C   0  0  1  0  0  0  0  0  0  0  0  0
    0.5755   -0.9013   -0.1105 H   0  0  0  0  0  0  0  0  0  0  0  0
   -0.2553    0.9811   -0.6992 C   0  0  0  0  0  0  0  0  0  0  0  0
    0.7138    1.4818   -0.6704 H   0  0  0  0  0  0  0  0  0  0  0  0
   -0.4292    0.6249   -1.7156 H   0  0  0  0  0  0  0  0  0  0  0  0
   -1.3433    2.0035   -0.3298 C   0  0  0  0  0  0  0  0  0  0  0  0
   -0.9310    3.0115   -0.4177 H   0  0  0  0  0  0  0  0  0  0  0  0
   -2.1607    1.9097   -1.0496 H   0  0  0  0  0  0  0  0  0  0  0  0
   -1.8963    1.8195    1.0912 C   0  0  0  0  0  0  0  0  0  0  0  0
   -1.5320    0.8165    1.7453 O   0  5  0  0  0  0  0  0  0  0  0  0
   -2.6659    2.7110    1.5135 O   0  0  0  0  0  0  0  0  0  0  0  0
    0.1881    0.1678    1.7015 C   0  0  0  0  0  0  0  0  0  0  0  0
    1.3379    0.0002    2.1133 O   0  0  0  0  0  0  0  0  0  0  0  0
   -0.7666    0.7145    2.4656 N   0  0  0  0  0  0  0  0  0  0  0  0
   -1.6971    0.7705    2.0790 H   0  0  0  0  0  0  0  0  0  0  0  0
   -0.5716    1.1232    3.8542 C   0  0  0  0  0  0  0  0  0  0  0  0
    0.3083    1.7643    3.9293 H   0  0  0  0  0  0  0  0  0  0  0  0
   -1.4485    1.6640    4.2131 H   0  0  0  0  0  0  0  0  0  0  0  0
   -0.4137    0.2381    4.4736 H   0  0  0  0  0  0  0  0  0  0  0  0
  5  6  2  0  0  0  0
  5  7  1  0  0  0  0
  2  3  1  0  0  0  0
  2  4  1  0  0  0  0
  2  5  1  0  0  0  0
  1  2  1  0  0  0  0
 20 21  2  0  0  0  0
 20 22  1  0  0  0  0
 17 18  1  0  0  0  0
 17 19  2  0  0  0  0
 14 15  1  0  0  0  0
 14 16  1  0  0  0  0
 14 17  1  0  0  0  0
 11 12  1  0  0  0  0
 11 13  1  0  0  0  0
 11 14  1  0  0  0  0
  9 10  1  0  0  0  0
  9 11  1  0  0  0  0
  9 20  1  0  0  0  0
  7  8  1  0  0  0  0
  7  9  1  0  0  0  0
 24 25  1  0  0  0  0
 24 26  1  0  0  0  0
 24 27  1  0  0  0  0
 22 23  1  0  0  0  0
 22 24  1  0  0  0  0
M  CHG  1  18  -1
M  END
$$$$
default_name
  -OEChem-02102213163D

 27 26  0     1  0  0  0  0  0999 V2000
   -3.2406   -3.5400    1.2326 H   0  0  0  0  0  0  0  0  0  0  0  0
   -3.1436   -2.6190    0.6606 C   0  0  0  0  0  0  0  0  0  0  0  0
   -3.8786   -1.8920    0.9996 H   0  0  0  0  0  0  0  0  0  0  0  0
   -3.2846   -2.8280   -0.3984 H   0  0  0  0  0  0  0  0  0  0  0  0
   -1.7586   -2.0580    0.8686 C   0  0  0  0  0  0  0  0  0  0  0  0
   -0.9666   -2.6340    1.6026 O   0  0  0  0  0  0  0  0  0  0  0  0
   -1.4866   -0.9220    0.2366 N   0  0  0  0  0  0  0  0  0  0  0  0
   -2.2166   -0.4790   -0.2994 H   0  0  0  0  0  0  0  0  0  0  0  0
   -0.1956   -0.2250    0.2596 C   0  0  1  0  0  0  0  0  0  0  0  0
    0.5755   -0.9013   -0.1105 H   0  0  0  0  0  0  0  0  0  0  0  0
   -0.2553    0.9811   -0.6992 C   0  0  0  0  0  0  0  0  0  0  0  0
    0.7138    1.4818   -0.6704 H   0  0  0  0  0  0  0  0  0  0  0  0
   -0.4292    0.6249   -1.7156 H   0  0  0  0  0  0  0  0  0  0  0  0
   -1.3433    2.0035   -0.3298 C   0  0  0  0  0  0  0  0  0  0  0  0
   -1.0315    2.9948   -0.6673 H   0  0  0  0  0  0  0  0  0  0  0  0
   -2.2592    1.7380   -0.8645 H   0  0  0  0  0  0  0  0  0  0  0  0
   -1.6363    2.0654    1.1766 C   0  0  0  0  0  0  0  0  0  0  0  0
   -1.0910    1.2216    1.9231 O   0  5  0  0  0  0  0  0  0  0  0  0
   -2.3923    2.9841    1.5638 O   0  0  0  0  0  0  0  0  0  0  0  0
    0.1881    0.1678    1.7015 C   0  0  0  0  0  0  0  0  0  0  0  0
    1.3379    0.0002    2.1133 O   0  0  0  0  0  0  0  0  0  0  0  0
   -0.7666    0.7145    2.4656 N   0  0  0  0  0  0  0  0  0  0  0  0
   -1.6971    0.7705    2.0790 H   0  0  0  0  0  0  0  0  0  0  0  0
   -0.5716    1.1232    3.8542 C   0  0  0  0  0  0  0  0  0  0  0  0
    0.3083    1.7643    3.9293 H   0  0  0  0  0  0  0  0  0  0  0  0
   -1.4485    1.6640    4.2131 H   0  0  0  0  0  0  0  0  0  0  0  0
   -0.4137    0.2381    4.4736 H   0  0  0  0  0  0  0  0  0  0  0  0
  5  6  2  0  0  0  0
  5  7  1  0  0  0  0
  2  3  1  0  0  0  0
  2  4  1  0  0  0  0
  2  5  1  0  0  0  0
  1  2  1  0  0  0  0
 20 21  2  0  0  0  0
 20 22  1  0  0  0  0
 17 18  1  0  0  0  0
 17 19  2  0  0  0  0
 14 15  1  0  0  0  0
 14 16  1  0  0  0  0
 14 17  1  0  0  0  0
 11 12  1  0  0  0  0
 11 13  1  0  0  0  0
 11 14  1  0  0  0  0
  9 10  1  0  0  0  0
  9 11  1  0  0  0  0
  9 20  1  0  0  0  0
  7  8  1  0  0  0  0
  7  9  1  0  0  0  0
 24 25  1  0  0  0  0
 24 26  1  0  0  0  0
 24 27  1  0  0  0  0
 22 23  1  0  0  0  0
 22 24  1  0  0  0  0
M  CHG  1  18  -1
M  END
$$$$
default_name
  -OEChem-02102213163D

 27 26  0     1  0  0  0  0  0999 V2000
   -3.2406   -3.5400    1.2326 H   0  0  0  0  0  0  0  0  0  0  0  0
   -3.1436   -2.6190    0.6606 C   0  0  0  0  0  0  0  0  0  0  0  0
   -3.8786   -1.8920    0.9996 H   0  0  0  0  0  0  0  0  0  0  0  0
   -3.2846   -2.8280   -0.3984 H   0  0  0  0  0  0  0  0  0  0  0  0
   -1.7586   -2.0580    0.8686 C   0  0  0  0  0  0  0  0  0  0  0  0
   -0.9666   -2.6340    1.6026 O   0  0  0  0  0  0  0  0  0  0  0  0
   -1.4866   -0.9220    0.2366 N   0  0  0  0  0  0  0  0  0  0  0  0
   -2.2166   -0.4790   -0.2994 H   0  0  0  0  0  0  0  0  0  0  0  0
   -0.1956   -0.2250    0.2596 C   0  0  1  0  0  0  0  0  0  0  0  0
    0.5755   -0.9013   -0.1105 H   0  0  0  0  0  0  0  0  0  0  0  0
   -0.2553    0.9811   -0.6992 C   0  0  0  0  0  0  0  0  0  0  0  0
    0.7138    1.4818   -0.6704 H   0  0  0  0  0  0  0  0  0  0  0  0
   -0.4292    0.6249   -1.7156 H   0  0  0  0  0  0  0  0  0  0  0  0
   -1.3433    2.0035   -0.3298 C   0  0  0  0  0  0  0  0  0  0  0  0
   -1.1704    2.9267   -0.8880 H   0  0  0  0  0  0  0  0  0  0  0  0
   -2.3117    1.6000   -0.6373 H   0  0  0  0  0  0  0  0  0  0  0  0
   -1.3857    2.3347    1.1694 C   0  0  0  0  0  0  0  0  0  0  0  0
   -0.6596    1.6729    1.9447 O   0  5  0  0  0  0  0  0  0  0  0  0
   -2.1363    3.2740    1.5153 O   0  0  0  0  0  0  0  0  0  0  0  0
    0.1881    0.1678    1.7015 C   0  0  0  0  0  0  0  0  0  0  0  0
    1.3379    0.0002    2.1133 O   0  0  0  0  0  0  0  0  0  0  0  0
   -0.7666    0.7145    2.4656 N   0  0  0  0  0  0  0  0  0  0  0  0
   -1.6971    0.7705    2.0790 H   0  0  0  0  0  0  0  0  0  0  0  0
   -0.5716    1.1232    3.8542 C   0  0  0  0  0  0  0  0  0  0  0  0
    0.3083    1.7643    3.9293 H   0  0  0  0  0  0  0  0  0  0  0  0
   -1.4485    1.6640    4.2131 H   0  0  0  0  0  0  0  0  0  0  0  0
   -0.4137    0.2381    4.4736 H   0  0  0  0  0  0  0  0  0  0  0  0
  5  6  2  0  0  0  0
  5  7  1  0  0  0  0
  2  3  1  0  0  0  0
  2  4  1  0  0  0  0
  2  5  1  0  0  0  0
  1  2  1  0  0  0  0
 20 21  2  0  0  0  0
 20 22  1  0  0  0  0
 17 18  1  0  0  0  0
 17 19  2  0  0  0  0
 14 15  1  0  0  0  0
 14 16  1  0  0  0  0
 14 17  1  0  0  0  0
 11 12  1  0  0  0  0
 11 13  1  0  0  0  0
 11 14  1  0  0  0  0
  9 10  1  0  0  0  0
  9 11  1  0  0  0  0
  9 20  1  0  0  0  0
  7  8  1  0  0  0  0
  7  9  1  0  0  0  0
 24 25  1  0  0  0  0
 24 26  1  0  0  0  0
 24 27  1  0  0  0  0
 22 23  1  0  0  0  0
 22 24  1  0  0  0  0
M  CHG  1  18  -1
M  END
$$$$
default_name
  -OEChem-02102213163D

 27 26  0     1  0  0  0  0  0999 V2000
   -3.2406   -3.5400    1.2326 H   0  0  0  0  0  0  0  0  0  0  0  0
   -3.1436   -2.6190    0.6606 C   0  0  0  0  0  0  0  0  0  0  0  0
   -3.8786   -1.8920    0.9996 H   0  0  0  0  0  0  0  0  0  0  0  0
   -3.2846   -2.8280   -0.3984 H   0  0  0  0  0  0  0  0  0  0  0  0
   -1.7586   -2.0580    0.8686 C   0  0  0  0  0  0  0  0  0  0  0  0
   -0.9666   -2.6340    1.6026 O   0  0  0  0  0  0  0  0  0  0  0  0
   -1.4866   -0.9220    0.2366 N   0  0  0  0  0  0  0  0  0  0  0  0
   -2.2166   -0.4790   -0.2994 H   0  0  0  0  0  0  0  0  0  0  0  0
   -0.1956   -0.2250    0.2596 C   0  0  1  0  0  0  0  0  0  0  0  0
    0.5755   -0.9013   -0.1105 H   0  0  0  0  0  0  0  0  0  0  0  0
   -0.2553    0.9811   -0.6992 C   0  0  0  0  0  0  0  0  0  0  0  0
    0.7138    1.4818   -0.6704 H   0  0  0  0  0  0  0  0  0  0  0  0
   -0.4292    0.6249   -1.7156 H   0  0  0  0  0  0  0  0  0  0  0  0
   -1.3433    2.0035   -0.3298 C   0  0  0  0  0  0  0  0  0  0  0  0
   -1.3383    2.8119   -1.0649 H   0  0  0  0  0  0  0  0  0  0  0  0
   -2.3148    1.5050   -0.3835 H   0  0  0  0  0  0  0  0  0  0  0  0
   -1.1617    2.6091    1.0699 C   0  0  0  0  0  0  0  0  0  0  0  0
   -0.2672    2.1396    1.8088 O   0  5  0  0  0  0  0  0  0  0  0  0
   -1.9154    3.5611    1.3714 O   0  0  0  0  0  0  0  0  0  0  0  0
    0.1881    0.1678    1.7015 C   0  0  0  0  0  0  0  0  0  0  0  0
    1.3379    0.0002    2.1133 O   0  0  0  0  0  0  0  0  0  0  0  0
   -0.7666    0.7145    2.4656 N   0  0  0  0  0  0  0  0  0  0  0  0
   -1.6971    0.7705    2.0790 H   0  0  0  0  0  0  0  0  0  0  0  0
   -0.5716    1.1232    3.8542 C   0  0  0  0  0  0  0  0  0  0  0  0
    0.3083    1.7643    3.9293 H   0  0  0  0  0  0  0  0  0  0  0  0
   -1.4485    1.6640    4.2131 H   0  0  0  0  0  0  0  0  0  0  0  0
   -0.4137    0.2381    4.4736 H   0  0  0  0  0  0  0  0  0  0  0  0
  5  6  2  0  0  0  0
  5  7  1  0  0  0  0
  2  3  1  0  0  0  0
  2  4  1  0  0  0  0
  2  5  1  0  0  0  0
  1  2  1  0  0  0  0
 20 21  2  0  0  0  0
 20 22  1  0  0  0  0
 17 18  1  0  0  0  0
 17 19  2  0  0  0  0
 14 15  1  0  0  0  0
 14 16  1  0  0  0  0
 14 17  1  0  0  0  0
 11 12  1  0  0  0  0
 11 13  1  0  0  0  0
 11 14  1  0  0  0  0
  9 10  1  0  0  0  0
  9 11  1  0  0  0  0
  9 20  1  0  0  0  0
  7  8  1  0  0  0  0
  7  9  1  0  0  0  0
 24 25  1  0  0  0  0
 24 26  1  0  0  0  0
 24 27  1  0  0  0  0
 22 23  1  0  0  0  0
 22 24  1  0  0  0  0
M  CHG  1  18  -1
M  END
$$$$
default_name
  -OEChem-02102213163D

 27 26  0     1  0  0  0  0  0999 V2000
   -3.2406   -3.5400    1.2326 H   0  0  0  0  0  0  0  0  0  0  0  0
   -3.1436   -2.6190    0.6606 C   0  0  0  0  0  0  0  0  0  0  0  0
   -3.8786   -1.8920    0.9996 H   0  0  0  0  0  0  0  0  0  0  0  0
   -3.2846   -2.8280   -0.3984 H   0  0  0  0  0  0  0  0  0  0  0  0
   -1.7586   -2.0580    0.8686 C   0  0  0  0  0  0  0  0  0  0  0  0
   -0.9666   -2.6340    1.6026 O   0  0  0  0  0  0  0  0  0  0  0  0
   -1.4866   -0.9220    0.2366 N   0  0  0  0  0  0  0  0  0  0  0  0
   -2.2166   -0.4790   -0.2994 H   0  0  0  0  0  0  0  0  0  0  0  0
   -0.1956   -0.2250    0.2596 C   0  0  1  0  0  0  0  0  0  0  0  0
    0.5755   -0.9013   -0.1105 H   0  0  0  0  0  0  0  0  0  0  0  0
   -0.2553    0.9811   -0.6992 C   0  0  0  0  0  0  0  0  0  0  0  0
    0.7138    1.4818   -0.6704 H   0  0  0  0  0  0  0  0  0  0  0  0
   -0.4292    0.6249   -1.7156 H   0  0  0  0  0  0  0  0  0  0  0  0
   -1.3433    2.0035   -0.3298 C   0  0  0  0  0  0  0  0  0  0  0  0
   -1.5238    2.6581   -1.1858 H   0  0  0  0  0  0  0  0  0  0  0  0
   -2.2682    1.4595   -0.1205 H   0  0  0  0  0  0  0  0  0  0  0  0
   -0.9794    2.8699    0.8851 C   0  0  0  0  0  0  0  0  0  0  0  0
    0.0593    2.5898    1.5246 O   0  5  0  0  0  0  0  0  0  0  0  0
   -1.7446    3.8258    1.1418 O   0  0  0  0  0  0  0  0  0  0  0  0
    0.1881    0.1678    1.7015 C   0  0  0  0  0  0  0  0  0  0  0  0
    1.3379    0.0002    2.1133 O   0  0  0  0  0  0  0  0  0  0  0  0
   -0.7666    0.7145    2.4656 N   0  0  0  0  0  0  0  0  0  0  0  0
   -1.6971    0.7705    2.0790 H   0  0  0  0  0  0  0  0  0  0  0  0
   -0.5716    1.1232    3.8542 C   0  0  0  0  0  0  0  0  0  0  0  0
    0.3083    1.7643    3.9293 H   0  0  0  0  0  0  0  0  0  0  0  0
   -1.4485    1.6640    4.2131 H   0  0  0  0  0  0  0  0  0  0  0  0
   -0.4137    0.2381    4.4736 H   0  0  0  0  0  0  0  0  0  0  0  0
  5  6  2  0  0  0  0
  5  7  1  0  0  0  0
  2  3  1  0  0  0  0
  2  4  1  0  0  0  0
  2  5  1  0  0  0  0
  1  2  1  0  0  0  0
 20 21  2  0  0  0  0
 20 22  1  0  0  0  0
 17 18  1  0  0  0  0
 17 19  2  0  0  0  0
 14 15  1  0  0  0  0
 14 16  1  0  0  0  0
 14 17  1  0  0  0  0
 11 12  1  0  0  0  0
 11 13  1  0  0  0  0
 11 14  1  0  0  0  0
  9 10  1  0  0  0  0
  9 11  1  0  0  0  0
  9 20  1  0  0  0  0
  7  8  1  0  0  0  0
  7  9  1  0  0  0  0
 24 25  1  0  0  0  0
 24 26  1  0  0  0  0
 24 27  1  0  0  0  0
 22 23  1  0  0  0  0
 22 24  1  0  0  0  0
M  CHG  1  18  -1
M  END
$$$$
default_name
  -OEChem-02102213163D

 27 26  0     1  0  0  0  0  0999 V2000
   -3.2406   -3.5400    1.2326 H   0  0  0  0  0  0  0  0  0  0  0  0
   -3.1436   -2.6190    0.6606 C   0  0  0  0  0  0  0  0  0  0  0  0
   -3.8786   -1.8920    0.9996 H   0  0  0  0  0  0  0  0  0  0  0  0
   -3.2846   -2.8280   -0.3984 H   0  0  0  0  0  0  0  0  0  0  0  0
   -1.7586   -2.0580    0.8686 C   0  0  0  0  0  0  0  0  0  0  0  0
   -0.9666   -2.6340    1.6026 O   0  0  0  0  0  0  0  0  0  0  0  0
   -1.4866   -0.9220    0.2366 N   0  0  0  0  0  0  0  0  0  0  0  0
   -2.2166   -0.4790   -0.2994 H   0  0  0  0  0  0  0  0  0  0  0  0
   -0.1956   -0.2250    0.2596 C   0  0  1  0  0  0  0  0  0  0  0  0
    0.5755   -0.9013   -0.1105 H   0  0  0  0  0  0  0  0  0  0  0  0
   -0.2553    0.9811   -0.6992 C   0  0  0  0  0  0  0  0  0  0  0  0
    0.7138    1.4818   -0.6704 H   0  0  0  0  0  0  0  0  0  0  0  0
   -0.4292    0.6249   -1.7156 H   0  0  0  0  0  0  0  0  0  0  0  0
   -1.3433    2.0035   -0.3298 C   0  0  0  0  0  0  0  0  0  0  0  0
   -1.7143    2.4760   -1.2425 H   0  0  0  0  0  0  0  0  0  0  0  0
   -2.1752    1.4667    0.1339 H   0  0  0  0  0  0  0  0  0  0  0  0
   -0.8514    3.0992    0.6274 C   0  0  0  0  0  0  0  0  0  0  0  0
    0.2979    2.9930    1.1115 O   0  5  0  0  0  0  0  0  0  0  0  0
   -1.6356    4.0501    0.8421 O   0  0  0  0  0  0  0  0  0  0  0  0
    0.1881    0.1678    1.7015 C   0  0  0  0  0  0  0  0  0  0  0  0
    1.3379    0.0002    2.1133 O   0  0  0  0  0  0  0  0  0  0  0  0
   -0.7666    0.7145    2.4656 N   0  0  0  0  0  0  0  0  0  0  0  0
   -1.6971    0.7705    2.0790 H   0  0  0  0  0  0  0  0  0  0  0  0
   -0.5716    1.1232    3.8542 C   0  0  0  0  0  0  0  0  0  0  0  0
    0.3083    1.7643    3.9293 H   0  0  0  0  0  0  0  0  0  0  0  0
   -1.4485    1.6640    4.2131 H   0  0  0  0  0  0  0  0  0  0  0  0
   -0.4137    0.2381    4.4736 H   0  0  0  0  0  0  0  0  0  0  0  0
  5  6  2  0  0  0  0
  5  7  1  0  0  0  0
  2  3  1  0  0  0  0
  2  4  1  0  0  0  0
  2  5  1  0  0  0  0
  1  2  1  0  0  0  0
 20 21  2  0  0  0  0
 20 22  1  0  0  0  0
 17 18  1  0  0  0  0
 17 19  2  0  0  0  0
 14 15  1  0  0  0  0
 14 16  1  0  0  0  0
 14 17  1  0  0  0  0
 11 12  1  0  0  0  0
 11 13  1  0  0  0  0
 11 14  1  0  0  0  0
  9 10  1  0  0  0  0
  9 11  1  0  0  0  0
  9 20  1  0  0  0  0
  7  8  1  0  0  0  0
  7  9  1  0  0  0  0
 24 25  1  0  0  0  0
 24 26  1  0  0  0  0
 24 27  1  0  0  0  0
 22 23  1  0  0  0  0
 22 24  1  0  0  0  0
M  CHG  1  18  -1
M  END
$$$$
default_name
  -OEChem-02102213163D

 27 26  0     1  0  0  0  0  0999 V2000
   -3.2406   -3.5400    1.2326 H   0  0  0  0  0  0  0  0  0  0  0  0
   -3.1436   -2.6190    0.6606 C   0  0  0  0  0  0  0  0  0  0  0  0
   -3.8786   -1.8920    0.9996 H   0  0  0  0  0  0  0  0  0  0  0  0
   -3.2846   -2.8280   -0.3984 H   0  0  0  0  0  0  0  0  0  0  0  0
   -1.7586   -2.0580    0.8686 C   0  0  0  0  0  0  0  0  0  0  0  0
   -0.9666   -2.6340    1.6026 O   0  0  0  0  0  0  0  0  0  0  0  0
   -1.4866   -0.9220    0.2366 N   0  0  0  0  0  0  0  0  0  0  0  0
   -2.2166   -0.4790   -0.2994 H   0  0  0  0  0  0  0  0  0  0  0  0
   -0.1956   -0.2250    0.2596 C   0  0  1  0  0  0  0  0  0  0  0  0
    0.5755   -0.9013   -0.1105 H   0  0  0  0  0  0  0  0  0  0  0  0
   -0.2553    0.9811   -0.6992 C   0  0  0  0  0  0  0  0  0  0  0  0
    0.7138    1.4818   -0.6704 H   0  0  0  0  0  0  0  0  0  0  0  0
   -0.4292    0.6249   -1.7156 H   0  0  0  0  0  0  0  0  0  0  0  0
   -1.3433    2.0035   -0.3298 C   0  0  0  0  0  0  0  0  0  0  0  0
   -1.8966    2.2778   -1.2312 H   0  0  0  0  0  0  0  0  0  0  0  0
   -2.0420    1.5259    0.3623 H   0  0  0  0  0  0  0  0  0  0  0  0
   -0.7863    3.2816    0.3145 C   0  0  0  0  0  0  0  0  0  0  0  0
    0.4322    3.3217    0.5975 O   0  5  0  0  0  0  0  0  0  0  0  0
   -1.5958    4.2186    0.4929 O   0  0  0  0  0  0  0  0  0  0  0  0
    0.1881    0.1678    1.7015 C   0  0  0  0  0  0  0  0  0  0  0  0
    1.3379    0.0002    2.1133 O   0  0  0  0  0  0  0  0  0  0  0  0
   -0.7666    0.7145    2.4656 N   0  0  0  0  0  0  0  0  0  0  0  0
   -1.6971    0.7705    2.0790 H   0  0  0  0  0  0  0  0  0  0  0  0
   -0.5716    1.1232    3.8542 C   0  0  0  0  0  0  0  0  0  0  0  0
    0.3083    1.7643    3.9293 H   0  0  0  0  0  0  0  0  0  0  0  0
   -1.4485    1.6640    4.2131 H   0  0  0  0  0  0  0  0  0  0  0  0
   -0.4137    0.2381    4.4736 H   0  0  0  0  0  0  0  0  0  0  0  0
  5  6  2  0  0  0  0
  5  7  1  0  0  0  0
  2  3  1  0  0  0  0
  2  4  1  0  0  0  0
  2  5  1  0  0  0  0
  1  2  1  0  0  0  0
 20 21  2  0  0  0  0
 20 22  1  0  0  0  0
 17 18  1  0  0  0  0
 17 19  2  0  0  0  0
 14 15  1  0  0  0  0
 14 16  1  0  0  0  0
 14 17  1  0  0  0  0
 11 12  1  0  0  0  0
 11 13  1  0  0  0  0
 11 14  1  0  0  0  0
  9 10  1  0  0  0  0
  9 11  1  0  0  0  0
  9 20  1  0  0  0  0
  7  8  1  0  0  0  0
  7  9  1  0  0  0  0
 24 25  1  0  0  0  0
 24 26  1  0  0  0  0
 24 27  1  0  0  0  0
 22 23  1  0  0  0  0
 22 24  1  0  0  0  0
M  CHG  1  18  -1
M  END
$$$$
default_name
  -OEChem-02102213163D

 27 26  0     1  0  0  0  0  0999 V2000
   -3.2406   -3.5400    1.2326 H   0  0  0  0  0  0  0  0  0  0  0  0
   -3.1436   -2.6190    0.6606 C   0  0  0  0  0  0  0  0  0  0  0  0
   -3.8786   -1.8920    0.9996 H   0  0  0  0  0  0  0  0  0  0  0  0
   -3.2846   -2.8280   -0.3984 H   0  0  0  0  0  0  0  0  0  0  0  0
   -1.7586   -2.0580    0.8686 C   0  0  0  0  0  0  0  0  0  0  0  0
   -0.9666   -2.6340    1.6026 O   0  0  0  0  0  0  0  0  0  0  0  0
   -1.4866   -0.9220    0.2366 N   0  0  0  0  0  0  0  0  0  0  0  0
   -2.2166   -0.4790   -0.2994 H   0  0  0  0  0  0  0  0  0  0  0  0
   -0.1956   -0.2250    0.2596 C   0  0  1  0  0  0  0  0  0  0  0  0
    0.5755   -0.9013   -0.1105 H   0  0  0  0  0  0  0  0  0  0  0  0
   -0.2553    0.9811   -0.6992 C   0  0  0  0  0  0  0  0  0  0  0  0
    0.7138    1.4818   -0.6704 H   0  0  0  0  0  0  0  0  0  0  0  0
   -0.4292    0.6249   -1.7156 H   0  0  0  0  0  0  0  0  0  0  0  0
   -1.3433    2.0035   -0.3298 C   0  0  0  0  0  0  0  0  0  0  0  0
   -2.0585    2.0771   -1.1526 H   0  0  0  0  0  0  0  0  0  0  0  0
   -1.8777    1.6333    0.5492 H   0  0  0  0  0  0  0  0  0  0  0  0
   -0.7886    3.4044   -0.0323 C   0  0  0  0  0  0  0  0  0  0  0  0
    0.4531    3.5533    0.0178 O   0  5  0  0  0  0  0  0  0  0  0  0
   -1.6280    4.3200    0.1178 O   0  0  0  0  0  0  0  0  0  0  0  0
    0.1881    0.1678    1.7015 C   0  0  0  0  0  0  0  0  0  0  0  0
    1.3379    0.0002    2.1133 O   0  0  0  0  0  0  0  0  0  0  0  0
   -0.7666    0.7145    2.4656 N   0  0  0  0  0  0  0  0  0  0  0  0
   -1.6971    0.7705    2.0790 H   0  0  0  0  0  0  0  0  0  0  0  0
   -0.5716    1.1232    3.8542 C   0  0  0  0  0  0  0  0  0  0  0  0
    0.3083    1.7643    3.9293 H   0  0  0  0  0  0  0  0  0  0  0  0
   -1.4485    1.6640    4.2131 H   0  0  0  0  0  0  0  0  0  0  0  0
   -0.4137    0.2381    4.4736 H   0  0  0  0  0  0  0  0  0  0  0  0
  5  6  2  0  0  0  0
  5  7  1  0  0  0  0
  2  3  1  0  0  0  0
  2  4  1  0  0  0  0
  2  5  1  0  0  0  0
  1  2  1  0  0  0  0
 20 21  2  0  0  0  0
 20 22  1  0  0  0  0
 17 18  1  0  0  0  0
 17 19  2  0  0  0  0
 14 15  1  0  0  0  0
 14 16  1  0  0  0  0
 14 17  1  0  0  0  0
 11 12  1  0  0  0  0
 11 13  1  0  0  0  0
 11 14  1  0  0  0  0
  9 10  1  0  0  0  0
  9 11  1  0  0  0  0
  9 20  1  0  0  0  0
  7  8  1  0  0  0  0
  7  9  1  0  0  0  0
 24 25  1  0  0  0  0
 24 26  1  0  0  0  0
 24 27  1  0  0  0  0
 22 23  1  0  0  0  0
 22 24  1  0  0  0  0
M  CHG  1  18  -1
M  END
$$$$
default_name
  -OEChem-02102213163D

 27 26  0     1  0  0  0  0  0999 V2000
   -3.2406   -3.5400    1.2326 H   0  0  0  0  0  0  0  0  0  0  0  0
   -3.1436   -2.6190    0.6606 C   0  0  0  0  0  0  0  0  0  0  0  0
   -3.8786   -1.8920    0.9996 H   0  0  0  0  0  0  0  0  0  0  0  0
   -3.2846   -2.8280   -0.3984 H   0  0  0  0  0  0  0  0  0  0  0  0
   -1.7586   -2.0580    0.8686 C   0  0  0  0  0  0  0  0  0  0  0  0
   -0.9666   -2.6340    1.6026 O   0  0  0  0  0  0  0  0  0  0  0  0
   -1.4866   -0.9220    0.2366 N   0  0  0  0  0  0  0  0  0  0  0  0
   -2.2166   -0.4790   -0.2994 H   0  0  0  0  0  0  0  0  0  0  0  0
   -0.1956   -0.2250    0.2596 C   0  0  1  0  0  0  0  0  0  0  0  0
    0.5755   -0.9013   -0.1105 H   0  0  0  0  0  0  0  0  0  0  0  0
   -0.2553    0.9811   -0.6992 C   0  0  0  0  0  0  0  0  0  0  0  0
    0.7138    1.4818   -0.6704 H   0  0  0  0  0  0  0  0  0  0  0  0
   -0.4292    0.6249   -1.7156 H   0  0  0  0  0  0  0  0  0  0  0  0
   -1.3433    2.0035   -0.3298 C   0  0  0  0  0  0  0  0  0  0  0  0
   -2.1889    1.8876   -1.0120 H   0  0  0  0  0  0  0  0  0  0  0  0
   -1.6935    1.7814    0.6817 H   0  0  0  0  0  0  0  0  0  0  0  0
   -0.8581    3.4595   -0.3894 C   0  0  0  0  0  0  0  0  0  0  0  0
    0.3591    3.6723   -0.5881 O   0  5  0  0  0  0  0  0  0  0  0  0
   -1.7298    4.3472   -0.2575 O   0  0  0  0  0  0  0  0  0  0  0  0
    0.1881    0.1678    1.7015 C   0  0  0  0  0  0  0  0  0  0  0  0
    1.3379    0.0002    2.1133 O   0  0  0  0  0  0  0  0  0  0  0  0
   -0.7666    0.7145    2.4656 N   0  0  0  0  0  0  0  0  0  0  0  0
   -1.6971    0.7705    2.0790 H   0  0  0  0  0  0  0  0  0  0  0  0
   -0.5716    1.1232    3.8542 C   0  0  0  0  0  0  0  0  0  0  0  0
    0.3083    1.7643    3.9293 H   0  0  0  0  0  0  0  0  0  0  0  0
   -1.4485    1.6640    4.2131 H   0  0  0  0  0  0  0  0  0  0  0  0
   -0.4137    0.2381    4.4736 H   0  0  0  0  0  0  0  0  0  0  0  0
  5  6  2  0  0  0  0
  5  7  1  0  0  0  0
  2  3  1  0  0  0  0
  2  4  1  0  0  0  0
  2  5  1  0  0  0  0
  1  2  1  0  0  0  0
 20 21  2  0  0  0  0
 20 22  1  0  0  0  0
 17 18  1  0  0  0  0
 17 19  2  0  0  0  0
 14 15  1  0  0  0  0
 14 16  1  0  0  0  0
 14 17  1  0  0  0  0
 11 12  1  0  0  0  0
 11 13  1  0  0  0  0
 11 14  1  0  0  0  0
  9 10  1  0  0  0  0
  9 11  1  0  0  0  0
  9 20  1  0  0  0  0
  7  8  1  0  0  0  0
  7  9  1  0  0  0  0
 24 25  1  0  0  0  0
 24 26  1  0  0  0  0
 24 27  1  0  0  0  0
 22 23  1  0  0  0  0
 22 24  1  0  0  0  0
M  CHG  1  18  -1
M  END
$$$$
default_name
  -OEChem-02102213163D

 27 26  0     1  0  0  0  0  0999 V2000
   -3.2406   -3.5400    1.2326 H   0  0  0  0  0  0  0  0  0  0  0  0
   -3.1436   -2.6190    0.6606 C   0  0  0  0  0  0  0  0  0  0  0  0
   -3.8786   -1.8920    0.9996 H   0  0  0  0  0  0  0  0  0  0  0  0
   -3.2846   -2.8280   -0.3984 H   0  0  0  0  0  0  0  0  0  0  0  0
   -1.7586   -2.0580    0.8686 C   0  0  0  0  0  0  0  0  0  0  0  0
   -0.9666   -2.6340    1.6026 O   0  0  0  0  0  0  0  0  0  0  0  0
   -1.4866   -0.9220    0.2366 N   0  0  0  0  0  0  0  0  0  0  0  0
   -2.2166   -0.4790   -0.2994 H   0  0  0  0  0  0  0  0  0  0  0  0
   -0.1956   -0.2250    0.2596 C   0  0  1  0  0  0  0  0  0  0  0  0
    0.5755   -0.9013   -0.1105 H   0  0  0  0  0  0  0  0  0  0  0  0
   -0.2553    0.9811   -0.6992 C   0  0  0  0  0  0  0  0  0  0  0  0
    0.7138    1.4818   -0.6704 H   0  0  0  0  0  0  0  0  0  0  0  0
   -0.4292    0.6249   -1.7156 H   0  0  0  0  0  0  0  0  0  0  0  0
   -1.3433    2.0035   -0.3298 C   0  0  0  0  0  0  0  0  0  0  0  0
   -2.2789    1.7221   -0.8192 H   0  0  0  0  0  0  0  0  0  0  0  0
   -1.5020    1.9601    0.7510 H   0  0  0  0  0  0  0  0  0  0  0  0
   -0.9901    3.4429   -0.7324 C   0  0  0  0  0  0  0  0  0  0  0  0
    0.1567    3.6704   -1.1791 O   0  5  0  0  0  0  0  0  0  0  0  0
   -1.8945    4.2984   -0.6075 O   0  0  0  0  0  0  0  0  0  0  0  0
    0.1881    0.1678    1.7015 C   0  0  0  0  0  0  0  0  0  0  0  0
    1.3379    0.0002    2.1133 O   0  0  0  0  0  0  0  0  0  0  0  0
   -0.7666    0.7145    2.4656 N   0  0  0  0  0  0  0  0  0  0  0  0
   -1.6971    0.7705    2.0790 H   0  0  0  0  0  0  0  0  0  0  0  0
   -0.5716    1.1232    3.8542 C   0  0  0  0  0  0  0  0  0  0  0  0
    0.3083    1.7643    3.9293 H   0  0  0  0  0  0  0  0  0  0  0  0
   -1.4485    1.6640    4.2131 H   0  0  0  0  0  0  0  0  0  0  0  0
   -0.4137    0.2381    4.4736 H   0  0  0  0  0  0  0  0  0  0  0  0
  5  6  2  0  0  0  0
  5  7  1  0  0  0  0
  2  3  1  0  0  0  0
  2  4  1  0  0  0  0
  2  5  1  0  0  0  0
  1  2  1  0  0  0  0
 20 21  2  0  0  0  0
 20 22  1  0  0  0  0
 17 18  1  0  0  0  0
 17 19  2  0  0  0  0
 14 15  1  0  0  0  0
 14 16  1  0  0  0  0
 14 17  1  0  0  0  0
 11 12  1  0  0  0  0
 11 13  1  0  0  0  0
 11 14  1  0  0  0  0
  9 10  1  0  0  0  0
  9 11  1  0  0  0  0
  9 20  1  0  0  0  0
  7  8  1  0  0  0  0
  7  9  1  0  0  0  0
 24 25  1  0  0  0  0
 24 26  1  0  0  0  0
 24 27  1  0  0  0  0
 22 23  1  0  0  0  0
 22 24  1  0  0  0  0
M  CHG  1  18  -1
M  END
$$$$
default_name
  -OEChem-02102213163D

 27 26  0     1  0  0  0  0  0999 V2000
   -3.2406   -3.5400    1.2326 H   0  0  0  0  0  0  0  0  0  0  0  0
   -3.1436   -2.6190    0.6606 C   0  0  0  0  0  0  0  0  0  0  0  0
   -3.8786   -1.8920    0.9996 H   0  0  0  0  0  0  0  0  0  0  0  0
   -3.2846   -2.8280   -0.3984 H   0  0  0  0  0  0  0  0  0  0  0  0
   -1.7586   -2.0580    0.8686 C   0  0  0  0  0  0  0  0  0  0  0  0
   -0.9666   -2.6340    1.6026 O   0  0  0  0  0  0  0  0  0  0  0  0
   -1.4866   -0.9220    0.2366 N   0  0  0  0  0  0  0  0  0  0  0  0
   -2.2166   -0.4790   -0.2994 H   0  0  0  0  0  0  0  0  0  0  0  0
   -0.1956   -0.2250    0.2596 C   0  0  1  0  0  0  0  0  0  0  0  0
    0.5755   -0.9013   -0.1105 H   0  0  0  0  0  0  0  0  0  0  0  0
   -0.2553    0.9811   -0.6992 C   0  0  0  0  0  0  0  0  0  0  0  0
    0.7138    1.4818   -0.6704 H   0  0  0  0  0  0  0  0  0  0  0  0
   -0.4292    0.6249   -1.7156 H   0  0  0  0  0  0  0  0  0  0  0  0
   -1.3433    2.0035   -0.3298 C   0  0  0  0  0  0  0  0  0  0  0  0
   -2.3223    1.5920   -0.5871 H   0  0  0  0  0  0  0  0  0  0  0  0
   -1.3162    2.1574    0.7522 H   0  0  0  0  0  0  0  0  0  0  0  0
   -1.1756    3.3559   -1.0380 C   0  0  0  0  0  0  0  0  0  0  0  0
   -0.1403    3.5478   -1.7147 O   0  5  0  0  0  0  0  0  0  0  0  0
   -2.1107    4.1769   -0.9082 O   0  0  0  0  0  0  0  0  0  0  0  0
    0.1881    0.1678    1.7015 C   0  0  0  0  0  0  0  0  0  0  0  0
    1.3379    0.0002    2.1133 O   0  0  0  0  0  0  0  0  0  0  0  0
   -0.7666    0.7145    2.4656 N   0  0  0  0  0  0  0  0  0  0  0  0
   -1.6971    0.7705    2.0790 H   0  0  0  0  0  0  0  0  0  0  0  0
   -0.5716    1.1232    3.8542 C   0  0  0  0  0  0  0  0  0  0  0  0
    0.3083    1.7643    3.9293 H   0  0  0  0  0  0  0  0  0  0  0  0
   -1.4485    1.6640    4.2131 H   0  0  0  0  0  0  0  0  0  0  0  0
   -0.4137    0.2381    4.4736 H   0  0  0  0  0  0  0  0  0  0  0  0
  5  6  2  0  0  0  0
  5  7  1  0  0  0  0
  2  3  1  0  0  0  0
  2  4  1  0  0  0  0
  2  5  1  0  0  0  0
  1  2  1  0  0  0  0
 20 21  2  0  0  0  0
 20 22  1  0  0  0  0
 17 18  1  0  0  0  0
 17 19  2  0  0  0  0
 14 15  1  0  0  0  0
 14 16  1  0  0  0  0
 14 17  1  0  0  0  0
 11 12  1  0  0  0  0
 11 13  1  0  0  0  0
 11 14  1  0  0  0  0
  9 10  1  0  0  0  0
  9 11  1  0  0  0  0
  9 20  1  0  0  0  0
  7  8  1  0  0  0  0
  7  9  1  0  0  0  0
 24 25  1  0  0  0  0
 24 26  1  0  0  0  0
 24 27  1  0  0  0  0
 22 23  1  0  0  0  0
 22 24  1  0  0  0  0
M  CHG  1  18  -1
M  END
$$$$
default_name
  -OEChem-02102213163D

 27 26  0     1  0  0  0  0  0999 V2000
   -3.2406   -3.5400    1.2326 H   0  0  0  0  0  0  0  0  0  0  0  0
   -3.1436   -2.6190    0.6606 C   0  0  0  0  0  0  0  0  0  0  0  0
   -3.8786   -1.8920    0.9996 H   0  0  0  0  0  0  0  0  0  0  0  0
   -3.2846   -2.8280   -0.3984 H   0  0  0  0  0  0  0  0  0  0  0  0
   -1.7586   -2.0580    0.8686 C   0  0  0  0  0  0  0  0  0  0  0  0
   -0.9666   -2.6340    1.6026 O   0  0  0  0  0  0  0  0  0  0  0  0
   -1.4866   -0.9220    0.2366 N   0  0  0  0  0  0  0  0  0  0  0  0
   -2.2166   -0.4790   -0.2994 H   0  0  0  0  0  0  0  0  0  0  0  0
   -0.1956   -0.2250    0.2596 C   0  0  1  0  0  0  0  0  0  0  0  0
    0.5755   -0.9013   -0.1105 H   0  0  0  0  0  0  0  0  0  0  0  0
   -0.2553    0.9811   -0.6992 C   0  0  0  0  0  0  0  0  0  0  0  0
    0.7667    1.3180   -0.8798 H   0  0  0  0  0  0  0  0  0  0  0  0
   -0.6869    0.6645   -1.6498 H   0  0  0  0  0  0  0  0  0  0  0  0
   -1.0678    2.1638   -0.1453 C   0  0  0  0  0  0  0  0  0  0  0  0
   -2.0875    1.8306    0.0623 H   0  0  0  0  0  0  0  0  0  0  0  0
   -0.6166    2.4771    0.7999 H   0  0  0  0  0  0  0  0  0  0  0  0
   -1.1266    3.3646   -1.1011 C   0  0  0  0  0  0  0  0  0  0  0  0
   -0.4269    3.3331   -2.1383 O   0  5  0  0  0  0  0  0  0  0  0  0
   -1.9002    4.2957   -0.7851 O   0  0  0  0  0  0  0  0  0  0  0  0
    0.1881    0.1678    1.7015 C   0  0  0  0  0  0  0  0  0  0  0  0
    1.3379    0.0002    2.1133 O   0  0  0  0  0  0  0  0  0  0  0  0
   -0.7666    0.7145    2.4656 N   0  0  0  0  0  0  0  0  0  0  0  0
   -1.6971    0.7705    2.0790 H   0  0  0  0  0  0  0  0  0  0  0  0
   -0.5716    1.1232    3.8542 C   0  0  0  0  0  0  0  0  0  0  0  0
    0.3083    1.7643    3.9293 H   0  0  0  0  0  0  0  0  0  0  0  0
   -1.4485    1.6640    4.2131 H   0  0  0  0  0  0  0  0  0  0  0  0
   -0.4137    0.2381    4.4736 H   0  0  0  0  0  0  0  0  0  0  0  0
  5  6  2  0  0  0  0
  5  7  1  0  0  0  0
  2  3  1  0  0  0  0
  2  4  1  0  0  0  0
  2  5  1  0  0  0  0
  1  2  1  0  0  0  0
 20 21  2  0  0  0  0
 20 22  1  0  0  0  0
 17 18  1  0  0  0  0
 17 19  2  0  0  0  0
 14 15  1  0  0  0  0
 14 16  1  0  0  0  0
 14 17  1  0  0  0  0
 11 12  1  0  0  0  0
 11 13  1  0  0  0  0
 11 14  1  0  0  0  0
  9 10  1  0  0  0  0
  9 11  1  0  0  0  0
  9 20  1  0  0  0  0
  7  8  1  0  0  0  0
  7  9  1  0  0  0  0
 24 25  1  0  0  0  0
 24 26  1  0  0  0  0
 24 27  1  0  0  0  0
 22 23  1  0  0  0  0
 22 24  1  0  0  0  0
M  CHG  1  18  -1
M  END
$$$$
default_name
  -OEChem-02102213163D

 27 26  0     1  0  0  0  0  0999 V2000
   -3.2406   -3.5400    1.2326 H   0  0  0  0  0  0  0  0  0  0  0  0
   -3.1436   -2.6190    0.6606 C   0  0  0  0  0  0  0  0  0  0  0  0
   -3.8786   -1.8920    0.9996 H   0  0  0  0  0  0  0  0  0  0  0  0
   -3.2846   -2.8280   -0.3984 H   0  0  0  0  0  0  0  0  0  0  0  0
   -1.7586   -2.0580    0.8686 C   0  0  0  0  0  0  0  0  0  0  0  0
   -0.9666   -2.6340    1.6026 O   0  0  0  0  0  0  0  0  0  0  0  0
   -1.4866   -0.9220    0.2366 N   0  0  0  0  0  0  0  0  0  0  0  0
   -2.2166   -0.4790   -0.2994 H   0  0  0  0  0  0  0  0  0  0  0  0
   -0.1956   -0.2250    0.2596 C   0  0  1  0  0  0  0  0  0  0  0  0
    0.5755   -0.9013   -0.1105 H   0  0  0  0  0  0  0  0  0  0  0  0
   -0.2553    0.9811   -0.6992 C   0  0  0  0  0  0  0  0  0  0  0  0
    0.7667    1.3180   -0.8798 H   0  0  0  0  0  0  0  0  0  0  0  0
   -0.6869    0.6645   -1.6498 H   0  0  0  0  0  0  0  0  0  0  0  0
   -1.0678    2.1638   -0.1453 C   0  0  0  0  0  0  0  0  0  0  0  0
   -1.9868    1.7847    0.3081 H   0  0  0  0  0  0  0  0  0  0  0  0
   -0.4792    2.6467    0.6392 H   0  0  0  0  0  0  0  0  0  0  0  0
   -1.4377    3.2035   -1.2135 C   0  0  0  0  0  0  0  0  0  0  0  0
   -0.9515    3.0763   -2.3598 O   0  5  0  0  0  0  0  0  0  0  0  0
   -2.2311    4.1064   -0.8664 O   0  0  0  0  0  0  0  0  0  0  0  0
    0.1881    0.1678    1.7015 C   0  0  0  0  0  0  0  0  0  0  0  0
    1.3379    0.0002    2.1133 O   0  0  0  0  0  0  0  0  0  0  0  0
   -0.7666    0.7145    2.4656 N   0  0  0  0  0  0  0  0  0  0  0  0
   -1.6971    0.7705    2.0790 H   0  0  0  0  0  0  0  0  0  0  0  0
   -0.5716    1.1232    3.8542 C   0  0  0  0  0  0  0  0  0  0  0  0
    0.3083    1.7643    3.9293 H   0  0  0  0  0  0  0  0  0  0  0  0
   -1.4485    1.6640    4.2131 H   0  0  0  0  0  0  0  0  0  0  0  0
   -0.4137    0.2381    4.4736 H   0  0  0  0  0  0  0  0  0  0  0  0
  5  6  2  0  0  0  0
  5  7  1  0  0  0  0
  2  3  1  0  0  0  0
  2  4  1  0  0  0  0
  2  5  1  0  0  0  0
  1  2  1  0  0  0  0
 20 21  2  0  0  0  0
 20 22  1  0  0  0  0
 17 18  1  0  0  0  0
 17 19  2  0  0  0  0
 14 15  1  0  0  0  0
 14 16  1  0  0  0  0
 14 17  1  0  0  0  0
 11 12  1  0  0  0  0
 11 13  1  0  0  0  0
 11 14  1  0  0  0  0
  9 10  1  0  0  0  0
  9 11  1  0  0  0  0
  9 20  1  0  0  0  0
  7  8  1  0  0  0  0
  7  9  1  0  0  0  0
 24 25  1  0  0  0  0
 24 26  1  0  0  0  0
 24 27  1  0  0  0  0
 22 23  1  0  0  0  0
 22 24  1  0  0  0  0
M  CHG  1  18  -1
M  END
$$$$
default_name
  -OEChem-02102213163D

 27 26  0     1  0  0  0  0  0999 V2000
   -3.2406   -3.5400    1.2326 H   0  0  0  0  0  0  0  0  0  0  0  0
   -3.1436   -2.6190    0.6606 C   0  0  0  0  0  0  0  0  0  0  0  0
   -3.8786   -1.8920    0.9996 H   0  0  0  0  0  0  0  0  0  0  0  0
   -3.2846   -2.8280   -0.3984 H   0  0  0  0  0  0  0  0  0  0  0  0
   -1.7586   -2.0580    0.8686 C   0  0  0  0  0  0  0  0  0  0  0  0
   -0.9666   -2.6340    1.6026 O   0  0  0  0  0  0  0  0  0  0  0  0
   -1.4866   -0.9220    0.2366 N   0  0  0  0  0  0  0  0  0  0  0  0
   -2.2166   -0.4790   -0.2994 H   0  0  0  0  0  0  0  0  0  0  0  0
   -0.1956   -0.2250    0.2596 C   0  0  1  0  0  0  0  0  0  0  0  0
    0.5755   -0.9013   -0.1105 H   0  0  0  0  0  0  0  0  0  0  0  0
   -0.2553    0.9811   -0.6992 C   0  0  0  0  0  0  0  0  0  0  0  0
    0.7667    1.3180   -0.8798 H   0  0  0  0  0  0  0  0  0  0  0  0
   -0.6869    0.6645   -1.6498 H   0  0  0  0  0  0  0  0  0  0  0  0
   -1.0678    2.1638   -0.1453 C   0  0  0  0  0  0  0  0  0  0  0  0
   -1.8364    1.7833    0.5317 H   0  0  0  0  0  0  0  0  0  0  0  0
   -0.3943    2.8014    0.4336 H   0  0  0  0  0  0  0  0  0  0  0  0
   -1.7456    3.0035   -1.2381 C   0  0  0  0  0  0  0  0  0  0  0  0
   -1.4784    2.7492   -2.4341 O   0  5  0  0  0  0  0  0  0  0  0  0
   -2.5493    3.8817   -0.8532 O   0  0  0  0  0  0  0  0  0  0  0  0
    0.1881    0.1678    1.7015 C   0  0  0  0  0  0  0  0  0  0  0  0
    1.3379    0.0002    2.1133 O   0  0  0  0  0  0  0  0  0  0  0  0
   -0.7666    0.7145    2.4656 N   0  0  0  0  0  0  0  0  0  0  0  0
   -1.6971    0.7705    2.0790 H   0  0  0  0  0  0  0  0  0  0  0  0
   -0.5716    1.1232    3.8542 C   0  0  0  0  0  0  0  0  0  0  0  0
    0.3083    1.7643    3.9293 H   0  0  0  0  0  0  0  0  0  0  0  0
   -1.4485    1.6640    4.2131 H   0  0  0  0  0  0  0  0  0  0  0  0
   -0.4137    0.2381    4.4736 H   0  0  0  0  0  0  0  0  0  0  0  0
  5  6  2  0  0  0  0
  5  7  1  0  0  0  0
  2  3  1  0  0  0  0
  2  4  1  0  0  0  0
  2  5  1  0  0  0  0
  1  2  1  0  0  0  0
 20 21  2  0  0  0  0
 20 22  1  0  0  0  0
 17 18  1  0  0  0  0
 17 19  2  0  0  0  0
 14 15  1  0  0  0  0
 14 16  1  0  0  0  0
 14 17  1  0  0  0  0
 11 12  1  0  0  0  0
 11 13  1  0  0  0  0
 11 14  1  0  0  0  0
  9 10  1  0  0  0  0
  9 11  1  0  0  0  0
  9 20  1  0  0  0  0
  7  8  1  0  0  0  0
  7  9  1  0  0  0  0
 24 25  1  0  0  0  0
 24 26  1  0  0  0  0
 24 27  1  0  0  0  0
 22 23  1  0  0  0  0
 22 24  1  0  0  0  0
M  CHG  1  18  -1
M  END
$$$$
default_name
  -OEChem-02102213163D

 27 26  0     1  0  0  0  0  0999 V2000
   -3.2406   -3.5400    1.2326 H   0  0  0  0  0  0  0  0  0  0  0  0
   -3.1436   -2.6190    0.6606 C   0  0  0  0  0  0  0  0  0  0  0  0
   -3.8786   -1.8920    0.9996 H   0  0  0  0  0  0  0  0  0  0  0  0
   -3.2846   -2.8280   -0.3984 H   0  0  0  0  0  0  0  0  0  0  0  0
   -1.7586   -2.0580    0.8686 C   0  0  0  0  0  0  0  0  0  0  0  0
   -0.9666   -2.6340    1.6026 O   0  0  0  0  0  0  0  0  0  0  0  0
   -1.4866   -0.9220    0.2366 N   0  0  0  0  0  0  0  0  0  0  0  0
   -2.2166   -0.4790   -0.2994 H   0  0  0  0  0  0  0  0  0  0  0  0
   -0.1956   -0.2250    0.2596 C   0  0  1  0  0  0  0  0  0  0  0  0
    0.5755   -0.9013   -0.1105 H   0  0  0  0  0  0  0  0  0  0  0  0
   -0.2553    0.9811   -0.6992 C   0  0  0  0  0  0  0  0  0  0  0  0
    0.7667    1.3180   -0.8798 H   0  0  0  0  0  0  0  0  0  0  0  0
   -0.6869    0.6645   -1.6498 H   0  0  0  0  0  0  0  0  0  0  0  0
   -1.0678    2.1638   -0.1453 C   0  0  0  0  0  0  0  0  0  0  0  0
   -1.6464    1.8265    0.7180 H   0  0  0  0  0  0  0  0  0  0  0  0
   -0.3677    2.9306    0.1968 H   0  0  0  0  0  0  0  0  0  0  0  0
   -2.0292    2.7783   -1.1733 C   0  0  0  0  0  0  0  0  0  0  0  0
   -1.9717    2.3739   -2.3564 O   0  5  0  0  0  0  0  0  0  0  0  0
   -2.8331    3.6367   -0.7464 O   0  0  0  0  0  0  0  0  0  0  0  0
    0.1881    0.1678    1.7015 C   0  0  0  0  0  0  0  0  0  0  0  0
    1.3379    0.0002    2.1133 O   0  0  0  0  0  0  0  0  0  0  0  0
   -0.7666    0.7145    2.4656 N   0  0  0  0  0  0  0  0  0  0  0  0
   -1.6971    0.7705    2.0790 H   0  0  0  0  0  0  0  0  0  0  0  0
   -0.5716    1.1232    3.8542 C   0  0  0  0  0  0  0  0  0  0  0  0
    0.3083    1.7643    3.9293 H   0  0  0  0  0  0  0  0  0  0  0  0
   -1.4485    1.6640    4.2131 H   0  0  0  0  0  0  0  0  0  0  0  0
   -0.4137    0.2381    4.4736 H   0  0  0  0  0  0  0  0  0  0  0  0
  5  6  2  0  0  0  0
  5  7  1  0  0  0  0
  2  3  1  0  0  0  0
  2  4  1  0  0  0  0
  2  5  1  0  0  0  0
  1  2  1  0  0  0  0
 20 21  2  0  0  0  0
 20 22  1  0  0  0  0
 17 18  1  0  0  0  0
 17 19  2  0  0  0  0
 14 15  1  0  0  0  0
 14 16  1  0  0  0  0
 14 17  1  0  0  0  0
 11 12  1  0  0  0  0
 11 13  1  0  0  0  0
 11 14  1  0  0  0  0
  9 10  1  0  0  0  0
  9 11  1  0  0  0  0
  9 20  1  0  0  0  0
  7  8  1  0  0  0  0
  7  9  1  0  0  0  0
 24 25  1  0  0  0  0
 24 26  1  0  0  0  0
 24 27  1  0  0  0  0
 22 23  1  0  0  0  0
 22 24  1  0  0  0  0
M  CHG  1  18  -1
M  END
$$$$
default_name
  -OEChem-02102213163D

 27 26  0     1  0  0  0  0  0999 V2000
   -3.2406   -3.5400    1.2326 H   0  0  0  0  0  0  0  0  0  0  0  0
   -3.1436   -2.6190    0.6606 C   0  0  0  0  0  0  0  0  0  0  0  0
   -3.8786   -1.8920    0.9996 H   0  0  0  0  0  0  0  0  0  0  0  0
   -3.2846   -2.8280   -0.3984 H   0  0  0  0  0  0  0  0  0  0  0  0
   -1.7586   -2.0580    0.8686 C   0  0  0  0  0  0  0  0  0  0  0  0
   -0.9666   -2.6340    1.6026 O   0  0  0  0  0  0  0  0  0  0  0  0
   -1.4866   -0.9220    0.2366 N   0  0  0  0  0  0  0  0  0  0  0  0
   -2.2166   -0.4790   -0.2994 H   0  0  0  0  0  0  0  0  0  0  0  0
   -0.1956   -0.2250    0.2596 C   0  0  1  0  0  0  0  0  0  0  0  0
    0.5755   -0.9013   -0.1105 H   0  0  0  0  0  0  0  0  0  0  0  0
   -0.2553    0.9811   -0.6992 C   0  0  0  0  0  0  0  0  0  0  0  0
    0.7667    1.3180   -0.8798 H   0  0  0  0  0  0  0  0  0  0  0  0
   -0.6869    0.6645   -1.6498 H   0  0  0  0  0  0  0  0  0  0  0  0
   -1.0678    2.1638   -0.1453 C   0  0  0  0  0  0  0  0  0  0  0  0
   -1.4299    1.9115    0.8543 H   0  0  0  0  0  0  0  0  0  0  0  0
   -0.4011    3.0254   -0.0548 H   0  0  0  0  0  0  0  0  0  0  0  0
   -2.2693    2.5432   -1.0235 C   0  0  0  0  0  0  0  0  0  0  0  0
   -2.3977    1.9761   -2.1318 O   0  5  0  0  0  0  0  0  0  0  0  0
   -3.0632    3.3882   -0.5533 O   0  0  0  0  0  0  0  0  0  0  0  0
    0.1881    0.1678    1.7015 C   0  0  0  0  0  0  0  0  0  0  0  0
    1.3379    0.0002    2.1133 O   0  0  0  0  0  0  0  0  0  0  0  0
   -0.7666    0.7145    2.4656 N   0  0  0  0  0  0  0  0  0  0  0  0
   -1.6971    0.7705    2.0790 H   0  0  0  0  0  0  0  0  0  0  0  0
   -0.5716    1.1232    3.8542 C   0  0  0  0  0  0  0  0  0  0  0  0
    0.3083    1.7643    3.9293 H   0  0  0  0  0  0  0  0  0  0  0  0
   -1.4485    1.6640    4.2131 H   0  0  0  0  0  0  0  0  0  0  0  0
   -0.4137    0.2381    4.4736 H   0  0  0  0  0  0  0  0  0  0  0  0
  5  6  2  0  0  0  0
  5  7  1  0  0  0  0
  2  3  1  0  0  0  0
  2  4  1  0  0  0  0
  2  5  1  0  0  0  0
  1  2  1  0  0  0  0
 20 21  2  0  0  0  0
 20 22  1  0  0  0  0
 17 18  1  0  0  0  0
 17 19  2  0  0  0  0
 14 15  1  0  0  0  0
 14 16  1  0  0  0  0
 14 17  1  0  0  0  0
 11 12  1  0  0  0  0
 11 13  1  0  0  0  0
 11 14  1  0  0  0  0
  9 10  1  0  0  0  0
  9 11  1  0  0  0  0
  9 20  1  0  0  0  0
  7  8  1  0  0  0  0
  7  9  1  0  0  0  0
 24 25  1  0  0  0  0
 24 26  1  0  0  0  0
 24 27  1  0  0  0  0
 22 23  1  0  0  0  0
 22 24  1  0  0  0  0
M  CHG  1  18  -1
M  END
$$$$
default_name
  -OEChem-02102213163D

 27 26  0     1  0  0  0  0  0999 V2000
   -3.2406   -3.5400    1.2326 H   0  0  0  0  0  0  0  0  0  0  0  0
   -3.1436   -2.6190    0.6606 C   0  0  0  0  0  0  0  0  0  0  0  0
   -3.8786   -1.8920    0.9996 H   0  0  0  0  0  0  0  0  0  0  0  0
   -3.2846   -2.8280   -0.3984 H   0  0  0  0  0  0  0  0  0  0  0  0
   -1.7586   -2.0580    0.8686 C   0  0  0  0  0  0  0  0  0  0  0  0
   -0.9666   -2.6340    1.6026 O   0  0  0  0  0  0  0  0  0  0  0  0
   -1.4866   -0.9220    0.2366 N   0  0  0  0  0  0  0  0  0  0  0  0
   -2.2166   -0.4790   -0.2994 H   0  0  0  0  0  0  0  0  0  0  0  0
   -0.1956   -0.2250    0.2596 C   0  0  1  0  0  0  0  0  0  0  0  0
    0.5755   -0.9013   -0.1105 H   0  0  0  0  0  0  0  0  0  0  0  0
   -0.2553    0.9811   -0.6992 C   0  0  0  0  0  0  0  0  0  0  0  0
    0.7667    1.3180   -0.8798 H   0  0  0  0  0  0  0  0  0  0  0  0
   -0.6869    0.6645   -1.6498 H   0  0  0  0  0  0  0  0  0  0  0  0
   -1.0678    2.1638   -0.1453 C   0  0  0  0  0  0  0  0  0  0  0  0
   -1.2015    2.0323    0.9312 H   0  0  0  0  0  0  0  0  0  0  0  0
   -0.4923    3.0796   -0.3041 H   0  0  0  0  0  0  0  0  0  0  0  0
   -2.4495    2.3142   -0.7988 C   0  0  0  0  0  0  0  0  0  0  0  0
   -2.7274    1.5828   -1.7757 O   0  5  0  0  0  0  0  0  0  0  0  0
   -3.2238    3.1531   -0.2870 O   0  0  0  0  0  0  0  0  0  0  0  0
    0.1881    0.1678    1.7015 C   0  0  0  0  0  0  0  0  0  0  0  0
    1.3379    0.0002    2.1133 O   0  0  0  0  0  0  0  0  0  0  0  0
   -0.7666    0.7145    2.4656 N   0  0  0  0  0  0  0  0  0  0  0  0
   -1.6971    0.7705    2.0790 H   0  0  0  0  0  0  0  0  0  0  0  0
   -0.5716    1.1232    3.8542 C   0  0  0  0  0  0  0  0  0  0  0  0
    0.3083    1.7643    3.9293 H   0  0  0  0  0  0  0  0  0  0  0  0
   -1.4485    1.6640    4.2131 H   0  0  0  0  0  0  0  0  0  0  0  0
   -0.4137    0.2381    4.4736 H   0  0  0  0  0  0  0  0  0  0  0  0
  5  6  2  0  0  0  0
  5  7  1  0  0  0  0
  2  3  1  0  0  0  0
  2  4  1  0  0  0  0
  2  5  1  0  0  0  0
  1  2  1  0  0  0  0
 20 21  2  0  0  0  0
 20 22  1  0  0  0  0
 17 18  1  0  0  0  0
 17 19  2  0  0  0  0
 14 15  1  0  0  0  0
 14 16  1  0  0  0  0
 14 17  1  0  0  0  0
 11 12  1  0  0  0  0
 11 13  1  0  0  0  0
 11 14  1  0  0  0  0
  9 10  1  0  0  0  0
  9 11  1  0  0  0  0
  9 20  1  0  0  0  0
  7  8  1  0  0  0  0
  7  9  1  0  0  0  0
 24 25  1  0  0  0  0
 24 26  1  0  0  0  0
 24 27  1  0  0  0  0
 22 23  1  0  0  0  0
 22 24  1  0  0  0  0
M  CHG  1  18  -1
M  END
$$$$
default_name
  -OEChem-02102213163D

 27 26  0     1  0  0  0  0  0999 V2000
   -3.2406   -3.5400    1.2326 H   0  0  0  0  0  0  0  0  0  0  0  0
   -3.1436   -2.6190    0.6606 C   0  0  0  0  0  0  0  0  0  0  0  0
   -3.8786   -1.8920    0.9996 H   0  0  0  0  0  0  0  0  0  0  0  0
   -3.2846   -2.8280   -0.3984 H   0  0  0  0  0  0  0  0  0  0  0  0
   -1.7586   -2.0580    0.8686 C   0  0  0  0  0  0  0  0  0  0  0  0
   -0.9666   -2.6340    1.6026 O   0  0  0  0  0  0  0  0  0  0  0  0
   -1.4866   -0.9220    0.2366 N   0  0  0  0  0  0  0  0  0  0  0  0
   -2.2166   -0.4790   -0.2994 H   0  0  0  0  0  0  0  0  0  0  0  0
   -0.1956   -0.2250    0.2596 C   0  0  1  0  0  0  0  0  0  0  0  0
    0.5755   -0.9013   -0.1105 H   0  0  0  0  0  0  0  0  0  0  0  0
   -0.2553    0.9811   -0.6992 C   0  0  0  0  0  0  0  0  0  0  0  0
    0.7667    1.3180   -0.8798 H   0  0  0  0  0  0  0  0  0  0  0  0
   -0.6869    0.6645   -1.6498 H   0  0  0  0  0  0  0  0  0  0  0  0
   -1.0678    2.1638   -0.1453 C   0  0  0  0  0  0  0  0  0  0  0  0
   -0.9769    2.1809    0.9434 H   0  0  0  0  0  0  0  0  0  0  0  0
   -0.6350    3.0893   -0.5342 H   0  0  0  0  0  0  0  0  0  0  0  0
   -2.5575    2.1069   -0.5146 C   0  0  0  0  0  0  0  0  0  0  0  0
   -2.9383    1.2209   -1.3124 O   0  5  0  0  0  0  0  0  0  0  0  0
   -3.3040    2.9475    0.0343 O   0  0  0  0  0  0  0  0  0  0  0  0
    0.1881    0.1678    1.7015 C   0  0  0  0  0  0  0  0  0  0  0  0
    1.3379    0.0002    2.1133 O   0  0  0  0  0  0  0  0  0  0  0  0
   -0.7666    0.7145    2.4656 N   0  0  0  0  0  0  0  0  0  0  0  0
   -1.6971    0.7705    2.0790 H   0  0  0  0  0  0  0  0  0  0  0  0
   -0.5716    1.1232    3.8542 C   0  0  0  0  0  0  0  0  0  0  0  0
    0.3083    1.7643    3.9293 H   0  0  0  0  0  0  0  0  0  0  0  0
   -1.4485    1.6640    4.2131 H   0  0  0  0  0  0  0  0  0  0  0  0
   -0.4137    0.2381    4.4736 H   0  0  0  0  0  0  0  0  0  0  0  0
  5  6  2  0  0  0  0
  5  7  1  0  0  0  0
  2  3  1  0  0  0  0
  2  4  1  0  0  0  0
  2  5  1  0  0  0  0
  1  2  1  0  0  0  0
 20 21  2  0  0  0  0
 20 22  1  0  0  0  0
 17 18  1  0  0  0  0
 17 19  2  0  0  0  0
 14 15  1  0  0  0  0
 14 16  1  0  0  0  0
 14 17  1  0  0  0  0
 11 12  1  0  0  0  0
 11 13  1  0  0  0  0
 11 14  1  0  0  0  0
  9 10  1  0  0  0  0
  9 11  1  0  0  0  0
  9 20  1  0  0  0  0
  7  8  1  0  0  0  0
  7  9  1  0  0  0  0
 24 25  1  0  0  0  0
 24 26  1  0  0  0  0
 24 27  1  0  0  0  0
 22 23  1  0  0  0  0
 22 24  1  0  0  0  0
M  CHG  1  18  -1
M  END
$$$$
default_name
  -OEChem-02102213163D

 27 26  0     1  0  0  0  0  0999 V2000
   -3.2406   -3.5400    1.2326 H   0  0  0  0  0  0  0  0  0  0  0  0
   -3.1436   -2.6190    0.6606 C   0  0  0  0  0  0  0  0  0  0  0  0
   -3.8786   -1.8920    0.9996 H   0  0  0  0  0  0  0  0  0  0  0  0
   -3.2846   -2.8280   -0.3984 H   0  0  0  0  0  0  0  0  0  0  0  0
   -1.7586   -2.0580    0.8686 C   0  0  0  0  0  0  0  0  0  0  0  0
   -0.9666   -2.6340    1.6026 O   0  0  0  0  0  0  0  0  0  0  0  0
   -1.4866   -0.9220    0.2366 N   0  0  0  0  0  0  0  0  0  0  0  0
   -2.2166   -0.4790   -0.2994 H   0  0  0  0  0  0  0  0  0  0  0  0
   -0.1956   -0.2250    0.2596 C   0  0  1  0  0  0  0  0  0  0  0  0
    0.5755   -0.9013   -0.1105 H   0  0  0  0  0  0  0  0  0  0  0  0
   -0.2553    0.9811   -0.6992 C   0  0  0  0  0  0  0  0  0  0  0  0
    0.7667    1.3180   -0.8798 H   0  0  0  0  0  0  0  0  0  0  0  0
   -0.6869    0.6645   -1.6498 H   0  0  0  0  0  0  0  0  0  0  0  0
   -1.0678    2.1638   -0.1453 C   0  0  0  0  0  0  0  0  0  0  0  0
   -0.7714    2.3470    0.8903 H   0  0  0  0  0  0  0  0  0  0  0  0
   -0.8196    3.0539   -0.7294 H   0  0  0  0  0  0  0  0  0  0  0  0
   -2.5859    1.9355   -0.1903 C   0  0  0  0  0  0  0  0  0  0  0  0
   -3.0162    0.9150   -0.7733 O   0  5  0  0  0  0  0  0  0  0  0  0
   -3.2984    2.7854    0.3888 O   0  0  0  0  0  0  0  0  0  0  0  0
    0.1881    0.1678    1.7015 C   0  0  0  0  0  0  0  0  0  0  0  0
    1.3379    0.0002    2.1133 O   0  0  0  0  0  0  0  0  0  0  0  0
   -0.7666    0.7145    2.4656 N   0  0  0  0  0  0  0  0  0  0  0  0
   -1.6971    0.7705    2.0790 H   0  0  0  0  0  0  0  0  0  0  0  0
   -0.5716    1.1232    3.8542 C   0  0  0  0  0  0  0  0  0  0  0  0
    0.3083    1.7643    3.9293 H   0  0  0  0  0  0  0  0  0  0  0  0
   -1.4485    1.6640    4.2131 H   0  0  0  0  0  0  0  0  0  0  0  0
   -0.4137    0.2381    4.4736 H   0  0  0  0  0  0  0  0  0  0  0  0
  5  6  2  0  0  0  0
  5  7  1  0  0  0  0
  2  3  1  0  0  0  0
  2  4  1  0  0  0  0
  2  5  1  0  0  0  0
  1  2  1  0  0  0  0
 20 21  2  0  0  0  0
 20 22  1  0  0  0  0
 17 18  1  0  0  0  0
 17 19  2  0  0  0  0
 14 15  1  0  0  0  0
 14 16  1  0  0  0  0
 14 17  1  0  0  0  0
 11 12  1  0  0  0  0
 11 13  1  0  0  0  0
 11 14  1  0  0  0  0
  9 10  1  0  0  0  0
  9 11  1  0  0  0  0
  9 20  1  0  0  0  0
  7  8  1  0  0  0  0
  7  9  1  0  0  0  0
 24 25  1  0  0  0  0
 24 26  1  0  0  0  0
 24 27  1  0  0  0  0
 22 23  1  0  0  0  0
 22 24  1  0  0  0  0
M  CHG  1  18  -1
M  END
$$$$
default_name
  -OEChem-02102213163D

 27 26  0     1  0  0  0  0  0999 V2000
   -3.2406   -3.5400    1.2326 H   0  0  0  0  0  0  0  0  0  0  0  0
   -3.1436   -2.6190    0.6606 C   0  0  0  0  0  0  0  0  0  0  0  0
   -3.8786   -1.8920    0.9996 H   0  0  0  0  0  0  0  0  0  0  0  0
   -3.2846   -2.8280   -0.3984 H   0  0  0  0  0  0  0  0  0  0  0  0
   -1.7586   -2.0580    0.8686 C   0  0  0  0  0  0  0  0  0  0  0  0
   -0.9666   -2.6340    1.6026 O   0  0  0  0  0  0  0  0  0  0  0  0
   -1.4866   -0.9220    0.2366 N   0  0  0  0  0  0  0  0  0  0  0  0
   -2.2166   -0.4790   -0.2994 H   0  0  0  0  0  0  0  0  0  0  0  0
   -0.1956   -0.2250    0.2596 C   0  0  1  0  0  0  0  0  0  0  0  0
    0.5755   -0.9013   -0.1105 H   0  0  0  0  0  0  0  0  0  0  0  0
   -0.2553    0.9811   -0.6992 C   0  0  0  0  0  0  0  0  0  0  0  0
    0.7667    1.3180   -0.8798 H   0  0  0  0  0  0  0  0  0  0  0  0
   -0.6869    0.6645   -1.6498 H   0  0  0  0  0  0  0  0  0  0  0  0
   -1.0678    2.1638   -0.1453 C   0  0  0  0  0  0  0  0  0  0  0  0
   -0.5989    2.5193    0.7754 H   0  0  0  0  0  0  0  0  0  0  0  0
   -1.0335    2.9758   -0.8764 H   0  0  0  0  0  0  0  0  0  0  0  0
   -2.5328    1.8116    0.1521 C   0  0  0  0  0  0  0  0  0  0  0  0
   -2.9555    0.6859   -0.1954 O   0  5  0  0  0  0  0  0  0  0  0  0
   -3.2073    2.6777    0.7522 O   0  0  0  0  0  0  0  0  0  0  0  0
    0.1881    0.1678    1.7015 C   0  0  0  0  0  0  0  0  0  0  0  0
    1.3379    0.0002    2.1133 O   0  0  0  0  0  0  0  0  0  0  0  0
   -0.7666    0.7145    2.4656 N   0  0  0  0  0  0  0  0  0  0  0  0
   -1.6971    0.7705    2.0790 H   0  0  0  0  0  0  0  0  0  0  0  0
   -0.5716    1.1232    3.8542 C   0  0  0  0  0  0  0  0  0  0  0  0
    0.3083    1.7643    3.9293 H   0  0  0  0  0  0  0  0  0  0  0  0
   -1.4485    1.6640    4.2131 H   0  0  0  0  0  0  0  0  0  0  0  0
   -0.4137    0.2381    4.4736 H   0  0  0  0  0  0  0  0  0  0  0  0
  5  6  2  0  0  0  0
  5  7  1  0  0  0  0
  2  3  1  0  0  0  0
  2  4  1  0  0  0  0
  2  5  1  0  0  0  0
  1  2  1  0  0  0  0
 20 21  2  0  0  0  0
 20 22  1  0  0  0  0
 17 18  1  0  0  0  0
 17 19  2  0  0  0  0
 14 15  1  0  0  0  0
 14 16  1  0  0  0  0
 14 17  1  0  0  0  0
 11 12  1  0  0  0  0
 11 13  1  0  0  0  0
 11 14  1  0  0  0  0
  9 10  1  0  0  0  0
  9 11  1  0  0  0  0
  9 20  1  0  0  0  0
  7  8  1  0  0  0  0
  7  9  1  0  0  0  0
 24 25  1  0  0  0  0
 24 26  1  0  0  0  0
 24 27  1  0  0  0  0
 22 23  1  0  0  0  0
 22 24  1  0  0  0  0
M  CHG  1  18  -1
M  END
$$$$
default_name
  -OEChem-02102213163D

 27 26  0     1  0  0  0  0  0999 V2000
   -3.2406   -3.5400    1.2326 H   0  0  0  0  0  0  0  0  0  0  0  0
   -3.1436   -2.6190    0.6606 C   0  0  0  0  0  0  0  0  0  0  0  0
   -3.8786   -1.8920    0.9996 H   0  0  0  0  0  0  0  0  0  0  0  0
   -3.2846   -2.8280   -0.3984 H   0  0  0  0  0  0  0  0  0  0  0  0
   -1.7586   -2.0580    0.8686 C   0  0  0  0  0  0  0  0  0  0  0  0
   -0.9666   -2.6340    1.6026 O   0  0  0  0  0  0  0  0  0  0  0  0
   -1.4866   -0.9220    0.2366 N   0  0  0  0  0  0  0  0  0  0  0  0
   -2.2166   -0.4790   -0.2994 H   0  0  0  0  0  0  0  0  0  0  0  0
   -0.1956   -0.2250    0.2596 C   0  0  1  0  0  0  0  0  0  0  0  0
    0.5755   -0.9013   -0.1105 H   0  0  0  0  0  0  0  0  0  0  0  0
   -0.2553    0.9811   -0.6992 C   0  0  0  0  0  0  0  0  0  0  0  0
    0.7667    1.3180   -0.8798 H   0  0  0  0  0  0  0  0  0  0  0  0
   -0.6869    0.6645   -1.6498 H   0  0  0  0  0  0  0  0  0  0  0  0
   -1.0678    2.1638   -0.1453 C   0  0  0  0  0  0  0  0  0  0  0  0
   -0.4712    2.6862    0.6065 H   0  0  0  0  0  0  0  0  0  0  0  0
   -1.2620    2.8604   -0.9651 H   0  0  0  0  0  0  0  0  0  0  0  0
   -2.4019    1.7437    0.4891 C   0  0  0  0  0  0  0  0  0  0  0  0
   -2.7606    0.5494    0.3822 O   0  5  0  0  0  0  0  0  0  0  0  0
   -3.0370    2.6320    1.0998 O   0  0  0  0  0  0  0  0  0  0  0  0
    0.1881    0.1678    1.7015 C   0  0  0  0  0  0  0  0  0  0  0  0
    1.3379    0.0002    2.1133 O   0  0  0  0  0  0  0  0  0  0  0  0
   -0.7666    0.7145    2.4656 N   0  0  0  0  0  0  0  0  0  0  0  0
   -1.6971    0.7705    2.0790 H   0  0  0  0  0  0  0  0  0  0  0  0
   -0.5716    1.1232    3.8542 C   0  0  0  0  0  0  0  0  0  0  0  0
    0.3083    1.7643    3.9293 H   0  0  0  0  0  0  0  0  0  0  0  0
   -1.4485    1.6640    4.2131 H   0  0  0  0  0  0  0  0  0  0  0  0
   -0.4137    0.2381    4.4736 H   0  0  0  0  0  0  0  0  0  0  0  0
  5  6  2  0  0  0  0
  5  7  1  0  0  0  0
  2  3  1  0  0  0  0
  2  4  1  0  0  0  0
  2  5  1  0  0  0  0
  1  2  1  0  0  0  0
 20 21  2  0  0  0  0
 20 22  1  0  0  0  0
 17 18  1  0  0  0  0
 17 19  2  0  0  0  0
 14 15  1  0  0  0  0
 14 16  1  0  0  0  0
 14 17  1  0  0  0  0
 11 12  1  0  0  0  0
 11 13  1  0  0  0  0
 11 14  1  0  0  0  0
  9 10  1  0  0  0  0
  9 11  1  0  0  0  0
  9 20  1  0  0  0  0
  7  8  1  0  0  0  0
  7  9  1  0  0  0  0
 24 25  1  0  0  0  0
 24 26  1  0  0  0  0
 24 27  1  0  0  0  0
 22 23  1  0  0  0  0
 22 24  1  0  0  0  0
M  CHG  1  18  -1
M  END
$$$$
default_name
  -OEChem-02102213163D

 27 26  0     1  0  0  0  0  0999 V2000
   -3.2406   -3.5400    1.2326 H   0  0  0  0  0  0  0  0  0  0  0  0
   -3.1436   -2.6190    0.6606 C   0  0  0  0  0  0  0  0  0  0  0  0
   -3.8786   -1.8920    0.9996 H   0  0  0  0  0  0  0  0  0  0  0  0
   -3.2846   -2.8280   -0.3984 H   0  0  0  0  0  0  0  0  0  0  0  0
   -1.7586   -2.0580    0.8686 C   0  0  0  0  0  0  0  0  0  0  0  0
   -0.9666   -2.6340    1.6026 O   0  0  0  0  0  0  0  0  0  0  0  0
   -1.4866   -0.9220    0.2366 N   0  0  0  0  0  0  0  0  0  0  0  0
   -2.2166   -0.4790   -0.2994 H   0  0  0  0  0  0  0  0  0  0  0  0
   -0.1956   -0.2250    0.2596 C   0  0  1  0  0  0  0  0  0  0  0  0
    0.5755   -0.9013   -0.1105 H   0  0  0  0  0  0  0  0  0  0  0  0
   -0.2553    0.9811   -0.6992 C   0  0  0  0  0  0  0  0  0  0  0  0
    0.7667    1.3180   -0.8798 H   0  0  0  0  0  0  0  0  0  0  0  0
   -0.6869    0.6645   -1.6498 H   0  0  0  0  0  0  0  0  0  0  0  0
   -1.0678    2.1638   -0.1453 C   0  0  0  0  0  0  0  0  0  0  0  0
   -0.3970    2.8361    0.3951 H   0  0  0  0  0  0  0  0  0  0  0  0
   -1.4896    2.7154   -0.9896 H   0  0  0  0  0  0  0  0  0  0  0  0
   -2.2020    1.7364    0.7980 C   0  0  0  0  0  0  0  0  0  0  0  0
   -2.4447    0.5146    0.9199 O   0  5  0  0  0  0  0  0  0  0  0  0
   -2.7990    2.6511    1.4080 O   0  0  0  0  0  0  0  0  0  0  0  0
    0.1881    0.1678    1.7015 C   0  0  0  0  0  0  0  0  0  0  0  0
    1.3379    0.0002    2.1133 O   0  0  0  0  0  0  0  0  0  0  0  0
   -0.7666    0.7145    2.4656 N   0  0  0  0  0  0  0  0  0  0  0  0
   -1.6971    0.7705    2.0790 H   0  0  0  0  0  0  0  0  0  0  0  0
   -0.5716    1.1232    3.8542 C   0  0  0  0  0  0  0  0  0  0  0  0
    0.3083    1.7643    3.9293 H   0  0  0  0  0  0  0  0  0  0  0  0
   -1.4485    1.6640    4.2131 H   0  0  0  0  0  0  0  0  0  0  0  0
   -0.4137    0.2381    4.4736 H   0  0  0  0  0  0  0  0  0  0  0  0
  5  6  2  0  0  0  0
  5  7  1  0  0  0  0
  2  3  1  0  0  0  0
  2  4  1  0  0  0  0
  2  5  1  0  0  0  0
  1  2  1  0  0  0  0
 20 21  2  0  0  0  0
 20 22  1  0  0  0  0
 17 18  1  0  0  0  0
 17 19  2  0  0  0  0
 14 15  1  0  0  0  0
 14 16  1  0  0  0  0
 14 17  1  0  0  0  0
 11 12  1  0  0  0  0
 11 13  1  0  0  0  0
 11 14  1  0  0  0  0
  9 10  1  0  0  0  0
  9 11  1  0  0  0  0
  9 20  1  0  0  0  0
  7  8  1  0  0  0  0
  7  9  1  0  0  0  0
 24 25  1  0  0  0  0
 24 26  1  0  0  0  0
 24 27  1  0  0  0  0
 22 23  1  0  0  0  0
 22 24  1  0  0  0  0
M  CHG  1  18  -1
M  END
$$$$
default_name
  -OEChem-02102213163D

 27 26  0     1  0  0  0  0  0999 V2000
   -3.2406   -3.5400    1.2326 H   0  0  0  0  0  0  0  0  0  0  0  0
   -3.1436   -2.6190    0.6606 C   0  0  0  0  0  0  0  0  0  0  0  0
   -3.8786   -1.8920    0.9996 H   0  0  0  0  0  0  0  0  0  0  0  0
   -3.2846   -2.8280   -0.3984 H   0  0  0  0  0  0  0  0  0  0  0  0
   -1.7586   -2.0580    0.8686 C   0  0  0  0  0  0  0  0  0  0  0  0
   -0.9666   -2.6340    1.6026 O   0  0  0  0  0  0  0  0  0  0  0  0
   -1.4866   -0.9220    0.2366 N   0  0  0  0  0  0  0  0  0  0  0  0
   -2.2166   -0.4790   -0.2994 H   0  0  0  0  0  0  0  0  0  0  0  0
   -0.1956   -0.2250    0.2596 C   0  0  1  0  0  0  0  0  0  0  0  0
    0.5755   -0.9013   -0.1105 H   0  0  0  0  0  0  0  0  0  0  0  0
   -0.2553    0.9811   -0.6992 C   0  0  0  0  0  0  0  0  0  0  0  0
    0.7667    1.3180   -0.8798 H   0  0  0  0  0  0  0  0  0  0  0  0
   -0.6869    0.6645   -1.6498 H   0  0  0  0  0  0  0  0  0  0  0  0
   -1.0678    2.1638   -0.1453 C   0  0  0  0  0  0  0  0  0  0  0  0
   -0.3814    2.9589    0.1556 H   0  0  0  0  0  0  0  0  0  0  0  0
   -1.7009    2.5509   -0.9481 H   0  0  0  0  0  0  0  0  0  0  0  0
   -1.9468    1.7902    1.0575 C   0  0  0  0  0  0  0  0  0  0  0  0
   -2.0292    0.5840    1.3812 O   0  5  0  0  0  0  0  0  0  0  0  0
   -2.5096    2.7340    1.6557 O   0  0  0  0  0  0  0  0  0  0  0  0
    0.1881    0.1678    1.7015 C   0  0  0  0  0  0  0  0  0  0  0  0
    1.3379    0.0002    2.1133 O   0  0  0  0  0  0  0  0  0  0  0  0
   -0.7666    0.7145    2.4656 N   0  0  0  0  0  0  0  0  0  0  0  0
   -1.6971    0.7705    2.0790 H   0  0  0  0  0  0  0  0  0  0  0  0
   -0.5716    1.1232    3.8542 C   0  0  0  0  0  0  0  0  0  0  0  0
    0.3083    1.7643    3.9293 H   0  0  0  0  0  0  0  0  0  0  0  0
   -1.4485    1.6640    4.2131 H   0  0  0  0  0  0  0  0  0  0  0  0
   -0.4137    0.2381    4.4736 H   0  0  0  0  0  0  0  0  0  0  0  0
  5  6  2  0  0  0  0
  5  7  1  0  0  0  0
  2  3  1  0  0  0  0
  2  4  1  0  0  0  0
  2  5  1  0  0  0  0
  1  2  1  0  0  0  0
 20 21  2  0  0  0  0
 20 22  1  0  0  0  0
 17 18  1  0  0  0  0
 17 19  2  0  0  0  0
 14 15  1  0  0  0  0
 14 16  1  0  0  0  0
 14 17  1  0  0  0  0
 11 12  1  0  0  0  0
 11 13  1  0  0  0  0
 11 14  1  0  0  0  0
  9 10  1  0  0  0  0
  9 11  1  0  0  0  0
  9 20  1  0  0  0  0
  7  8  1  0  0  0  0
  7  9  1  0  0  0  0
 24 25  1  0  0  0  0
 24 26  1  0  0  0  0
 24 27  1  0  0  0  0
 22 23  1  0  0  0  0
 22 24  1  0  0  0  0
M  CHG  1  18  -1
M  END
$$$$
default_name
  -OEChem-02102213163D

 27 26  0     1  0  0  0  0  0999 V2000
   -3.2406   -3.5400    1.2326 H   0  0  0  0  0  0  0  0  0  0  0  0
   -3.1436   -2.6190    0.6606 C   0  0  0  0  0  0  0  0  0  0  0  0
   -3.8786   -1.8920    0.9996 H   0  0  0  0  0  0  0  0  0  0  0  0
   -3.2846   -2.8280   -0.3984 H   0  0  0  0  0  0  0  0  0  0  0  0
   -1.7586   -2.0580    0.8686 C   0  0  0  0  0  0  0  0  0  0  0  0
   -0.9666   -2.6340    1.6026 O   0  0  0  0  0  0  0  0  0  0  0  0
   -1.4866   -0.9220    0.2366 N   0  0  0  0  0  0  0  0  0  0  0  0
   -2.2166   -0.4790   -0.2994 H   0  0  0  0  0  0  0  0  0  0  0  0
   -0.1956   -0.2250    0.2596 C   0  0  1  0  0  0  0  0  0  0  0  0
    0.5755   -0.9013   -0.1105 H   0  0  0  0  0  0  0  0  0  0  0  0
   -0.2553    0.9811   -0.6992 C   0  0  0  0  0  0  0  0  0  0  0  0
    0.7667    1.3180   -0.8798 H   0  0  0  0  0  0  0  0  0  0  0  0
   -0.6869    0.6645   -1.6498 H   0  0  0  0  0  0  0  0  0  0  0  0
   -1.0678    2.1638   -0.1453 C   0  0  0  0  0  0  0  0  0  0  0  0
   -0.4255    3.0463   -0.0955 H   0  0  0  0  0  0  0  0  0  0  0  0
   -1.8813    2.3779   -0.8434 H   0  0  0  0  0  0  0  0  0  0  0  0
   -1.6536    1.9014    1.2500 C   0  0  0  0  0  0  0  0  0  0  0  0
   -1.5426    0.7528    1.7345 O   0  5  0  0  0  0  0  0  0  0  0  0
   -2.1885    2.8748    1.8260 O   0  0  0  0  0  0  0  0  0  0  0  0
    0.1881    0.1678    1.7015 C   0  0  0  0  0  0  0  0  0  0  0  0
    1.3379    0.0002    2.1133 O   0  0  0  0  0  0  0  0  0  0  0  0
   -0.7666    0.7145    2.4656 N   0  0  0  0  0  0  0  0  0  0  0  0
   -1.6971    0.7705    2.0790 H   0  0  0  0  0  0  0  0  0  0  0  0
   -0.5716    1.1232    3.8542 C   0  0  0  0  0  0  0  0  0  0  0  0
    0.3083    1.7643    3.9293 H   0  0  0  0  0  0  0  0  0  0  0  0
   -1.4485    1.6640    4.2131 H   0  0  0  0  0  0  0  0  0  0  0  0
   -0.4137    0.2381    4.4736 H   0  0  0  0  0  0  0  0  0  0  0  0
  5  6  2  0  0  0  0
  5  7  1  0  0  0  0
  2  3  1  0  0  0  0
  2  4  1  0  0  0  0
  2  5  1  0  0  0  0
  1  2  1  0  0  0  0
 20 21  2  0  0  0  0
 20 22  1  0  0  0  0
 17 18  1  0  0  0  0
 17 19  2  0  0  0  0
 14 15  1  0  0  0  0
 14 16  1  0  0  0  0
 14 17  1  0  0  0  0
 11 12  1  0  0  0  0
 11 13  1  0  0  0  0
 11 14  1  0  0  0  0
  9 10  1  0  0  0  0
  9 11  1  0  0  0  0
  9 20  1  0  0  0  0
  7  8  1  0  0  0  0
  7  9  1  0  0  0  0
 24 25  1  0  0  0  0
 24 26  1  0  0  0  0
 24 27  1  0  0  0  0
 22 23  1  0  0  0  0
 22 24  1  0  0  0  0
M  CHG  1  18  -1
M  END
$$$$
default_name
  -OEChem-02102213163D

 27 26  0     1  0  0  0  0  0999 V2000
   -3.2406   -3.5400    1.2326 H   0  0  0  0  0  0  0  0  0  0  0  0
   -3.1436   -2.6190    0.6606 C   0  0  0  0  0  0  0  0  0  0  0  0
   -3.8786   -1.8920    0.9996 H   0  0  0  0  0  0  0  0  0  0  0  0
   -3.2846   -2.8280   -0.3984 H   0  0  0  0  0  0  0  0  0  0  0  0
   -1.7586   -2.0580    0.8686 C   0  0  0  0  0  0  0  0  0  0  0  0
   -0.9666   -2.6340    1.6026 O   0  0  0  0  0  0  0  0  0  0  0  0
   -1.4866   -0.9220    0.2366 N   0  0  0  0  0  0  0  0  0  0  0  0
   -2.2166   -0.4790   -0.2994 H   0  0  0  0  0  0  0  0  0  0  0  0
   -0.1956   -0.2250    0.2596 C   0  0  1  0  0  0  0  0  0  0  0  0
    0.5755   -0.9013   -0.1105 H   0  0  0  0  0  0  0  0  0  0  0  0
   -0.2553    0.9811   -0.6992 C   0  0  0  0  0  0  0  0  0  0  0  0
    0.7667    1.3180   -0.8798 H   0  0  0  0  0  0  0  0  0  0  0  0
   -0.6869    0.6645   -1.6498 H   0  0  0  0  0  0  0  0  0  0  0  0
   -1.0678    2.1638   -0.1453 C   0  0  0  0  0  0  0  0  0  0  0  0
   -0.5262    3.0923   -0.3413 H   0  0  0  0  0  0  0  0  0  0  0  0
   -2.0187    2.2083   -0.6828 H   0  0  0  0  0  0  0  0  0  0  0  0
   -1.3425    2.0625    1.3624 C   0  0  0  0  0  0  0  0  0  0  0  0
   -1.0179    1.0095    1.9560 O   0  5  0  0  0  0  0  0  0  0  0  0
   -1.8575    3.0641    1.9073 O   0  0  0  0  0  0  0  0  0  0  0  0
    0.1881    0.1678    1.7015 C   0  0  0  0  0  0  0  0  0  0  0  0
    1.3379    0.0002    2.1133 O   0  0  0  0  0  0  0  0  0  0  0  0
   -0.7666    0.7145    2.4656 N   0  0  0  0  0  0  0  0  0  0  0  0
   -1.6971    0.7705    2.0790 H   0  0  0  0  0  0  0  0  0  0  0  0
   -0.5716    1.1232    3.8542 C   0  0  0  0  0  0  0  0  0  0  0  0
    0.3083    1.7643    3.9293 H   0  0  0  0  0  0  0  0  0  0  0  0
   -1.4485    1.6640    4.2131 H   0  0  0  0  0  0  0  0  0  0  0  0
   -0.4137    0.2381    4.4736 H   0  0  0  0  0  0  0  0  0  0  0  0
  5  6  2  0  0  0  0
  5  7  1  0  0  0  0
  2  3  1  0  0  0  0
  2  4  1  0  0  0  0
  2  5  1  0  0  0  0
  1  2  1  0  0  0  0
 20 21  2  0  0  0  0
 20 22  1  0  0  0  0
 17 18  1  0  0  0  0
 17 19  2  0  0  0  0
 14 15  1  0  0  0  0
 14 16  1  0  0  0  0
 14 17  1  0  0  0  0
 11 12  1  0  0  0  0
 11 13  1  0  0  0  0
 11 14  1  0  0  0  0
  9 10  1  0  0  0  0
  9 11  1  0  0  0  0
  9 20  1  0  0  0  0
  7  8  1  0  0  0  0
  7  9  1  0  0  0  0
 24 25  1  0  0  0  0
 24 26  1  0  0  0  0
 24 27  1  0  0  0  0
 22 23  1  0  0  0  0
 22 24  1  0  0  0  0
M  CHG  1  18  -1
M  END
$$$$
default_name
  -OEChem-02102213163D

 27 26  0     1  0  0  0  0  0999 V2000
   -3.2406   -3.5400    1.2326 H   0  0  0  0  0  0  0  0  0  0  0  0
   -3.1436   -2.6190    0.6606 C   0  0  0  0  0  0  0  0  0  0  0  0
   -3.8786   -1.8920    0.9996 H   0  0  0  0  0  0  0  0  0  0  0  0
   -3.2846   -2.8280   -0.3984 H   0  0  0  0  0  0  0  0  0  0  0  0
   -1.7586   -2.0580    0.8686 C   0  0  0  0  0  0  0  0  0  0  0  0
   -0.9666   -2.6340    1.6026 O   0  0  0  0  0  0  0  0  0  0  0  0
   -1.4866   -0.9220    0.2366 N   0  0  0  0  0  0  0  0  0  0  0  0
   -2.2166   -0.4790   -0.2994 H   0  0  0  0  0  0  0  0  0  0  0  0
   -0.1956   -0.2250    0.2596 C   0  0  1  0  0  0  0  0  0  0  0  0
    0.5755   -0.9013   -0.1105 H   0  0  0  0  0  0  0  0  0  0  0  0
   -0.2553    0.9811   -0.6992 C   0  0  0  0  0  0  0  0  0  0  0  0
    0.7667    1.3180   -0.8798 H   0  0  0  0  0  0  0  0  0  0  0  0
   -0.6869    0.6645   -1.6498 H   0  0  0  0  0  0  0  0  0  0  0  0
   -1.0678    2.1638   -0.1453 C   0  0  0  0  0  0  0  0  0  0  0  0
   -0.6766    3.0937   -0.5650 H   0  0  0  0  0  0  0  0  0  0  0  0
   -2.1036    2.0537   -0.4771 H   0  0  0  0  0  0  0  0  0  0  0  0
   -1.0346    2.2625    1.3870 C   0  0  0  0  0  0  0  0  0  0  0  0
   -0.4910    1.3366    2.0303 O   0  5  0  0  0  0  0  0  0  0  0  0
   -1.5393    3.2889    1.8941 O   0  0  0  0  0  0  0  0  0  0  0  0
    0.1881    0.1678    1.7015 C   0  0  0  0  0  0  0  0  0  0  0  0
    1.3379    0.0002    2.1133 O   0  0  0  0  0  0  0  0  0  0  0  0
   -0.7666    0.7145    2.4656 N   0  0  0  0  0  0  0  0  0  0  0  0
   -1.6971    0.7705    2.0790 H   0  0  0  0  0  0  0  0  0  0  0  0
   -0.5716    1.1232    3.8542 C   0  0  0  0  0  0  0  0  0  0  0  0
    0.3083    1.7643    3.9293 H   0  0  0  0  0  0  0  0  0  0  0  0
   -1.4485    1.6640    4.2131 H   0  0  0  0  0  0  0  0  0  0  0  0
   -0.4137    0.2381    4.4736 H   0  0  0  0  0  0  0  0  0  0  0  0
  5  6  2  0  0  0  0
  5  7  1  0  0  0  0
  2  3  1  0  0  0  0
  2  4  1  0  0  0  0
  2  5  1  0  0  0  0
  1  2  1  0  0  0  0
 20 21  2  0  0  0  0
 20 22  1  0  0  0  0
 17 18  1  0  0  0  0
 17 19  2  0  0  0  0
 14 15  1  0  0  0  0
 14 16  1  0  0  0  0
 14 17  1  0  0  0  0
 11 12  1  0  0  0  0
 11 13  1  0  0  0  0
 11 14  1  0  0  0  0
  9 10  1  0  0  0  0
  9 11  1  0  0  0  0
  9 20  1  0  0  0  0
  7  8  1  0  0  0  0
  7  9  1  0  0  0  0
 24 25  1  0  0  0  0
 24 26  1  0  0  0  0
 24 27  1  0  0  0  0
 22 23  1  0  0  0  0
 22 24  1  0  0  0  0
M  CHG  1  18  -1
M  END
$$$$
default_name
  -OEChem-02102213163D

 27 26  0     1  0  0  0  0  0999 V2000
   -3.2406   -3.5400    1.2326 H   0  0  0  0  0  0  0  0  0  0  0  0
   -3.1436   -2.6190    0.6606 C   0  0  0  0  0  0  0  0  0  0  0  0
   -3.8786   -1.8920    0.9996 H   0  0  0  0  0  0  0  0  0  0  0  0
   -3.2846   -2.8280   -0.3984 H   0  0  0  0  0  0  0  0  0  0  0  0
   -1.7586   -2.0580    0.8686 C   0  0  0  0  0  0  0  0  0  0  0  0
   -0.9666   -2.6340    1.6026 O   0  0  0  0  0  0  0  0  0  0  0  0
   -1.4866   -0.9220    0.2366 N   0  0  0  0  0  0  0  0  0  0  0  0
   -2.2166   -0.4790   -0.2994 H   0  0  0  0  0  0  0  0  0  0  0  0
   -0.1956   -0.2250    0.2596 C   0  0  1  0  0  0  0  0  0  0  0  0
    0.5755   -0.9013   -0.1105 H   0  0  0  0  0  0  0  0  0  0  0  0
   -0.2553    0.9811   -0.6992 C   0  0  0  0  0  0  0  0  0  0  0  0
    0.7667    1.3180   -0.8798 H   0  0  0  0  0  0  0  0  0  0  0  0
   -0.6869    0.6645   -1.6498 H   0  0  0  0  0  0  0  0  0  0  0  0
   -1.0678    2.1638   -0.1453 C   0  0  0  0  0  0  0  0  0  0  0  0
   -0.8666    3.0504   -0.7513 H   0  0  0  0  0  0  0  0  0  0  0  0
   -2.1302    1.9245   -0.2404 H   0  0  0  0  0  0  0  0  0  0  0  0
   -0.7510    2.4877    1.3222 C   0  0  0  0  0  0  0  0  0  0  0  0
    0.0022    1.7119    1.9526 O   0  5  0  0  0  0  0  0  0  0  0  0
   -1.2555    3.5339    1.7873 O   0  0  0  0  0  0  0  0  0  0  0  0
    0.1881    0.1678    1.7015 C   0  0  0  0  0  0  0  0  0  0  0  0
    1.3379    0.0002    2.1133 O   0  0  0  0  0  0  0  0  0  0  0  0
   -0.7666    0.7145    2.4656 N   0  0  0  0  0  0  0  0  0  0  0  0
   -1.6971    0.7705    2.0790 H   0  0  0  0  0  0  0  0  0  0  0  0
   -0.5716    1.1232    3.8542 C   0  0  0  0  0  0  0  0  0  0  0  0
    0.3083    1.7643    3.9293 H   0  0  0  0  0  0  0  0  0  0  0  0
   -1.4485    1.6640    4.2131 H   0  0  0  0  0  0  0  0  0  0  0  0
   -0.4137    0.2381    4.4736 H   0  0  0  0  0  0  0  0  0  0  0  0
  5  6  2  0  0  0  0
  5  7  1  0  0  0  0
  2  3  1  0  0  0  0
  2  4  1  0  0  0  0
  2  5  1  0  0  0  0
  1  2  1  0  0  0  0
 20 21  2  0  0  0  0
 20 22  1  0  0  0  0
 17 18  1  0  0  0  0
 17 19  2  0  0  0  0
 14 15  1  0  0  0  0
 14 16  1  0  0  0  0
 14 17  1  0  0  0  0
 11 12  1  0  0  0  0
 11 13  1  0  0  0  0
 11 14  1  0  0  0  0
  9 10  1  0  0  0  0
  9 11  1  0  0  0  0
  9 20  1  0  0  0  0
  7  8  1  0  0  0  0
  7  9  1  0  0  0  0
 24 25  1  0  0  0  0
 24 26  1  0  0  0  0
 24 27  1  0  0  0  0
 22 23  1  0  0  0  0
 22 24  1  0  0  0  0
M  CHG  1  18  -1
M  END
$$$$
default_name
  -OEChem-02102213163D

 27 26  0     1  0  0  0  0  0999 V2000
   -3.2406   -3.5400    1.2326 H   0  0  0  0  0  0  0  0  0  0  0  0
   -3.1436   -2.6190    0.6606 C   0  0  0  0  0  0  0  0  0  0  0  0
   -3.8786   -1.8920    0.9996 H   0  0  0  0  0  0  0  0  0  0  0  0
   -3.2846   -2.8280   -0.3984 H   0  0  0  0  0  0  0  0  0  0  0  0
   -1.7586   -2.0580    0.8686 C   0  0  0  0  0  0  0  0  0  0  0  0
   -0.9666   -2.6340    1.6026 O   0  0  0  0  0  0  0  0  0  0  0  0
   -1.4866   -0.9220    0.2366 N   0  0  0  0  0  0  0  0  0  0  0  0
   -2.2166   -0.4790   -0.2994 H   0  0  0  0  0  0  0  0  0  0  0  0
   -0.1956   -0.2250    0.2596 C   0  0  1  0  0  0  0  0  0  0  0  0
    0.5755   -0.9013   -0.1105 H   0  0  0  0  0  0  0  0  0  0  0  0
   -0.2553    0.9811   -0.6992 C   0  0  0  0  0  0  0  0  0  0  0  0
    0.7667    1.3180   -0.8798 H   0  0  0  0  0  0  0  0  0  0  0  0
   -0.6869    0.6645   -1.6498 H   0  0  0  0  0  0  0  0  0  0  0  0
   -1.0678    2.1638   -0.1453 C   0  0  0  0  0  0  0  0  0  0  0  0
   -1.0831    2.9655   -0.8875 H   0  0  0  0  0  0  0  0  0  0  0  0
   -2.0968    1.8296    0.0112 H   0  0  0  0  0  0  0  0  0  0  0  0
   -0.5109    2.7228    1.1724 C   0  0  0  0  0  0  0  0  0  0  0  0
    0.4282    2.1098    1.7280 O   0  5  0  0  0  0  0  0  0  0  0  0
   -1.0255    3.7823    1.5942 O   0  0  0  0  0  0  0  0  0  0  0  0
    0.1881    0.1678    1.7015 C   0  0  0  0  0  0  0  0  0  0  0  0
    1.3379    0.0002    2.1133 O   0  0  0  0  0  0  0  0  0  0  0  0
   -0.7666    0.7145    2.4656 N   0  0  0  0  0  0  0  0  0  0  0  0
   -1.6971    0.7705    2.0790 H   0  0  0  0  0  0  0  0  0  0  0  0
   -0.5716    1.1232    3.8542 C   0  0  0  0  0  0  0  0  0  0  0  0
    0.3083    1.7643    3.9293 H   0  0  0  0  0  0  0  0  0  0  0  0
   -1.4485    1.6640    4.2131 H   0  0  0  0  0  0  0  0  0  0  0  0
   -0.4137    0.2381    4.4736 H   0  0  0  0  0  0  0  0  0  0  0  0
  5  6  2  0  0  0  0
  5  7  1  0  0  0  0
  2  3  1  0  0  0  0
  2  4  1  0  0  0  0
  2  5  1  0  0  0  0
  1  2  1  0  0  0  0
 20 21  2  0  0  0  0
 20 22  1  0  0  0  0
 17 18  1  0  0  0  0
 17 19  2  0  0  0  0
 14 15  1  0  0  0  0
 14 16  1  0  0  0  0
 14 17  1  0  0  0  0
 11 12  1  0  0  0  0
 11 13  1  0  0  0  0
 11 14  1  0  0  0  0
  9 10  1  0  0  0  0
  9 11  1  0  0  0  0
  9 20  1  0  0  0  0
  7  8  1  0  0  0  0
  7  9  1  0  0  0  0
 24 25  1  0  0  0  0
 24 26  1  0  0  0  0
 24 27  1  0  0  0  0
 22 23  1  0  0  0  0
 22 24  1  0  0  0  0
M  CHG  1  18  -1
M  END
$$$$
default_name
  -OEChem-02102213163D

 27 26  0     1  0  0  0  0  0999 V2000
   -3.2406   -3.5400    1.2326 H   0  0  0  0  0  0  0  0  0  0  0  0
   -3.1436   -2.6190    0.6606 C   0  0  0  0  0  0  0  0  0  0  0  0
   -3.8786   -1.8920    0.9996 H   0  0  0  0  0  0  0  0  0  0  0  0
   -3.2846   -2.8280   -0.3984 H   0  0  0  0  0  0  0  0  0  0  0  0
   -1.7586   -2.0580    0.8686 C   0  0  0  0  0  0  0  0  0  0  0  0
   -0.9666   -2.6340    1.6026 O   0  0  0  0  0  0  0  0  0  0  0  0
   -1.4866   -0.9220    0.2366 N   0  0  0  0  0  0  0  0  0  0  0  0
   -2.2166   -0.4790   -0.2994 H   0  0  0  0  0  0  0  0  0  0  0  0
   -0.1956   -0.2250    0.2596 C   0  0  1  0  0  0  0  0  0  0  0  0
    0.5755   -0.9013   -0.1105 H   0  0  0  0  0  0  0  0  0  0  0  0
   -0.2553    0.9811   -0.6992 C   0  0  0  0  0  0  0  0  0  0  0  0
    0.7667    1.3180   -0.8798 H   0  0  0  0  0  0  0  0  0  0  0  0
   -0.6869    0.6645   -1.6498 H   0  0  0  0  0  0  0  0  0  0  0  0
   -1.0678    2.1638   -0.1453 C   0  0  0  0  0  0  0  0  0  0  0  0
   -1.3114    2.8446   -0.9644 H   0  0  0  0  0  0  0  0  0  0  0  0
   -2.0056    1.7755    0.2606 H   0  0  0  0  0  0  0  0  0  0  0  0
   -0.3307    2.9518    0.9477 C   0  0  0  0  0  0  0  0  0  0  0  0
    0.7579    2.5030    1.3719 O   0  5  0  0  0  0  0  0  0  0  0  0
   -0.8649    4.0174    1.3279 O   0  0  0  0  0  0  0  0  0  0  0  0
    0.1881    0.1678    1.7015 C   0  0  0  0  0  0  0  0  0  0  0  0
    1.3379    0.0002    2.1133 O   0  0  0  0  0  0  0  0  0  0  0  0
   -0.7666    0.7145    2.4656 N   0  0  0  0  0  0  0  0  0  0  0  0
   -1.6971    0.7705    2.0790 H   0  0  0  0  0  0  0  0  0  0  0  0
   -0.5716    1.1232    3.8542 C   0  0  0  0  0  0  0  0  0  0  0  0
    0.3083    1.7643    3.9293 H   0  0  0  0  0  0  0  0  0  0  0  0
   -1.4485    1.6640    4.2131 H   0  0  0  0  0  0  0  0  0  0  0  0
   -0.4137    0.2381    4.4736 H   0  0  0  0  0  0  0  0  0  0  0  0
  5  6  2  0  0  0  0
  5  7  1  0  0  0  0
  2  3  1  0  0  0  0
  2  4  1  0  0  0  0
  2  5  1  0  0  0  0
  1  2  1  0  0  0  0
 20 21  2  0  0  0  0
 20 22  1  0  0  0  0
 17 18  1  0  0  0  0
 17 19  2  0  0  0  0
 14 15  1  0  0  0  0
 14 16  1  0  0  0  0
 14 17  1  0  0  0  0
 11 12  1  0  0  0  0
 11 13  1  0  0  0  0
 11 14  1  0  0  0  0
  9 10  1  0  0  0  0
  9 11  1  0  0  0  0
  9 20  1  0  0  0  0
  7  8  1  0  0  0  0
  7  9  1  0  0  0  0
 24 25  1  0  0  0  0
 24 26  1  0  0  0  0
 24 27  1  0  0  0  0
 22 23  1  0  0  0  0
 22 24  1  0  0  0  0
M  CHG  1  18  -1
M  END
$$$$
default_name
  -OEChem-02102213163D

 27 26  0     1  0  0  0  0  0999 V2000
   -3.2406   -3.5400    1.2326 H   0  0  0  0  0  0  0  0  0  0  0  0
   -3.1436   -2.6190    0.6606 C   0  0  0  0  0  0  0  0  0  0  0  0
   -3.8786   -1.8920    0.9996 H   0  0  0  0  0  0  0  0  0  0  0  0
   -3.2846   -2.8280   -0.3984 H   0  0  0  0  0  0  0  0  0  0  0  0
   -1.7586   -2.0580    0.8686 C   0  0  0  0  0  0  0  0  0  0  0  0
   -0.9666   -2.6340    1.6026 O   0  0  0  0  0  0  0  0  0  0  0  0
   -1.4866   -0.9220    0.2366 N   0  0  0  0  0  0  0  0  0  0  0  0
   -2.2166   -0.4790   -0.2994 H   0  0  0  0  0  0  0  0  0  0  0  0
   -0.1956   -0.2250    0.2596 C   0  0  1  0  0  0  0  0  0  0  0  0
    0.5755   -0.9013   -0.1105 H   0  0  0  0  0  0  0  0  0  0  0  0
   -0.2553    0.9811   -0.6992 C   0  0  0  0  0  0  0  0  0  0  0  0
    0.7667    1.3180   -0.8798 H   0  0  0  0  0  0  0  0  0  0  0  0
   -0.6869    0.6645   -1.6498 H   0  0  0  0  0  0  0  0  0  0  0  0
   -1.0678    2.1638   -0.1453 C   0  0  0  0  0  0  0  0  0  0  0  0
   -1.5361    2.6961   -0.9767 H   0  0  0  0  0  0  0  0  0  0  0  0
   -1.8629    1.7658    0.4907 H   0  0  0  0  0  0  0  0  0  0  0  0
   -0.2228    3.1591    0.6635 C   0  0  0  0  0  0  0  0  0  0  0  0
    0.9689    2.8650    0.9086 O   0  5  0  0  0  0  0  0  0  0  0  0
   -0.7846    4.2230    1.0066 O   0  0  0  0  0  0  0  0  0  0  0  0
    0.1881    0.1678    1.7015 C   0  0  0  0  0  0  0  0  0  0  0  0
    1.3379    0.0002    2.1133 O   0  0  0  0  0  0  0  0  0  0  0  0
   -0.7666    0.7145    2.4656 N   0  0  0  0  0  0  0  0  0  0  0  0
   -1.6971    0.7705    2.0790 H   0  0  0  0  0  0  0  0  0  0  0  0
   -0.5716    1.1232    3.8542 C   0  0  0  0  0  0  0  0  0  0  0  0
    0.3083    1.7643    3.9293 H   0  0  0  0  0  0  0  0  0  0  0  0
   -1.4485    1.6640    4.2131 H   0  0  0  0  0  0  0  0  0  0  0  0
   -0.4137    0.2381    4.4736 H   0  0  0  0  0  0  0  0  0  0  0  0
  5  6  2  0  0  0  0
  5  7  1  0  0  0  0
  2  3  1  0  0  0  0
  2  4  1  0  0  0  0
  2  5  1  0  0  0  0
  1  2  1  0  0  0  0
 20 21  2  0  0  0  0
 20 22  1  0  0  0  0
 17 18  1  0  0  0  0
 17 19  2  0  0  0  0
 14 15  1  0  0  0  0
 14 16  1  0  0  0  0
 14 17  1  0  0  0  0
 11 12  1  0  0  0  0
 11 13  1  0  0  0  0
 11 14  1  0  0  0  0
  9 10  1  0  0  0  0
  9 11  1  0  0  0  0
  9 20  1  0  0  0  0
  7  8  1  0  0  0  0
  7  9  1  0  0  0  0
 24 25  1  0  0  0  0
 24 26  1  0  0  0  0
 24 27  1  0  0  0  0
 22 23  1  0  0  0  0
 22 24  1  0  0  0  0
M  CHG  1  18  -1
M  END
$$$$
default_name
  -OEChem-02102213163D

 27 26  0     1  0  0  0  0  0999 V2000
   -3.2406   -3.5400    1.2326 H   0  0  0  0  0  0  0  0  0  0  0  0
   -3.1436   -2.6190    0.6606 C   0  0  0  0  0  0  0  0  0  0  0  0
   -3.8786   -1.8920    0.9996 H   0  0  0  0  0  0  0  0  0  0  0  0
   -3.2846   -2.8280   -0.3984 H   0  0  0  0  0  0  0  0  0  0  0  0
   -1.7586   -2.0580    0.8686 C   0  0  0  0  0  0  0  0  0  0  0  0
   -0.9666   -2.6340    1.6026 O   0  0  0  0  0  0  0  0  0  0  0  0
   -1.4866   -0.9220    0.2366 N   0  0  0  0  0  0  0  0  0  0  0  0
   -2.2166   -0.4790   -0.2994 H   0  0  0  0  0  0  0  0  0  0  0  0
   -0.1956   -0.2250    0.2596 C   0  0  1  0  0  0  0  0  0  0  0  0
    0.5755   -0.9013   -0.1105 H   0  0  0  0  0  0  0  0  0  0  0  0
   -0.2553    0.9811   -0.6992 C   0  0  0  0  0  0  0  0  0  0  0  0
    0.7667    1.3180   -0.8798 H   0  0  0  0  0  0  0  0  0  0  0  0
   -0.6869    0.6645   -1.6498 H   0  0  0  0  0  0  0  0  0  0  0  0
   -1.0678    2.1638   -0.1453 C   0  0  0  0  0  0  0  0  0  0  0  0
   -1.7416    2.5300   -0.9236 H   0  0  0  0  0  0  0  0  0  0  0  0
   -1.6783    1.8011    0.6859 H   0  0  0  0  0  0  0  0  0  0  0  0
   -0.1943    3.3305    0.3392 C   0  0  0  0  0  0  0  0  0  0  0  0
    1.0467    3.1709    0.3695 O   0  5  0  0  0  0  0  0  0  0  0  0
   -0.7902    4.3851    0.6521 O   0  0  0  0  0  0  0  0  0  0  0  0
    0.1881    0.1678    1.7015 C   0  0  0  0  0  0  0  0  0  0  0  0
    1.3379    0.0002    2.1133 O   0  0  0  0  0  0  0  0  0  0  0  0
   -0.7666    0.7145    2.4656 N   0  0  0  0  0  0  0  0  0  0  0  0
   -1.6971    0.7705    2.0790 H   0  0  0  0  0  0  0  0  0  0  0  0
   -0.5716    1.1232    3.8542 C   0  0  0  0  0  0  0  0  0  0  0  0
    0.3083    1.7643    3.9293 H   0  0  0  0  0  0  0  0  0  0  0  0
   -1.4485    1.6640    4.2131 H   0  0  0  0  0  0  0  0  0  0  0  0
   -0.4137    0.2381    4.4736 H   0  0  0  0  0  0  0  0  0  0  0  0
  5  6  2  0  0  0  0
  5  7  1  0  0  0  0
  2  3  1  0  0  0  0
  2  4  1  0  0  0  0
  2  5  1  0  0  0  0
  1  2  1  0  0  0  0
 20 21  2  0  0  0  0
 20 22  1  0  0  0  0
 17 18  1  0  0  0  0
 17 19  2  0  0  0  0
 14 15  1  0  0  0  0
 14 16  1  0  0  0  0
 14 17  1  0  0  0  0
 11 12  1  0  0  0  0
 11 13  1  0  0  0  0
 11 14  1  0  0  0  0
  9 10  1  0  0  0  0
  9 11  1  0  0  0  0
  9 20  1  0  0  0  0
  7  8  1  0  0  0  0
  7  9  1  0  0  0  0
 24 25  1  0  0  0  0
 24 26  1  0  0  0  0
 24 27  1  0  0  0  0
 22 23  1  0  0  0  0
 22 24  1  0  0  0  0
M  CHG  1  18  -1
M  END
$$$$
default_name
  -OEChem-02102213163D

 27 26  0     1  0  0  0  0  0999 V2000
   -3.2406   -3.5400    1.2326 H   0  0  0  0  0  0  0  0  0  0  0  0
   -3.1436   -2.6190    0.6606 C   0  0  0  0  0  0  0  0  0  0  0  0
   -3.8786   -1.8920    0.9996 H   0  0  0  0  0  0  0  0  0  0  0  0
   -3.2846   -2.8280   -0.3984 H   0  0  0  0  0  0  0  0  0  0  0  0
   -1.7586   -2.0580    0.8686 C   0  0  0  0  0  0  0  0  0  0  0  0
   -0.9666   -2.6340    1.6026 O   0  0  0  0  0  0  0  0  0  0  0  0
   -1.4866   -0.9220    0.2366 N   0  0  0  0  0  0  0  0  0  0  0  0
   -2.2166   -0.4790   -0.2994 H   0  0  0  0  0  0  0  0  0  0  0  0
   -0.1956   -0.2250    0.2596 C   0  0  1  0  0  0  0  0  0  0  0  0
    0.5755   -0.9013   -0.1105 H   0  0  0  0  0  0  0  0  0  0  0  0
   -0.2553    0.9811   -0.6992 C   0  0  0  0  0  0  0  0  0  0  0  0
    0.7667    1.3180   -0.8798 H   0  0  0  0  0  0  0  0  0  0  0  0
   -0.6869    0.6645   -1.6498 H   0  0  0  0  0  0  0  0  0  0  0  0
   -1.0678    2.1638   -0.1453 C   0  0  0  0  0  0  0  0  0  0  0  0
   -1.9141    2.3576   -0.8087 H   0  0  0  0  0  0  0  0  0  0  0  0
   -1.4644    1.8792    0.8329 H   0  0  0  0  0  0  0  0  0  0  0  0
   -0.2474    3.4544   -0.0032 C   0  0  0  0  0  0  0  0  0  0  0  0
    0.9861    3.3999   -0.2084 O   0  5  0  0  0  0  0  0  0  0  0  0
   -0.8813    4.4928    0.2887 O   0  0  0  0  0  0  0  0  0  0  0  0
    0.1881    0.1678    1.7015 C   0  0  0  0  0  0  0  0  0  0  0  0
    1.3379    0.0002    2.1133 O   0  0  0  0  0  0  0  0  0  0  0  0
   -0.7666    0.7145    2.4656 N   0  0  0  0  0  0  0  0  0  0  0  0
   -1.6971    0.7705    2.0790 H   0  0  0  0  0  0  0  0  0  0  0  0
   -0.5716    1.1232    3.8542 C   0  0  0  0  0  0  0  0  0  0  0  0
    0.3083    1.7643    3.9293 H   0  0  0  0  0  0  0  0  0  0  0  0
   -1.4485    1.6640    4.2131 H   0  0  0  0  0  0  0  0  0  0  0  0
   -0.4137    0.2381    4.4736 H   0  0  0  0  0  0  0  0  0  0  0  0
  5  6  2  0  0  0  0
  5  7  1  0  0  0  0
  2  3  1  0  0  0  0
  2  4  1  0  0  0  0
  2  5  1  0  0  0  0
  1  2  1  0  0  0  0
 20 21  2  0  0  0  0
 20 22  1  0  0  0  0
 17 18  1  0  0  0  0
 17 19  2  0  0  0  0
 14 15  1  0  0  0  0
 14 16  1  0  0  0  0
 14 17  1  0  0  0  0
 11 12  1  0  0  0  0
 11 13  1  0  0  0  0
 11 14  1  0  0  0  0
  9 10  1  0  0  0  0
  9 11  1  0  0  0  0
  9 20  1  0  0  0  0
  7  8  1  0  0  0  0
  7  9  1  0  0  0  0
 24 25  1  0  0  0  0
 24 26  1  0  0  0  0
 24 27  1  0  0  0  0
 22 23  1  0  0  0  0
 22 24  1  0  0  0  0
M  CHG  1  18  -1
M  END
$$$$
default_name
  -OEChem-02102213163D

 27 26  0     1  0  0  0  0  0999 V2000
   -3.2406   -3.5400    1.2326 H   0  0  0  0  0  0  0  0  0  0  0  0
   -3.1436   -2.6190    0.6606 C   0  0  0  0  0  0  0  0  0  0  0  0
   -3.8786   -1.8920    0.9996 H   0  0  0  0  0  0  0  0  0  0  0  0
   -3.2846   -2.8280   -0.3984 H   0  0  0  0  0  0  0  0  0  0  0  0
   -1.7586   -2.0580    0.8686 C   0  0  0  0  0  0  0  0  0  0  0  0
   -0.9666   -2.6340    1.6026 O   0  0  0  0  0  0  0  0  0  0  0  0
   -1.4866   -0.9220    0.2366 N   0  0  0  0  0  0  0  0  0  0  0  0
   -2.2166   -0.4790   -0.2994 H   0  0  0  0  0  0  0  0  0  0  0  0
   -0.1956   -0.2250    0.2596 C   0  0  1  0  0  0  0  0  0  0  0  0
    0.5755   -0.9013   -0.1105 H   0  0  0  0  0  0  0  0  0  0  0  0
   -0.2553    0.9811   -0.6992 C   0  0  0  0  0  0  0  0  0  0  0  0
    0.7667    1.3180   -0.8798 H   0  0  0  0  0  0  0  0  0  0  0  0
   -0.6869    0.6645   -1.6498 H   0  0  0  0  0  0  0  0  0  0  0  0
   -1.0678    2.1638   -0.1453 C   0  0  0  0  0  0  0  0  0  0  0  0
   -2.0418    2.1908   -0.6397 H   0  0  0  0  0  0  0  0  0  0  0  0
   -1.2359    1.9947    0.9216 H   0  0  0  0  0  0  0  0  0  0  0  0
   -0.3783    3.5223   -0.3402 C   0  0  0  0  0  0  0  0  0  0  0  0
    0.7911    3.5365   -0.7859 O   0  5  0  0  0  0  0  0  0  0  0  0
   -1.0517    4.5386   -0.0590 O   0  0  0  0  0  0  0  0  0  0  0  0
    0.1881    0.1678    1.7015 C   0  0  0  0  0  0  0  0  0  0  0  0
    1.3379    0.0002    2.1133 O   0  0  0  0  0  0  0  0  0  0  0  0
   -0.7666    0.7145    2.4656 N   0  0  0  0  0  0  0  0  0  0  0  0
   -1.6971    0.7705    2.0790 H   0  0  0  0  0  0  0  0  0  0  0  0
   -0.5716    1.1232    3.8542 C   0  0  0  0  0  0  0  0  0  0  0  0
    0.3083    1.7643    3.9293 H   0  0  0  0  0  0  0  0  0  0  0  0
   -1.4485    1.6640    4.2131 H   0  0  0  0  0  0  0  0  0  0  0  0
   -0.4137    0.2381    4.4736 H   0  0  0  0  0  0  0  0  0  0  0  0
  5  6  2  0  0  0  0
  5  7  1  0  0  0  0
  2  3  1  0  0  0  0
  2  4  1  0  0  0  0
  2  5  1  0  0  0  0
  1  2  1  0  0  0  0
 20 21  2  0  0  0  0
 20 22  1  0  0  0  0
 17 18  1  0  0  0  0
 17 19  2  0  0  0  0
 14 15  1  0  0  0  0
 14 16  1  0  0  0  0
 14 17  1  0  0  0  0
 11 12  1  0  0  0  0
 11 13  1  0  0  0  0
 11 14  1  0  0  0  0
  9 10  1  0  0  0  0
  9 11  1  0  0  0  0
  9 20  1  0  0  0  0
  7  8  1  0  0  0  0
  7  9  1  0  0  0  0
 24 25  1  0  0  0  0
 24 26  1  0  0  0  0
 24 27  1  0  0  0  0
 22 23  1  0  0  0  0
 22 24  1  0  0  0  0
M  CHG  1  18  -1
M  END
$$$$
default_name
  -OEChem-02102213163D

 27 26  0     1  0  0  0  0  0999 V2000
   -3.2406   -3.5400    1.2326 H   0  0  0  0  0  0  0  0  0  0  0  0
   -3.1436   -2.6190    0.6606 C   0  0  0  0  0  0  0  0  0  0  0  0
   -3.8786   -1.8920    0.9996 H   0  0  0  0  0  0  0  0  0  0  0  0
   -3.2846   -2.8280   -0.3984 H   0  0  0  0  0  0  0  0  0  0  0  0
   -1.7586   -2.0580    0.8686 C   0  0  0  0  0  0  0  0  0  0  0  0
   -0.9666   -2.6340    1.6026 O   0  0  0  0  0  0  0  0  0  0  0  0
   -1.4866   -0.9220    0.2366 N   0  0  0  0  0  0  0  0  0  0  0  0
   -2.2166   -0.4790   -0.2994 H   0  0  0  0  0  0  0  0  0  0  0  0
   -0.1956   -0.2250    0.2596 C   0  0  1  0  0  0  0  0  0  0  0  0
    0.5755   -0.9013   -0.1105 H   0  0  0  0  0  0  0  0  0  0  0  0
   -0.2553    0.9811   -0.6992 C   0  0  0  0  0  0  0  0  0  0  0  0
    0.7667    1.3180   -0.8798 H   0  0  0  0  0  0  0  0  0  0  0  0
   -0.6869    0.6645   -1.6498 H   0  0  0  0  0  0  0  0  0  0  0  0
   -1.0678    2.1638   -0.1453 C   0  0  0  0  0  0  0  0  0  0  0  0
   -2.1159    2.0409   -0.4284 H   0  0  0  0  0  0  0  0  0  0  0  0
   -1.0083    2.1396    0.9460 H   0  0  0  0  0  0  0  0  0  0  0  0
   -0.5782    3.5296   -0.6490 C   0  0  0  0  0  0  0  0  0  0  0  0
    0.4752    3.5712   -1.3237 O   0  5  0  0  0  0  0  0  0  0  0  0
   -1.2896    4.5194   -0.3671 O   0  0  0  0  0  0  0  0  0  0  0  0
    0.1881    0.1678    1.7015 C   0  0  0  0  0  0  0  0  0  0  0  0
    1.3379    0.0002    2.1133 O   0  0  0  0  0  0  0  0  0  0  0  0
   -0.7666    0.7145    2.4656 N   0  0  0  0  0  0  0  0  0  0  0  0
   -1.6971    0.7705    2.0790 H   0  0  0  0  0  0  0  0  0  0  0  0
   -0.5716    1.1232    3.8542 C   0  0  0  0  0  0  0  0  0  0  0  0
    0.3083    1.7643    3.9293 H   0  0  0  0  0  0  0  0  0  0  0  0
   -1.4485    1.6640    4.2131 H   0  0  0  0  0  0  0  0  0  0  0  0
   -0.4137    0.2381    4.4736 H   0  0  0  0  0  0  0  0  0  0  0  0
  5  6  2  0  0  0  0
  5  7  1  0  0  0  0
  2  3  1  0  0  0  0
  2  4  1  0  0  0  0
  2  5  1  0  0  0  0
  1  2  1  0  0  0  0
 20 21  2  0  0  0  0
 20 22  1  0  0  0  0
 17 18  1  0  0  0  0
 17 19  2  0  0  0  0
 14 15  1  0  0  0  0
 14 16  1  0  0  0  0
 14 17  1  0  0  0  0
 11 12  1  0  0  0  0
 11 13  1  0  0  0  0
 11 14  1  0  0  0  0
  9 10  1  0  0  0  0
  9 11  1  0  0  0  0
  9 20  1  0  0  0  0
  7  8  1  0  0  0  0
  7  9  1  0  0  0  0
 24 25  1  0  0  0  0
 24 26  1  0  0  0  0
 24 27  1  0  0  0  0
 22 23  1  0  0  0  0
 22 24  1  0  0  0  0
M  CHG  1  18  -1
M  END
$$$$
default_name
  -OEChem-02102213163D

 27 26  0     1  0  0  0  0  0999 V2000
   -3.2406   -3.5400    1.2326 H   0  0  0  0  0  0  0  0  0  0  0  0
   -3.1436   -2.6190    0.6606 C   0  0  0  0  0  0  0  0  0  0  0  0
   -3.8786   -1.8920    0.9996 H   0  0  0  0  0  0  0  0  0  0  0  0
   -3.2846   -2.8280   -0.3984 H   0  0  0  0  0  0  0  0  0  0  0  0
   -1.7586   -2.0580    0.8686 C   0  0  0  0  0  0  0  0  0  0  0  0
   -0.9666   -2.6340    1.6026 O   0  0  0  0  0  0  0  0  0  0  0  0
   -1.4866   -0.9220    0.2366 N   0  0  0  0  0  0  0  0  0  0  0  0
   -2.2166   -0.4790   -0.2994 H   0  0  0  0  0  0  0  0  0  0  0  0
   -0.1956   -0.2250    0.2596 C   0  0  1  0  0  0  0  0  0  0  0  0
    0.5755   -0.9013   -0.1105 H   0  0  0  0  0  0  0  0  0  0  0  0
   -0.2553    0.9811   -0.6992 C   0  0  0  0  0  0  0  0  0  0  0  0
    0.7667    1.3180   -0.8798 H   0  0  0  0  0  0  0  0  0  0  0  0
   -0.6869    0.6645   -1.6498 H   0  0  0  0  0  0  0  0  0  0  0  0
   -1.0678    2.1638   -0.1453 C   0  0  0  0  0  0  0  0  0  0  0  0
   -2.1315    1.9180   -0.1889 H   0  0  0  0  0  0  0  0  0  0  0  0
   -0.7970    2.3042    0.9045 H   0  0  0  0  0  0  0  0  0  0  0  0
   -0.8335    3.4758   -0.9086 C   0  0  0  0  0  0  0  0  0  0  0  0
    0.0597    3.5019   -1.7849 O   0  5  0  0  0  0  0  0  0  0  0  0
   -1.5791    4.4366   -0.6148 O   0  0  0  0  0  0  0  0  0  0  0  0
    0.1881    0.1678    1.7015 C   0  0  0  0  0  0  0  0  0  0  0  0
    1.3379    0.0002    2.1133 O   0  0  0  0  0  0  0  0  0  0  0  0
   -0.7666    0.7145    2.4656 N   0  0  0  0  0  0  0  0  0  0  0  0
   -1.6971    0.7705    2.0790 H   0  0  0  0  0  0  0  0  0  0  0  0
   -0.5716    1.1232    3.8542 C   0  0  0  0  0  0  0  0  0  0  0  0
    0.3083    1.7643    3.9293 H   0  0  0  0  0  0  0  0  0  0  0  0
   -1.4485    1.6640    4.2131 H   0  0  0  0  0  0  0  0  0  0  0  0
   -0.4137    0.2381    4.4736 H   0  0  0  0  0  0  0  0  0  0  0  0
  5  6  2  0  0  0  0
  5  7  1  0  0  0  0
  2  3  1  0  0  0  0
  2  4  1  0  0  0  0
  2  5  1  0  0  0  0
  1  2  1  0  0  0  0
 20 21  2  0  0  0  0
 20 22  1  0  0  0  0
 17 18  1  0  0  0  0
 17 19  2  0  0  0  0
 14 15  1  0  0  0  0
 14 16  1  0  0  0  0
 14 17  1  0  0  0  0
 11 12  1  0  0  0  0
 11 13  1  0  0  0  0
 11 14  1  0  0  0  0
  9 10  1  0  0  0  0
  9 11  1  0  0  0  0
  9 20  1  0  0  0  0
  7  8  1  0  0  0  0
  7  9  1  0  0  0  0
 24 25  1  0  0  0  0
 24 26  1  0  0  0  0
 24 27  1  0  0  0  0
 22 23  1  0  0  0  0
 22 24  1  0  0  0  0
M  CHG  1  18  -1
M  END
$$$$
default_name
  -OEChem-02102213163D

 27 26  0     1  0  0  0  0  0999 V2000
   -3.2406   -3.5400    1.2326 H   0  0  0  0  0  0  0  0  0  0  0  0
   -3.1436   -2.6190    0.6606 C   0  0  0  0  0  0  0  0  0  0  0  0
   -3.8786   -1.8920    0.9996 H   0  0  0  0  0  0  0  0  0  0  0  0
   -3.2846   -2.8280   -0.3984 H   0  0  0  0  0  0  0  0  0  0  0  0
   -1.7586   -2.0580    0.8686 C   0  0  0  0  0  0  0  0  0  0  0  0
   -0.9666   -2.6340    1.6026 O   0  0  0  0  0  0  0  0  0  0  0  0
   -1.4866   -0.9220    0.2366 N   0  0  0  0  0  0  0  0  0  0  0  0
   -2.2166   -0.4790   -0.2994 H   0  0  0  0  0  0  0  0  0  0  0  0
   -0.1956   -0.2250    0.2596 C   0  0  1  0  0  0  0  0  0  0  0  0
    0.5755   -0.9013   -0.1105 H   0  0  0  0  0  0  0  0  0  0  0  0
   -0.2553    0.9811   -0.6992 C   0  0  0  0  0  0  0  0  0  0  0  0
    0.7491    1.1492   -1.0910 H   0  0  0  0  0  0  0  0  0  0  0  0
   -0.9160    0.7448   -1.5345 H   0  0  0  0  0  0  0  0  0  0  0  0
   -0.7384    2.2761   -0.0245 C   0  0  0  0  0  0  0  0  0  0  0  0
   -1.7345    2.1112    0.3932 H   0  0  0  0  0  0  0  0  0  0  0  0
   -0.0604    2.5061    0.8016 H   0  0  0  0  0  0  0  0  0  0  0  0
   -0.7976    3.4768   -0.9804 C   0  0  0  0  0  0  0  0  0  0  0  0
   -0.3375    3.3392   -2.1362 O   0  5  0  0  0  0  0  0  0  0  0  0
   -1.3317    4.5188   -0.5398 O   0  0  0  0  0  0  0  0  0  0  0  0
    0.1881    0.1678    1.7015 C   0  0  0  0  0  0  0  0  0  0  0  0
    1.3379    0.0002    2.1133 O   0  0  0  0  0  0  0  0  0  0  0  0
   -0.7666    0.7145    2.4656 N   0  0  0  0  0  0  0  0  0  0  0  0
   -1.6971    0.7705    2.0790 H   0  0  0  0  0  0  0  0  0  0  0  0
   -0.5716    1.1232    3.8542 C   0  0  0  0  0  0  0  0  0  0  0  0
    0.3083    1.7643    3.9293 H   0  0  0  0  0  0  0  0  0  0  0  0
   -1.4485    1.6640    4.2131 H   0  0  0  0  0  0  0  0  0  0  0  0
   -0.4137    0.2381    4.4736 H   0  0  0  0  0  0  0  0  0  0  0  0
  5  6  2  0  0  0  0
  5  7  1  0  0  0  0
  2  3  1  0  0  0  0
  2  4  1  0  0  0  0
  2  5  1  0  0  0  0
  1  2  1  0  0  0  0
 20 21  2  0  0  0  0
 20 22  1  0  0  0  0
 17 18  1  0  0  0  0
 17 19  2  0  0  0  0
 14 15  1  0  0  0  0
 14 16  1  0  0  0  0
 14 17  1  0  0  0  0
 11 12  1  0  0  0  0
 11 13  1  0  0  0  0
 11 14  1  0  0  0  0
  9 10  1  0  0  0  0
  9 11  1  0  0  0  0
  9 20  1  0  0  0  0
  7  8  1  0  0  0  0
  7  9  1  0  0  0  0
 24 25  1  0  0  0  0
 24 26  1  0  0  0  0
 24 27  1  0  0  0  0
 22 23  1  0  0  0  0
 22 24  1  0  0  0  0
M  CHG  1  18  -1
M  END
$$$$
default_name
  -OEChem-02102213163D

 27 26  0     1  0  0  0  0  0999 V2000
   -3.2406   -3.5400    1.2326 H   0  0  0  0  0  0  0  0  0  0  0  0
   -3.1436   -2.6190    0.6606 C   0  0  0  0  0  0  0  0  0  0  0  0
   -3.8786   -1.8920    0.9996 H   0  0  0  0  0  0  0  0  0  0  0  0
   -3.2846   -2.8280   -0.3984 H   0  0  0  0  0  0  0  0  0  0  0  0
   -1.7586   -2.0580    0.8686 C   0  0  0  0  0  0  0  0  0  0  0  0
   -0.9666   -2.6340    1.6026 O   0  0  0  0  0  0  0  0  0  0  0  0
   -1.4866   -0.9220    0.2366 N   0  0  0  0  0  0  0  0  0  0  0  0
   -2.2166   -0.4790   -0.2994 H   0  0  0  0  0  0  0  0  0  0  0  0
   -0.1956   -0.2250    0.2596 C   0  0  1  0  0  0  0  0  0  0  0  0
    0.5755   -0.9013   -0.1105 H   0  0  0  0  0  0  0  0  0  0  0  0
   -0.2553    0.9811   -0.6992 C   0  0  0  0  0  0  0  0  0  0  0  0
    0.7491    1.1492   -1.0910 H   0  0  0  0  0  0  0  0  0  0  0  0
   -0.9160    0.7448   -1.5345 H   0  0  0  0  0  0  0  0  0  0  0  0
   -0.7384    2.2761   -0.0245 C   0  0  0  0  0  0  0  0  0  0  0  0
   -1.5947    2.0479    0.6148 H   0  0  0  0  0  0  0  0  0  0  0  0
    0.0668    2.6522    0.6121 H   0  0  0  0  0  0  0  0  0  0  0  0
   -1.1467    3.3690   -1.0234 C   0  0  0  0  0  0  0  0  0  0  0  0
   -0.9304    3.1723   -2.2404 O   0  5  0  0  0  0  0  0  0  0  0  0
   -1.6982    4.3862   -0.5477 O   0  0  0  0  0  0  0  0  0  0  0  0
    0.1881    0.1678    1.7015 C   0  0  0  0  0  0  0  0  0  0  0  0
    1.3379    0.0002    2.1133 O   0  0  0  0  0  0  0  0  0  0  0  0
   -0.7666    0.7145    2.4656 N   0  0  0  0  0  0  0  0  0  0  0  0
   -1.6971    0.7705    2.0790 H   0  0  0  0  0  0  0  0  0  0  0  0
   -0.5716    1.1232    3.8542 C   0  0  0  0  0  0  0  0  0  0  0  0
    0.3083    1.7643    3.9293 H   0  0  0  0  0  0  0  0  0  0  0  0
   -1.4485    1.6640    4.2131 H   0  0  0  0  0  0  0  0  0  0  0  0
   -0.4137    0.2381    4.4736 H   0  0  0  0  0  0  0  0  0  0  0  0
  5  6  2  0  0  0  0
  5  7  1  0  0  0  0
  2  3  1  0  0  0  0
  2  4  1  0  0  0  0
  2  5  1  0  0  0  0
  1  2  1  0  0  0  0
 20 21  2  0  0  0  0
 20 22  1  0  0  0  0
 17 18  1  0  0  0  0
 17 19  2  0  0  0  0
 14 15  1  0  0  0  0
 14 16  1  0  0  0  0
 14 17  1  0  0  0  0
 11 12  1  0  0  0  0
 11 13  1  0  0  0  0
 11 14  1  0  0  0  0
  9 10  1  0  0  0  0
  9 11  1  0  0  0  0
  9 20  1  0  0  0  0
  7  8  1  0  0  0  0
  7  9  1  0  0  0  0
 24 25  1  0  0  0  0
 24 26  1  0  0  0  0
 24 27  1  0  0  0  0
 22 23  1  0  0  0  0
 22 24  1  0  0  0  0
M  CHG  1  18  -1
M  END
$$$$
default_name
  -OEChem-02102213163D

 27 26  0     1  0  0  0  0  0999 V2000
   -3.2406   -3.5400    1.2326 H   0  0  0  0  0  0  0  0  0  0  0  0
   -3.1436   -2.6190    0.6606 C   0  0  0  0  0  0  0  0  0  0  0  0
   -3.8786   -1.8920    0.9996 H   0  0  0  0  0  0  0  0  0  0  0  0
   -3.2846   -2.8280   -0.3984 H   0  0  0  0  0  0  0  0  0  0  0  0
   -1.7586   -2.0580    0.8686 C   0  0  0  0  0  0  0  0  0  0  0  0
   -0.9666   -2.6340    1.6026 O   0  0  0  0  0  0  0  0  0  0  0  0
   -1.4866   -0.9220    0.2366 N   0  0  0  0  0  0  0  0  0  0  0  0
   -2.2166   -0.4790   -0.2994 H   0  0  0  0  0  0  0  0  0  0  0  0
   -0.1956   -0.2250    0.2596 C   0  0  1  0  0  0  0  0  0  0  0  0
    0.5755   -0.9013   -0.1105 H   0  0  0  0  0  0  0  0  0  0  0  0
   -0.2553    0.9811   -0.6992 C   0  0  0  0  0  0  0  0  0  0  0  0
    0.7491    1.1492   -1.0910 H   0  0  0  0  0  0  0  0  0  0  0  0
   -0.9160    0.7448   -1.5345 H   0  0  0  0  0  0  0  0  0  0  0  0
   -0.7384    2.2761   -0.0245 C   0  0  0  0  0  0  0  0  0  0  0  0
   -1.4041    2.0207    0.8035 H   0  0  0  0  0  0  0  0  0  0  0  0
    0.1317    2.7924    0.3895 H   0  0  0  0  0  0  0  0  0  0  0  0
   -1.4811    3.2217   -0.9802 C   0  0  0  0  0  0  0  0  0  0  0  0
   -1.5068    2.9353   -2.1983 O   0  5  0  0  0  0  0  0  0  0  0  0
   -2.0388    4.2159   -0.4646 O   0  0  0  0  0  0  0  0  0  0  0  0
    0.1881    0.1678    1.7015 C   0  0  0  0  0  0  0  0  0  0  0  0
    1.3379    0.0002    2.1133 O   0  0  0  0  0  0  0  0  0  0  0  0
   -0.7666    0.7145    2.4656 N   0  0  0  0  0  0  0  0  0  0  0  0
   -1.6971    0.7705    2.0790 H   0  0  0  0  0  0  0  0  0  0  0  0
   -0.5716    1.1232    3.8542 C   0  0  0  0  0  0  0  0  0  0  0  0
    0.3083    1.7643    3.9293 H   0  0  0  0  0  0  0  0  0  0  0  0
   -1.4485    1.6640    4.2131 H   0  0  0  0  0  0  0  0  0  0  0  0
   -0.4137    0.2381    4.4736 H   0  0  0  0  0  0  0  0  0  0  0  0
  5  6  2  0  0  0  0
  5  7  1  0  0  0  0
  2  3  1  0  0  0  0
  2  4  1  0  0  0  0
  2  5  1  0  0  0  0
  1  2  1  0  0  0  0
 20 21  2  0  0  0  0
 20 22  1  0  0  0  0
 17 18  1  0  0  0  0
 17 19  2  0  0  0  0
 14 15  1  0  0  0  0
 14 16  1  0  0  0  0
 14 17  1  0  0  0  0
 11 12  1  0  0  0  0
 11 13  1  0  0  0  0
 11 14  1  0  0  0  0
  9 10  1  0  0  0  0
  9 11  1  0  0  0  0
  9 20  1  0  0  0  0
  7  8  1  0  0  0  0
  7  9  1  0  0  0  0
 24 25  1  0  0  0  0
 24 26  1  0  0  0  0
 24 27  1  0  0  0  0
 22 23  1  0  0  0  0
 22 24  1  0  0  0  0
M  CHG  1  18  -1
M  END
$$$$
default_name
  -OEChem-02102213163D

 27 26  0     1  0  0  0  0  0999 V2000
   -3.2406   -3.5400    1.2326 H   0  0  0  0  0  0  0  0  0  0  0  0
   -3.1436   -2.6190    0.6606 C   0  0  0  0  0  0  0  0  0  0  0  0
   -3.8786   -1.8920    0.9996 H   0  0  0  0  0  0  0  0  0  0  0  0
   -3.2846   -2.8280   -0.3984 H   0  0  0  0  0  0  0  0  0  0  0  0
   -1.7586   -2.0580    0.8686 C   0  0  0  0  0  0  0  0  0  0  0  0
   -0.9666   -2.6340    1.6026 O   0  0  0  0  0  0  0  0  0  0  0  0
   -1.4866   -0.9220    0.2366 N   0  0  0  0  0  0  0  0  0  0  0  0
   -2.2166   -0.4790   -0.2994 H   0  0  0  0  0  0  0  0  0  0  0  0
   -0.1956   -0.2250    0.2596 C   0  0  1  0  0  0  0  0  0  0  0  0
    0.5755   -0.9013   -0.1105 H   0  0  0  0  0  0  0  0  0  0  0  0
   -0.2553    0.9811   -0.6992 C   0  0  0  0  0  0  0  0  0  0  0  0
    0.7491    1.1492   -1.0910 H   0  0  0  0  0  0  0  0  0  0  0  0
   -0.9160    0.7448   -1.5345 H   0  0  0  0  0  0  0  0  0  0  0  0
   -0.7384    2.2761   -0.0245 C   0  0  0  0  0  0  0  0  0  0  0  0
   -1.1758    2.0314    0.9464 H   0  0  0  0  0  0  0  0  0  0  0  0
    0.1300    2.9171    0.1489 H   0  0  0  0  0  0  0  0  0  0  0  0
   -1.7779    3.0450   -0.8535 C   0  0  0  0  0  0  0  0  0  0  0  0
   -2.0275    2.6443   -2.0127 O   0  5  0  0  0  0  0  0  0  0  0  0
   -2.3304    4.0194   -0.2963 O   0  0  0  0  0  0  0  0  0  0  0  0
    0.1881    0.1678    1.7015 C   0  0  0  0  0  0  0  0  0  0  0  0
    1.3379    0.0002    2.1133 O   0  0  0  0  0  0  0  0  0  0  0  0
   -0.7666    0.7145    2.4656 N   0  0  0  0  0  0  0  0  0  0  0  0
   -1.6971    0.7705    2.0790 H   0  0  0  0  0  0  0  0  0  0  0  0
   -0.5716    1.1232    3.8542 C   0  0  0  0  0  0  0  0  0  0  0  0
    0.3083    1.7643    3.9293 H   0  0  0  0  0  0  0  0  0  0  0  0
   -1.4485    1.6640    4.2131 H   0  0  0  0  0  0  0  0  0  0  0  0
   -0.4137    0.2381    4.4736 H   0  0  0  0  0  0  0  0  0  0  0  0
  5  6  2  0  0  0  0
  5  7  1  0  0  0  0
  2  3  1  0  0  0  0
  2  4  1  0  0  0  0
  2  5  1  0  0  0  0
  1  2  1  0  0  0  0
 20 21  2  0  0  0  0
 20 22  1  0  0  0  0
 17 18  1  0  0  0  0
 17 19  2  0  0  0  0
 14 15  1  0  0  0  0
 14 16  1  0  0  0  0
 14 17  1  0  0  0  0
 11 12  1  0  0  0  0
 11 13  1  0  0  0  0
 11 14  1  0  0  0  0
  9 10  1  0  0  0  0
  9 11  1  0  0  0  0
  9 20  1  0  0  0  0
  7  8  1  0  0  0  0
  7  9  1  0  0  0  0
 24 25  1  0  0  0  0
 24 26  1  0  0  0  0
 24 27  1  0  0  0  0
 22 23  1  0  0  0  0
 22 24  1  0  0  0  0
M  CHG  1  18  -1
M  END
$$$$
default_name
  -OEChem-02102213163D

 27 26  0     1  0  0  0  0  0999 V2000
   -3.2406   -3.5400    1.2326 H   0  0  0  0  0  0  0  0  0  0  0  0
   -3.1436   -2.6190    0.6606 C   0  0  0  0  0  0  0  0  0  0  0  0
   -3.8786   -1.8920    0.9996 H   0  0  0  0  0  0  0  0  0  0  0  0
   -3.2846   -2.8280   -0.3984 H   0  0  0  0  0  0  0  0  0  0  0  0
   -1.7586   -2.0580    0.8686 C   0  0  0  0  0  0  0  0  0  0  0  0
   -0.9666   -2.6340    1.6026 O   0  0  0  0  0  0  0  0  0  0  0  0
   -1.4866   -0.9220    0.2366 N   0  0  0  0  0  0  0  0  0  0  0  0
   -2.2166   -0.4790   -0.2994 H   0  0  0  0  0  0  0  0  0  0  0  0
   -0.1956   -0.2250    0.2596 C   0  0  1  0  0  0  0  0  0  0  0  0
    0.5755   -0.9013   -0.1105 H   0  0  0  0  0  0  0  0  0  0  0  0
   -0.2553    0.9811   -0.6992 C   0  0  0  0  0  0  0  0  0  0  0  0
    0.7491    1.1492   -1.0910 H   0  0  0  0  0  0  0  0  0  0  0  0
   -0.9160    0.7448   -1.5345 H   0  0  0  0  0  0  0  0  0  0  0  0
   -0.7384    2.2761   -0.0245 C   0  0  0  0  0  0  0  0  0  0  0  0
   -0.9254    2.0792    1.0339 H   0  0  0  0  0  0  0  0  0  0  0  0
    0.0617    3.0178   -0.0932 H   0  0  0  0  0  0  0  0  0  0  0  0
   -2.0170    2.8508   -0.6521 C   0  0  0  0  0  0  0  0  0  0  0  0
   -2.4569    2.3193   -1.6964 O   0  5  0  0  0  0  0  0  0  0  0  0
   -2.5531    3.8102   -0.0542 O   0  0  0  0  0  0  0  0  0  0  0  0
    0.1881    0.1678    1.7015 C   0  0  0  0  0  0  0  0  0  0  0  0
    1.3379    0.0002    2.1133 O   0  0  0  0  0  0  0  0  0  0  0  0
   -0.7666    0.7145    2.4656 N   0  0  0  0  0  0  0  0  0  0  0  0
   -1.6971    0.7705    2.0790 H   0  0  0  0  0  0  0  0  0  0  0  0
   -0.5716    1.1232    3.8542 C   0  0  0  0  0  0  0  0  0  0  0  0
    0.3083    1.7643    3.9293 H   0  0  0  0  0  0  0  0  0  0  0  0
   -1.4485    1.6640    4.2131 H   0  0  0  0  0  0  0  0  0  0  0  0
   -0.4137    0.2381    4.4736 H   0  0  0  0  0  0  0  0  0  0  0  0
  5  6  2  0  0  0  0
  5  7  1  0  0  0  0
  2  3  1  0  0  0  0
  2  4  1  0  0  0  0
  2  5  1  0  0  0  0
  1  2  1  0  0  0  0
 20 21  2  0  0  0  0
 20 22  1  0  0  0  0
 17 18  1  0  0  0  0
 17 19  2  0  0  0  0
 14 15  1  0  0  0  0
 14 16  1  0  0  0  0
 14 17  1  0  0  0  0
 11 12  1  0  0  0  0
 11 13  1  0  0  0  0
 11 14  1  0  0  0  0
  9 10  1  0  0  0  0
  9 11  1  0  0  0  0
  9 20  1  0  0  0  0
  7  8  1  0  0  0  0
  7  9  1  0  0  0  0
 24 25  1  0  0  0  0
 24 26  1  0  0  0  0
 24 27  1  0  0  0  0
 22 23  1  0  0  0  0
 22 24  1  0  0  0  0
M  CHG  1  18  -1
M  END
$$$$
default_name
  -OEChem-02102213163D

 27 26  0     1  0  0  0  0  0999 V2000
   -3.2406   -3.5400    1.2326 H   0  0  0  0  0  0  0  0  0  0  0  0
   -3.1436   -2.6190    0.6606 C   0  0  0  0  0  0  0  0  0  0  0  0
   -3.8786   -1.8920    0.9996 H   0  0  0  0  0  0  0  0  0  0  0  0
   -3.2846   -2.8280   -0.3984 H   0  0  0  0  0  0  0  0  0  0  0  0
   -1.7586   -2.0580    0.8686 C   0  0  0  0  0  0  0  0  0  0  0  0
   -0.9666   -2.6340    1.6026 O   0  0  0  0  0  0  0  0  0  0  0  0
   -1.4866   -0.9220    0.2366 N   0  0  0  0  0  0  0  0  0  0  0  0
   -2.2166   -0.4790   -0.2994 H   0  0  0  0  0  0  0  0  0  0  0  0
   -0.1956   -0.2250    0.2596 C   0  0  1  0  0  0  0  0  0  0  0  0
    0.5755   -0.9013   -0.1105 H   0  0  0  0  0  0  0  0  0  0  0  0
   -0.2553    0.9811   -0.6992 C   0  0  0  0  0  0  0  0  0  0  0  0
    0.7491    1.1492   -1.0910 H   0  0  0  0  0  0  0  0  0  0  0  0
   -0.9160    0.7448   -1.5345 H   0  0  0  0  0  0  0  0  0  0  0  0
   -0.7384    2.2761   -0.0245 C   0  0  0  0  0  0  0  0  0  0  0  0
   -0.6698    2.1610    1.0599 H   0  0  0  0  0  0  0  0  0  0  0  0
   -0.0684    3.0876   -0.3204 H   0  0  0  0  0  0  0  0  0  0  0  0
   -2.1820    2.6526   -0.3898 C   0  0  0  0  0  0  0  0  0  0  0  0
   -2.7659    1.9823   -1.2708 O   0  5  0  0  0  0  0  0  0  0  0  0
   -2.6917    3.6025    0.2451 O   0  0  0  0  0  0  0  0  0  0  0  0
    0.1881    0.1678    1.7015 C   0  0  0  0  0  0  0  0  0  0  0  0
    1.3379    0.0002    2.1133 O   0  0  0  0  0  0  0  0  0  0  0  0
   -0.7666    0.7145    2.4656 N   0  0  0  0  0  0  0  0  0  0  0  0
   -1.6971    0.7705    2.0790 H   0  0  0  0  0  0  0  0  0  0  0  0
   -0.5716    1.1232    3.8542 C   0  0  0  0  0  0  0  0  0  0  0  0
    0.3083    1.7643    3.9293 H   0  0  0  0  0  0  0  0  0  0  0  0
   -1.4485    1.6640    4.2131 H   0  0  0  0  0  0  0  0  0  0  0  0
   -0.4137    0.2381    4.4736 H   0  0  0  0  0  0  0  0  0  0  0  0
  5  6  2  0  0  0  0
  5  7  1  0  0  0  0
  2  3  1  0  0  0  0
  2  4  1  0  0  0  0
  2  5  1  0  0  0  0
  1  2  1  0  0  0  0
 20 21  2  0  0  0  0
 20 22  1  0  0  0  0
 17 18  1  0  0  0  0
 17 19  2  0  0  0  0
 14 15  1  0  0  0  0
 14 16  1  0  0  0  0
 14 17  1  0  0  0  0
 11 12  1  0  0  0  0
 11 13  1  0  0  0  0
 11 14  1  0  0  0  0
  9 10  1  0  0  0  0
  9 11  1  0  0  0  0
  9 20  1  0  0  0  0
  7  8  1  0  0  0  0
  7  9  1  0  0  0  0
 24 25  1  0  0  0  0
 24 26  1  0  0  0  0
 24 27  1  0  0  0  0
 22 23  1  0  0  0  0
 22 24  1  0  0  0  0
M  CHG  1  18  -1
M  END
$$$$
default_name
  -OEChem-02102213163D

 27 26  0     1  0  0  0  0  0999 V2000
   -3.2406   -3.5400    1.2326 H   0  0  0  0  0  0  0  0  0  0  0  0
   -3.1436   -2.6190    0.6606 C   0  0  0  0  0  0  0  0  0  0  0  0
   -3.8786   -1.8920    0.9996 H   0  0  0  0  0  0  0  0  0  0  0  0
   -3.2846   -2.8280   -0.3984 H   0  0  0  0  0  0  0  0  0  0  0  0
   -1.7586   -2.0580    0.8686 C   0  0  0  0  0  0  0  0  0  0  0  0
   -0.9666   -2.6340    1.6026 O   0  0  0  0  0  0  0  0  0  0  0  0
   -1.4866   -0.9220    0.2366 N   0  0  0  0  0  0  0  0  0  0  0  0
   -2.2166   -0.4790   -0.2994 H   0  0  0  0  0  0  0  0  0  0  0  0
   -0.1956   -0.2250    0.2596 C   0  0  1  0  0  0  0  0  0  0  0  0
    0.5755   -0.9013   -0.1105 H   0  0  0  0  0  0  0  0  0  0  0  0
   -0.2553    0.9811   -0.6992 C   0  0  0  0  0  0  0  0  0  0  0  0
    0.7491    1.1492   -1.0910 H   0  0  0  0  0  0  0  0  0  0  0  0
   -0.9160    0.7448   -1.5345 H   0  0  0  0  0  0  0  0  0  0  0  0
   -0.7384    2.2761   -0.0245 C   0  0  0  0  0  0  0  0  0  0  0  0
   -0.4266    2.2712    1.0227 H   0  0  0  0  0  0  0  0  0  0  0  0
   -0.2515    3.1218   -0.5172 H   0  0  0  0  0  0  0  0  0  0  0  0
   -2.2616    2.4637   -0.0842 C   0  0  0  0  0  0  0  0  0  0  0  0
   -2.9334    1.6563   -0.7649 O   0  5  0  0  0  0  0  0  0  0  0  0
   -2.7368    3.4105    0.5814 O   0  0  0  0  0  0  0  0  0  0  0  0
    0.1881    0.1678    1.7015 C   0  0  0  0  0  0  0  0  0  0  0  0
    1.3379    0.0002    2.1133 O   0  0  0  0  0  0  0  0  0  0  0  0
   -0.7666    0.7145    2.4656 N   0  0  0  0  0  0  0  0  0  0  0  0
   -1.6971    0.7705    2.0790 H   0  0  0  0  0  0  0  0  0  0  0  0
   -0.5716    1.1232    3.8542 C   0  0  0  0  0  0  0  0  0  0  0  0
    0.3083    1.7643    3.9293 H   0  0  0  0  0  0  0  0  0  0  0  0
   -1.4485    1.6640    4.2131 H   0  0  0  0  0  0  0  0  0  0  0  0
   -0.4137    0.2381    4.4736 H   0  0  0  0  0  0  0  0  0  0  0  0
  5  6  2  0  0  0  0
  5  7  1  0  0  0  0
  2  3  1  0  0  0  0
  2  4  1  0  0  0  0
  2  5  1  0  0  0  0
  1  2  1  0  0  0  0
 20 21  2  0  0  0  0
 20 22  1  0  0  0  0
 17 18  1  0  0  0  0
 17 19  2  0  0  0  0
 14 15  1  0  0  0  0
 14 16  1  0  0  0  0
 14 17  1  0  0  0  0
 11 12  1  0  0  0  0
 11 13  1  0  0  0  0
 11 14  1  0  0  0  0
  9 10  1  0  0  0  0
  9 11  1  0  0  0  0
  9 20  1  0  0  0  0
  7  8  1  0  0  0  0
  7  9  1  0  0  0  0
 24 25  1  0  0  0  0
 24 26  1  0  0  0  0
 24 27  1  0  0  0  0
 22 23  1  0  0  0  0
 22 24  1  0  0  0  0
M  CHG  1  18  -1
M  END
$$$$
default_name
  -OEChem-02102213163D

 27 26  0     1  0  0  0  0  0999 V2000
   -3.2406   -3.5400    1.2326 H   0  0  0  0  0  0  0  0  0  0  0  0
   -3.1436   -2.6190    0.6606 C   0  0  0  0  0  0  0  0  0  0  0  0
   -3.8786   -1.8920    0.9996 H   0  0  0  0  0  0  0  0  0  0  0  0
   -3.2846   -2.8280   -0.3984 H   0  0  0  0  0  0  0  0  0  0  0  0
   -1.7586   -2.0580    0.8686 C   0  0  0  0  0  0  0  0  0  0  0  0
   -0.9666   -2.6340    1.6026 O   0  0  0  0  0  0  0  0  0  0  0  0
   -1.4866   -0.9220    0.2366 N   0  0  0  0  0  0  0  0  0  0  0  0
   -2.2166   -0.4790   -0.2994 H   0  0  0  0  0  0  0  0  0  0  0  0
   -0.1956   -0.2250    0.2596 C   0  0  1  0  0  0  0  0  0  0  0  0
    0.5755   -0.9013   -0.1105 H   0  0  0  0  0  0  0  0  0  0  0  0
   -0.2553    0.9811   -0.6992 C   0  0  0  0  0  0  0  0  0  0  0  0
    0.7491    1.1492   -1.0910 H   0  0  0  0  0  0  0  0  0  0  0  0
   -0.9160    0.7448   -1.5345 H   0  0  0  0  0  0  0  0  0  0  0  0
   -0.7384    2.2761   -0.0245 C   0  0  0  0  0  0  0  0  0  0  0  0
   -0.2123    2.4021    0.9248 H   0  0  0  0  0  0  0  0  0  0  0  0
   -0.4751    3.1181   -0.6702 H   0  0  0  0  0  0  0  0  0  0  0  0
   -2.2506    2.2970    0.2436 C   0  0  0  0  0  0  0  0  0  0  0  0
   -2.9479    1.3635   -0.2134 O   0  5  0  0  0  0  0  0  0  0  0  0
   -2.6852    3.2473    0.9316 O   0  0  0  0  0  0  0  0  0  0  0  0
    0.1881    0.1678    1.7015 C   0  0  0  0  0  0  0  0  0  0  0  0
    1.3379    0.0002    2.1133 O   0  0  0  0  0  0  0  0  0  0  0  0
   -0.7666    0.7145    2.4656 N   0  0  0  0  0  0  0  0  0  0  0  0
   -1.6971    0.7705    2.0790 H   0  0  0  0  0  0  0  0  0  0  0  0
   -0.5716    1.1232    3.8542 C   0  0  0  0  0  0  0  0  0  0  0  0
    0.3083    1.7643    3.9293 H   0  0  0  0  0  0  0  0  0  0  0  0
   -1.4485    1.6640    4.2131 H   0  0  0  0  0  0  0  0  0  0  0  0
   -0.4137    0.2381    4.4736 H   0  0  0  0  0  0  0  0  0  0  0  0
  5  6  2  0  0  0  0
  5  7  1  0  0  0  0
  2  3  1  0  0  0  0
  2  4  1  0  0  0  0
  2  5  1  0  0  0  0
  1  2  1  0  0  0  0
 20 21  2  0  0  0  0
 20 22  1  0  0  0  0
 17 18  1  0  0  0  0
 17 19  2  0  0  0  0
 14 15  1  0  0  0  0
 14 16  1  0  0  0  0
 14 17  1  0  0  0  0
 11 12  1  0  0  0  0
 11 13  1  0  0  0  0
 11 14  1  0  0  0  0
  9 10  1  0  0  0  0
  9 11  1  0  0  0  0
  9 20  1  0  0  0  0
  7  8  1  0  0  0  0
  7  9  1  0  0  0  0
 24 25  1  0  0  0  0
 24 26  1  0  0  0  0
 24 27  1  0  0  0  0
 22 23  1  0  0  0  0
 22 24  1  0  0  0  0
M  CHG  1  18  -1
M  END
$$$$
default_name
  -OEChem-02102213163D

 27 26  0     1  0  0  0  0  0999 V2000
   -3.2406   -3.5400    1.2326 H   0  0  0  0  0  0  0  0  0  0  0  0
   -3.1436   -2.6190    0.6606 C   0  0  0  0  0  0  0  0  0  0  0  0
   -3.8786   -1.8920    0.9996 H   0  0  0  0  0  0  0  0  0  0  0  0
   -3.2846   -2.8280   -0.3984 H   0  0  0  0  0  0  0  0  0  0  0  0
   -1.7586   -2.0580    0.8686 C   0  0  0  0  0  0  0  0  0  0  0  0
   -0.9666   -2.6340    1.6026 O   0  0  0  0  0  0  0  0  0  0  0  0
   -1.4866   -0.9220    0.2366 N   0  0  0  0  0  0  0  0  0  0  0  0
   -2.2166   -0.4790   -0.2994 H   0  0  0  0  0  0  0  0  0  0  0  0
   -0.1956   -0.2250    0.2596 C   0  0  1  0  0  0  0  0  0  0  0  0
    0.5755   -0.9013   -0.1105 H   0  0  0  0  0  0  0  0  0  0  0  0
   -0.2553    0.9811   -0.6992 C   0  0  0  0  0  0  0  0  0  0  0  0
    0.7491    1.1492   -1.0910 H   0  0  0  0  0  0  0  0  0  0  0  0
   -0.9160    0.7448   -1.5345 H   0  0  0  0  0  0  0  0  0  0  0  0
   -0.7384    2.2761   -0.0245 C   0  0  0  0  0  0  0  0  0  0  0  0
   -0.0415    2.5450    0.7729 H   0  0  0  0  0  0  0  0  0  0  0  0
   -0.7241    3.0766   -0.7689 H   0  0  0  0  0  0  0  0  0  0  0  0
   -2.1495    2.1639    0.5714 C   0  0  0  0  0  0  0  0  0  0  0  0
   -2.8085    1.1239    0.3464 O   0  5  0  0  0  0  0  0  0  0  0  0
   -2.5406    3.1239    1.2720 O   0  0  0  0  0  0  0  0  0  0  0  0
    0.1881    0.1678    1.7015 C   0  0  0  0  0  0  0  0  0  0  0  0
    1.3379    0.0002    2.1133 O   0  0  0  0  0  0  0  0  0  0  0  0
   -0.7666    0.7145    2.4656 N   0  0  0  0  0  0  0  0  0  0  0  0
   -1.6971    0.7705    2.0790 H   0  0  0  0  0  0  0  0  0  0  0  0
   -0.5716    1.1232    3.8542 C   0  0  0  0  0  0  0  0  0  0  0  0
    0.3083    1.7643    3.9293 H   0  0  0  0  0  0  0  0  0  0  0  0
   -1.4485    1.6640    4.2131 H   0  0  0  0  0  0  0  0  0  0  0  0
   -0.4137    0.2381    4.4736 H   0  0  0  0  0  0  0  0  0  0  0  0
  5  6  2  0  0  0  0
  5  7  1  0  0  0  0
  2  3  1  0  0  0  0
  2  4  1  0  0  0  0
  2  5  1  0  0  0  0
  1  2  1  0  0  0  0
 20 21  2  0  0  0  0
 20 22  1  0  0  0  0
 17 18  1  0  0  0  0
 17 19  2  0  0  0  0
 14 15  1  0  0  0  0
 14 16  1  0  0  0  0
 14 17  1  0  0  0  0
 11 12  1  0  0  0  0
 11 13  1  0  0  0  0
 11 14  1  0  0  0  0
  9 10  1  0  0  0  0
  9 11  1  0  0  0  0
  9 20  1  0  0  0  0
  7  8  1  0  0  0  0
  7  9  1  0  0  0  0
 24 25  1  0  0  0  0
 24 26  1  0  0  0  0
 24 27  1  0  0  0  0
 22 23  1  0  0  0  0
 22 24  1  0  0  0  0
M  CHG  1  18  -1
M  END
$$$$
default_name
  -OEChem-02102213163D

 27 26  0     1  0  0  0  0  0999 V2000
   -3.2406   -3.5400    1.2326 H   0  0  0  0  0  0  0  0  0  0  0  0
   -3.1436   -2.6190    0.6606 C   0  0  0  0  0  0  0  0  0  0  0  0
   -3.8786   -1.8920    0.9996 H   0  0  0  0  0  0  0  0  0  0  0  0
   -3.2846   -2.8280   -0.3984 H   0  0  0  0  0  0  0  0  0  0  0  0
   -1.7586   -2.0580    0.8686 C   0  0  0  0  0  0  0  0  0  0  0  0
   -0.9666   -2.6340    1.6026 O   0  0  0  0  0  0  0  0  0  0  0  0
   -1.4866   -0.9220    0.2366 N   0  0  0  0  0  0  0  0  0  0  0  0
   -2.2166   -0.4790   -0.2994 H   0  0  0  0  0  0  0  0  0  0  0  0
   -0.1956   -0.2250    0.2596 C   0  0  1  0  0  0  0  0  0  0  0  0
    0.5755   -0.9013   -0.1105 H   0  0  0  0  0  0  0  0  0  0  0  0
   -0.2553    0.9811   -0.6992 C   0  0  0  0  0  0  0  0  0  0  0  0
    0.7491    1.1492   -1.0910 H   0  0  0  0  0  0  0  0  0  0  0  0
   -0.9160    0.7448   -1.5345 H   0  0  0  0  0  0  0  0  0  0  0  0
   -0.7384    2.2761   -0.0245 C   0  0  0  0  0  0  0  0  0  0  0  0
    0.0742    2.6900    0.5773 H   0  0  0  0  0  0  0  0  0  0  0  0
   -0.9813    3.0003   -0.8066 H   0  0  0  0  0  0  0  0  0  0  0  0
   -1.9654    2.0735    0.8769 C   0  0  0  0  0  0  0  0  0  0  0  0
   -2.5246    0.9538    0.8762 O   0  5  0  0  0  0  0  0  0  0  0  0
   -2.3127    3.0489    1.5792 O   0  0  0  0  0  0  0  0  0  0  0  0
    0.1881    0.1678    1.7015 C   0  0  0  0  0  0  0  0  0  0  0  0
    1.3379    0.0002    2.1133 O   0  0  0  0  0  0  0  0  0  0  0  0
   -0.7666    0.7145    2.4656 N   0  0  0  0  0  0  0  0  0  0  0  0
   -1.6971    0.7705    2.0790 H   0  0  0  0  0  0  0  0  0  0  0  0
   -0.5716    1.1232    3.8542 C   0  0  0  0  0  0  0  0  0  0  0  0
    0.3083    1.7643    3.9293 H   0  0  0  0  0  0  0  0  0  0  0  0
   -1.4485    1.6640    4.2131 H   0  0  0  0  0  0  0  0  0  0  0  0
   -0.4137    0.2381    4.4736 H   0  0  0  0  0  0  0  0  0  0  0  0
  5  6  2  0  0  0  0
  5  7  1  0  0  0  0
  2  3  1  0  0  0  0
  2  4  1  0  0  0  0
  2  5  1  0  0  0  0
  1  2  1  0  0  0  0
 20 21  2  0  0  0  0
 20 22  1  0  0  0  0
 17 18  1  0  0  0  0
 17 19  2  0  0  0  0
 14 15  1  0  0  0  0
 14 16  1  0  0  0  0
 14 17  1  0  0  0  0
 11 12  1  0  0  0  0
 11 13  1  0  0  0  0
 11 14  1  0  0  0  0
  9 10  1  0  0  0  0
  9 11  1  0  0  0  0
  9 20  1  0  0  0  0
  7  8  1  0  0  0  0
  7  9  1  0  0  0  0
 24 25  1  0  0  0  0
 24 26  1  0  0  0  0
 24 27  1  0  0  0  0
 22 23  1  0  0  0  0
 22 24  1  0  0  0  0
M  CHG  1  18  -1
M  END
$$$$
default_name
  -OEChem-02102213163D

 27 26  0     1  0  0  0  0  0999 V2000
   -3.2406   -3.5400    1.2326 H   0  0  0  0  0  0  0  0  0  0  0  0
   -3.1436   -2.6190    0.6606 C   0  0  0  0  0  0  0  0  0  0  0  0
   -3.8786   -1.8920    0.9996 H   0  0  0  0  0  0  0  0  0  0  0  0
   -3.2846   -2.8280   -0.3984 H   0  0  0  0  0  0  0  0  0  0  0  0
   -1.7586   -2.0580    0.8686 C   0  0  0  0  0  0  0  0  0  0  0  0
   -0.9666   -2.6340    1.6026 O   0  0  0  0  0  0  0  0  0  0  0  0
   -1.4866   -0.9220    0.2366 N   0  0  0  0  0  0  0  0  0  0  0  0
   -2.2166   -0.4790   -0.2994 H   0  0  0  0  0  0  0  0  0  0  0  0
   -0.1956   -0.2250    0.2596 C   0  0  1  0  0  0  0  0  0  0  0  0
    0.5755   -0.9013   -0.1105 H   0  0  0  0  0  0  0  0  0  0  0  0
   -0.2553    0.9811   -0.6992 C   0  0  0  0  0  0  0  0  0  0  0  0
    0.7491    1.1492   -1.0910 H   0  0  0  0  0  0  0  0  0  0  0  0
   -0.9160    0.7448   -1.5345 H   0  0  0  0  0  0  0  0  0  0  0  0
   -0.7384    2.2761   -0.0245 C   0  0  0  0  0  0  0  0  0  0  0  0
    0.1268    2.8274    0.3514 H   0  0  0  0  0  0  0  0  0  0  0  0
   -1.2294    2.8943   -0.7808 H   0  0  0  0  0  0  0  0  0  0  0  0
   -1.7107    2.0319    1.1391 C   0  0  0  0  0  0  0  0  0  0  0  0
   -2.1157    0.8648    1.3399 O   0  5  0  0  0  0  0  0  0  0  0  0
   -2.0171    3.0272    1.8324 O   0  0  0  0  0  0  0  0  0  0  0  0
    0.1881    0.1678    1.7015 C   0  0  0  0  0  0  0  0  0  0  0  0
    1.3379    0.0002    2.1133 O   0  0  0  0  0  0  0  0  0  0  0  0
   -0.7666    0.7145    2.4656 N   0  0  0  0  0  0  0  0  0  0  0  0
   -1.6971    0.7705    2.0790 H   0  0  0  0  0  0  0  0  0  0  0  0
   -0.5716    1.1232    3.8542 C   0  0  0  0  0  0  0  0  0  0  0  0
    0.3083    1.7643    3.9293 H   0  0  0  0  0  0  0  0  0  0  0  0
   -1.4485    1.6640    4.2131 H   0  0  0  0  0  0  0  0  0  0  0  0
   -0.4137    0.2381    4.4736 H   0  0  0  0  0  0  0  0  0  0  0  0
  5  6  2  0  0  0  0
  5  7  1  0  0  0  0
  2  3  1  0  0  0  0
  2  4  1  0  0  0  0
  2  5  1  0  0  0  0
  1  2  1  0  0  0  0
 20 21  2  0  0  0  0
 20 22  1  0  0  0  0
 17 18  1  0  0  0  0
 17 19  2  0  0  0  0
 14 15  1  0  0  0  0
 14 16  1  0  0  0  0
 14 17  1  0  0  0  0
 11 12  1  0  0  0  0
 11 13  1  0  0  0  0
 11 14  1  0  0  0  0
  9 10  1  0  0  0  0
  9 11  1  0  0  0  0
  9 20  1  0  0  0  0
  7  8  1  0  0  0  0
  7  9  1  0  0  0  0
 24 25  1  0  0  0  0
 24 26  1  0  0  0  0
 24 27  1  0  0  0  0
 22 23  1  0  0  0  0
 22 24  1  0  0  0  0
M  CHG  1  18  -1
M  END
$$$$
default_name
  -OEChem-02102213163D

 27 26  0     1  0  0  0  0  0999 V2000
   -3.2406   -3.5400    1.2326 H   0  0  0  0  0  0  0  0  0  0  0  0
   -3.1436   -2.6190    0.6606 C   0  0  0  0  0  0  0  0  0  0  0  0
   -3.8786   -1.8920    0.9996 H   0  0  0  0  0  0  0  0  0  0  0  0
   -3.2846   -2.8280   -0.3984 H   0  0  0  0  0  0  0  0  0  0  0  0
   -1.7586   -2.0580    0.8686 C   0  0  0  0  0  0  0  0  0  0  0  0
   -0.9666   -2.6340    1.6026 O   0  0  0  0  0  0  0  0  0  0  0  0
   -1.4866   -0.9220    0.2366 N   0  0  0  0  0  0  0  0  0  0  0  0
   -2.2166   -0.4790   -0.2994 H   0  0  0  0  0  0  0  0  0  0  0  0
   -0.1956   -0.2250    0.2596 C   0  0  1  0  0  0  0  0  0  0  0  0
    0.5755   -0.9013   -0.1105 H   0  0  0  0  0  0  0  0  0  0  0  0
   -0.2553    0.9811   -0.6992 C   0  0  0  0  0  0  0  0  0  0  0  0
    0.7491    1.1492   -1.0910 H   0  0  0  0  0  0  0  0  0  0  0  0
   -0.9160    0.7448   -1.5345 H   0  0  0  0  0  0  0  0  0  0  0  0
   -0.7384    2.2761   -0.0245 C   0  0  0  0  0  0  0  0  0  0  0  0
    0.1129    2.9476    0.1106 H   0  0  0  0  0  0  0  0  0  0  0  0
   -1.4513    2.7659   -0.6931 H   0  0  0  0  0  0  0  0  0  0  0  0
   -1.4028    2.0420    1.3403 C   0  0  0  0  0  0  0  0  0  0  0  0
   -1.6095    0.8629    1.7059 O   0  5  0  0  0  0  0  0  0  0  0  0
   -1.6739    3.0605    2.0143 O   0  0  0  0  0  0  0  0  0  0  0  0
    0.1881    0.1678    1.7015 C   0  0  0  0  0  0  0  0  0  0  0  0
    1.3379    0.0002    2.1133 O   0  0  0  0  0  0  0  0  0  0  0  0
   -0.7666    0.7145    2.4656 N   0  0  0  0  0  0  0  0  0  0  0  0
   -1.6971    0.7705    2.0790 H   0  0  0  0  0  0  0  0  0  0  0  0
   -0.5716    1.1232    3.8542 C   0  0  0  0  0  0  0  0  0  0  0  0
    0.3083    1.7643    3.9293 H   0  0  0  0  0  0  0  0  0  0  0  0
   -1.4485    1.6640    4.2131 H   0  0  0  0  0  0  0  0  0  0  0  0
   -0.4137    0.2381    4.4736 H   0  0  0  0  0  0  0  0  0  0  0  0
  5  6  2  0  0  0  0
  5  7  1  0  0  0  0
  2  3  1  0  0  0  0
  2  4  1  0  0  0  0
  2  5  1  0  0  0  0
  1  2  1  0  0  0  0
 20 21  2  0  0  0  0
 20 22  1  0  0  0  0
 17 18  1  0  0  0  0
 17 19  2  0  0  0  0
 14 15  1  0  0  0  0
 14 16  1  0  0  0  0
 14 17  1  0  0  0  0
 11 12  1  0  0  0  0
 11 13  1  0  0  0  0
 11 14  1  0  0  0  0
  9 10  1  0  0  0  0
  9 11  1  0  0  0  0
  9 20  1  0  0  0  0
  7  8  1  0  0  0  0
  7  9  1  0  0  0  0
 24 25  1  0  0  0  0
 24 26  1  0  0  0  0
 24 27  1  0  0  0  0
 22 23  1  0  0  0  0
 22 24  1  0  0  0  0
M  CHG  1  18  -1
M  END
$$$$
default_name
  -OEChem-02102213163D

 27 26  0     1  0  0  0  0  0999 V2000
   -3.2406   -3.5400    1.2326 H   0  0  0  0  0  0  0  0  0  0  0  0
   -3.1436   -2.6190    0.6606 C   0  0  0  0  0  0  0  0  0  0  0  0
   -3.8786   -1.8920    0.9996 H   0  0  0  0  0  0  0  0  0  0  0  0
   -3.2846   -2.8280   -0.3984 H   0  0  0  0  0  0  0  0  0  0  0  0
   -1.7586   -2.0580    0.8686 C   0  0  0  0  0  0  0  0  0  0  0  0
   -0.9666   -2.6340    1.6026 O   0  0  0  0  0  0  0  0  0  0  0  0
   -1.4866   -0.9220    0.2366 N   0  0  0  0  0  0  0  0  0  0  0  0
   -2.2166   -0.4790   -0.2994 H   0  0  0  0  0  0  0  0  0  0  0  0
   -0.1956   -0.2250    0.2596 C   0  0  1  0  0  0  0  0  0  0  0  0
    0.5755   -0.9013   -0.1105 H   0  0  0  0  0  0  0  0  0  0  0  0
   -0.2553    0.9811   -0.6992 C   0  0  0  0  0  0  0  0  0  0  0  0
    0.7491    1.1492   -1.0910 H   0  0  0  0  0  0  0  0  0  0  0  0
   -0.9160    0.7448   -1.5345 H   0  0  0  0  0  0  0  0  0  0  0  0
   -0.7384    2.2761   -0.0245 C   0  0  0  0  0  0  0  0  0  0  0  0
    0.0332    3.0426   -0.1288 H   0  0  0  0  0  0  0  0  0  0  0  0
   -1.6320    2.6237   -0.5497 H   0  0  0  0  0  0  0  0  0  0  0  0
   -1.0627    2.1030    1.4667 C   0  0  0  0  0  0  0  0  0  0  0  0
   -1.0406    0.9484    1.9493 O   0  5  0  0  0  0  0  0  0  0  0  0
   -1.3066    3.1464    2.1126 O   0  0  0  0  0  0  0  0  0  0  0  0
    0.1881    0.1678    1.7015 C   0  0  0  0  0  0  0  0  0  0  0  0
    1.3379    0.0002    2.1133 O   0  0  0  0  0  0  0  0  0  0  0  0
   -0.7666    0.7145    2.4656 N   0  0  0  0  0  0  0  0  0  0  0  0
   -1.6971    0.7705    2.0790 H   0  0  0  0  0  0  0  0  0  0  0  0
   -0.5716    1.1232    3.8542 C   0  0  0  0  0  0  0  0  0  0  0  0
    0.3083    1.7643    3.9293 H   0  0  0  0  0  0  0  0  0  0  0  0
   -1.4485    1.6640    4.2131 H   0  0  0  0  0  0  0  0  0  0  0  0
   -0.4137    0.2381    4.4736 H   0  0  0  0  0  0  0  0  0  0  0  0
  5  6  2  0  0  0  0
  5  7  1  0  0  0  0
  2  3  1  0  0  0  0
  2  4  1  0  0  0  0
  2  5  1  0  0  0  0
  1  2  1  0  0  0  0
 20 21  2  0  0  0  0
 20 22  1  0  0  0  0
 17 18  1  0  0  0  0
 17 19  2  0  0  0  0
 14 15  1  0  0  0  0
 14 16  1  0  0  0  0
 14 17  1  0  0  0  0
 11 12  1  0  0  0  0
 11 13  1  0  0  0  0
 11 14  1  0  0  0  0
  9 10  1  0  0  0  0
  9 11  1  0  0  0  0
  9 20  1  0  0  0  0
  7  8  1  0  0  0  0
  7  9  1  0  0  0  0
 24 25  1  0  0  0  0
 24 26  1  0  0  0  0
 24 27  1  0  0  0  0
 22 23  1  0  0  0  0
 22 24  1  0  0  0  0
M  CHG  1  18  -1
M  END
$$$$
default_name
  -OEChem-02102213163D

 27 26  0     1  0  0  0  0  0999 V2000
   -3.2406   -3.5400    1.2326 H   0  0  0  0  0  0  0  0  0  0  0  0
   -3.1436   -2.6190    0.6606 C   0  0  0  0  0  0  0  0  0  0  0  0
   -3.8786   -1.8920    0.9996 H   0  0  0  0  0  0  0  0  0  0  0  0
   -3.2846   -2.8280   -0.3984 H   0  0  0  0  0  0  0  0  0  0  0  0
   -1.7586   -2.0580    0.8686 C   0  0  0  0  0  0  0  0  0  0  0  0
   -0.9666   -2.6340    1.6026 O   0  0  0  0  0  0  0  0  0  0  0  0
   -1.4866   -0.9220    0.2366 N   0  0  0  0  0  0  0  0  0  0  0  0
   -2.2166   -0.4790   -0.2994 H   0  0  0  0  0  0  0  0  0  0  0  0
   -0.1956   -0.2250    0.2596 C   0  0  1  0  0  0  0  0  0  0  0  0
    0.5755   -0.9013   -0.1105 H   0  0  0  0  0  0  0  0  0  0  0  0
   -0.2553    0.9811   -0.6992 C   0  0  0  0  0  0  0  0  0  0  0  0
    0.7491    1.1492   -1.0910 H   0  0  0  0  0  0  0  0  0  0  0  0
   -0.9160    0.7448   -1.5345 H   0  0  0  0  0  0  0  0  0  0  0  0
   -0.7384    2.2761   -0.0245 C   0  0  0  0  0  0  0  0  0  0  0  0
   -0.1066    3.1059   -0.3504 H   0  0  0  0  0  0  0  0  0  0  0  0
   -1.7591    2.4776   -0.3602 H   0  0  0  0  0  0  0  0  0  0  0  0
   -0.7135    2.2108    1.5098 C   0  0  0  0  0  0  0  0  0  0  0  0
   -0.4477    1.1153    2.0535 O   0  5  0  0  0  0  0  0  0  0  0  0
   -0.9401    3.2790    2.1205 O   0  0  0  0  0  0  0  0  0  0  0  0
    0.1881    0.1678    1.7015 C   0  0  0  0  0  0  0  0  0  0  0  0
    1.3379    0.0002    2.1133 O   0  0  0  0  0  0  0  0  0  0  0  0
   -0.7666    0.7145    2.4656 N   0  0  0  0  0  0  0  0  0  0  0  0
   -1.6971    0.7705    2.0790 H   0  0  0  0  0  0  0  0  0  0  0  0
   -0.5716    1.1232    3.8542 C   0  0  0  0  0  0  0  0  0  0  0  0
    0.3083    1.7643    3.9293 H   0  0  0  0  0  0  0  0  0  0  0  0
   -1.4485    1.6640    4.2131 H   0  0  0  0  0  0  0  0  0  0  0  0
   -0.4137    0.2381    4.4736 H   0  0  0  0  0  0  0  0  0  0  0  0
  5  6  2  0  0  0  0
  5  7  1  0  0  0  0
  2  3  1  0  0  0  0
  2  4  1  0  0  0  0
  2  5  1  0  0  0  0
  1  2  1  0  0  0  0
 20 21  2  0  0  0  0
 20 22  1  0  0  0  0
 17 18  1  0  0  0  0
 17 19  2  0  0  0  0
 14 15  1  0  0  0  0
 14 16  1  0  0  0  0
 14 17  1  0  0  0  0
 11 12  1  0  0  0  0
 11 13  1  0  0  0  0
 11 14  1  0  0  0  0
  9 10  1  0  0  0  0
  9 11  1  0  0  0  0
  9 20  1  0  0  0  0
  7  8  1  0  0  0  0
  7  9  1  0  0  0  0
 24 25  1  0  0  0  0
 24 26  1  0  0  0  0
 24 27  1  0  0  0  0
 22 23  1  0  0  0  0
 22 24  1  0  0  0  0
M  CHG  1  18  -1
M  END
$$$$
default_name
  -OEChem-02102213163D

 27 26  0     1  0  0  0  0  0999 V2000
   -3.2406   -3.5400    1.2326 H   0  0  0  0  0  0  0  0  0  0  0  0
   -3.1436   -2.6190    0.6606 C   0  0  0  0  0  0  0  0  0  0  0  0
   -3.8786   -1.8920    0.9996 H   0  0  0  0  0  0  0  0  0  0  0  0
   -3.2846   -2.8280   -0.3984 H   0  0  0  0  0  0  0  0  0  0  0  0
   -1.7586   -2.0580    0.8686 C   0  0  0  0  0  0  0  0  0  0  0  0
   -0.9666   -2.6340    1.6026 O   0  0  0  0  0  0  0  0  0  0  0  0
   -1.4866   -0.9220    0.2366 N   0  0  0  0  0  0  0  0  0  0  0  0
   -2.2166   -0.4790   -0.2994 H   0  0  0  0  0  0  0  0  0  0  0  0
   -0.1956   -0.2250    0.2596 C   0  0  1  0  0  0  0  0  0  0  0  0
    0.5755   -0.9013   -0.1105 H   0  0  0  0  0  0  0  0  0  0  0  0
   -0.2553    0.9811   -0.6992 C   0  0  0  0  0  0  0  0  0  0  0  0
    0.7491    1.1492   -1.0910 H   0  0  0  0  0  0  0  0  0  0  0  0
   -0.9160    0.7448   -1.5345 H   0  0  0  0  0  0  0  0  0  0  0  0
   -0.7384    2.2761   -0.0245 C   0  0  0  0  0  0  0  0  0  0  0  0
   -0.2972    3.1331   -0.5391 H   0  0  0  0  0  0  0  0  0  0  0  0
   -1.8241    2.3374   -0.1376 H   0  0  0  0  0  0  0  0  0  0  0  0
   -0.3792    2.3581    1.4665 C   0  0  0  0  0  0  0  0  0  0  0  0
    0.1287    1.3523    2.0114 O   0  5  0  0  0  0  0  0  0  0  0  0
   -0.5995    3.4493    2.0374 O   0  0  0  0  0  0  0  0  0  0  0  0
    0.1881    0.1678    1.7015 C   0  0  0  0  0  0  0  0  0  0  0  0
    1.3379    0.0002    2.1133 O   0  0  0  0  0  0  0  0  0  0  0  0
   -0.7666    0.7145    2.4656 N   0  0  0  0  0  0  0  0  0  0  0  0
   -1.6971    0.7705    2.0790 H   0  0  0  0  0  0  0  0  0  0  0  0
   -0.5716    1.1232    3.8542 C   0  0  0  0  0  0  0  0  0  0  0  0
    0.3083    1.7643    3.9293 H   0  0  0  0  0  0  0  0  0  0  0  0
   -1.4485    1.6640    4.2131 H   0  0  0  0  0  0  0  0  0  0  0  0
   -0.4137    0.2381    4.4736 H   0  0  0  0  0  0  0  0  0  0  0  0
  5  6  2  0  0  0  0
  5  7  1  0  0  0  0
  2  3  1  0  0  0  0
  2  4  1  0  0  0  0
  2  5  1  0  0  0  0
  1  2  1  0  0  0  0
 20 21  2  0  0  0  0
 20 22  1  0  0  0  0
 17 18  1  0  0  0  0
 17 19  2  0  0  0  0
 14 15  1  0  0  0  0
 14 16  1  0  0  0  0
 14 17  1  0  0  0  0
 11 12  1  0  0  0  0
 11 13  1  0  0  0  0
 11 14  1  0  0  0  0
  9 10  1  0  0  0  0
  9 11  1  0  0  0  0
  9 20  1  0  0  0  0
  7  8  1  0  0  0  0
  7  9  1  0  0  0  0
 24 25  1  0  0  0  0
 24 26  1  0  0  0  0
 24 27  1  0  0  0  0
 22 23  1  0  0  0  0
 22 24  1  0  0  0  0
M  CHG  1  18  -1
M  END
$$$$
default_name
  -OEChem-02102213163D

 27 26  0     1  0  0  0  0  0999 V2000
   -3.2406   -3.5400    1.2326 H   0  0  0  0  0  0  0  0  0  0  0  0
   -3.1436   -2.6190    0.6606 C   0  0  0  0  0  0  0  0  0  0  0  0
   -3.8786   -1.8920    0.9996 H   0  0  0  0  0  0  0  0  0  0  0  0
   -3.2846   -2.8280   -0.3984 H   0  0  0  0  0  0  0  0  0  0  0  0
   -1.7586   -2.0580    0.8686 C   0  0  0  0  0  0  0  0  0  0  0  0
   -0.9666   -2.6340    1.6026 O   0  0  0  0  0  0  0  0  0  0  0  0
   -1.4866   -0.9220    0.2366 N   0  0  0  0  0  0  0  0  0  0  0  0
   -2.2166   -0.4790   -0.2994 H   0  0  0  0  0  0  0  0  0  0  0  0
   -0.1956   -0.2250    0.2596 C   0  0  1  0  0  0  0  0  0  0  0  0
    0.5755   -0.9013   -0.1105 H   0  0  0  0  0  0  0  0  0  0  0  0
   -0.2553    0.9811   -0.6992 C   0  0  0  0  0  0  0  0  0  0  0  0
    0.7491    1.1492   -1.0910 H   0  0  0  0  0  0  0  0  0  0  0  0
   -0.9160    0.7448   -1.5345 H   0  0  0  0  0  0  0  0  0  0  0  0
   -0.7384    2.2761   -0.0245 C   0  0  0  0  0  0  0  0  0  0  0  0
   -0.5255    3.1224   -0.6820 H   0  0  0  0  0  0  0  0  0  0  0  0
   -1.8223    2.2127    0.1030 H   0  0  0  0  0  0  0  0  0  0  0  0
   -0.0823    2.5348    1.3399 C   0  0  0  0  0  0  0  0  0  0  0  0
    0.6493    1.6432    1.8258 O   0  5  0  0  0  0  0  0  0  0  0  0
   -0.3079    3.6458    1.8691 O   0  0  0  0  0  0  0  0  0  0  0  0
    0.1881    0.1678    1.7015 C   0  0  0  0  0  0  0  0  0  0  0  0
    1.3379    0.0002    2.1133 O   0  0  0  0  0  0  0  0  0  0  0  0
   -0.7666    0.7145    2.4656 N   0  0  0  0  0  0  0  0  0  0  0  0
   -1.6971    0.7705    2.0790 H   0  0  0  0  0  0  0  0  0  0  0  0
   -0.5716    1.1232    3.8542 C   0  0  0  0  0  0  0  0  0  0  0  0
    0.3083    1.7643    3.9293 H   0  0  0  0  0  0  0  0  0  0  0  0
   -1.4485    1.6640    4.2131 H   0  0  0  0  0  0  0  0  0  0  0  0
   -0.4137    0.2381    4.4736 H   0  0  0  0  0  0  0  0  0  0  0  0
  5  6  2  0  0  0  0
  5  7  1  0  0  0  0
  2  3  1  0  0  0  0
  2  4  1  0  0  0  0
  2  5  1  0  0  0  0
  1  2  1  0  0  0  0
 20 21  2  0  0  0  0
 20 22  1  0  0  0  0
 17 18  1  0  0  0  0
 17 19  2  0  0  0  0
 14 15  1  0  0  0  0
 14 16  1  0  0  0  0
 14 17  1  0  0  0  0
 11 12  1  0  0  0  0
 11 13  1  0  0  0  0
 11 14  1  0  0  0  0
  9 10  1  0  0  0  0
  9 11  1  0  0  0  0
  9 20  1  0  0  0  0
  7  8  1  0  0  0  0
  7  9  1  0  0  0  0
 24 25  1  0  0  0  0
 24 26  1  0  0  0  0
 24 27  1  0  0  0  0
 22 23  1  0  0  0  0
 22 24  1  0  0  0  0
M  CHG  1  18  -1
M  END
$$$$
default_name
  -OEChem-02102213163D

 27 26  0     1  0  0  0  0  0999 V2000
   -3.2406   -3.5400    1.2326 H   0  0  0  0  0  0  0  0  0  0  0  0
   -3.1436   -2.6190    0.6606 C   0  0  0  0  0  0  0  0  0  0  0  0
   -3.8786   -1.8920    0.9996 H   0  0  0  0  0  0  0  0  0  0  0  0
   -3.2846   -2.8280   -0.3984 H   0  0  0  0  0  0  0  0  0  0  0  0
   -1.7586   -2.0580    0.8686 C   0  0  0  0  0  0  0  0  0  0  0  0
   -0.9666   -2.6340    1.6026 O   0  0  0  0  0  0  0  0  0  0  0  0
   -1.4866   -0.9220    0.2366 N   0  0  0  0  0  0  0  0  0  0  0  0
   -2.2166   -0.4790   -0.2994 H   0  0  0  0  0  0  0  0  0  0  0  0
   -0.1956   -0.2250    0.2596 C   0  0  1  0  0  0  0  0  0  0  0  0
    0.5755   -0.9013   -0.1105 H   0  0  0  0  0  0  0  0  0  0  0  0
   -0.2553    0.9811   -0.6992 C   0  0  0  0  0  0  0  0  0  0  0  0
    0.7491    1.1492   -1.0910 H   0  0  0  0  0  0  0  0  0  0  0  0
   -0.9160    0.7448   -1.5345 H   0  0  0  0  0  0  0  0  0  0  0  0
   -0.7384    2.2761   -0.0245 C   0  0  0  0  0  0  0  0  0  0  0  0
   -0.7759    3.0745   -0.7695 H   0  0  0  0  0  0  0  0  0  0  0  0
   -1.7541    2.1120    0.3451 H   0  0  0  0  0  0  0  0  0  0  0  0
    0.1567    2.7289    1.1385 C   0  0  0  0  0  0  0  0  0  0  0  0
    1.0788    1.9682    1.5095 O   0  5  0  0  0  0  0  0  0  0  0  0
   -0.0852    3.8550    1.6270 O   0  0  0  0  0  0  0  0  0  0  0  0
    0.1881    0.1678    1.7015 C   0  0  0  0  0  0  0  0  0  0  0  0
    1.3379    0.0002    2.1133 O   0  0  0  0  0  0  0  0  0  0  0  0
   -0.7666    0.7145    2.4656 N   0  0  0  0  0  0  0  0  0  0  0  0
   -1.6971    0.7705    2.0790 H   0  0  0  0  0  0  0  0  0  0  0  0
   -0.5716    1.1232    3.8542 C   0  0  0  0  0  0  0  0  0  0  0  0
    0.3083    1.7643    3.9293 H   0  0  0  0  0  0  0  0  0  0  0  0
   -1.4485    1.6640    4.2131 H   0  0  0  0  0  0  0  0  0  0  0  0
   -0.4137    0.2381    4.4736 H   0  0  0  0  0  0  0  0  0  0  0  0
  5  6  2  0  0  0  0
  5  7  1  0  0  0  0
  2  3  1  0  0  0  0
  2  4  1  0  0  0  0
  2  5  1  0  0  0  0
  1  2  1  0  0  0  0
 20 21  2  0  0  0  0
 20 22  1  0  0  0  0
 17 18  1  0  0  0  0
 17 19  2  0  0  0  0
 14 15  1  0  0  0  0
 14 16  1  0  0  0  0
 14 17  1  0  0  0  0
 11 12  1  0  0  0  0
 11 13  1  0  0  0  0
 11 14  1  0  0  0  0
  9 10  1  0  0  0  0
  9 11  1  0  0  0  0
  9 20  1  0  0  0  0
  7  8  1  0  0  0  0
  7  9  1  0  0  0  0
 24 25  1  0  0  0  0
 24 26  1  0  0  0  0
 24 27  1  0  0  0  0
 22 23  1  0  0  0  0
 22 24  1  0  0  0  0
M  CHG  1  18  -1
M  END
$$$$
default_name
  -OEChem-02102213163D

 27 26  0     1  0  0  0  0  0999 V2000
   -3.2406   -3.5400    1.2326 H   0  0  0  0  0  0  0  0  0  0  0  0
   -3.1436   -2.6190    0.6606 C   0  0  0  0  0  0  0  0  0  0  0  0
   -3.8786   -1.8920    0.9996 H   0  0  0  0  0  0  0  0  0  0  0  0
   -3.2846   -2.8280   -0.3984 H   0  0  0  0  0  0  0  0  0  0  0  0
   -1.7586   -2.0580    0.8686 C   0  0  0  0  0  0  0  0  0  0  0  0
   -0.9666   -2.6340    1.6026 O   0  0  0  0  0  0  0  0  0  0  0  0
   -1.4866   -0.9220    0.2366 N   0  0  0  0  0  0  0  0  0  0  0  0
   -2.2166   -0.4790   -0.2994 H   0  0  0  0  0  0  0  0  0  0  0  0
   -0.1956   -0.2250    0.2596 C   0  0  1  0  0  0  0  0  0  0  0  0
    0.5755   -0.9013   -0.1105 H   0  0  0  0  0  0  0  0  0  0  0  0
   -0.2553    0.9811   -0.6992 C   0  0  0  0  0  0  0  0  0  0  0  0
    0.7491    1.1492   -1.0910 H   0  0  0  0  0  0  0  0  0  0  0  0
   -0.9160    0.7448   -1.5345 H   0  0  0  0  0  0  0  0  0  0  0  0
   -0.7384    2.2761   -0.0245 C   0  0  0  0  0  0  0  0  0  0  0  0
   -1.0315    2.9928   -0.7955 H   0  0  0  0  0  0  0  0  0  0  0  0
   -1.6240    2.0422    0.5723 H   0  0  0  0  0  0  0  0  0  0  0  0
    0.3217    2.9272    0.8761 C   0  0  0  0  0  0  0  0  0  0  0  0
    1.3878    2.3052    1.0839 O   0  5  0  0  0  0  0  0  0  0  0  0
    0.0534    4.0627    1.3277 O   0  0  0  0  0  0  0  0  0  0  0  0
    0.1881    0.1678    1.7015 C   0  0  0  0  0  0  0  0  0  0  0  0
    1.3379    0.0002    2.1133 O   0  0  0  0  0  0  0  0  0  0  0  0
   -0.7666    0.7145    2.4656 N   0  0  0  0  0  0  0  0  0  0  0  0
   -1.6971    0.7705    2.0790 H   0  0  0  0  0  0  0  0  0  0  0  0
   -0.5716    1.1232    3.8542 C   0  0  0  0  0  0  0  0  0  0  0  0
    0.3083    1.7643    3.9293 H   0  0  0  0  0  0  0  0  0  0  0  0
   -1.4485    1.6640    4.2131 H   0  0  0  0  0  0  0  0  0  0  0  0
   -0.4137    0.2381    4.4736 H   0  0  0  0  0  0  0  0  0  0  0  0
  5  6  2  0  0  0  0
  5  7  1  0  0  0  0
  2  3  1  0  0  0  0
  2  4  1  0  0  0  0
  2  5  1  0  0  0  0
  1  2  1  0  0  0  0
 20 21  2  0  0  0  0
 20 22  1  0  0  0  0
 17 18  1  0  0  0  0
 17 19  2  0  0  0  0
 14 15  1  0  0  0  0
 14 16  1  0  0  0  0
 14 17  1  0  0  0  0
 11 12  1  0  0  0  0
 11 13  1  0  0  0  0
 11 14  1  0  0  0  0
  9 10  1  0  0  0  0
  9 11  1  0  0  0  0
  9 20  1  0  0  0  0
  7  8  1  0  0  0  0
  7  9  1  0  0  0  0
 24 25  1  0  0  0  0
 24 26  1  0  0  0  0
 24 27  1  0  0  0  0
 22 23  1  0  0  0  0
 22 24  1  0  0  0  0
M  CHG  1  18  -1
M  END
$$$$
default_name
  -OEChem-02102213163D

 27 26  0     1  0  0  0  0  0999 V2000
   -3.2406   -3.5400    1.2326 H   0  0  0  0  0  0  0  0  0  0  0  0
   -3.1436   -2.6190    0.6606 C   0  0  0  0  0  0  0  0  0  0  0  0
   -3.8786   -1.8920    0.9996 H   0  0  0  0  0  0  0  0  0  0  0  0
   -3.2846   -2.8280   -0.3984 H   0  0  0  0  0  0  0  0  0  0  0  0
   -1.7586   -2.0580    0.8686 C   0  0  0  0  0  0  0  0  0  0  0  0
   -0.9666   -2.6340    1.6026 O   0  0  0  0  0  0  0  0  0  0  0  0
   -1.4866   -0.9220    0.2366 N   0  0  0  0  0  0  0  0  0  0  0  0
   -2.2166   -0.4790   -0.2994 H   0  0  0  0  0  0  0  0  0  0  0  0
   -0.1956   -0.2250    0.2596 C   0  0  1  0  0  0  0  0  0  0  0  0
    0.5755   -0.9013   -0.1105 H   0  0  0  0  0  0  0  0  0  0  0  0
   -0.2553    0.9811   -0.6992 C   0  0  0  0  0  0  0  0  0  0  0  0
    0.7491    1.1492   -1.0910 H   0  0  0  0  0  0  0  0  0  0  0  0
   -0.9160    0.7448   -1.5345 H   0  0  0  0  0  0  0  0  0  0  0  0
   -0.7384    2.2761   -0.0245 C   0  0  0  0  0  0  0  0  0  0  0  0
   -1.2747    2.8826   -0.7583 H   0  0  0  0  0  0  0  0  0  0  0  0
   -1.4409    2.0080    0.7691 H   0  0  0  0  0  0  0  0  0  0  0  0
    0.4014    3.1161    0.5706 C   0  0  0  0  0  0  0  0  0  0  0  0
    1.5552    2.6313    0.5780 O   0  5  0  0  0  0  0  0  0  0  0  0
    0.0985    4.2547    0.9914 O   0  0  0  0  0  0  0  0  0  0  0  0
    0.1881    0.1678    1.7015 C   0  0  0  0  0  0  0  0  0  0  0  0
    1.3379    0.0002    2.1133 O   0  0  0  0  0  0  0  0  0  0  0  0
   -0.7666    0.7145    2.4656 N   0  0  0  0  0  0  0  0  0  0  0  0
   -1.6971    0.7705    2.0790 H   0  0  0  0  0  0  0  0  0  0  0  0
   -0.5716    1.1232    3.8542 C   0  0  0  0  0  0  0  0  0  0  0  0
    0.3083    1.7643    3.9293 H   0  0  0  0  0  0  0  0  0  0  0  0
   -1.4485    1.6640    4.2131 H   0  0  0  0  0  0  0  0  0  0  0  0
   -0.4137    0.2381    4.4736 H   0  0  0  0  0  0  0  0  0  0  0  0
  5  6  2  0  0  0  0
  5  7  1  0  0  0  0
  2  3  1  0  0  0  0
  2  4  1  0  0  0  0
  2  5  1  0  0  0  0
  1  2  1  0  0  0  0
 20 21  2  0  0  0  0
 20 22  1  0  0  0  0
 17 18  1  0  0  0  0
 17 19  2  0  0  0  0
 14 15  1  0  0  0  0
 14 16  1  0  0  0  0
 14 17  1  0  0  0  0
 11 12  1  0  0  0  0
 11 13  1  0  0  0  0
 11 14  1  0  0  0  0
  9 10  1  0  0  0  0
  9 11  1  0  0  0  0
  9 20  1  0  0  0  0
  7  8  1  0  0  0  0
  7  9  1  0  0  0  0
 24 25  1  0  0  0  0
 24 26  1  0  0  0  0
 24 27  1  0  0  0  0
 22 23  1  0  0  0  0
 22 24  1  0  0  0  0
M  CHG  1  18  -1
M  END
$$$$
default_name
  -OEChem-02102213163D

 27 26  0     1  0  0  0  0  0999 V2000
   -3.2406   -3.5400    1.2326 H   0  0  0  0  0  0  0  0  0  0  0  0
   -3.1436   -2.6190    0.6606 C   0  0  0  0  0  0  0  0  0  0  0  0
   -3.8786   -1.8920    0.9996 H   0  0  0  0  0  0  0  0  0  0  0  0
   -3.2846   -2.8280   -0.3984 H   0  0  0  0  0  0  0  0  0  0  0  0
   -1.7586   -2.0580    0.8686 C   0  0  0  0  0  0  0  0  0  0  0  0
   -0.9666   -2.6340    1.6026 O   0  0  0  0  0  0  0  0  0  0  0  0
   -1.4866   -0.9220    0.2366 N   0  0  0  0  0  0  0  0  0  0  0  0
   -2.2166   -0.4790   -0.2994 H   0  0  0  0  0  0  0  0  0  0  0  0
   -0.1956   -0.2250    0.2596 C   0  0  1  0  0  0  0  0  0  0  0  0
    0.5755   -0.9013   -0.1105 H   0  0  0  0  0  0  0  0  0  0  0  0
   -0.2553    0.9811   -0.6992 C   0  0  0  0  0  0  0  0  0  0  0  0
    0.7491    1.1492   -1.0910 H   0  0  0  0  0  0  0  0  0  0  0  0
   -0.9160    0.7448   -1.5345 H   0  0  0  0  0  0  0  0  0  0  0  0
   -0.7384    2.2761   -0.0245 C   0  0  0  0  0  0  0  0  0  0  0  0
   -1.4890    2.7517   -0.6604 H   0  0  0  0  0  0  0  0  0  0  0  0
   -1.2172    2.0117    0.9221 H   0  0  0  0  0  0  0  0  0  0  0  0
    0.3903    3.2828    0.2427 C   0  0  0  0  0  0  0  0  0  0  0  0
    1.5698    2.9240    0.0264 O   0  5  0  0  0  0  0  0  0  0  0  0
    0.0469    4.4179    0.6412 O   0  0  0  0  0  0  0  0  0  0  0  0
    0.1881    0.1678    1.7015 C   0  0  0  0  0  0  0  0  0  0  0  0
    1.3379    0.0002    2.1133 O   0  0  0  0  0  0  0  0  0  0  0  0
   -0.7666    0.7145    2.4656 N   0  0  0  0  0  0  0  0  0  0  0  0
   -1.6971    0.7705    2.0790 H   0  0  0  0  0  0  0  0  0  0  0  0
   -0.5716    1.1232    3.8542 C   0  0  0  0  0  0  0  0  0  0  0  0
    0.3083    1.7643    3.9293 H   0  0  0  0  0  0  0  0  0  0  0  0
   -1.4485    1.6640    4.2131 H   0  0  0  0  0  0  0  0  0  0  0  0
   -0.4137    0.2381    4.4736 H   0  0  0  0  0  0  0  0  0  0  0  0
  5  6  2  0  0  0  0
  5  7  1  0  0  0  0
  2  3  1  0  0  0  0
  2  4  1  0  0  0  0
  2  5  1  0  0  0  0
  1  2  1  0  0  0  0
 20 21  2  0  0  0  0
 20 22  1  0  0  0  0
 17 18  1  0  0  0  0
 17 19  2  0  0  0  0
 14 15  1  0  0  0  0
 14 16  1  0  0  0  0
 14 17  1  0  0  0  0
 11 12  1  0  0  0  0
 11 13  1  0  0  0  0
 11 14  1  0  0  0  0
  9 10  1  0  0  0  0
  9 11  1  0  0  0  0
  9 20  1  0  0  0  0
  7  8  1  0  0  0  0
  7  9  1  0  0  0  0
 24 25  1  0  0  0  0
 24 26  1  0  0  0  0
 24 27  1  0  0  0  0
 22 23  1  0  0  0  0
 22 24  1  0  0  0  0
M  CHG  1  18  -1
M  END
$$$$
default_name
  -OEChem-02102213163D

 27 26  0     1  0  0  0  0  0999 V2000
   -3.2406   -3.5400    1.2326 H   0  0  0  0  0  0  0  0  0  0  0  0
   -3.1436   -2.6190    0.6606 C   0  0  0  0  0  0  0  0  0  0  0  0
   -3.8786   -1.8920    0.9996 H   0  0  0  0  0  0  0  0  0  0  0  0
   -3.2846   -2.8280   -0.3984 H   0  0  0  0  0  0  0  0  0  0  0  0
   -1.7586   -2.0580    0.8686 C   0  0  0  0  0  0  0  0  0  0  0  0
   -0.9666   -2.6340    1.6026 O   0  0  0  0  0  0  0  0  0  0  0  0
   -1.4866   -0.9220    0.2366 N   0  0  0  0  0  0  0  0  0  0  0  0
   -2.2166   -0.4790   -0.2994 H   0  0  0  0  0  0  0  0  0  0  0  0
   -0.1956   -0.2250    0.2596 C   0  0  1  0  0  0  0  0  0  0  0  0
    0.5755   -0.9013   -0.1105 H   0  0  0  0  0  0  0  0  0  0  0  0
   -0.2553    0.9811   -0.6992 C   0  0  0  0  0  0  0  0  0  0  0  0
    0.7491    1.1492   -1.0910 H   0  0  0  0  0  0  0  0  0  0  0  0
   -0.9160    0.7448   -1.5345 H   0  0  0  0  0  0  0  0  0  0  0  0
   -0.7384    2.2761   -0.0245 C   0  0  0  0  0  0  0  0  0  0  0  0
   -1.6598    2.6088   -0.5085 H   0  0  0  0  0  0  0  0  0  0  0  0
   -0.9683    2.0532    1.0208 H   0  0  0  0  0  0  0  0  0  0  0  0
    0.2893    3.4158   -0.0851 C   0  0  0  0  0  0  0  0  0  0  0  0
    1.4303    3.1636   -0.5333 O   0  5  0  0  0  0  0  0  0  0  0  0
   -0.0977    4.5413    0.3008 O   0  0  0  0  0  0  0  0  0  0  0  0
    0.1881    0.1678    1.7015 C   0  0  0  0  0  0  0  0  0  0  0  0
    1.3379    0.0002    2.1133 O   0  0  0  0  0  0  0  0  0  0  0  0
   -0.7666    0.7145    2.4656 N   0  0  0  0  0  0  0  0  0  0  0  0
   -1.6971    0.7705    2.0790 H   0  0  0  0  0  0  0  0  0  0  0  0
   -0.5716    1.1232    3.8542 C   0  0  0  0  0  0  0  0  0  0  0  0
    0.3083    1.7643    3.9293 H   0  0  0  0  0  0  0  0  0  0  0  0
   -1.4485    1.6640    4.2131 H   0  0  0  0  0  0  0  0  0  0  0  0
   -0.4137    0.2381    4.4736 H   0  0  0  0  0  0  0  0  0  0  0  0
  5  6  2  0  0  0  0
  5  7  1  0  0  0  0
  2  3  1  0  0  0  0
  2  4  1  0  0  0  0
  2  5  1  0  0  0  0
  1  2  1  0  0  0  0
 20 21  2  0  0  0  0
 20 22  1  0  0  0  0
 17 18  1  0  0  0  0
 17 19  2  0  0  0  0
 14 15  1  0  0  0  0
 14 16  1  0  0  0  0
 14 17  1  0  0  0  0
 11 12  1  0  0  0  0
 11 13  1  0  0  0  0
 11 14  1  0  0  0  0
  9 10  1  0  0  0  0
  9 11  1  0  0  0  0
  9 20  1  0  0  0  0
  7  8  1  0  0  0  0
  7  9  1  0  0  0  0
 24 25  1  0  0  0  0
 24 26  1  0  0  0  0
 24 27  1  0  0  0  0
 22 23  1  0  0  0  0
 22 24  1  0  0  0  0
M  CHG  1  18  -1
M  END
$$$$
default_name
  -OEChem-02102213163D

 27 26  0     1  0  0  0  0  0999 V2000
   -3.2406   -3.5400    1.2326 H   0  0  0  0  0  0  0  0  0  0  0  0
   -3.1436   -2.6190    0.6606 C   0  0  0  0  0  0  0  0  0  0  0  0
   -3.8786   -1.8920    0.9996 H   0  0  0  0  0  0  0  0  0  0  0  0
   -3.2846   -2.8280   -0.3984 H   0  0  0  0  0  0  0  0  0  0  0  0
   -1.7586   -2.0580    0.8686 C   0  0  0  0  0  0  0  0  0  0  0  0
   -0.9666   -2.6340    1.6026 O   0  0  0  0  0  0  0  0  0  0  0  0
   -1.4866   -0.9220    0.2366 N   0  0  0  0  0  0  0  0  0  0  0  0
   -2.2166   -0.4790   -0.2994 H   0  0  0  0  0  0  0  0  0  0  0  0
   -0.1956   -0.2250    0.2596 C   0  0  1  0  0  0  0  0  0  0  0  0
    0.5755   -0.9013   -0.1105 H   0  0  0  0  0  0  0  0  0  0  0  0
   -0.2553    0.9811   -0.6992 C   0  0  0  0  0  0  0  0  0  0  0  0
    0.7491    1.1492   -1.0910 H   0  0  0  0  0  0  0  0  0  0  0  0
   -0.9160    0.7448   -1.5345 H   0  0  0  0  0  0  0  0  0  0  0  0
   -0.7384    2.2761   -0.0245 C   0  0  0  0  0  0  0  0  0  0  0  0
   -1.7755    2.4638   -0.3129 H   0  0  0  0  0  0  0  0  0  0  0  0
   -0.7110    2.1295    1.0585 H   0  0  0  0  0  0  0  0  0  0  0  0
    0.1051    3.5063   -0.3905 C   0  0  0  0  0  0  0  0  0  0  0  0
    1.1465    3.3338   -1.0631 O   0  5  0  0  0  0  0  0  0  0  0  0
   -0.3256    4.6163   -0.0064 O   0  0  0  0  0  0  0  0  0  0  0  0
    0.1881    0.1678    1.7015 C   0  0  0  0  0  0  0  0  0  0  0  0
    1.3379    0.0002    2.1133 O   0  0  0  0  0  0  0  0  0  0  0  0
   -0.7666    0.7145    2.4656 N   0  0  0  0  0  0  0  0  0  0  0  0
   -1.6971    0.7705    2.0790 H   0  0  0  0  0  0  0  0  0  0  0  0
   -0.5716    1.1232    3.8542 C   0  0  0  0  0  0  0  0  0  0  0  0
    0.3083    1.7643    3.9293 H   0  0  0  0  0  0  0  0  0  0  0  0
   -1.4485    1.6640    4.2131 H   0  0  0  0  0  0  0  0  0  0  0  0
   -0.4137    0.2381    4.4736 H   0  0  0  0  0  0  0  0  0  0  0  0
  5  6  2  0  0  0  0
  5  7  1  0  0  0  0
  2  3  1  0  0  0  0
  2  4  1  0  0  0  0
  2  5  1  0  0  0  0
  1  2  1  0  0  0  0
 20 21  2  0  0  0  0
 20 22  1  0  0  0  0
 17 18  1  0  0  0  0
 17 19  2  0  0  0  0
 14 15  1  0  0  0  0
 14 16  1  0  0  0  0
 14 17  1  0  0  0  0
 11 12  1  0  0  0  0
 11 13  1  0  0  0  0
 11 14  1  0  0  0  0
  9 10  1  0  0  0  0
  9 11  1  0  0  0  0
  9 20  1  0  0  0  0
  7  8  1  0  0  0  0
  7  9  1  0  0  0  0
 24 25  1  0  0  0  0
 24 26  1  0  0  0  0
 24 27  1  0  0  0  0
 22 23  1  0  0  0  0
 22 24  1  0  0  0  0
M  CHG  1  18  -1
M  END
$$$$
default_name
  -OEChem-02102213163D

 27 26  0     1  0  0  0  0  0999 V2000
   -3.2406   -3.5400    1.2326 H   0  0  0  0  0  0  0  0  0  0  0  0
   -3.1436   -2.6190    0.6606 C   0  0  0  0  0  0  0  0  0  0  0  0
   -3.8786   -1.8920    0.9996 H   0  0  0  0  0  0  0  0  0  0  0  0
   -3.2846   -2.8280   -0.3984 H   0  0  0  0  0  0  0  0  0  0  0  0
   -1.7586   -2.0580    0.8686 C   0  0  0  0  0  0  0  0  0  0  0  0
   -0.9666   -2.6340    1.6026 O   0  0  0  0  0  0  0  0  0  0  0  0
   -1.4866   -0.9220    0.2366 N   0  0  0  0  0  0  0  0  0  0  0  0
   -2.2166   -0.4790   -0.2994 H   0  0  0  0  0  0  0  0  0  0  0  0
   -0.1956   -0.2250    0.2596 C   0  0  1  0  0  0  0  0  0  0  0  0
    0.5755   -0.9013   -0.1105 H   0  0  0  0  0  0  0  0  0  0  0  0
   -0.2553    0.9811   -0.6992 C   0  0  0  0  0  0  0  0  0  0  0  0
    0.7491    1.1492   -1.0910 H   0  0  0  0  0  0  0  0  0  0  0  0
   -0.9160    0.7448   -1.5345 H   0  0  0  0  0  0  0  0  0  0  0  0
   -0.7384    2.2761   -0.0245 C   0  0  0  0  0  0  0  0  0  0  0  0
   -1.8281    2.3264   -0.0870 H   0  0  0  0  0  0  0  0  0  0  0  0
   -0.4630    2.2355    1.0326 H   0  0  0  0  0  0  0  0  0  0  0  0
   -0.1496    3.5479   -0.6528 C   0  0  0  0  0  0  0  0  0  0  0  0
    0.7375    3.4228   -1.5268 O   0  5  0  0  0  0  0  0  0  0  0  0
   -0.6212    4.6380   -0.2596 O   0  0  0  0  0  0  0  0  0  0  0  0
    0.1881    0.1678    1.7015 C   0  0  0  0  0  0  0  0  0  0  0  0
    1.3379    0.0002    2.1133 O   0  0  0  0  0  0  0  0  0  0  0  0
   -0.7666    0.7145    2.4656 N   0  0  0  0  0  0  0  0  0  0  0  0
   -1.6971    0.7705    2.0790 H   0  0  0  0  0  0  0  0  0  0  0  0
   -0.5716    1.1232    3.8542 C   0  0  0  0  0  0  0  0  0  0  0  0
    0.3083    1.7643    3.9293 H   0  0  0  0  0  0  0  0  0  0  0  0
   -1.4485    1.6640    4.2131 H   0  0  0  0  0  0  0  0  0  0  0  0
   -0.4137    0.2381    4.4736 H   0  0  0  0  0  0  0  0  0  0  0  0
  5  6  2  0  0  0  0
  5  7  1  0  0  0  0
  2  3  1  0  0  0  0
  2  4  1  0  0  0  0
  2  5  1  0  0  0  0
  1  2  1  0  0  0  0
 20 21  2  0  0  0  0
 20 22  1  0  0  0  0
 17 18  1  0  0  0  0
 17 19  2  0  0  0  0
 14 15  1  0  0  0  0
 14 16  1  0  0  0  0
 14 17  1  0  0  0  0
 11 12  1  0  0  0  0
 11 13  1  0  0  0  0
 11 14  1  0  0  0  0
  9 10  1  0  0  0  0
  9 11  1  0  0  0  0
  9 20  1  0  0  0  0
  7  8  1  0  0  0  0
  7  9  1  0  0  0  0
 24 25  1  0  0  0  0
 24 26  1  0  0  0  0
 24 27  1  0  0  0  0
 22 23  1  0  0  0  0
 22 24  1  0  0  0  0
M  CHG  1  18  -1
M  END
$$$$
default_name
  -OEChem-02102213163D

 27 26  0     1  0  0  0  0  0999 V2000
   -3.2406   -3.5400    1.2326 H   0  0  0  0  0  0  0  0  0  0  0  0
   -3.1436   -2.6190    0.6606 C   0  0  0  0  0  0  0  0  0  0  0  0
   -3.8786   -1.8920    0.9996 H   0  0  0  0  0  0  0  0  0  0  0  0
   -3.2846   -2.8280   -0.3984 H   0  0  0  0  0  0  0  0  0  0  0  0
   -1.7586   -2.0580    0.8686 C   0  0  0  0  0  0  0  0  0  0  0  0
   -0.9666   -2.6340    1.6026 O   0  0  0  0  0  0  0  0  0  0  0  0
   -1.4866   -0.9220    0.2366 N   0  0  0  0  0  0  0  0  0  0  0  0
   -2.2166   -0.4790   -0.2994 H   0  0  0  0  0  0  0  0  0  0  0  0
   -0.1956   -0.2250    0.2596 C   0  0  1  0  0  0  0  0  0  0  0  0
    0.5755   -0.9013   -0.1105 H   0  0  0  0  0  0  0  0  0  0  0  0
   -0.2553    0.9811   -0.6992 C   0  0  0  0  0  0  0  0  0  0  0  0
    0.7491    1.1492   -1.0910 H   0  0  0  0  0  0  0  0  0  0  0  0
   -0.9160    0.7448   -1.5345 H   0  0  0  0  0  0  0  0  0  0  0  0
   -0.7384    2.2761   -0.0245 C   0  0  0  0  0  0  0  0  0  0  0  0
   -1.8142    2.2062    0.1538 H   0  0  0  0  0  0  0  0  0  0  0  0
   -0.2411    2.3639    0.9450 H   0  0  0  0  0  0  0  0  0  0  0  0
   -0.4575    3.5378   -0.8540 C   0  0  0  0  0  0  0  0  0  0  0  0
    0.2314    3.4246   -1.8928 O   0  5  0  0  0  0  0  0  0  0  0  0
   -0.9644    4.6047   -0.4415 O   0  0  0  0  0  0  0  0  0  0  0  0
    0.1881    0.1678    1.7015 C   0  0  0  0  0  0  0  0  0  0  0  0
    1.3379    0.0002    2.1133 O   0  0  0  0  0  0  0  0  0  0  0  0
   -0.7666    0.7145    2.4656 N   0  0  0  0  0  0  0  0  0  0  0  0
   -1.6971    0.7705    2.0790 H   0  0  0  0  0  0  0  0  0  0  0  0
   -0.5716    1.1232    3.8542 C   0  0  0  0  0  0  0  0  0  0  0  0
    0.3083    1.7643    3.9293 H   0  0  0  0  0  0  0  0  0  0  0  0
   -1.4485    1.6640    4.2131 H   0  0  0  0  0  0  0  0  0  0  0  0
   -0.4137    0.2381    4.4736 H   0  0  0  0  0  0  0  0  0  0  0  0
  5  6  2  0  0  0  0
  5  7  1  0  0  0  0
  2  3  1  0  0  0  0
  2  4  1  0  0  0  0
  2  5  1  0  0  0  0
  1  2  1  0  0  0  0
 20 21  2  0  0  0  0
 20 22  1  0  0  0  0
 17 18  1  0  0  0  0
 17 19  2  0  0  0  0
 14 15  1  0  0  0  0
 14 16  1  0  0  0  0
 14 17  1  0  0  0  0
 11 12  1  0  0  0  0
 11 13  1  0  0  0  0
 11 14  1  0  0  0  0
  9 10  1  0  0  0  0
  9 11  1  0  0  0  0
  9 20  1  0  0  0  0
  7  8  1  0  0  0  0
  7  9  1  0  0  0  0
 24 25  1  0  0  0  0
 24 26  1  0  0  0  0
 24 27  1  0  0  0  0
 22 23  1  0  0  0  0
 22 24  1  0  0  0  0
M  CHG  1  18  -1
M  END
$$$$
default_name
  -OEChem-02102213163D

 27 26  0     1  0  0  0  0  0999 V2000
   -3.2406   -3.5400    1.2326 H   0  0  0  0  0  0  0  0  0  0  0  0
   -3.1436   -2.6190    0.6606 C   0  0  0  0  0  0  0  0  0  0  0  0
   -3.8786   -1.8920    0.9996 H   0  0  0  0  0  0  0  0  0  0  0  0
   -3.2846   -2.8280   -0.3984 H   0  0  0  0  0  0  0  0  0  0  0  0
   -1.7586   -2.0580    0.8686 C   0  0  0  0  0  0  0  0  0  0  0  0
   -0.9666   -2.6340    1.6026 O   0  0  0  0  0  0  0  0  0  0  0  0
   -1.4866   -0.9220    0.2366 N   0  0  0  0  0  0  0  0  0  0  0  0
   -2.2166   -0.4790   -0.2994 H   0  0  0  0  0  0  0  0  0  0  0  0
   -0.1956   -0.2250    0.2596 C   0  0  1  0  0  0  0  0  0  0  0  0
    0.5755   -0.9013   -0.1105 H   0  0  0  0  0  0  0  0  0  0  0  0
   -0.2553    0.9811   -0.6992 C   0  0  0  0  0  0  0  0  0  0  0  0
    0.6621    0.9869   -1.2898 H   0  0  0  0  0  0  0  0  0  0  0  0
   -1.1012    0.8604   -1.3775 H   0  0  0  0  0  0  0  0  0  0  0  0
   -0.3778    2.3328    0.0243 C   0  0  0  0  0  0  0  0  0  0  0  0
   -1.2815    2.3287    0.6385 H   0  0  0  0  0  0  0  0  0  0  0  0
    0.4819    2.4445    0.6904 H   0  0  0  0  0  0  0  0  0  0  0  0
   -0.4372    3.5335   -0.9316 C   0  0  0  0  0  0  0  0  0  0  0  0
   -0.2498    3.3307   -2.1523 O   0  5  0  0  0  0  0  0  0  0  0  0
   -0.6970    4.6454   -0.4202 O   0  0  0  0  0  0  0  0  0  0  0  0
    0.1881    0.1678    1.7015 C   0  0  0  0  0  0  0  0  0  0  0  0
    1.3379    0.0002    2.1133 O   0  0  0  0  0  0  0  0  0  0  0  0
   -0.7666    0.7145    2.4656 N   0  0  0  0  0  0  0  0  0  0  0  0
   -1.6971    0.7705    2.0790 H   0  0  0  0  0  0  0  0  0  0  0  0
   -0.5716    1.1232    3.8542 C   0  0  0  0  0  0  0  0  0  0  0  0
    0.3083    1.7643    3.9293 H   0  0  0  0  0  0  0  0  0  0  0  0
   -1.4485    1.6640    4.2131 H   0  0  0  0  0  0  0  0  0  0  0  0
   -0.4137    0.2381    4.4736 H   0  0  0  0  0  0  0  0  0  0  0  0
  5  6  2  0  0  0  0
  5  7  1  0  0  0  0
  2  3  1  0  0  0  0
  2  4  1  0  0  0  0
  2  5  1  0  0  0  0
  1  2  1  0  0  0  0
 20 21  2  0  0  0  0
 20 22  1  0  0  0  0
 17 18  1  0  0  0  0
 17 19  2  0  0  0  0
 14 15  1  0  0  0  0
 14 16  1  0  0  0  0
 14 17  1  0  0  0  0
 11 12  1  0  0  0  0
 11 13  1  0  0  0  0
 11 14  1  0  0  0  0
  9 10  1  0  0  0  0
  9 11  1  0  0  0  0
  9 20  1  0  0  0  0
  7  8  1  0  0  0  0
  7  9  1  0  0  0  0
 24 25  1  0  0  0  0
 24 26  1  0  0  0  0
 24 27  1  0  0  0  0
 22 23  1  0  0  0  0
 22 24  1  0  0  0  0
M  CHG  1  18  -1
M  END
$$$$
default_name
  -OEChem-02102213163D

 27 26  0     1  0  0  0  0  0999 V2000
   -3.2406   -3.5400    1.2326 H   0  0  0  0  0  0  0  0  0  0  0  0
   -3.1436   -2.6190    0.6606 C   0  0  0  0  0  0  0  0  0  0  0  0
   -3.8786   -1.8920    0.9996 H   0  0  0  0  0  0  0  0  0  0  0  0
   -3.2846   -2.8280   -0.3984 H   0  0  0  0  0  0  0  0  0  0  0  0
   -1.7586   -2.0580    0.8686 C   0  0  0  0  0  0  0  0  0  0  0  0
   -0.9666   -2.6340    1.6026 O   0  0  0  0  0  0  0  0  0  0  0  0
   -1.4866   -0.9220    0.2366 N   0  0  0  0  0  0  0  0  0  0  0  0
   -2.2166   -0.4790   -0.2994 H   0  0  0  0  0  0  0  0  0  0  0  0
   -0.1956   -0.2250    0.2596 C   0  0  1  0  0  0  0  0  0  0  0  0
    0.5755   -0.9013   -0.1105 H   0  0  0  0  0  0  0  0  0  0  0  0
   -0.2553    0.9811   -0.6992 C   0  0  0  0  0  0  0  0  0  0  0  0
    0.6621    0.9869   -1.2898 H   0  0  0  0  0  0  0  0  0  0  0  0
   -1.1012    0.8604   -1.3775 H   0  0  0  0  0  0  0  0  0  0  0  0
   -0.3778    2.3328    0.0243 C   0  0  0  0  0  0  0  0  0  0  0  0
   -1.1114    2.2421    0.8290 H   0  0  0  0  0  0  0  0  0  0  0  0
    0.5896    2.5694    0.4753 H   0  0  0  0  0  0  0  0  0  0  0  0
   -0.8005    3.4839   -0.9004 C   0  0  0  0  0  0  0  0  0  0  0  0
   -0.8704    3.2627   -2.1304 O   0  5  0  0  0  0  0  0  0  0  0  0
   -1.0738    4.5739   -0.3505 O   0  0  0  0  0  0  0  0  0  0  0  0
    0.1881    0.1678    1.7015 C   0  0  0  0  0  0  0  0  0  0  0  0
    1.3379    0.0002    2.1133 O   0  0  0  0  0  0  0  0  0  0  0  0
   -0.7666    0.7145    2.4656 N   0  0  0  0  0  0  0  0  0  0  0  0
   -1.6971    0.7705    2.0790 H   0  0  0  0  0  0  0  0  0  0  0  0
   -0.5716    1.1232    3.8542 C   0  0  0  0  0  0  0  0  0  0  0  0
    0.3083    1.7643    3.9293 H   0  0  0  0  0  0  0  0  0  0  0  0
   -1.4485    1.6640    4.2131 H   0  0  0  0  0  0  0  0  0  0  0  0
   -0.4137    0.2381    4.4736 H   0  0  0  0  0  0  0  0  0  0  0  0
  5  6  2  0  0  0  0
  5  7  1  0  0  0  0
  2  3  1  0  0  0  0
  2  4  1  0  0  0  0
  2  5  1  0  0  0  0
  1  2  1  0  0  0  0
 20 21  2  0  0  0  0
 20 22  1  0  0  0  0
 17 18  1  0  0  0  0
 17 19  2  0  0  0  0
 14 15  1  0  0  0  0
 14 16  1  0  0  0  0
 14 17  1  0  0  0  0
 11 12  1  0  0  0  0
 11 13  1  0  0  0  0
 11 14  1  0  0  0  0
  9 10  1  0  0  0  0
  9 11  1  0  0  0  0
  9 20  1  0  0  0  0
  7  8  1  0  0  0  0
  7  9  1  0  0  0  0
 24 25  1  0  0  0  0
 24 26  1  0  0  0  0
 24 27  1  0  0  0  0
 22 23  1  0  0  0  0
 22 24  1  0  0  0  0
M  CHG  1  18  -1
M  END
$$$$
default_name
  -OEChem-02102213163D

 27 26  0     1  0  0  0  0  0999 V2000
   -3.2406   -3.5400    1.2326 H   0  0  0  0  0  0  0  0  0  0  0  0
   -3.1436   -2.6190    0.6606 C   0  0  0  0  0  0  0  0  0  0  0  0
   -3.8786   -1.8920    0.9996 H   0  0  0  0  0  0  0  0  0  0  0  0
   -3.2846   -2.8280   -0.3984 H   0  0  0  0  0  0  0  0  0  0  0  0
   -1.7586   -2.0580    0.8686 C   0  0  0  0  0  0  0  0  0  0  0  0
   -0.9666   -2.6340    1.6026 O   0  0  0  0  0  0  0  0  0  0  0  0
   -1.4866   -0.9220    0.2366 N   0  0  0  0  0  0  0  0  0  0  0  0
   -2.2166   -0.4790   -0.2994 H   0  0  0  0  0  0  0  0  0  0  0  0
   -0.1956   -0.2250    0.2596 C   0  0  1  0  0  0  0  0  0  0  0  0
    0.5755   -0.9013   -0.1105 H   0  0  0  0  0  0  0  0  0  0  0  0
   -0.2553    0.9811   -0.6992 C   0  0  0  0  0  0  0  0  0  0  0  0
    0.6621    0.9869   -1.2898 H   0  0  0  0  0  0  0  0  0  0  0  0
   -1.1012    0.8604   -1.3775 H   0  0  0  0  0  0  0  0  0  0  0  0
   -0.3778    2.3328    0.0243 C   0  0  0  0  0  0  0  0  0  0  0  0
   -0.8934    2.1832    0.9760 H   0  0  0  0  0  0  0  0  0  0  0  0
    0.6294    2.6987    0.2405 H   0  0  0  0  0  0  0  0  0  0  0  0
   -1.1382    3.3924   -0.7867 C   0  0  0  0  0  0  0  0  0  0  0  0
   -1.4565    3.1219   -1.9666 O   0  5  0  0  0  0  0  0  0  0  0  0
   -1.4132    4.4604   -0.1959 O   0  0  0  0  0  0  0  0  0  0  0  0
    0.1881    0.1678    1.7015 C   0  0  0  0  0  0  0  0  0  0  0  0
    1.3379    0.0002    2.1133 O   0  0  0  0  0  0  0  0  0  0  0  0
   -0.7666    0.7145    2.4656 N   0  0  0  0  0  0  0  0  0  0  0  0
   -1.6971    0.7705    2.0790 H   0  0  0  0  0  0  0  0  0  0  0  0
   -0.5716    1.1232    3.8542 C   0  0  0  0  0  0  0  0  0  0  0  0
    0.3083    1.7643    3.9293 H   0  0  0  0  0  0  0  0  0  0  0  0
   -1.4485    1.6640    4.2131 H   0  0  0  0  0  0  0  0  0  0  0  0
   -0.4137    0.2381    4.4736 H   0  0  0  0  0  0  0  0  0  0  0  0
  5  6  2  0  0  0  0
  5  7  1  0  0  0  0
  2  3  1  0  0  0  0
  2  4  1  0  0  0  0
  2  5  1  0  0  0  0
  1  2  1  0  0  0  0
 20 21  2  0  0  0  0
 20 22  1  0  0  0  0
 17 18  1  0  0  0  0
 17 19  2  0  0  0  0
 14 15  1  0  0  0  0
 14 16  1  0  0  0  0
 14 17  1  0  0  0  0
 11 12  1  0  0  0  0
 11 13  1  0  0  0  0
 11 14  1  0  0  0  0
  9 10  1  0  0  0  0
  9 11  1  0  0  0  0
  9 20  1  0  0  0  0
  7  8  1  0  0  0  0
  7  9  1  0  0  0  0
 24 25  1  0  0  0  0
 24 26  1  0  0  0  0
 24 27  1  0  0  0  0
 22 23  1  0  0  0  0
 22 24  1  0  0  0  0
M  CHG  1  18  -1
M  END
$$$$
default_name
  -OEChem-02102213163D

 27 26  0     1  0  0  0  0  0999 V2000
   -3.2406   -3.5400    1.2326 H   0  0  0  0  0  0  0  0  0  0  0  0
   -3.1436   -2.6190    0.6606 C   0  0  0  0  0  0  0  0  0  0  0  0
   -3.8786   -1.8920    0.9996 H   0  0  0  0  0  0  0  0  0  0  0  0
   -3.2846   -2.8280   -0.3984 H   0  0  0  0  0  0  0  0  0  0  0  0
   -1.7586   -2.0580    0.8686 C   0  0  0  0  0  0  0  0  0  0  0  0
   -0.9666   -2.6340    1.6026 O   0  0  0  0  0  0  0  0  0  0  0  0
   -1.4866   -0.9220    0.2366 N   0  0  0  0  0  0  0  0  0  0  0  0
   -2.2166   -0.4790   -0.2994 H   0  0  0  0  0  0  0  0  0  0  0  0
   -0.1956   -0.2250    0.2596 C   0  0  1  0  0  0  0  0  0  0  0  0
    0.5755   -0.9013   -0.1105 H   0  0  0  0  0  0  0  0  0  0  0  0
   -0.2553    0.9811   -0.6992 C   0  0  0  0  0  0  0  0  0  0  0  0
    0.6621    0.9869   -1.2898 H   0  0  0  0  0  0  0  0  0  0  0  0
   -1.1012    0.8604   -1.3775 H   0  0  0  0  0  0  0  0  0  0  0  0
   -0.3778    2.3328    0.0243 C   0  0  0  0  0  0  0  0  0  0  0  0
   -0.6421    2.1558    1.0697 H   0  0  0  0  0  0  0  0  0  0  0  0
    0.5988    2.8236    0.0020 H   0  0  0  0  0  0  0  0  0  0  0  0
   -1.4275    3.2653   -0.5982 C   0  0  0  0  0  0  0  0  0  0  0  0
   -1.9682    2.9180   -1.6722 O   0  5  0  0  0  0  0  0  0  0  0  0
   -1.6921    4.3127    0.0329 O   0  0  0  0  0  0  0  0  0  0  0  0
    0.1881    0.1678    1.7015 C   0  0  0  0  0  0  0  0  0  0  0  0
    1.3379    0.0002    2.1133 O   0  0  0  0  0  0  0  0  0  0  0  0
   -0.7666    0.7145    2.4656 N   0  0  0  0  0  0  0  0  0  0  0  0
   -1.6971    0.7705    2.0790 H   0  0  0  0  0  0  0  0  0  0  0  0
   -0.5716    1.1232    3.8542 C   0  0  0  0  0  0  0  0  0  0  0  0
    0.3083    1.7643    3.9293 H   0  0  0  0  0  0  0  0  0  0  0  0
   -1.4485    1.6640    4.2131 H   0  0  0  0  0  0  0  0  0  0  0  0
   -0.4137    0.2381    4.4736 H   0  0  0  0  0  0  0  0  0  0  0  0
  5  6  2  0  0  0  0
  5  7  1  0  0  0  0
  2  3  1  0  0  0  0
  2  4  1  0  0  0  0
  2  5  1  0  0  0  0
  1  2  1  0  0  0  0
 20 21  2  0  0  0  0
 20 22  1  0  0  0  0
 17 18  1  0  0  0  0
 17 19  2  0  0  0  0
 14 15  1  0  0  0  0
 14 16  1  0  0  0  0
 14 17  1  0  0  0  0
 11 12  1  0  0  0  0
 11 13  1  0  0  0  0
 11 14  1  0  0  0  0
  9 10  1  0  0  0  0
  9 11  1  0  0  0  0
  9 20  1  0  0  0  0
  7  8  1  0  0  0  0
  7  9  1  0  0  0  0
 24 25  1  0  0  0  0
 24 26  1  0  0  0  0
 24 27  1  0  0  0  0
 22 23  1  0  0  0  0
 22 24  1  0  0  0  0
M  CHG  1  18  -1
M  END
$$$$
default_name
  -OEChem-02102213163D

 27 26  0     1  0  0  0  0  0999 V2000
   -3.2406   -3.5400    1.2326 H   0  0  0  0  0  0  0  0  0  0  0  0
   -3.1436   -2.6190    0.6606 C   0  0  0  0  0  0  0  0  0  0  0  0
   -3.8786   -1.8920    0.9996 H   0  0  0  0  0  0  0  0  0  0  0  0
   -3.2846   -2.8280   -0.3984 H   0  0  0  0  0  0  0  0  0  0  0  0
   -1.7586   -2.0580    0.8686 C   0  0  0  0  0  0  0  0  0  0  0  0
   -0.9666   -2.6340    1.6026 O   0  0  0  0  0  0  0  0  0  0  0  0
   -1.4866   -0.9220    0.2366 N   0  0  0  0  0  0  0  0  0  0  0  0
   -2.2166   -0.4790   -0.2994 H   0  0  0  0  0  0  0  0  0  0  0  0
   -0.1956   -0.2250    0.2596 C   0  0  1  0  0  0  0  0  0  0  0  0
    0.5755   -0.9013   -0.1105 H   0  0  0  0  0  0  0  0  0  0  0  0
   -0.2553    0.9811   -0.6992 C   0  0  0  0  0  0  0  0  0  0  0  0
    0.6621    0.9869   -1.2898 H   0  0  0  0  0  0  0  0  0  0  0  0
   -1.1012    0.8604   -1.3775 H   0  0  0  0  0  0  0  0  0  0  0  0
   -0.3778    2.3328    0.0243 C   0  0  0  0  0  0  0  0  0  0  0  0
   -0.3747    2.1619    1.1036 H   0  0  0  0  0  0  0  0  0  0  0  0
    0.4998    2.9356   -0.2240 H   0  0  0  0  0  0  0  0  0  0  0  0
   -1.6485    3.1111   -0.3477 C   0  0  0  0  0  0  0  0  0  0  0  0
   -2.3708    2.6647   -1.2672 O   0  5  0  0  0  0  0  0  0  0  0  0
   -1.8915    4.1407    0.3203 O   0  0  0  0  0  0  0  0  0  0  0  0
    0.1881    0.1678    1.7015 C   0  0  0  0  0  0  0  0  0  0  0  0
    1.3379    0.0002    2.1133 O   0  0  0  0  0  0  0  0  0  0  0  0
   -0.7666    0.7145    2.4656 N   0  0  0  0  0  0  0  0  0  0  0  0
   -1.6971    0.7705    2.0790 H   0  0  0  0  0  0  0  0  0  0  0  0
   -0.5716    1.1232    3.8542 C   0  0  0  0  0  0  0  0  0  0  0  0
    0.3083    1.7643    3.9293 H   0  0  0  0  0  0  0  0  0  0  0  0
   -1.4485    1.6640    4.2131 H   0  0  0  0  0  0  0  0  0  0  0  0
   -0.4137    0.2381    4.4736 H   0  0  0  0  0  0  0  0  0  0  0  0
  5  6  2  0  0  0  0
  5  7  1  0  0  0  0
  2  3  1  0  0  0  0
  2  4  1  0  0  0  0
  2  5  1  0  0  0  0
  1  2  1  0  0  0  0
 20 21  2  0  0  0  0
 20 22  1  0  0  0  0
 17 18  1  0  0  0  0
 17 19  2  0  0  0  0
 14 15  1  0  0  0  0
 14 16  1  0  0  0  0
 14 17  1  0  0  0  0
 11 12  1  0  0  0  0
 11 13  1  0  0  0  0
 11 14  1  0  0  0  0
  9 10  1  0  0  0  0
  9 11  1  0  0  0  0
  9 20  1  0  0  0  0
  7  8  1  0  0  0  0
  7  9  1  0  0  0  0
 24 25  1  0  0  0  0
 24 26  1  0  0  0  0
 24 27  1  0  0  0  0
 22 23  1  0  0  0  0
 22 24  1  0  0  0  0
M  CHG  1  18  -1
M  END
$$$$
default_name
  -OEChem-02102213163D

 27 26  0     1  0  0  0  0  0999 V2000
   -3.2406   -3.5400    1.2326 H   0  0  0  0  0  0  0  0  0  0  0  0
   -3.1436   -2.6190    0.6606 C   0  0  0  0  0  0  0  0  0  0  0  0
   -3.8786   -1.8920    0.9996 H   0  0  0  0  0  0  0  0  0  0  0  0
   -3.2846   -2.8280   -0.3984 H   0  0  0  0  0  0  0  0  0  0  0  0
   -1.7586   -2.0580    0.8686 C   0  0  0  0  0  0  0  0  0  0  0  0
   -0.9666   -2.6340    1.6026 O   0  0  0  0  0  0  0  0  0  0  0  0
   -1.4866   -0.9220    0.2366 N   0  0  0  0  0  0  0  0  0  0  0  0
   -2.2166   -0.4790   -0.2994 H   0  0  0  0  0  0  0  0  0  0  0  0
   -0.1956   -0.2250    0.2596 C   0  0  1  0  0  0  0  0  0  0  0  0
    0.5755   -0.9013   -0.1105 H   0  0  0  0  0  0  0  0  0  0  0  0
   -0.2553    0.9811   -0.6992 C   0  0  0  0  0  0  0  0  0  0  0  0
    0.6621    0.9869   -1.2898 H   0  0  0  0  0  0  0  0  0  0  0  0
   -1.1012    0.8604   -1.3775 H   0  0  0  0  0  0  0  0  0  0  0  0
   -0.3778    2.3328    0.0243 C   0  0  0  0  0  0  0  0  0  0  0  0
   -0.1095    2.2011    1.0753 H   0  0  0  0  0  0  0  0  0  0  0  0
    0.3391    3.0270   -0.4221 H   0  0  0  0  0  0  0  0  0  0  0  0
   -1.7862    2.9405   -0.0522 C   0  0  0  0  0  0  0  0  0  0  0  0
   -2.6366    2.3794   -0.7792 O   0  5  0  0  0  0  0  0  0  0  0  0
   -1.9977    3.9563    0.6469 O   0  0  0  0  0  0  0  0  0  0  0  0
    0.1881    0.1678    1.7015 C   0  0  0  0  0  0  0  0  0  0  0  0
    1.3379    0.0002    2.1133 O   0  0  0  0  0  0  0  0  0  0  0  0
   -0.7666    0.7145    2.4656 N   0  0  0  0  0  0  0  0  0  0  0  0
   -1.6971    0.7705    2.0790 H   0  0  0  0  0  0  0  0  0  0  0  0
   -0.5716    1.1232    3.8542 C   0  0  0  0  0  0  0  0  0  0  0  0
    0.3083    1.7643    3.9293 H   0  0  0  0  0  0  0  0  0  0  0  0
   -1.4485    1.6640    4.2131 H   0  0  0  0  0  0  0  0  0  0  0  0
   -0.4137    0.2381    4.4736 H   0  0  0  0  0  0  0  0  0  0  0  0
  5  6  2  0  0  0  0
  5  7  1  0  0  0  0
  2  3  1  0  0  0  0
  2  4  1  0  0  0  0
  2  5  1  0  0  0  0
  1  2  1  0  0  0  0
 20 21  2  0  0  0  0
 20 22  1  0  0  0  0
 17 18  1  0  0  0  0
 17 19  2  0  0  0  0
 14 15  1  0  0  0  0
 14 16  1  0  0  0  0
 14 17  1  0  0  0  0
 11 12  1  0  0  0  0
 11 13  1  0  0  0  0
 11 14  1  0  0  0  0
  9 10  1  0  0  0  0
  9 11  1  0  0  0  0
  9 20  1  0  0  0  0
  7  8  1  0  0  0  0
  7  9  1  0  0  0  0
 24 25  1  0  0  0  0
 24 26  1  0  0  0  0
 24 27  1  0  0  0  0
 22 23  1  0  0  0  0
 22 24  1  0  0  0  0
M  CHG  1  18  -1
M  END
$$$$
default_name
  -OEChem-02102213163D

 27 26  0     1  0  0  0  0  0999 V2000
   -3.2406   -3.5400    1.2326 H   0  0  0  0  0  0  0  0  0  0  0  0
   -3.1436   -2.6190    0.6606 C   0  0  0  0  0  0  0  0  0  0  0  0
   -3.8786   -1.8920    0.9996 H   0  0  0  0  0  0  0  0  0  0  0  0
   -3.2846   -2.8280   -0.3984 H   0  0  0  0  0  0  0  0  0  0  0  0
   -1.7586   -2.0580    0.8686 C   0  0  0  0  0  0  0  0  0  0  0  0
   -0.9666   -2.6340    1.6026 O   0  0  0  0  0  0  0  0  0  0  0  0
   -1.4866   -0.9220    0.2366 N   0  0  0  0  0  0  0  0  0  0  0  0
   -2.2166   -0.4790   -0.2994 H   0  0  0  0  0  0  0  0  0  0  0  0
   -0.1956   -0.2250    0.2596 C   0  0  1  0  0  0  0  0  0  0  0  0
    0.5755   -0.9013   -0.1105 H   0  0  0  0  0  0  0  0  0  0  0  0
   -0.2553    0.9811   -0.6992 C   0  0  0  0  0  0  0  0  0  0  0  0
    0.6621    0.9869   -1.2898 H   0  0  0  0  0  0  0  0  0  0  0  0
   -1.1012    0.8604   -1.3775 H   0  0  0  0  0  0  0  0  0  0  0  0
   -0.3778    2.3328    0.0243 C   0  0  0  0  0  0  0  0  0  0  0  0
    0.1355    2.2706    0.9869 H   0  0  0  0  0  0  0  0  0  0  0  0
    0.1277    3.0917   -0.5787 H   0  0  0  0  0  0  0  0  0  0  0  0
   -1.8313    2.7650    0.2680 C   0  0  0  0  0  0  0  0  0  0  0  0
   -2.7477    2.0815   -0.2415 O   0  5  0  0  0  0  0  0  0  0  0  0
   -2.0036    3.7719    0.9904 O   0  0  0  0  0  0  0  0  0  0  0  0
    0.1881    0.1678    1.7015 C   0  0  0  0  0  0  0  0  0  0  0  0
    1.3379    0.0002    2.1133 O   0  0  0  0  0  0  0  0  0  0  0  0
   -0.7666    0.7145    2.4656 N   0  0  0  0  0  0  0  0  0  0  0  0
   -1.6971    0.7705    2.0790 H   0  0  0  0  0  0  0  0  0  0  0  0
   -0.5716    1.1232    3.8542 C   0  0  0  0  0  0  0  0  0  0  0  0
    0.3083    1.7643    3.9293 H   0  0  0  0  0  0  0  0  0  0  0  0
   -1.4485    1.6640    4.2131 H   0  0  0  0  0  0  0  0  0  0  0  0
   -0.4137    0.2381    4.4736 H   0  0  0  0  0  0  0  0  0  0  0  0
  5  6  2  0  0  0  0
  5  7  1  0  0  0  0
  2  3  1  0  0  0  0
  2  4  1  0  0  0  0
  2  5  1  0  0  0  0
  1  2  1  0  0  0  0
 20 21  2  0  0  0  0
 20 22  1  0  0  0  0
 17 18  1  0  0  0  0
 17 19  2  0  0  0  0
 14 15  1  0  0  0  0
 14 16  1  0  0  0  0
 14 17  1  0  0  0  0
 11 12  1  0  0  0  0
 11 13  1  0  0  0  0
 11 14  1  0  0  0  0
  9 10  1  0  0  0  0
  9 11  1  0  0  0  0
  9 20  1  0  0  0  0
  7  8  1  0  0  0  0
  7  9  1  0  0  0  0
 24 25  1  0  0  0  0
 24 26  1  0  0  0  0
 24 27  1  0  0  0  0
 22 23  1  0  0  0  0
 22 24  1  0  0  0  0
M  CHG  1  18  -1
M  END
$$$$
default_name
  -OEChem-02102213163D

 27 26  0     1  0  0  0  0  0999 V2000
   -3.2406   -3.5400    1.2326 H   0  0  0  0  0  0  0  0  0  0  0  0
   -3.1436   -2.6190    0.6606 C   0  0  0  0  0  0  0  0  0  0  0  0
   -3.8786   -1.8920    0.9996 H   0  0  0  0  0  0  0  0  0  0  0  0
   -3.2846   -2.8280   -0.3984 H   0  0  0  0  0  0  0  0  0  0  0  0
   -1.7586   -2.0580    0.8686 C   0  0  0  0  0  0  0  0  0  0  0  0
   -0.9666   -2.6340    1.6026 O   0  0  0  0  0  0  0  0  0  0  0  0
   -1.4866   -0.9220    0.2366 N   0  0  0  0  0  0  0  0  0  0  0  0
   -2.2166   -0.4790   -0.2994 H   0  0  0  0  0  0  0  0  0  0  0  0
   -0.1956   -0.2250    0.2596 C   0  0  1  0  0  0  0  0  0  0  0  0
    0.5755   -0.9013   -0.1105 H   0  0  0  0  0  0  0  0  0  0  0  0
   -0.2553    0.9811   -0.6992 C   0  0  0  0  0  0  0  0  0  0  0  0
    0.6621    0.9869   -1.2898 H   0  0  0  0  0  0  0  0  0  0  0  0
   -1.1012    0.8604   -1.3775 H   0  0  0  0  0  0  0  0  0  0  0  0
   -0.3778    2.3328    0.0243 C   0  0  0  0  0  0  0  0  0  0  0  0
    0.3436    2.3657    0.8444 H   0  0  0  0  0  0  0  0  0  0  0  0
   -0.1201    3.1252   -0.6833 H   0  0  0  0  0  0  0  0  0  0  0  0
   -1.7806    2.5966    0.5912 C   0  0  0  0  0  0  0  0  0  0  0  0
   -2.6964    1.7914    0.3092 O   0  5  0  0  0  0  0  0  0  0  0  0
   -1.9087    3.6002    1.3272 O   0  0  0  0  0  0  0  0  0  0  0  0
    0.1881    0.1678    1.7015 C   0  0  0  0  0  0  0  0  0  0  0  0
    1.3379    0.0002    2.1133 O   0  0  0  0  0  0  0  0  0  0  0  0
   -0.7666    0.7145    2.4656 N   0  0  0  0  0  0  0  0  0  0  0  0
   -1.6971    0.7705    2.0790 H   0  0  0  0  0  0  0  0  0  0  0  0
   -0.5716    1.1232    3.8542 C   0  0  0  0  0  0  0  0  0  0  0  0
    0.3083    1.7643    3.9293 H   0  0  0  0  0  0  0  0  0  0  0  0
   -1.4485    1.6640    4.2131 H   0  0  0  0  0  0  0  0  0  0  0  0
   -0.4137    0.2381    4.4736 H   0  0  0  0  0  0  0  0  0  0  0  0
  5  6  2  0  0  0  0
  5  7  1  0  0  0  0
  2  3  1  0  0  0  0
  2  4  1  0  0  0  0
  2  5  1  0  0  0  0
  1  2  1  0  0  0  0
 20 21  2  0  0  0  0
 20 22  1  0  0  0  0
 17 18  1  0  0  0  0
 17 19  2  0  0  0  0
 14 15  1  0  0  0  0
 14 16  1  0  0  0  0
 14 17  1  0  0  0  0
 11 12  1  0  0  0  0
 11 13  1  0  0  0  0
 11 14  1  0  0  0  0
  9 10  1  0  0  0  0
  9 11  1  0  0  0  0
  9 20  1  0  0  0  0
  7  8  1  0  0  0  0
  7  9  1  0  0  0  0
 24 25  1  0  0  0  0
 24 26  1  0  0  0  0
 24 27  1  0  0  0  0
 22 23  1  0  0  0  0
 22 24  1  0  0  0  0
M  CHG  1  18  -1
M  END
$$$$
default_name
  -OEChem-02102213163D

 27 26  0     1  0  0  0  0  0999 V2000
   -3.2406   -3.5400    1.2326 H   0  0  0  0  0  0  0  0  0  0  0  0
   -3.1436   -2.6190    0.6606 C   0  0  0  0  0  0  0  0  0  0  0  0
   -3.8786   -1.8920    0.9996 H   0  0  0  0  0  0  0  0  0  0  0  0
   -3.2846   -2.8280   -0.3984 H   0  0  0  0  0  0  0  0  0  0  0  0
   -1.7586   -2.0580    0.8686 C   0  0  0  0  0  0  0  0  0  0  0  0
   -0.9666   -2.6340    1.6026 O   0  0  0  0  0  0  0  0  0  0  0  0
   -1.4866   -0.9220    0.2366 N   0  0  0  0  0  0  0  0  0  0  0  0
   -2.2166   -0.4790   -0.2994 H   0  0  0  0  0  0  0  0  0  0  0  0
   -0.1956   -0.2250    0.2596 C   0  0  1  0  0  0  0  0  0  0  0  0
    0.5755   -0.9013   -0.1105 H   0  0  0  0  0  0  0  0  0  0  0  0
   -0.2553    0.9811   -0.6992 C   0  0  0  0  0  0  0  0  0  0  0  0
    0.6621    0.9869   -1.2898 H   0  0  0  0  0  0  0  0  0  0  0  0
   -1.1012    0.8604   -1.3775 H   0  0  0  0  0  0  0  0  0  0  0  0
   -0.3778    2.3328    0.0243 C   0  0  0  0  0  0  0  0  0  0  0  0
    0.5005    2.4800    0.6574 H   0  0  0  0  0  0  0  0  0  0  0  0
   -0.3872    3.1253   -0.7286 H   0  0  0  0  0  0  0  0  0  0  0  0
   -1.6377    2.4468    0.8953 C   0  0  0  0  0  0  0  0  0  0  0  0
   -2.4862    1.5287    0.8356 O   0  5  0  0  0  0  0  0  0  0  0  0
   -1.7195    3.4528    1.6345 O   0  0  0  0  0  0  0  0  0  0  0  0
    0.1881    0.1678    1.7015 C   0  0  0  0  0  0  0  0  0  0  0  0
    1.3379    0.0002    2.1133 O   0  0  0  0  0  0  0  0  0  0  0  0
   -0.7666    0.7145    2.4656 N   0  0  0  0  0  0  0  0  0  0  0  0
   -1.6971    0.7705    2.0790 H   0  0  0  0  0  0  0  0  0  0  0  0
   -0.5716    1.1232    3.8542 C   0  0  0  0  0  0  0  0  0  0  0  0
    0.3083    1.7643    3.9293 H   0  0  0  0  0  0  0  0  0  0  0  0
   -1.4485    1.6640    4.2131 H   0  0  0  0  0  0  0  0  0  0  0  0
   -0.4137    0.2381    4.4736 H   0  0  0  0  0  0  0  0  0  0  0  0
  5  6  2  0  0  0  0
  5  7  1  0  0  0  0
  2  3  1  0  0  0  0
  2  4  1  0  0  0  0
  2  5  1  0  0  0  0
  1  2  1  0  0  0  0
 20 21  2  0  0  0  0
 20 22  1  0  0  0  0
 17 18  1  0  0  0  0
 17 19  2  0  0  0  0
 14 15  1  0  0  0  0
 14 16  1  0  0  0  0
 14 17  1  0  0  0  0
 11 12  1  0  0  0  0
 11 13  1  0  0  0  0
 11 14  1  0  0  0  0
  9 10  1  0  0  0  0
  9 11  1  0  0  0  0
  9 20  1  0  0  0  0
  7  8  1  0  0  0  0
  7  9  1  0  0  0  0
 24 25  1  0  0  0  0
 24 26  1  0  0  0  0
 24 27  1  0  0  0  0
 22 23  1  0  0  0  0
 22 24  1  0  0  0  0
M  CHG  1  18  -1
M  END
$$$$
default_name
  -OEChem-02102213163D

 27 26  0     1  0  0  0  0  0999 V2000
   -3.2406   -3.5400    1.2326 H   0  0  0  0  0  0  0  0  0  0  0  0
   -3.1436   -2.6190    0.6606 C   0  0  0  0  0  0  0  0  0  0  0  0
   -3.8786   -1.8920    0.9996 H   0  0  0  0  0  0  0  0  0  0  0  0
   -3.2846   -2.8280   -0.3984 H   0  0  0  0  0  0  0  0  0  0  0  0
   -1.7586   -2.0580    0.8686 C   0  0  0  0  0  0  0  0  0  0  0  0
   -0.9666   -2.6340    1.6026 O   0  0  0  0  0  0  0  0  0  0  0  0
   -1.4866   -0.9220    0.2366 N   0  0  0  0  0  0  0  0  0  0  0  0
   -2.2166   -0.4790   -0.2994 H   0  0  0  0  0  0  0  0  0  0  0  0
   -0.1956   -0.2250    0.2596 C   0  0  1  0  0  0  0  0  0  0  0  0
    0.5755   -0.9013   -0.1105 H   0  0  0  0  0  0  0  0  0  0  0  0
   -0.2553    0.9811   -0.6992 C   0  0  0  0  0  0  0  0  0  0  0  0
    0.6621    0.9869   -1.2898 H   0  0  0  0  0  0  0  0  0  0  0  0
   -1.1012    0.8604   -1.3775 H   0  0  0  0  0  0  0  0  0  0  0  0
   -0.3778    2.3328    0.0243 C   0  0  0  0  0  0  0  0  0  0  0  0
    0.5957    2.6057    0.4388 H   0  0  0  0  0  0  0  0  0  0  0  0
   -0.6556    3.0919   -0.7117 H   0  0  0  0  0  0  0  0  0  0  0  0
   -1.4122    2.3257    1.1597 C   0  0  0  0  0  0  0  0  0  0  0  0
   -2.1315    1.3114    1.3016 O   0  5  0  0  0  0  0  0  0  0  0  0
   -1.4489    3.3399    1.8914 O   0  0  0  0  0  0  0  0  0  0  0  0
    0.1881    0.1678    1.7015 C   0  0  0  0  0  0  0  0  0  0  0  0
    1.3379    0.0002    2.1133 O   0  0  0  0  0  0  0  0  0  0  0  0
   -0.7666    0.7145    2.4656 N   0  0  0  0  0  0  0  0  0  0  0  0
   -1.6971    0.7705    2.0790 H   0  0  0  0  0  0  0  0  0  0  0  0
   -0.5716    1.1232    3.8542 C   0  0  0  0  0  0  0  0  0  0  0  0
    0.3083    1.7643    3.9293 H   0  0  0  0  0  0  0  0  0  0  0  0
   -1.4485    1.6640    4.2131 H   0  0  0  0  0  0  0  0  0  0  0  0
   -0.4137    0.2381    4.4736 H   0  0  0  0  0  0  0  0  0  0  0  0
  5  6  2  0  0  0  0
  5  7  1  0  0  0  0
  2  3  1  0  0  0  0
  2  4  1  0  0  0  0
  2  5  1  0  0  0  0
  1  2  1  0  0  0  0
 20 21  2  0  0  0  0
 20 22  1  0  0  0  0
 17 18  1  0  0  0  0
 17 19  2  0  0  0  0
 14 15  1  0  0  0  0
 14 16  1  0  0  0  0
 14 17  1  0  0  0  0
 11 12  1  0  0  0  0
 11 13  1  0  0  0  0
 11 14  1  0  0  0  0
  9 10  1  0  0  0  0
  9 11  1  0  0  0  0
  9 20  1  0  0  0  0
  7  8  1  0  0  0  0
  7  9  1  0  0  0  0
 24 25  1  0  0  0  0
 24 26  1  0  0  0  0
 24 27  1  0  0  0  0
 22 23  1  0  0  0  0
 22 24  1  0  0  0  0
M  CHG  1  18  -1
M  END
$$$$
default_name
  -OEChem-02102213163D

 27 26  0     1  0  0  0  0  0999 V2000
   -3.2406   -3.5400    1.2326 H   0  0  0  0  0  0  0  0  0  0  0  0
   -3.1436   -2.6190    0.6606 C   0  0  0  0  0  0  0  0  0  0  0  0
   -3.8786   -1.8920    0.9996 H   0  0  0  0  0  0  0  0  0  0  0  0
   -3.2846   -2.8280   -0.3984 H   0  0  0  0  0  0  0  0  0  0  0  0
   -1.7586   -2.0580    0.8686 C   0  0  0  0  0  0  0  0  0  0  0  0
   -0.9666   -2.6340    1.6026 O   0  0  0  0  0  0  0  0  0  0  0  0
   -1.4866   -0.9220    0.2366 N   0  0  0  0  0  0  0  0  0  0  0  0
   -2.2166   -0.4790   -0.2994 H   0  0  0  0  0  0  0  0  0  0  0  0
   -0.1956   -0.2250    0.2596 C   0  0  1  0  0  0  0  0  0  0  0  0
    0.5755   -0.9013   -0.1105 H   0  0  0  0  0  0  0  0  0  0  0  0
   -0.2553    0.9811   -0.6992 C   0  0  0  0  0  0  0  0  0  0  0  0
    0.6621    0.9869   -1.2898 H   0  0  0  0  0  0  0  0  0  0  0  0
   -1.1012    0.8604   -1.3775 H   0  0  0  0  0  0  0  0  0  0  0  0
   -0.3778    2.3328    0.0243 C   0  0  0  0  0  0  0  0  0  0  0  0
    0.6226    2.7342    0.2033 H   0  0  0  0  0  0  0  0  0  0  0  0
   -0.9069    3.0273   -0.6335 H   0  0  0  0  0  0  0  0  0  0  0  0
   -1.1195    2.2417    1.3662 C   0  0  0  0  0  0  0  0  0  0  0  0
   -1.6565    1.1543    1.6755 O   0  5  0  0  0  0  0  0  0  0  0  0
   -1.1154    3.2690    2.0803 O   0  0  0  0  0  0  0  0  0  0  0  0
    0.1881    0.1678    1.7015 C   0  0  0  0  0  0  0  0  0  0  0  0
    1.3379    0.0002    2.1133 O   0  0  0  0  0  0  0  0  0  0  0  0
   -0.7666    0.7145    2.4656 N   0  0  0  0  0  0  0  0  0  0  0  0
   -1.6971    0.7705    2.0790 H   0  0  0  0  0  0  0  0  0  0  0  0
   -0.5716    1.1232    3.8542 C   0  0  0  0  0  0  0  0  0  0  0  0
    0.3083    1.7643    3.9293 H   0  0  0  0  0  0  0  0  0  0  0  0
   -1.4485    1.6640    4.2131 H   0  0  0  0  0  0  0  0  0  0  0  0
   -0.4137    0.2381    4.4736 H   0  0  0  0  0  0  0  0  0  0  0  0
  5  6  2  0  0  0  0
  5  7  1  0  0  0  0
  2  3  1  0  0  0  0
  2  4  1  0  0  0  0
  2  5  1  0  0  0  0
  1  2  1  0  0  0  0
 20 21  2  0  0  0  0
 20 22  1  0  0  0  0
 17 18  1  0  0  0  0
 17 19  2  0  0  0  0
 14 15  1  0  0  0  0
 14 16  1  0  0  0  0
 14 17  1  0  0  0  0
 11 12  1  0  0  0  0
 11 13  1  0  0  0  0
 11 14  1  0  0  0  0
  9 10  1  0  0  0  0
  9 11  1  0  0  0  0
  9 20  1  0  0  0  0
  7  8  1  0  0  0  0
  7  9  1  0  0  0  0
 24 25  1  0  0  0  0
 24 26  1  0  0  0  0
 24 27  1  0  0  0  0
 22 23  1  0  0  0  0
 22 24  1  0  0  0  0
M  CHG  1  18  -1
M  END
$$$$
default_name
  -OEChem-02102213163D

 27 26  0     1  0  0  0  0  0999 V2000
   -3.2406   -3.5400    1.2326 H   0  0  0  0  0  0  0  0  0  0  0  0
   -3.1436   -2.6190    0.6606 C   0  0  0  0  0  0  0  0  0  0  0  0
   -3.8786   -1.8920    0.9996 H   0  0  0  0  0  0  0  0  0  0  0  0
   -3.2846   -2.8280   -0.3984 H   0  0  0  0  0  0  0  0  0  0  0  0
   -1.7586   -2.0580    0.8686 C   0  0  0  0  0  0  0  0  0  0  0  0
   -0.9666   -2.6340    1.6026 O   0  0  0  0  0  0  0  0  0  0  0  0
   -1.4866   -0.9220    0.2366 N   0  0  0  0  0  0  0  0  0  0  0  0
   -2.2166   -0.4790   -0.2994 H   0  0  0  0  0  0  0  0  0  0  0  0
   -0.1956   -0.2250    0.2596 C   0  0  1  0  0  0  0  0  0  0  0  0
    0.5755   -0.9013   -0.1105 H   0  0  0  0  0  0  0  0  0  0  0  0
   -0.2553    0.9811   -0.6992 C   0  0  0  0  0  0  0  0  0  0  0  0
    0.6621    0.9869   -1.2898 H   0  0  0  0  0  0  0  0  0  0  0  0
   -1.1012    0.8604   -1.3775 H   0  0  0  0  0  0  0  0  0  0  0  0
   -0.3778    2.3328    0.0243 C   0  0  0  0  0  0  0  0  0  0  0  0
    0.5794    2.8567   -0.0329 H   0  0  0  0  0  0  0  0  0  0  0  0
   -1.1240    2.9359   -0.4996 H   0  0  0  0  0  0  0  0  0  0  0  0
   -0.7796    2.2004    1.5008 C   0  0  0  0  0  0  0  0  0  0  0  0
   -1.0934    1.0681    1.9318 O   0  5  0  0  0  0  0  0  0  0  0  0
   -0.7416    3.2450    2.1884 O   0  0  0  0  0  0  0  0  0  0  0  0
    0.1881    0.1678    1.7015 C   0  0  0  0  0  0  0  0  0  0  0  0
    1.3379    0.0002    2.1133 O   0  0  0  0  0  0  0  0  0  0  0  0
   -0.7666    0.7145    2.4656 N   0  0  0  0  0  0  0  0  0  0  0  0
   -1.6971    0.7705    2.0790 H   0  0  0  0  0  0  0  0  0  0  0  0
   -0.5716    1.1232    3.8542 C   0  0  0  0  0  0  0  0  0  0  0  0
    0.3083    1.7643    3.9293 H   0  0  0  0  0  0  0  0  0  0  0  0
   -1.4485    1.6640    4.2131 H   0  0  0  0  0  0  0  0  0  0  0  0
   -0.4137    0.2381    4.4736 H   0  0  0  0  0  0  0  0  0  0  0  0
  5  6  2  0  0  0  0
  5  7  1  0  0  0  0
  2  3  1  0  0  0  0
  2  4  1  0  0  0  0
  2  5  1  0  0  0  0
  1  2  1  0  0  0  0
 20 21  2  0  0  0  0
 20 22  1  0  0  0  0
 17 18  1  0  0  0  0
 17 19  2  0  0  0  0
 14 15  1  0  0  0  0
 14 16  1  0  0  0  0
 14 17  1  0  0  0  0
 11 12  1  0  0  0  0
 11 13  1  0  0  0  0
 11 14  1  0  0  0  0
  9 10  1  0  0  0  0
  9 11  1  0  0  0  0
  9 20  1  0  0  0  0
  7  8  1  0  0  0  0
  7  9  1  0  0  0  0
 24 25  1  0  0  0  0
 24 26  1  0  0  0  0
 24 27  1  0  0  0  0
 22 23  1  0  0  0  0
 22 24  1  0  0  0  0
M  CHG  1  18  -1
M  END
$$$$
default_name
  -OEChem-02102213163D

 27 26  0     1  0  0  0  0  0999 V2000
   -3.2406   -3.5400    1.2326 H   0  0  0  0  0  0  0  0  0  0  0  0
   -3.1436   -2.6190    0.6606 C   0  0  0  0  0  0  0  0  0  0  0  0
   -3.8786   -1.8920    0.9996 H   0  0  0  0  0  0  0  0  0  0  0  0
   -3.2846   -2.8280   -0.3984 H   0  0  0  0  0  0  0  0  0  0  0  0
   -1.7586   -2.0580    0.8686 C   0  0  0  0  0  0  0  0  0  0  0  0
   -0.9666   -2.6340    1.6026 O   0  0  0  0  0  0  0  0  0  0  0  0
   -1.4866   -0.9220    0.2366 N   0  0  0  0  0  0  0  0  0  0  0  0
   -2.2166   -0.4790   -0.2994 H   0  0  0  0  0  0  0  0  0  0  0  0
   -0.1956   -0.2250    0.2596 C   0  0  1  0  0  0  0  0  0  0  0  0
    0.5755   -0.9013   -0.1105 H   0  0  0  0  0  0  0  0  0  0  0  0
   -0.2553    0.9811   -0.6992 C   0  0  0  0  0  0  0  0  0  0  0  0
    0.6621    0.9869   -1.2898 H   0  0  0  0  0  0  0  0  0  0  0  0
   -1.1012    0.8604   -1.3775 H   0  0  0  0  0  0  0  0  0  0  0  0
   -0.3778    2.3328    0.0243 C   0  0  0  0  0  0  0  0  0  0  0  0
    0.4690    2.9649   -0.2537 H   0  0  0  0  0  0  0  0  0  0  0  0
   -1.2921    2.8240   -0.3189 H   0  0  0  0  0  0  0  0  0  0  0  0
   -0.4156    2.2047    1.5544 C   0  0  0  0  0  0  0  0  0  0  0  0
   -0.4807    1.0587    2.0532 O   0  5  0  0  0  0  0  0  0  0  0  0
   -0.3531    3.2696    2.2082 O   0  0  0  0  0  0  0  0  0  0  0  0
    0.1881    0.1678    1.7015 C   0  0  0  0  0  0  0  0  0  0  0  0
    1.3379    0.0002    2.1133 O   0  0  0  0  0  0  0  0  0  0  0  0
   -0.7666    0.7145    2.4656 N   0  0  0  0  0  0  0  0  0  0  0  0
   -1.6971    0.7705    2.0790 H   0  0  0  0  0  0  0  0  0  0  0  0
   -0.5716    1.1232    3.8542 C   0  0  0  0  0  0  0  0  0  0  0  0
    0.3083    1.7643    3.9293 H   0  0  0  0  0  0  0  0  0  0  0  0
   -1.4485    1.6640    4.2131 H   0  0  0  0  0  0  0  0  0  0  0  0
   -0.4137    0.2381    4.4736 H   0  0  0  0  0  0  0  0  0  0  0  0
  5  6  2  0  0  0  0
  5  7  1  0  0  0  0
  2  3  1  0  0  0  0
  2  4  1  0  0  0  0
  2  5  1  0  0  0  0
  1  2  1  0  0  0  0
 20 21  2  0  0  0  0
 20 22  1  0  0  0  0
 17 18  1  0  0  0  0
 17 19  2  0  0  0  0
 14 15  1  0  0  0  0
 14 16  1  0  0  0  0
 14 17  1  0  0  0  0
 11 12  1  0  0  0  0
 11 13  1  0  0  0  0
 11 14  1  0  0  0  0
  9 10  1  0  0  0  0
  9 11  1  0  0  0  0
  9 20  1  0  0  0  0
  7  8  1  0  0  0  0
  7  9  1  0  0  0  0
 24 25  1  0  0  0  0
 24 26  1  0  0  0  0
 24 27  1  0  0  0  0
 22 23  1  0  0  0  0
 22 24  1  0  0  0  0
M  CHG  1  18  -1
M  END
$$$$
default_name
  -OEChem-02102213163D

 27 26  0     1  0  0  0  0  0999 V2000
   -3.2406   -3.5400    1.2326 H   0  0  0  0  0  0  0  0  0  0  0  0
   -3.1436   -2.6190    0.6606 C   0  0  0  0  0  0  0  0  0  0  0  0
   -3.8786   -1.8920    0.9996 H   0  0  0  0  0  0  0  0  0  0  0  0
   -3.2846   -2.8280   -0.3984 H   0  0  0  0  0  0  0  0  0  0  0  0
   -1.7586   -2.0580    0.8686 C   0  0  0  0  0  0  0  0  0  0  0  0
   -0.9666   -2.6340    1.6026 O   0  0  0  0  0  0  0  0  0  0  0  0
   -1.4866   -0.9220    0.2366 N   0  0  0  0  0  0  0  0  0  0  0  0
   -2.2166   -0.4790   -0.2994 H   0  0  0  0  0  0  0  0  0  0  0  0
   -0.1956   -0.2250    0.2596 C   0  0  1  0  0  0  0  0  0  0  0  0
    0.5755   -0.9013   -0.1105 H   0  0  0  0  0  0  0  0  0  0  0  0
   -0.2553    0.9811   -0.6992 C   0  0  0  0  0  0  0  0  0  0  0  0
    0.6621    0.9869   -1.2898 H   0  0  0  0  0  0  0  0  0  0  0  0
   -1.1012    0.8604   -1.3775 H   0  0  0  0  0  0  0  0  0  0  0  0
   -0.3778    2.3328    0.0243 C   0  0  0  0  0  0  0  0  0  0  0  0
    0.2990    3.0514   -0.4442 H   0  0  0  0  0  0  0  0  0  0  0  0
   -1.3998    2.6991   -0.1039 H   0  0  0  0  0  0  0  0  0  0  0  0
   -0.0523    2.2543    1.5233 C   0  0  0  0  0  0  0  0  0  0  0  0
    0.1398    1.1266    2.0312 O   0  5  0  0  0  0  0  0  0  0  0  0
    0.0238    3.3411    2.1385 O   0  0  0  0  0  0  0  0  0  0  0  0
    0.1881    0.1678    1.7015 C   0  0  0  0  0  0  0  0  0  0  0  0
    1.3379    0.0002    2.1133 O   0  0  0  0  0  0  0  0  0  0  0  0
   -0.7666    0.7145    2.4656 N   0  0  0  0  0  0  0  0  0  0  0  0
   -1.6971    0.7705    2.0790 H   0  0  0  0  0  0  0  0  0  0  0  0
   -0.5716    1.1232    3.8542 C   0  0  0  0  0  0  0  0  0  0  0  0
    0.3083    1.7643    3.9293 H   0  0  0  0  0  0  0  0  0  0  0  0
   -1.4485    1.6640    4.2131 H   0  0  0  0  0  0  0  0  0  0  0  0
   -0.4137    0.2381    4.4736 H   0  0  0  0  0  0  0  0  0  0  0  0
  5  6  2  0  0  0  0
  5  7  1  0  0  0  0
  2  3  1  0  0  0  0
  2  4  1  0  0  0  0
  2  5  1  0  0  0  0
  1  2  1  0  0  0  0
 20 21  2  0  0  0  0
 20 22  1  0  0  0  0
 17 18  1  0  0  0  0
 17 19  2  0  0  0  0
 14 15  1  0  0  0  0
 14 16  1  0  0  0  0
 14 17  1  0  0  0  0
 11 12  1  0  0  0  0
 11 13  1  0  0  0  0
 11 14  1  0  0  0  0
  9 10  1  0  0  0  0
  9 11  1  0  0  0  0
  9 20  1  0  0  0  0
  7  8  1  0  0  0  0
  7  9  1  0  0  0  0
 24 25  1  0  0  0  0
 24 26  1  0  0  0  0
 24 27  1  0  0  0  0
 22 23  1  0  0  0  0
 22 24  1  0  0  0  0
M  CHG  1  18  -1
M  END
$$$$
default_name
  -OEChem-02102213163D

 27 26  0     1  0  0  0  0  0999 V2000
   -3.2406   -3.5400    1.2326 H   0  0  0  0  0  0  0  0  0  0  0  0
   -3.1436   -2.6190    0.6606 C   0  0  0  0  0  0  0  0  0  0  0  0
   -3.8786   -1.8920    0.9996 H   0  0  0  0  0  0  0  0  0  0  0  0
   -3.2846   -2.8280   -0.3984 H   0  0  0  0  0  0  0  0  0  0  0  0
   -1.7586   -2.0580    0.8686 C   0  0  0  0  0  0  0  0  0  0  0  0
   -0.9666   -2.6340    1.6026 O   0  0  0  0  0  0  0  0  0  0  0  0
   -1.4866   -0.9220    0.2366 N   0  0  0  0  0  0  0  0  0  0  0  0
   -2.2166   -0.4790   -0.2994 H   0  0  0  0  0  0  0  0  0  0  0  0
   -0.1956   -0.2250    0.2596 C   0  0  1  0  0  0  0  0  0  0  0  0
    0.5755   -0.9013   -0.1105 H   0  0  0  0  0  0  0  0  0  0  0  0
   -0.2553    0.9811   -0.6992 C   0  0  0  0  0  0  0  0  0  0  0  0
    0.6621    0.9869   -1.2898 H   0  0  0  0  0  0  0  0  0  0  0  0
   -1.1012    0.8604   -1.3775 H   0  0  0  0  0  0  0  0  0  0  0  0
   -0.3778    2.3328    0.0243 C   0  0  0  0  0  0  0  0  0  0  0  0
    0.0809    3.1104   -0.5912 H   0  0  0  0  0  0  0  0  0  0  0  0
   -1.4397    2.5698    0.1309 H   0  0  0  0  0  0  0  0  0  0  0  0
    0.2854    2.3458    1.4096 C   0  0  0  0  0  0  0  0  0  0  0  0
    0.7259    1.2674    1.8674 O   0  5  0  0  0  0  0  0  0  0  0  0
    0.3632    3.4545    1.9840 O   0  0  0  0  0  0  0  0  0  0  0  0
    0.1881    0.1678    1.7015 C   0  0  0  0  0  0  0  0  0  0  0  0
    1.3379    0.0002    2.1133 O   0  0  0  0  0  0  0  0  0  0  0  0
   -0.7666    0.7145    2.4656 N   0  0  0  0  0  0  0  0  0  0  0  0
   -1.6971    0.7705    2.0790 H   0  0  0  0  0  0  0  0  0  0  0  0
   -0.5716    1.1232    3.8542 C   0  0  0  0  0  0  0  0  0  0  0  0
    0.3083    1.7643    3.9293 H   0  0  0  0  0  0  0  0  0  0  0  0
   -1.4485    1.6640    4.2131 H   0  0  0  0  0  0  0  0  0  0  0  0
   -0.4137    0.2381    4.4736 H   0  0  0  0  0  0  0  0  0  0  0  0
  5  6  2  0  0  0  0
  5  7  1  0  0  0  0
  2  3  1  0  0  0  0
  2  4  1  0  0  0  0
  2  5  1  0  0  0  0
  1  2  1  0  0  0  0
 20 21  2  0  0  0  0
 20 22  1  0  0  0  0
 17 18  1  0  0  0  0
 17 19  2  0  0  0  0
 14 15  1  0  0  0  0
 14 16  1  0  0  0  0
 14 17  1  0  0  0  0
 11 12  1  0  0  0  0
 11 13  1  0  0  0  0
 11 14  1  0  0  0  0
  9 10  1  0  0  0  0
  9 11  1  0  0  0  0
  9 20  1  0  0  0  0
  7  8  1  0  0  0  0
  7  9  1  0  0  0  0
 24 25  1  0  0  0  0
 24 26  1  0  0  0  0
 24 27  1  0  0  0  0
 22 23  1  0  0  0  0
 22 24  1  0  0  0  0
M  CHG  1  18  -1
M  END
$$$$
default_name
  -OEChem-02102213163D

 27 26  0     1  0  0  0  0  0999 V2000
   -3.2406   -3.5400    1.2326 H   0  0  0  0  0  0  0  0  0  0  0  0
   -3.1436   -2.6190    0.6606 C   0  0  0  0  0  0  0  0  0  0  0  0
   -3.8786   -1.8920    0.9996 H   0  0  0  0  0  0  0  0  0  0  0  0
   -3.2846   -2.8280   -0.3984 H   0  0  0  0  0  0  0  0  0  0  0  0
   -1.7586   -2.0580    0.8686 C   0  0  0  0  0  0  0  0  0  0  0  0
   -0.9666   -2.6340    1.6026 O   0  0  0  0  0  0  0  0  0  0  0  0
   -1.4866   -0.9220    0.2366 N   0  0  0  0  0  0  0  0  0  0  0  0
   -2.2166   -0.4790   -0.2994 H   0  0  0  0  0  0  0  0  0  0  0  0
   -0.1956   -0.2250    0.2596 C   0  0  1  0  0  0  0  0  0  0  0  0
    0.5755   -0.9013   -0.1105 H   0  0  0  0  0  0  0  0  0  0  0  0
   -0.2553    0.9811   -0.6992 C   0  0  0  0  0  0  0  0  0  0  0  0
    0.6621    0.9869   -1.2898 H   0  0  0  0  0  0  0  0  0  0  0  0
   -1.1012    0.8604   -1.3775 H   0  0  0  0  0  0  0  0  0  0  0  0
   -0.3778    2.3328    0.0243 C   0  0  0  0  0  0  0  0  0  0  0  0
   -0.1704    3.1377   -0.6849 H   0  0  0  0  0  0  0  0  0  0  0  0
   -1.4090    2.4449    0.3694 H   0  0  0  0  0  0  0  0  0  0  0  0
    0.5747    2.4729    1.2210 C   0  0  0  0  0  0  0  0  0  0  0  0
    1.2377    1.4714    1.5730 O   0  5  0  0  0  0  0  0  0  0  0  0
    0.6421    3.6023    1.7552 O   0  0  0  0  0  0  0  0  0  0  0  0
    0.1881    0.1678    1.7015 C   0  0  0  0  0  0  0  0  0  0  0  0
    1.3379    0.0002    2.1133 O   0  0  0  0  0  0  0  0  0  0  0  0
   -0.7666    0.7145    2.4656 N   0  0  0  0  0  0  0  0  0  0  0  0
   -1.6971    0.7705    2.0790 H   0  0  0  0  0  0  0  0  0  0  0  0
   -0.5716    1.1232    3.8542 C   0  0  0  0  0  0  0  0  0  0  0  0
    0.3083    1.7643    3.9293 H   0  0  0  0  0  0  0  0  0  0  0  0
   -1.4485    1.6640    4.2131 H   0  0  0  0  0  0  0  0  0  0  0  0
   -0.4137    0.2381    4.4736 H   0  0  0  0  0  0  0  0  0  0  0  0
  5  6  2  0  0  0  0
  5  7  1  0  0  0  0
  2  3  1  0  0  0  0
  2  4  1  0  0  0  0
  2  5  1  0  0  0  0
  1  2  1  0  0  0  0
 20 21  2  0  0  0  0
 20 22  1  0  0  0  0
 17 18  1  0  0  0  0
 17 19  2  0  0  0  0
 14 15  1  0  0  0  0
 14 16  1  0  0  0  0
 14 17  1  0  0  0  0
 11 12  1  0  0  0  0
 11 13  1  0  0  0  0
 11 14  1  0  0  0  0
  9 10  1  0  0  0  0
  9 11  1  0  0  0  0
  9 20  1  0  0  0  0
  7  8  1  0  0  0  0
  7  9  1  0  0  0  0
 24 25  1  0  0  0  0
 24 26  1  0  0  0  0
 24 27  1  0  0  0  0
 22 23  1  0  0  0  0
 22 24  1  0  0  0  0
M  CHG  1  18  -1
M  END
$$$$
default_name
  -OEChem-02102213163D

 27 26  0     1  0  0  0  0  0999 V2000
   -3.2406   -3.5400    1.2326 H   0  0  0  0  0  0  0  0  0  0  0  0
   -3.1436   -2.6190    0.6606 C   0  0  0  0  0  0  0  0  0  0  0  0
   -3.8786   -1.8920    0.9996 H   0  0  0  0  0  0  0  0  0  0  0  0
   -3.2846   -2.8280   -0.3984 H   0  0  0  0  0  0  0  0  0  0  0  0
   -1.7586   -2.0580    0.8686 C   0  0  0  0  0  0  0  0  0  0  0  0
   -0.9666   -2.6340    1.6026 O   0  0  0  0  0  0  0  0  0  0  0  0
   -1.4866   -0.9220    0.2366 N   0  0  0  0  0  0  0  0  0  0  0  0
   -2.2166   -0.4790   -0.2994 H   0  0  0  0  0  0  0  0  0  0  0  0
   -0.1956   -0.2250    0.2596 C   0  0  1  0  0  0  0  0  0  0  0  0
    0.5755   -0.9013   -0.1105 H   0  0  0  0  0  0  0  0  0  0  0  0
   -0.2553    0.9811   -0.6992 C   0  0  0  0  0  0  0  0  0  0  0  0
    0.6621    0.9869   -1.2898 H   0  0  0  0  0  0  0  0  0  0  0  0
   -1.1012    0.8604   -1.3775 H   0  0  0  0  0  0  0  0  0  0  0  0
   -0.3778    2.3328    0.0243 C   0  0  0  0  0  0  0  0  0  0  0  0
   -0.4378    3.1316   -0.7187 H   0  0  0  0  0  0  0  0  0  0  0  0
   -1.3100    2.3329    0.5954 H   0  0  0  0  0  0  0  0  0  0  0  0
    0.7957    2.6271    0.9705 C   0  0  0  0  0  0  0  0  0  0  0  0
    1.6402    1.7247    1.1680 O   0  5  0  0  0  0  0  0  0  0  0  0
    0.8414    3.7742    1.4677 O   0  0  0  0  0  0  0  0  0  0  0  0
    0.1881    0.1678    1.7015 C   0  0  0  0  0  0  0  0  0  0  0  0
    1.3379    0.0002    2.1133 O   0  0  0  0  0  0  0  0  0  0  0  0
   -0.7666    0.7145    2.4656 N   0  0  0  0  0  0  0  0  0  0  0  0
   -1.6971    0.7705    2.0790 H   0  0  0  0  0  0  0  0  0  0  0  0
   -0.5716    1.1232    3.8542 C   0  0  0  0  0  0  0  0  0  0  0  0
    0.3083    1.7643    3.9293 H   0  0  0  0  0  0  0  0  0  0  0  0
   -1.4485    1.6640    4.2131 H   0  0  0  0  0  0  0  0  0  0  0  0
   -0.4137    0.2381    4.4736 H   0  0  0  0  0  0  0  0  0  0  0  0
  5  6  2  0  0  0  0
  5  7  1  0  0  0  0
  2  3  1  0  0  0  0
  2  4  1  0  0  0  0
  2  5  1  0  0  0  0
  1  2  1  0  0  0  0
 20 21  2  0  0  0  0
 20 22  1  0  0  0  0
 17 18  1  0  0  0  0
 17 19  2  0  0  0  0
 14 15  1  0  0  0  0
 14 16  1  0  0  0  0
 14 17  1  0  0  0  0
 11 12  1  0  0  0  0
 11 13  1  0  0  0  0
 11 14  1  0  0  0  0
  9 10  1  0  0  0  0
  9 11  1  0  0  0  0
  9 20  1  0  0  0  0
  7  8  1  0  0  0  0
  7  9  1  0  0  0  0
 24 25  1  0  0  0  0
 24 26  1  0  0  0  0
 24 27  1  0  0  0  0
 22 23  1  0  0  0  0
 22 24  1  0  0  0  0
M  CHG  1  18  -1
M  END
$$$$
default_name
  -OEChem-02102213163D

 27 26  0     1  0  0  0  0  0999 V2000
   -3.2406   -3.5400    1.2326 H   0  0  0  0  0  0  0  0  0  0  0  0
   -3.1436   -2.6190    0.6606 C   0  0  0  0  0  0  0  0  0  0  0  0
   -3.8786   -1.8920    0.9996 H   0  0  0  0  0  0  0  0  0  0  0  0
   -3.2846   -2.8280   -0.3984 H   0  0  0  0  0  0  0  0  0  0  0  0
   -1.7586   -2.0580    0.8686 C   0  0  0  0  0  0  0  0  0  0  0  0
   -0.9666   -2.6340    1.6026 O   0  0  0  0  0  0  0  0  0  0  0  0
   -1.4866   -0.9220    0.2366 N   0  0  0  0  0  0  0  0  0  0  0  0
   -2.2166   -0.4790   -0.2994 H   0  0  0  0  0  0  0  0  0  0  0  0
   -0.1956   -0.2250    0.2596 C   0  0  1  0  0  0  0  0  0  0  0  0
    0.5755   -0.9013   -0.1105 H   0  0  0  0  0  0  0  0  0  0  0  0
   -0.2553    0.9811   -0.6992 C   0  0  0  0  0  0  0  0  0  0  0  0
    0.6621    0.9869   -1.2898 H   0  0  0  0  0  0  0  0  0  0  0  0
   -1.1012    0.8604   -1.3775 H   0  0  0  0  0  0  0  0  0  0  0  0
   -0.3778    2.3328    0.0243 C   0  0  0  0  0  0  0  0  0  0  0  0
   -0.7030    3.0925   -0.6905 H   0  0  0  0  0  0  0  0  0  0  0  0
   -1.1493    2.2415    0.7935 H   0  0  0  0  0  0  0  0  0  0  0  0
    0.9335    2.7977    0.6750 C   0  0  0  0  0  0  0  0  0  0  0  0
    1.9061    2.0099    0.6801 O   0  5  0  0  0  0  0  0  0  0  0  0
    0.9477    3.9587    1.1411 O   0  0  0  0  0  0  0  0  0  0  0  0
    0.1881    0.1678    1.7015 C   0  0  0  0  0  0  0  0  0  0  0  0
    1.3379    0.0002    2.1133 O   0  0  0  0  0  0  0  0  0  0  0  0
   -0.7666    0.7145    2.4656 N   0  0  0  0  0  0  0  0  0  0  0  0
   -1.6971    0.7705    2.0790 H   0  0  0  0  0  0  0  0  0  0  0  0
   -0.5716    1.1232    3.8542 C   0  0  0  0  0  0  0  0  0  0  0  0
    0.3083    1.7643    3.9293 H   0  0  0  0  0  0  0  0  0  0  0  0
   -1.4485    1.6640    4.2131 H   0  0  0  0  0  0  0  0  0  0  0  0
   -0.4137    0.2381    4.4736 H   0  0  0  0  0  0  0  0  0  0  0  0
  5  6  2  0  0  0  0
  5  7  1  0  0  0  0
  2  3  1  0  0  0  0
  2  4  1  0  0  0  0
  2  5  1  0  0  0  0
  1  2  1  0  0  0  0
 20 21  2  0  0  0  0
 20 22  1  0  0  0  0
 17 18  1  0  0  0  0
 17 19  2  0  0  0  0
 14 15  1  0  0  0  0
 14 16  1  0  0  0  0
 14 17  1  0  0  0  0
 11 12  1  0  0  0  0
 11 13  1  0  0  0  0
 11 14  1  0  0  0  0
  9 10  1  0  0  0  0
  9 11  1  0  0  0  0
  9 20  1  0  0  0  0
  7  8  1  0  0  0  0
  7  9  1  0  0  0  0
 24 25  1  0  0  0  0
 24 26  1  0  0  0  0
 24 27  1  0  0  0  0
 22 23  1  0  0  0  0
 22 24  1  0  0  0  0
M  CHG  1  18  -1
M  END
$$$$
default_name
  -OEChem-02102213163D

 27 26  0     1  0  0  0  0  0999 V2000
   -3.2406   -3.5400    1.2326 H   0  0  0  0  0  0  0  0  0  0  0  0
   -3.1436   -2.6190    0.6606 C   0  0  0  0  0  0  0  0  0  0  0  0
   -3.8786   -1.8920    0.9996 H   0  0  0  0  0  0  0  0  0  0  0  0
   -3.2846   -2.8280   -0.3984 H   0  0  0  0  0  0  0  0  0  0  0  0
   -1.7586   -2.0580    0.8686 C   0  0  0  0  0  0  0  0  0  0  0  0
   -0.9666   -2.6340    1.6026 O   0  0  0  0  0  0  0  0  0  0  0  0
   -1.4866   -0.9220    0.2366 N   0  0  0  0  0  0  0  0  0  0  0  0
   -2.2166   -0.4790   -0.2994 H   0  0  0  0  0  0  0  0  0  0  0  0
   -0.1956   -0.2250    0.2596 C   0  0  1  0  0  0  0  0  0  0  0  0
    0.5755   -0.9013   -0.1105 H   0  0  0  0  0  0  0  0  0  0  0  0
   -0.2553    0.9811   -0.6992 C   0  0  0  0  0  0  0  0  0  0  0  0
    0.6621    0.9869   -1.2898 H   0  0  0  0  0  0  0  0  0  0  0  0
   -1.1012    0.8604   -1.3775 H   0  0  0  0  0  0  0  0  0  0  0  0
   -0.3778    2.3328    0.0243 C   0  0  0  0  0  0  0  0  0  0  0  0
   -0.9480    3.0230   -0.6021 H   0  0  0  0  0  0  0  0  0  0  0  0
   -0.9379    2.1768    0.9501 H   0  0  0  0  0  0  0  0  0  0  0  0
    0.9785    2.9732    0.3548 C   0  0  0  0  0  0  0  0  0  0  0  0
    2.0171    2.3078    0.1424 O   0  5  0  0  0  0  0  0  0  0  0  0
    0.9535    4.1430    0.7977 O   0  0  0  0  0  0  0  0  0  0  0  0
    0.1881    0.1678    1.7015 C   0  0  0  0  0  0  0  0  0  0  0  0
    1.3379    0.0002    2.1133 O   0  0  0  0  0  0  0  0  0  0  0  0
   -0.7666    0.7145    2.4656 N   0  0  0  0  0  0  0  0  0  0  0  0
   -1.6971    0.7705    2.0790 H   0  0  0  0  0  0  0  0  0  0  0  0
   -0.5716    1.1232    3.8542 C   0  0  0  0  0  0  0  0  0  0  0  0
    0.3083    1.7643    3.9293 H   0  0  0  0  0  0  0  0  0  0  0  0
   -1.4485    1.6640    4.2131 H   0  0  0  0  0  0  0  0  0  0  0  0
   -0.4137    0.2381    4.4736 H   0  0  0  0  0  0  0  0  0  0  0  0
  5  6  2  0  0  0  0
  5  7  1  0  0  0  0
  2  3  1  0  0  0  0
  2  4  1  0  0  0  0
  2  5  1  0  0  0  0
  1  2  1  0  0  0  0
 20 21  2  0  0  0  0
 20 22  1  0  0  0  0
 17 18  1  0  0  0  0
 17 19  2  0  0  0  0
 14 15  1  0  0  0  0
 14 16  1  0  0  0  0
 14 17  1  0  0  0  0
 11 12  1  0  0  0  0
 11 13  1  0  0  0  0
 11 14  1  0  0  0  0
  9 10  1  0  0  0  0
  9 11  1  0  0  0  0
  9 20  1  0  0  0  0
  7  8  1  0  0  0  0
  7  9  1  0  0  0  0
 24 25  1  0  0  0  0
 24 26  1  0  0  0  0
 24 27  1  0  0  0  0
 22 23  1  0  0  0  0
 22 24  1  0  0  0  0
M  CHG  1  18  -1
M  END
$$$$
default_name
  -OEChem-02102213163D

 27 26  0     1  0  0  0  0  0999 V2000
   -3.2406   -3.5400    1.2326 H   0  0  0  0  0  0  0  0  0  0  0  0
   -3.1436   -2.6190    0.6606 C   0  0  0  0  0  0  0  0  0  0  0  0
   -3.8786   -1.8920    0.9996 H   0  0  0  0  0  0  0  0  0  0  0  0
   -3.2846   -2.8280   -0.3984 H   0  0  0  0  0  0  0  0  0  0  0  0
   -1.7586   -2.0580    0.8686 C   0  0  0  0  0  0  0  0  0  0  0  0
   -0.9666   -2.6340    1.6026 O   0  0  0  0  0  0  0  0  0  0  0  0
   -1.4866   -0.9220    0.2366 N   0  0  0  0  0  0  0  0  0  0  0  0
   -2.2166   -0.4790   -0.2994 H   0  0  0  0  0  0  0  0  0  0  0  0
   -0.1956   -0.2250    0.2596 C   0  0  1  0  0  0  0  0  0  0  0  0
    0.5755   -0.9013   -0.1105 H   0  0  0  0  0  0  0  0  0  0  0  0
   -0.2553    0.9811   -0.6992 C   0  0  0  0  0  0  0  0  0  0  0  0
    0.6621    0.9869   -1.2898 H   0  0  0  0  0  0  0  0  0  0  0  0
   -1.1012    0.8604   -1.3775 H   0  0  0  0  0  0  0  0  0  0  0  0
   -0.3778    2.3328    0.0243 C   0  0  0  0  0  0  0  0  0  0  0  0
   -1.1560    2.9278   -0.4596 H   0  0  0  0  0  0  0  0  0  0  0  0
   -0.6901    2.1433    1.0547 H   0  0  0  0  0  0  0  0  0  0  0  0
    0.9279    3.1416    0.0316 C   0  0  0  0  0  0  0  0  0  0  0  0
    1.9658    2.5980   -0.4084 O   0  5  0  0  0  0  0  0  0  0  0  0
    0.8587    4.3147    0.4608 O   0  0  0  0  0  0  0  0  0  0  0  0
    0.1881    0.1678    1.7015 C   0  0  0  0  0  0  0  0  0  0  0  0
    1.3379    0.0002    2.1133 O   0  0  0  0  0  0  0  0  0  0  0  0
   -0.7666    0.7145    2.4656 N   0  0  0  0  0  0  0  0  0  0  0  0
   -1.6971    0.7705    2.0790 H   0  0  0  0  0  0  0  0  0  0  0  0
   -0.5716    1.1232    3.8542 C   0  0  0  0  0  0  0  0  0  0  0  0
    0.3083    1.7643    3.9293 H   0  0  0  0  0  0  0  0  0  0  0  0
   -1.4485    1.6640    4.2131 H   0  0  0  0  0  0  0  0  0  0  0  0
   -0.4137    0.2381    4.4736 H   0  0  0  0  0  0  0  0  0  0  0  0
  5  6  2  0  0  0  0
  5  7  1  0  0  0  0
  2  3  1  0  0  0  0
  2  4  1  0  0  0  0
  2  5  1  0  0  0  0
  1  2  1  0  0  0  0
 20 21  2  0  0  0  0
 20 22  1  0  0  0  0
 17 18  1  0  0  0  0
 17 19  2  0  0  0  0
 14 15  1  0  0  0  0
 14 16  1  0  0  0  0
 14 17  1  0  0  0  0
 11 12  1  0  0  0  0
 11 13  1  0  0  0  0
 11 14  1  0  0  0  0
  9 10  1  0  0  0  0
  9 11  1  0  0  0  0
  9 20  1  0  0  0  0
  7  8  1  0  0  0  0
  7  9  1  0  0  0  0
 24 25  1  0  0  0  0
 24 26  1  0  0  0  0
 24 27  1  0  0  0  0
 22 23  1  0  0  0  0
 22 24  1  0  0  0  0
M  CHG  1  18  -1
M  END
$$$$
default_name
  -OEChem-02102213163D

 27 26  0     1  0  0  0  0  0999 V2000
   -3.2406   -3.5400    1.2326 H   0  0  0  0  0  0  0  0  0  0  0  0
   -3.1436   -2.6190    0.6606 C   0  0  0  0  0  0  0  0  0  0  0  0
   -3.8786   -1.8920    0.9996 H   0  0  0  0  0  0  0  0  0  0  0  0
   -3.2846   -2.8280   -0.3984 H   0  0  0  0  0  0  0  0  0  0  0  0
   -1.7586   -2.0580    0.8686 C   0  0  0  0  0  0  0  0  0  0  0  0
   -0.9666   -2.6340    1.6026 O   0  0  0  0  0  0  0  0  0  0  0  0
   -1.4866   -0.9220    0.2366 N   0  0  0  0  0  0  0  0  0  0  0  0
   -2.2166   -0.4790   -0.2994 H   0  0  0  0  0  0  0  0  0  0  0  0
   -0.1956   -0.2250    0.2596 C   0  0  1  0  0  0  0  0  0  0  0  0
    0.5755   -0.9013   -0.1105 H   0  0  0  0  0  0  0  0  0  0  0  0
   -0.2553    0.9811   -0.6992 C   0  0  0  0  0  0  0  0  0  0  0  0
    0.6621    0.9869   -1.2898 H   0  0  0  0  0  0  0  0  0  0  0  0
   -1.1012    0.8604   -1.3775 H   0  0  0  0  0  0  0  0  0  0  0  0
   -0.3778    2.3328    0.0243 C   0  0  0  0  0  0  0  0  0  0  0  0
   -1.3130    2.8135   -0.2726 H   0  0  0  0  0  0  0  0  0  0  0  0
   -0.4230    2.1432    1.1000 H   0  0  0  0  0  0  0  0  0  0  0  0
    0.7849    3.2914   -0.2725 C   0  0  0  0  0  0  0  0  0  0  0  0
    1.7557    2.8607   -0.9347 O   0  5  0  0  0  0  0  0  0  0  0  0
    0.6695    4.4621    0.1535 O   0  0  0  0  0  0  0  0  0  0  0  0
    0.1881    0.1678    1.7015 C   0  0  0  0  0  0  0  0  0  0  0  0
    1.3379    0.0002    2.1133 O   0  0  0  0  0  0  0  0  0  0  0  0
   -0.7666    0.7145    2.4656 N   0  0  0  0  0  0  0  0  0  0  0  0
   -1.6971    0.7705    2.0790 H   0  0  0  0  0  0  0  0  0  0  0  0
   -0.5716    1.1232    3.8542 C   0  0  0  0  0  0  0  0  0  0  0  0
    0.3083    1.7643    3.9293 H   0  0  0  0  0  0  0  0  0  0  0  0
   -1.4485    1.6640    4.2131 H   0  0  0  0  0  0  0  0  0  0  0  0
   -0.4137    0.2381    4.4736 H   0  0  0  0  0  0  0  0  0  0  0  0
  5  6  2  0  0  0  0
  5  7  1  0  0  0  0
  2  3  1  0  0  0  0
  2  4  1  0  0  0  0
  2  5  1  0  0  0  0
  1  2  1  0  0  0  0
 20 21  2  0  0  0  0
 20 22  1  0  0  0  0
 17 18  1  0  0  0  0
 17 19  2  0  0  0  0
 14 15  1  0  0  0  0
 14 16  1  0  0  0  0
 14 17  1  0  0  0  0
 11 12  1  0  0  0  0
 11 13  1  0  0  0  0
 11 14  1  0  0  0  0
  9 10  1  0  0  0  0
  9 11  1  0  0  0  0
  9 20  1  0  0  0  0
  7  8  1  0  0  0  0
  7  9  1  0  0  0  0
 24 25  1  0  0  0  0
 24 26  1  0  0  0  0
 24 27  1  0  0  0  0
 22 23  1  0  0  0  0
 22 24  1  0  0  0  0
M  CHG  1  18  -1
M  END
$$$$
default_name
  -OEChem-02102213163D

 27 26  0     1  0  0  0  0  0999 V2000
   -3.2406   -3.5400    1.2326 H   0  0  0  0  0  0  0  0  0  0  0  0
   -3.1436   -2.6190    0.6606 C   0  0  0  0  0  0  0  0  0  0  0  0
   -3.8786   -1.8920    0.9996 H   0  0  0  0  0  0  0  0  0  0  0  0
   -3.2846   -2.8280   -0.3984 H   0  0  0  0  0  0  0  0  0  0  0  0
   -1.7586   -2.0580    0.8686 C   0  0  0  0  0  0  0  0  0  0  0  0
   -0.9666   -2.6340    1.6026 O   0  0  0  0  0  0  0  0  0  0  0  0
   -1.4866   -0.9220    0.2366 N   0  0  0  0  0  0  0  0  0  0  0  0
   -2.2166   -0.4790   -0.2994 H   0  0  0  0  0  0  0  0  0  0  0  0
   -0.1956   -0.2250    0.2596 C   0  0  1  0  0  0  0  0  0  0  0  0
    0.5755   -0.9013   -0.1105 H   0  0  0  0  0  0  0  0  0  0  0  0
   -0.2553    0.9811   -0.6992 C   0  0  0  0  0  0  0  0  0  0  0  0
    0.6621    0.9869   -1.2898 H   0  0  0  0  0  0  0  0  0  0  0  0
   -1.1012    0.8604   -1.3775 H   0  0  0  0  0  0  0  0  0  0  0  0
   -0.3778    2.3328    0.0243 C   0  0  0  0  0  0  0  0  0  0  0  0
   -1.4082    2.6878   -0.0539 H   0  0  0  0  0  0  0  0  0  0  0  0
   -0.1546    2.1766    1.0831 H   0  0  0  0  0  0  0  0  0  0  0  0
    0.5594    3.4125   -0.5368 C   0  0  0  0  0  0  0  0  0  0  0  0
    1.4010    3.0780   -1.4007 O   0  5  0  0  0  0  0  0  0  0  0  0
    0.3989    4.5751   -0.1034 O   0  0  0  0  0  0  0  0  0  0  0  0
    0.1881    0.1678    1.7015 C   0  0  0  0  0  0  0  0  0  0  0  0
    1.3379    0.0002    2.1133 O   0  0  0  0  0  0  0  0  0  0  0  0
   -0.7666    0.7145    2.4656 N   0  0  0  0  0  0  0  0  0  0  0  0
   -1.6971    0.7705    2.0790 H   0  0  0  0  0  0  0  0  0  0  0  0
   -0.5716    1.1232    3.8542 C   0  0  0  0  0  0  0  0  0  0  0  0
    0.3083    1.7643    3.9293 H   0  0  0  0  0  0  0  0  0  0  0  0
   -1.4485    1.6640    4.2131 H   0  0  0  0  0  0  0  0  0  0  0  0
   -0.4137    0.2381    4.4736 H   0  0  0  0  0  0  0  0  0  0  0  0
  5  6  2  0  0  0  0
  5  7  1  0  0  0  0
  2  3  1  0  0  0  0
  2  4  1  0  0  0  0
  2  5  1  0  0  0  0
  1  2  1  0  0  0  0
 20 21  2  0  0  0  0
 20 22  1  0  0  0  0
 17 18  1  0  0  0  0
 17 19  2  0  0  0  0
 14 15  1  0  0  0  0
 14 16  1  0  0  0  0
 14 17  1  0  0  0  0
 11 12  1  0  0  0  0
 11 13  1  0  0  0  0
 11 14  1  0  0  0  0
  9 10  1  0  0  0  0
  9 11  1  0  0  0  0
  9 20  1  0  0  0  0
  7  8  1  0  0  0  0
  7  9  1  0  0  0  0
 24 25  1  0  0  0  0
 24 26  1  0  0  0  0
 24 27  1  0  0  0  0
 22 23  1  0  0  0  0
 22 24  1  0  0  0  0
M  CHG  1  18  -1
M  END
$$$$
default_name
  -OEChem-02102213163D

 27 26  0     1  0  0  0  0  0999 V2000
   -3.2406   -3.5400    1.2326 H   0  0  0  0  0  0  0  0  0  0  0  0
   -3.1436   -2.6190    0.6606 C   0  0  0  0  0  0  0  0  0  0  0  0
   -3.8786   -1.8920    0.9996 H   0  0  0  0  0  0  0  0  0  0  0  0
   -3.2846   -2.8280   -0.3984 H   0  0  0  0  0  0  0  0  0  0  0  0
   -1.7586   -2.0580    0.8686 C   0  0  0  0  0  0  0  0  0  0  0  0
   -0.9666   -2.6340    1.6026 O   0  0  0  0  0  0  0  0  0  0  0  0
   -1.4866   -0.9220    0.2366 N   0  0  0  0  0  0  0  0  0  0  0  0
   -2.2166   -0.4790   -0.2994 H   0  0  0  0  0  0  0  0  0  0  0  0
   -0.1956   -0.2250    0.2596 C   0  0  1  0  0  0  0  0  0  0  0  0
    0.5755   -0.9013   -0.1105 H   0  0  0  0  0  0  0  0  0  0  0  0
   -0.2553    0.9811   -0.6992 C   0  0  0  0  0  0  0  0  0  0  0  0
    0.6621    0.9869   -1.2898 H   0  0  0  0  0  0  0  0  0  0  0  0
   -1.1012    0.8604   -1.3775 H   0  0  0  0  0  0  0  0  0  0  0  0
   -0.3778    2.3328    0.0243 C   0  0  0  0  0  0  0  0  0  0  0  0
   -1.4351    2.5594    0.1815 H   0  0  0  0  0  0  0  0  0  0  0  0
    0.0967    2.2412    1.0050 H   0  0  0  0  0  0  0  0  0  0  0  0
    0.2667    3.4965   -0.7433 C   0  0  0  0  0  0  0  0  0  0  0  0
    0.9259    3.2351   -1.7746 O   0  5  0  0  0  0  0  0  0  0  0  0
    0.0653    4.6460   -0.2923 O   0  0  0  0  0  0  0  0  0  0  0  0
    0.1881    0.1678    1.7015 C   0  0  0  0  0  0  0  0  0  0  0  0
    1.3379    0.0002    2.1133 O   0  0  0  0  0  0  0  0  0  0  0  0
   -0.7666    0.7145    2.4656 N   0  0  0  0  0  0  0  0  0  0  0  0
   -1.6971    0.7705    2.0790 H   0  0  0  0  0  0  0  0  0  0  0  0
   -0.5716    1.1232    3.8542 C   0  0  0  0  0  0  0  0  0  0  0  0
    0.3083    1.7643    3.9293 H   0  0  0  0  0  0  0  0  0  0  0  0
   -1.4485    1.6640    4.2131 H   0  0  0  0  0  0  0  0  0  0  0  0
   -0.4137    0.2381    4.4736 H   0  0  0  0  0  0  0  0  0  0  0  0
  5  6  2  0  0  0  0
  5  7  1  0  0  0  0
  2  3  1  0  0  0  0
  2  4  1  0  0  0  0
  2  5  1  0  0  0  0
  1  2  1  0  0  0  0
 20 21  2  0  0  0  0
 20 22  1  0  0  0  0
 17 18  1  0  0  0  0
 17 19  2  0  0  0  0
 14 15  1  0  0  0  0
 14 16  1  0  0  0  0
 14 17  1  0  0  0  0
 11 12  1  0  0  0  0
 11 13  1  0  0  0  0
 11 14  1  0  0  0  0
  9 10  1  0  0  0  0
  9 11  1  0  0  0  0
  9 20  1  0  0  0  0
  7  8  1  0  0  0  0
  7  9  1  0  0  0  0
 24 25  1  0  0  0  0
 24 26  1  0  0  0  0
 24 27  1  0  0  0  0
 22 23  1  0  0  0  0
 22 24  1  0  0  0  0
M  CHG  1  18  -1
M  END
$$$$
default_name
  -OEChem-02102213163D

 27 26  0     1  0  0  0  0  0999 V2000
   -3.2406   -3.5400    1.2326 H   0  0  0  0  0  0  0  0  0  0  0  0
   -3.1436   -2.6190    0.6606 C   0  0  0  0  0  0  0  0  0  0  0  0
   -3.8786   -1.8920    0.9996 H   0  0  0  0  0  0  0  0  0  0  0  0
   -3.2846   -2.8280   -0.3984 H   0  0  0  0  0  0  0  0  0  0  0  0
   -1.7586   -2.0580    0.8686 C   0  0  0  0  0  0  0  0  0  0  0  0
   -0.9666   -2.6340    1.6026 O   0  0  0  0  0  0  0  0  0  0  0  0
   -1.4866   -0.9220    0.2366 N   0  0  0  0  0  0  0  0  0  0  0  0
   -2.2166   -0.4790   -0.2994 H   0  0  0  0  0  0  0  0  0  0  0  0
   -0.1956   -0.2250    0.2596 C   0  0  1  0  0  0  0  0  0  0  0  0
    0.5755   -0.9013   -0.1105 H   0  0  0  0  0  0  0  0  0  0  0  0
   -0.2553    0.9811   -0.6992 C   0  0  0  0  0  0  0  0  0  0  0  0
    0.6621    0.9869   -1.2898 H   0  0  0  0  0  0  0  0  0  0  0  0
   -1.1012    0.8604   -1.3775 H   0  0  0  0  0  0  0  0  0  0  0  0
   -0.3778    2.3328    0.0243 C   0  0  0  0  0  0  0  0  0  0  0  0
   -1.3919    2.4369    0.4177 H   0  0  0  0  0  0  0  0  0  0  0  0
    0.3138    2.3326    0.8710 H   0  0  0  0  0  0  0  0  0  0  0  0
   -0.0732    3.5378   -0.8780 C   0  0  0  0  0  0  0  0  0  0  0  0
    0.3629    3.3213   -2.0310 O   0  5  0  0  0  0  0  0  0  0  0  0
   -0.3085    4.6699   -0.4003 O   0  0  0  0  0  0  0  0  0  0  0  0
    0.1881    0.1678    1.7015 C   0  0  0  0  0  0  0  0  0  0  0  0
    1.3379    0.0002    2.1133 O   0  0  0  0  0  0  0  0  0  0  0  0
   -0.7666    0.7145    2.4656 N   0  0  0  0  0  0  0  0  0  0  0  0
   -1.6971    0.7705    2.0790 H   0  0  0  0  0  0  0  0  0  0  0  0
   -0.5716    1.1232    3.8542 C   0  0  0  0  0  0  0  0  0  0  0  0
    0.3083    1.7643    3.9293 H   0  0  0  0  0  0  0  0  0  0  0  0
   -1.4485    1.6640    4.2131 H   0  0  0  0  0  0  0  0  0  0  0  0
   -0.4137    0.2381    4.4736 H   0  0  0  0  0  0  0  0  0  0  0  0
  5  6  2  0  0  0  0
  5  7  1  0  0  0  0
  2  3  1  0  0  0  0
  2  4  1  0  0  0  0
  2  5  1  0  0  0  0
  1  2  1  0  0  0  0
 20 21  2  0  0  0  0
 20 22  1  0  0  0  0
 17 18  1  0  0  0  0
 17 19  2  0  0  0  0
 14 15  1  0  0  0  0
 14 16  1  0  0  0  0
 14 17  1  0  0  0  0
 11 12  1  0  0  0  0
 11 13  1  0  0  0  0
 11 14  1  0  0  0  0
  9 10  1  0  0  0  0
  9 11  1  0  0  0  0
  9 20  1  0  0  0  0
  7  8  1  0  0  0  0
  7  9  1  0  0  0  0
 24 25  1  0  0  0  0
 24 26  1  0  0  0  0
 24 27  1  0  0  0  0
 22 23  1  0  0  0  0
 22 24  1  0  0  0  0
M  CHG  1  18  -1
M  END
$$$$
default_name
  -OEChem-02102213163D

 27 26  0     1  0  0  0  0  0999 V2000
   -3.2406   -3.5400    1.2326 H   0  0  0  0  0  0  0  0  0  0  0  0
   -3.1436   -2.6190    0.6606 C   0  0  0  0  0  0  0  0  0  0  0  0
   -3.8786   -1.8920    0.9996 H   0  0  0  0  0  0  0  0  0  0  0  0
   -3.2846   -2.8280   -0.3984 H   0  0  0  0  0  0  0  0  0  0  0  0
   -1.7586   -2.0580    0.8686 C   0  0  0  0  0  0  0  0  0  0  0  0
   -0.9666   -2.6340    1.6026 O   0  0  0  0  0  0  0  0  0  0  0  0
   -1.4866   -0.9220    0.2366 N   0  0  0  0  0  0  0  0  0  0  0  0
   -2.2166   -0.4790   -0.2994 H   0  0  0  0  0  0  0  0  0  0  0  0
   -0.1956   -0.2250    0.2596 C   0  0  1  0  0  0  0  0  0  0  0  0
    0.5755   -0.9013   -0.1105 H   0  0  0  0  0  0  0  0  0  0  0  0
   -0.2553    0.9811   -0.6992 C   0  0  0  0  0  0  0  0  0  0  0  0
    0.5118    0.8421   -1.4626 H   0  0  0  0  0  0  0  0  0  0  0  0
   -1.2296    1.0034   -1.1896 H   0  0  0  0  0  0  0  0  0  0  0  0
   -0.0104    2.3300   -0.0020 C   0  0  0  0  0  0  0  0  0  0  0  0
   -0.7592    2.4683    0.7817 H   0  0  0  0  0  0  0  0  0  0  0  0
    0.9733    2.2967    0.4737 H   0  0  0  0  0  0  0  0  0  0  0  0
   -0.0702    3.5307   -0.9579 C   0  0  0  0  0  0  0  0  0  0  0  0
   -0.1697    3.3083   -2.1856 O   0  5  0  0  0  0  0  0  0  0  0  0
   -0.0394    4.6666   -0.4344 O   0  0  0  0  0  0  0  0  0  0  0  0
    0.1881    0.1678    1.7015 C   0  0  0  0  0  0  0  0  0  0  0  0
    1.3379    0.0002    2.1133 O   0  0  0  0  0  0  0  0  0  0  0  0
   -0.7666    0.7145    2.4656 N   0  0  0  0  0  0  0  0  0  0  0  0
   -1.6971    0.7705    2.0790 H   0  0  0  0  0  0  0  0  0  0  0  0
   -0.5716    1.1232    3.8542 C   0  0  0  0  0  0  0  0  0  0  0  0
    0.3083    1.7643    3.9293 H   0  0  0  0  0  0  0  0  0  0  0  0
   -1.4485    1.6640    4.2131 H   0  0  0  0  0  0  0  0  0  0  0  0
   -0.4137    0.2381    4.4736 H   0  0  0  0  0  0  0  0  0  0  0  0
  5  6  2  0  0  0  0
  5  7  1  0  0  0  0
  2  3  1  0  0  0  0
  2  4  1  0  0  0  0
  2  5  1  0  0  0  0
  1  2  1  0  0  0  0
 20 21  2  0  0  0  0
 20 22  1  0  0  0  0
 17 18  1  0  0  0  0
 17 19  2  0  0  0  0
 14 15  1  0  0  0  0
 14 16  1  0  0  0  0
 14 17  1  0  0  0  0
 11 12  1  0  0  0  0
 11 13  1  0  0  0  0
 11 14  1  0  0  0  0
  9 10  1  0  0  0  0
  9 11  1  0  0  0  0
  9 20  1  0  0  0  0
  7  8  1  0  0  0  0
  7  9  1  0  0  0  0
 24 25  1  0  0  0  0
 24 26  1  0  0  0  0
 24 27  1  0  0  0  0
 22 23  1  0  0  0  0
 22 24  1  0  0  0  0
M  CHG  1  18  -1
M  END
$$$$
default_name
  -OEChem-02102213163D

 27 26  0     1  0  0  0  0  0999 V2000
   -3.2406   -3.5400    1.2326 H   0  0  0  0  0  0  0  0  0  0  0  0
   -3.1436   -2.6190    0.6606 C   0  0  0  0  0  0  0  0  0  0  0  0
   -3.8786   -1.8920    0.9996 H   0  0  0  0  0  0  0  0  0  0  0  0
   -3.2846   -2.8280   -0.3984 H   0  0  0  0  0  0  0  0  0  0  0  0
   -1.7586   -2.0580    0.8686 C   0  0  0  0  0  0  0  0  0  0  0  0
   -0.9666   -2.6340    1.6026 O   0  0  0  0  0  0  0  0  0  0  0  0
   -1.4866   -0.9220    0.2366 N   0  0  0  0  0  0  0  0  0  0  0  0
   -2.2166   -0.4790   -0.2994 H   0  0  0  0  0  0  0  0  0  0  0  0
   -0.1956   -0.2250    0.2596 C   0  0  1  0  0  0  0  0  0  0  0  0
    0.5755   -0.9013   -0.1105 H   0  0  0  0  0  0  0  0  0  0  0  0
   -0.2553    0.9811   -0.6992 C   0  0  0  0  0  0  0  0  0  0  0  0
    0.5118    0.8421   -1.4626 H   0  0  0  0  0  0  0  0  0  0  0  0
   -1.2296    1.0034   -1.1896 H   0  0  0  0  0  0  0  0  0  0  0  0
   -0.0104    2.3300   -0.0020 C   0  0  0  0  0  0  0  0  0  0  0  0
   -0.5701    2.3541    0.9361 H   0  0  0  0  0  0  0  0  0  0  0  0
    1.0535    2.4038    0.2382 H   0  0  0  0  0  0  0  0  0  0  0  0
   -0.4227    3.5404   -0.8529 C   0  0  0  0  0  0  0  0  0  0  0  0
   -0.7755    3.3415   -2.0371 O   0  5  0  0  0  0  0  0  0  0  0  0
   -0.4006    4.6567   -0.2883 O   0  0  0  0  0  0  0  0  0  0  0  0
    0.1881    0.1678    1.7015 C   0  0  0  0  0  0  0  0  0  0  0  0
    1.3379    0.0002    2.1133 O   0  0  0  0  0  0  0  0  0  0  0  0
   -0.7666    0.7145    2.4656 N   0  0  0  0  0  0  0  0  0  0  0  0
   -1.6971    0.7705    2.0790 H   0  0  0  0  0  0  0  0  0  0  0  0
   -0.5716    1.1232    3.8542 C   0  0  0  0  0  0  0  0  0  0  0  0
    0.3083    1.7643    3.9293 H   0  0  0  0  0  0  0  0  0  0  0  0
   -1.4485    1.6640    4.2131 H   0  0  0  0  0  0  0  0  0  0  0  0
   -0.4137    0.2381    4.4736 H   0  0  0  0  0  0  0  0  0  0  0  0
  5  6  2  0  0  0  0
  5  7  1  0  0  0  0
  2  3  1  0  0  0  0
  2  4  1  0  0  0  0
  2  5  1  0  0  0  0
  1  2  1  0  0  0  0
 20 21  2  0  0  0  0
 20 22  1  0  0  0  0
 17 18  1  0  0  0  0
 17 19  2  0  0  0  0
 14 15  1  0  0  0  0
 14 16  1  0  0  0  0
 14 17  1  0  0  0  0
 11 12  1  0  0  0  0
 11 13  1  0  0  0  0
 11 14  1  0  0  0  0
  9 10  1  0  0  0  0
  9 11  1  0  0  0  0
  9 20  1  0  0  0  0
  7  8  1  0  0  0  0
  7  9  1  0  0  0  0
 24 25  1  0  0  0  0
 24 26  1  0  0  0  0
 24 27  1  0  0  0  0
 22 23  1  0  0  0  0
 22 24  1  0  0  0  0
M  CHG  1  18  -1
M  END
$$$$
default_name
  -OEChem-02102213163D

 27 26  0     1  0  0  0  0  0999 V2000
   -3.2406   -3.5400    1.2326 H   0  0  0  0  0  0  0  0  0  0  0  0
   -3.1436   -2.6190    0.6606 C   0  0  0  0  0  0  0  0  0  0  0  0
   -3.8786   -1.8920    0.9996 H   0  0  0  0  0  0  0  0  0  0  0  0
   -3.2846   -2.8280   -0.3984 H   0  0  0  0  0  0  0  0  0  0  0  0
   -1.7586   -2.0580    0.8686 C   0  0  0  0  0  0  0  0  0  0  0  0
   -0.9666   -2.6340    1.6026 O   0  0  0  0  0  0  0  0  0  0  0  0
   -1.4866   -0.9220    0.2366 N   0  0  0  0  0  0  0  0  0  0  0  0
   -2.2166   -0.4790   -0.2994 H   0  0  0  0  0  0  0  0  0  0  0  0
   -0.1956   -0.2250    0.2596 C   0  0  1  0  0  0  0  0  0  0  0  0
    0.5755   -0.9013   -0.1105 H   0  0  0  0  0  0  0  0  0  0  0  0
   -0.2553    0.9811   -0.6992 C   0  0  0  0  0  0  0  0  0  0  0  0
    0.5118    0.8421   -1.4626 H   0  0  0  0  0  0  0  0  0  0  0  0
   -1.2296    1.0034   -1.1896 H   0  0  0  0  0  0  0  0  0  0  0  0
   -0.0104    2.3300   -0.0020 C   0  0  0  0  0  0  0  0  0  0  0  0
   -0.3389    2.2597    1.0377 H   0  0  0  0  0  0  0  0  0  0  0  0
    1.0650    2.5265   -0.0032 H   0  0  0  0  0  0  0  0  0  0  0  0
   -0.7404    3.5041   -0.6710 C   0  0  0  0  0  0  0  0  0  0  0  0
   -1.3309    3.2965   -1.7549 O   0  5  0  0  0  0  0  0  0  0  0  0
   -0.7152    4.5986   -0.0655 O   0  0  0  0  0  0  0  0  0  0  0  0
    0.1881    0.1678    1.7015 C   0  0  0  0  0  0  0  0  0  0  0  0
    1.3379    0.0002    2.1133 O   0  0  0  0  0  0  0  0  0  0  0  0
   -0.7666    0.7145    2.4656 N   0  0  0  0  0  0  0  0  0  0  0  0
   -1.6971    0.7705    2.0790 H   0  0  0  0  0  0  0  0  0  0  0  0
   -0.5716    1.1232    3.8542 C   0  0  0  0  0  0  0  0  0  0  0  0
    0.3083    1.7643    3.9293 H   0  0  0  0  0  0  0  0  0  0  0  0
   -1.4485    1.6640    4.2131 H   0  0  0  0  0  0  0  0  0  0  0  0
   -0.4137    0.2381    4.4736 H   0  0  0  0  0  0  0  0  0  0  0  0
  5  6  2  0  0  0  0
  5  7  1  0  0  0  0
  2  3  1  0  0  0  0
  2  4  1  0  0  0  0
  2  5  1  0  0  0  0
  1  2  1  0  0  0  0
 20 21  2  0  0  0  0
 20 22  1  0  0  0  0
 17 18  1  0  0  0  0
 17 19  2  0  0  0  0
 14 15  1  0  0  0  0
 14 16  1  0  0  0  0
 14 17  1  0  0  0  0
 11 12  1  0  0  0  0
 11 13  1  0  0  0  0
 11 14  1  0  0  0  0
  9 10  1  0  0  0  0
  9 11  1  0  0  0  0
  9 20  1  0  0  0  0
  7  8  1  0  0  0  0
  7  9  1  0  0  0  0
 24 25  1  0  0  0  0
 24 26  1  0  0  0  0
 24 27  1  0  0  0  0
 22 23  1  0  0  0  0
 22 24  1  0  0  0  0
M  CHG  1  18  -1
M  END
$$$$
default_name
  -OEChem-02102213163D

 27 26  0     1  0  0  0  0  0999 V2000
   -3.2406   -3.5400    1.2326 H   0  0  0  0  0  0  0  0  0  0  0  0
   -3.1436   -2.6190    0.6606 C   0  0  0  0  0  0  0  0  0  0  0  0
   -3.8786   -1.8920    0.9996 H   0  0  0  0  0  0  0  0  0  0  0  0
   -3.2846   -2.8280   -0.3984 H   0  0  0  0  0  0  0  0  0  0  0  0
   -1.7586   -2.0580    0.8686 C   0  0  0  0  0  0  0  0  0  0  0  0
   -0.9666   -2.6340    1.6026 O   0  0  0  0  0  0  0  0  0  0  0  0
   -1.4866   -0.9220    0.2366 N   0  0  0  0  0  0  0  0  0  0  0  0
   -2.2166   -0.4790   -0.2994 H   0  0  0  0  0  0  0  0  0  0  0  0
   -0.1956   -0.2250    0.2596 C   0  0  1  0  0  0  0  0  0  0  0  0
    0.5755   -0.9013   -0.1105 H   0  0  0  0  0  0  0  0  0  0  0  0
   -0.2553    0.9811   -0.6992 C   0  0  0  0  0  0  0  0  0  0  0  0
    0.5118    0.8421   -1.4626 H   0  0  0  0  0  0  0  0  0  0  0  0
   -1.2296    1.0034   -1.1896 H   0  0  0  0  0  0  0  0  0  0  0  0
   -0.0104    2.3300   -0.0020 C   0  0  0  0  0  0  0  0  0  0  0  0
   -0.0815    2.1913    1.0795 H   0  0  0  0  0  0  0  0  0  0  0  0
    1.0069    2.6563   -0.2339 H   0  0  0  0  0  0  0  0  0  0  0  0
   -1.0018    3.4243   -0.4247 C   0  0  0  0  0  0  0  0  0  0  0  0
   -1.7981    3.1762   -1.3580 O   0  5  0  0  0  0  0  0  0  0  0  0
   -0.9617    4.4965    0.2186 O   0  0  0  0  0  0  0  0  0  0  0  0
    0.1881    0.1678    1.7015 C   0  0  0  0  0  0  0  0  0  0  0  0
    1.3379    0.0002    2.1133 O   0  0  0  0  0  0  0  0  0  0  0  0
   -0.7666    0.7145    2.4656 N   0  0  0  0  0  0  0  0  0  0  0  0
   -1.6971    0.7705    2.0790 H   0  0  0  0  0  0  0  0  0  0  0  0
   -0.5716    1.1232    3.8542 C   0  0  0  0  0  0  0  0  0  0  0  0
    0.3083    1.7643    3.9293 H   0  0  0  0  0  0  0  0  0  0  0  0
   -1.4485    1.6640    4.2131 H   0  0  0  0  0  0  0  0  0  0  0  0
   -0.4137    0.2381    4.4736 H   0  0  0  0  0  0  0  0  0  0  0  0
  5  6  2  0  0  0  0
  5  7  1  0  0  0  0
  2  3  1  0  0  0  0
  2  4  1  0  0  0  0
  2  5  1  0  0  0  0
  1  2  1  0  0  0  0
 20 21  2  0  0  0  0
 20 22  1  0  0  0  0
 17 18  1  0  0  0  0
 17 19  2  0  0  0  0
 14 15  1  0  0  0  0
 14 16  1  0  0  0  0
 14 17  1  0  0  0  0
 11 12  1  0  0  0  0
 11 13  1  0  0  0  0
 11 14  1  0  0  0  0
  9 10  1  0  0  0  0
  9 11  1  0  0  0  0
  9 20  1  0  0  0  0
  7  8  1  0  0  0  0
  7  9  1  0  0  0  0
 24 25  1  0  0  0  0
 24 26  1  0  0  0  0
 24 27  1  0  0  0  0
 22 23  1  0  0  0  0
 22 24  1  0  0  0  0
M  CHG  1  18  -1
M  END
$$$$
default_name
  -OEChem-02102213163D

 27 26  0     1  0  0  0  0  0999 V2000
   -3.2406   -3.5400    1.2326 H   0  0  0  0  0  0  0  0  0  0  0  0
   -3.1436   -2.6190    0.6606 C   0  0  0  0  0  0  0  0  0  0  0  0
   -3.8786   -1.8920    0.9996 H   0  0  0  0  0  0  0  0  0  0  0  0
   -3.2846   -2.8280   -0.3984 H   0  0  0  0  0  0  0  0  0  0  0  0
   -1.7586   -2.0580    0.8686 C   0  0  0  0  0  0  0  0  0  0  0  0
   -0.9666   -2.6340    1.6026 O   0  0  0  0  0  0  0  0  0  0  0  0
   -1.4866   -0.9220    0.2366 N   0  0  0  0  0  0  0  0  0  0  0  0
   -2.2166   -0.4790   -0.2994 H   0  0  0  0  0  0  0  0  0  0  0  0
   -0.1956   -0.2250    0.2596 C   0  0  1  0  0  0  0  0  0  0  0  0
    0.5755   -0.9013   -0.1105 H   0  0  0  0  0  0  0  0  0  0  0  0
   -0.2553    0.9811   -0.6992 C   0  0  0  0  0  0  0  0  0  0  0  0
    0.5118    0.8421   -1.4626 H   0  0  0  0  0  0  0  0  0  0  0  0
   -1.2296    1.0034   -1.1896 H   0  0  0  0  0  0  0  0  0  0  0  0
   -0.0104    2.3300   -0.0020 C   0  0  0  0  0  0  0  0  0  0  0  0
    0.1846    2.1538    1.0585 H   0  0  0  0  0  0  0  0  0  0  0  0
    0.8832    2.7843   -0.4382 H   0  0  0  0  0  0  0  0  0  0  0  0
   -1.1891    3.3063   -0.1307 C   0  0  0  0  0  0  0  0  0  0  0  0
   -2.1451    2.9888   -0.8736 O   0  5  0  0  0  0  0  0  0  0  0  0
   -1.1234    4.3573    0.5449 O   0  0  0  0  0  0  0  0  0  0  0  0
    0.1881    0.1678    1.7015 C   0  0  0  0  0  0  0  0  0  0  0  0
    1.3379    0.0002    2.1133 O   0  0  0  0  0  0  0  0  0  0  0  0
   -0.7666    0.7145    2.4656 N   0  0  0  0  0  0  0  0  0  0  0  0
   -1.6971    0.7705    2.0790 H   0  0  0  0  0  0  0  0  0  0  0  0
   -0.5716    1.1232    3.8542 C   0  0  0  0  0  0  0  0  0  0  0  0
    0.3083    1.7643    3.9293 H   0  0  0  0  0  0  0  0  0  0  0  0
   -1.4485    1.6640    4.2131 H   0  0  0  0  0  0  0  0  0  0  0  0
   -0.4137    0.2381    4.4736 H   0  0  0  0  0  0  0  0  0  0  0  0
  5  6  2  0  0  0  0
  5  7  1  0  0  0  0
  2  3  1  0  0  0  0
  2  4  1  0  0  0  0
  2  5  1  0  0  0  0
  1  2  1  0  0  0  0
 20 21  2  0  0  0  0
 20 22  1  0  0  0  0
 17 18  1  0  0  0  0
 17 19  2  0  0  0  0
 14 15  1  0  0  0  0
 14 16  1  0  0  0  0
 14 17  1  0  0  0  0
 11 12  1  0  0  0  0
 11 13  1  0  0  0  0
 11 14  1  0  0  0  0
  9 10  1  0  0  0  0
  9 11  1  0  0  0  0
  9 20  1  0  0  0  0
  7  8  1  0  0  0  0
  7  9  1  0  0  0  0
 24 25  1  0  0  0  0
 24 26  1  0  0  0  0
 24 27  1  0  0  0  0
 22 23  1  0  0  0  0
 22 24  1  0  0  0  0
M  CHG  1  18  -1
M  END
$$$$
default_name
  -OEChem-02102213163D

 27 26  0     1  0  0  0  0  0999 V2000
   -3.2406   -3.5400    1.2326 H   0  0  0  0  0  0  0  0  0  0  0  0
   -3.1436   -2.6190    0.6606 C   0  0  0  0  0  0  0  0  0  0  0  0
   -3.8786   -1.8920    0.9996 H   0  0  0  0  0  0  0  0  0  0  0  0
   -3.2846   -2.8280   -0.3984 H   0  0  0  0  0  0  0  0  0  0  0  0
   -1.7586   -2.0580    0.8686 C   0  0  0  0  0  0  0  0  0  0  0  0
   -0.9666   -2.6340    1.6026 O   0  0  0  0  0  0  0  0  0  0  0  0
   -1.4866   -0.9220    0.2366 N   0  0  0  0  0  0  0  0  0  0  0  0
   -2.2166   -0.4790   -0.2994 H   0  0  0  0  0  0  0  0  0  0  0  0
   -0.1956   -0.2250    0.2596 C   0  0  1  0  0  0  0  0  0  0  0  0
    0.5755   -0.9013   -0.1105 H   0  0  0  0  0  0  0  0  0  0  0  0
   -0.2553    0.9811   -0.6992 C   0  0  0  0  0  0  0  0  0  0  0  0
    0.5118    0.8421   -1.4626 H   0  0  0  0  0  0  0  0  0  0  0  0
   -1.2296    1.0034   -1.1896 H   0  0  0  0  0  0  0  0  0  0  0  0
   -0.0104    2.3300   -0.0020 C   0  0  0  0  0  0  0  0  0  0  0  0
    0.4413    2.1497    0.9764 H   0  0  0  0  0  0  0  0  0  0  0  0
    0.7023    2.9019   -0.6021 H   0  0  0  0  0  0  0  0  0  0  0  0
   -1.2893    3.1583    0.1908 C   0  0  0  0  0  0  0  0  0  0  0  0
   -2.3483    2.7471   -0.3346 O   0  5  0  0  0  0  0  0  0  0  0  0
   -1.1891    4.1903    0.8910 O   0  0  0  0  0  0  0  0  0  0  0  0
    0.1881    0.1678    1.7015 C   0  0  0  0  0  0  0  0  0  0  0  0
    1.3379    0.0002    2.1133 O   0  0  0  0  0  0  0  0  0  0  0  0
   -0.7666    0.7145    2.4656 N   0  0  0  0  0  0  0  0  0  0  0  0
   -1.6971    0.7705    2.0790 H   0  0  0  0  0  0  0  0  0  0  0  0
   -0.5716    1.1232    3.8542 C   0  0  0  0  0  0  0  0  0  0  0  0
    0.3083    1.7643    3.9293 H   0  0  0  0  0  0  0  0  0  0  0  0
   -1.4485    1.6640    4.2131 H   0  0  0  0  0  0  0  0  0  0  0  0
   -0.4137    0.2381    4.4736 H   0  0  0  0  0  0  0  0  0  0  0  0
  5  6  2  0  0  0  0
  5  7  1  0  0  0  0
  2  3  1  0  0  0  0
  2  4  1  0  0  0  0
  2  5  1  0  0  0  0
  1  2  1  0  0  0  0
 20 21  2  0  0  0  0
 20 22  1  0  0  0  0
 17 18  1  0  0  0  0
 17 19  2  0  0  0  0
 14 15  1  0  0  0  0
 14 16  1  0  0  0  0
 14 17  1  0  0  0  0
 11 12  1  0  0  0  0
 11 13  1  0  0  0  0
 11 14  1  0  0  0  0
  9 10  1  0  0  0  0
  9 11  1  0  0  0  0
  9 20  1  0  0  0  0
  7  8  1  0  0  0  0
  7  9  1  0  0  0  0
 24 25  1  0  0  0  0
 24 26  1  0  0  0  0
 24 27  1  0  0  0  0
 22 23  1  0  0  0  0
 22 24  1  0  0  0  0
M  CHG  1  18  -1
M  END
$$$$
default_name
  -OEChem-02102213163D

 27 26  0     1  0  0  0  0  0999 V2000
   -3.2406   -3.5400    1.2326 H   0  0  0  0  0  0  0  0  0  0  0  0
   -3.1436   -2.6190    0.6606 C   0  0  0  0  0  0  0  0  0  0  0  0
   -3.8786   -1.8920    0.9996 H   0  0  0  0  0  0  0  0  0  0  0  0
   -3.2846   -2.8280   -0.3984 H   0  0  0  0  0  0  0  0  0  0  0  0
   -1.7586   -2.0580    0.8686 C   0  0  0  0  0  0  0  0  0  0  0  0
   -0.9666   -2.6340    1.6026 O   0  0  0  0  0  0  0  0  0  0  0  0
   -1.4866   -0.9220    0.2366 N   0  0  0  0  0  0  0  0  0  0  0  0
   -2.2166   -0.4790   -0.2994 H   0  0  0  0  0  0  0  0  0  0  0  0
   -0.1956   -0.2250    0.2596 C   0  0  1  0  0  0  0  0  0  0  0  0
    0.5755   -0.9013   -0.1105 H   0  0  0  0  0  0  0  0  0  0  0  0
   -0.2553    0.9811   -0.6992 C   0  0  0  0  0  0  0  0  0  0  0  0
    0.5118    0.8421   -1.4626 H   0  0  0  0  0  0  0  0  0  0  0  0
   -1.2296    1.0034   -1.1896 H   0  0  0  0  0  0  0  0  0  0  0  0
   -0.0104    2.3300   -0.0020 C   0  0  0  0  0  0  0  0  0  0  0  0
    0.6711    2.1792    0.8386 H   0  0  0  0  0  0  0  0  0  0  0  0
    0.4766    3.0010   -0.7146 H   0  0  0  0  0  0  0  0  0  0  0  0
   -1.2959    2.9903    0.5181 C   0  0  0  0  0  0  0  0  0  0  0  0
   -2.3939    2.4677    0.2222 O   0  5  0  0  0  0  0  0  0  0  0  0
   -1.1544    4.0071    1.2333 O   0  0  0  0  0  0  0  0  0  0  0  0
    0.1881    0.1678    1.7015 C   0  0  0  0  0  0  0  0  0  0  0  0
    1.3379    0.0002    2.1133 O   0  0  0  0  0  0  0  0  0  0  0  0
   -0.7666    0.7145    2.4656 N   0  0  0  0  0  0  0  0  0  0  0  0
   -1.6971    0.7705    2.0790 H   0  0  0  0  0  0  0  0  0  0  0  0
   -0.5716    1.1232    3.8542 C   0  0  0  0  0  0  0  0  0  0  0  0
    0.3083    1.7643    3.9293 H   0  0  0  0  0  0  0  0  0  0  0  0
   -1.4485    1.6640    4.2131 H   0  0  0  0  0  0  0  0  0  0  0  0
   -0.4137    0.2381    4.4736 H   0  0  0  0  0  0  0  0  0  0  0  0
  5  6  2  0  0  0  0
  5  7  1  0  0  0  0
  2  3  1  0  0  0  0
  2  4  1  0  0  0  0
  2  5  1  0  0  0  0
  1  2  1  0  0  0  0
 20 21  2  0  0  0  0
 20 22  1  0  0  0  0
 17 18  1  0  0  0  0
 17 19  2  0  0  0  0
 14 15  1  0  0  0  0
 14 16  1  0  0  0  0
 14 17  1  0  0  0  0
 11 12  1  0  0  0  0
 11 13  1  0  0  0  0
 11 14  1  0  0  0  0
  9 10  1  0  0  0  0
  9 11  1  0  0  0  0
  9 20  1  0  0  0  0
  7  8  1  0  0  0  0
  7  9  1  0  0  0  0
 24 25  1  0  0  0  0
 24 26  1  0  0  0  0
 24 27  1  0  0  0  0
 22 23  1  0  0  0  0
 22 24  1  0  0  0  0
M  CHG  1  18  -1
M  END
$$$$
default_name
  -OEChem-02102213163D

 27 26  0     1  0  0  0  0  0999 V2000
   -3.2406   -3.5400    1.2326 H   0  0  0  0  0  0  0  0  0  0  0  0
   -3.1436   -2.6190    0.6606 C   0  0  0  0  0  0  0  0  0  0  0  0
   -3.8786   -1.8920    0.9996 H   0  0  0  0  0  0  0  0  0  0  0  0
   -3.2846   -2.8280   -0.3984 H   0  0  0  0  0  0  0  0  0  0  0  0
   -1.7586   -2.0580    0.8686 C   0  0  0  0  0  0  0  0  0  0  0  0
   -0.9666   -2.6340    1.6026 O   0  0  0  0  0  0  0  0  0  0  0  0
   -1.4866   -0.9220    0.2366 N   0  0  0  0  0  0  0  0  0  0  0  0
   -2.2166   -0.4790   -0.2994 H   0  0  0  0  0  0  0  0  0  0  0  0
   -0.1956   -0.2250    0.2596 C   0  0  1  0  0  0  0  0  0  0  0  0
    0.5755   -0.9013   -0.1105 H   0  0  0  0  0  0  0  0  0  0  0  0
   -0.2553    0.9811   -0.6992 C   0  0  0  0  0  0  0  0  0  0  0  0
    0.5118    0.8421   -1.4626 H   0  0  0  0  0  0  0  0  0  0  0  0
   -1.2296    1.0034   -1.1896 H   0  0  0  0  0  0  0  0  0  0  0  0
   -0.0104    2.3300   -0.0020 C   0  0  0  0  0  0  0  0  0  0  0  0
    0.8583    2.2403    0.6546 H   0  0  0  0  0  0  0  0  0  0  0  0
    0.2214    3.0749   -0.7679 H   0  0  0  0  0  0  0  0  0  0  0  0
   -1.2081    2.8138    0.8288 C   0  0  0  0  0  0  0  0  0  0  0  0
   -2.2788    2.1694    0.7588 O   0  5  0  0  0  0  0  0  0  0  0  0
   -1.0217    3.8201    1.5486 O   0  0  0  0  0  0  0  0  0  0  0  0
    0.1881    0.1678    1.7015 C   0  0  0  0  0  0  0  0  0  0  0  0
    1.3379    0.0002    2.1133 O   0  0  0  0  0  0  0  0  0  0  0  0
   -0.7666    0.7145    2.4656 N   0  0  0  0  0  0  0  0  0  0  0  0
   -1.6971    0.7705    2.0790 H   0  0  0  0  0  0  0  0  0  0  0  0
   -0.5716    1.1232    3.8542 C   0  0  0  0  0  0  0  0  0  0  0  0
    0.3083    1.7643    3.9293 H   0  0  0  0  0  0  0  0  0  0  0  0
   -1.4485    1.6640    4.2131 H   0  0  0  0  0  0  0  0  0  0  0  0
   -0.4137    0.2381    4.4736 H   0  0  0  0  0  0  0  0  0  0  0  0
  5  6  2  0  0  0  0
  5  7  1  0  0  0  0
  2  3  1  0  0  0  0
  2  4  1  0  0  0  0
  2  5  1  0  0  0  0
  1  2  1  0  0  0  0
 20 21  2  0  0  0  0
 20 22  1  0  0  0  0
 17 18  1  0  0  0  0
 17 19  2  0  0  0  0
 14 15  1  0  0  0  0
 14 16  1  0  0  0  0
 14 17  1  0  0  0  0
 11 12  1  0  0  0  0
 11 13  1  0  0  0  0
 11 14  1  0  0  0  0
  9 10  1  0  0  0  0
  9 11  1  0  0  0  0
  9 20  1  0  0  0  0
  7  8  1  0  0  0  0
  7  9  1  0  0  0  0
 24 25  1  0  0  0  0
 24 26  1  0  0  0  0
 24 27  1  0  0  0  0
 22 23  1  0  0  0  0
 22 24  1  0  0  0  0
M  CHG  1  18  -1
M  END
$$$$
default_name
  -OEChem-02102213163D

 27 26  0     1  0  0  0  0  0999 V2000
   -3.2406   -3.5400    1.2326 H   0  0  0  0  0  0  0  0  0  0  0  0
   -3.1436   -2.6190    0.6606 C   0  0  0  0  0  0  0  0  0  0  0  0
   -3.8786   -1.8920    0.9996 H   0  0  0  0  0  0  0  0  0  0  0  0
   -3.2846   -2.8280   -0.3984 H   0  0  0  0  0  0  0  0  0  0  0  0
   -1.7586   -2.0580    0.8686 C   0  0  0  0  0  0  0  0  0  0  0  0
   -0.9666   -2.6340    1.6026 O   0  0  0  0  0  0  0  0  0  0  0  0
   -1.4866   -0.9220    0.2366 N   0  0  0  0  0  0  0  0  0  0  0  0
   -2.2166   -0.4790   -0.2994 H   0  0  0  0  0  0  0  0  0  0  0  0
   -0.1956   -0.2250    0.2596 C   0  0  1  0  0  0  0  0  0  0  0  0
    0.5755   -0.9013   -0.1105 H   0  0  0  0  0  0  0  0  0  0  0  0
   -0.2553    0.9811   -0.6992 C   0  0  0  0  0  0  0  0  0  0  0  0
    0.5118    0.8421   -1.4626 H   0  0  0  0  0  0  0  0  0  0  0  0
   -1.2296    1.0034   -1.1896 H   0  0  0  0  0  0  0  0  0  0  0  0
   -0.0104    2.3300   -0.0020 C   0  0  0  0  0  0  0  0  0  0  0  0
    0.9902    2.3289    0.4368 H   0  0  0  0  0  0  0  0  0  0  0  0
   -0.0459    3.1185   -0.7584 H   0  0  0  0  0  0  0  0  0  0  0  0
   -1.0322    2.6408    1.1018 C   0  0  0  0  0  0  0  0  0  0  0  0
   -2.0108    1.8727    1.2387 O   0  5  0  0  0  0  0  0  0  0  0  0
   -0.8001    3.6420    1.8153 O   0  0  0  0  0  0  0  0  0  0  0  0
    0.1881    0.1678    1.7015 C   0  0  0  0  0  0  0  0  0  0  0  0
    1.3379    0.0002    2.1133 O   0  0  0  0  0  0  0  0  0  0  0  0
   -0.7666    0.7145    2.4656 N   0  0  0  0  0  0  0  0  0  0  0  0
   -1.6971    0.7705    2.0790 H   0  0  0  0  0  0  0  0  0  0  0  0
   -0.5716    1.1232    3.8542 C   0  0  0  0  0  0  0  0  0  0  0  0
    0.3083    1.7643    3.9293 H   0  0  0  0  0  0  0  0  0  0  0  0
   -1.4485    1.6640    4.2131 H   0  0  0  0  0  0  0  0  0  0  0  0
   -0.4137    0.2381    4.4736 H   0  0  0  0  0  0  0  0  0  0  0  0
  5  6  2  0  0  0  0
  5  7  1  0  0  0  0
  2  3  1  0  0  0  0
  2  4  1  0  0  0  0
  2  5  1  0  0  0  0
  1  2  1  0  0  0  0
 20 21  2  0  0  0  0
 20 22  1  0  0  0  0
 17 18  1  0  0  0  0
 17 19  2  0  0  0  0
 14 15  1  0  0  0  0
 14 16  1  0  0  0  0
 14 17  1  0  0  0  0
 11 12  1  0  0  0  0
 11 13  1  0  0  0  0
 11 14  1  0  0  0  0
  9 10  1  0  0  0  0
  9 11  1  0  0  0  0
  9 20  1  0  0  0  0
  7  8  1  0  0  0  0
  7  9  1  0  0  0  0
 24 25  1  0  0  0  0
 24 26  1  0  0  0  0
 24 27  1  0  0  0  0
 22 23  1  0  0  0  0
 22 24  1  0  0  0  0
M  CHG  1  18  -1
M  END
$$$$
default_name
  -OEChem-02102213163D

 27 26  0     1  0  0  0  0  0999 V2000
   -3.2406   -3.5400    1.2326 H   0  0  0  0  0  0  0  0  0  0  0  0
   -3.1436   -2.6190    0.6606 C   0  0  0  0  0  0  0  0  0  0  0  0
   -3.8786   -1.8920    0.9996 H   0  0  0  0  0  0  0  0  0  0  0  0
   -3.2846   -2.8280   -0.3984 H   0  0  0  0  0  0  0  0  0  0  0  0
   -1.7586   -2.0580    0.8686 C   0  0  0  0  0  0  0  0  0  0  0  0
   -0.9666   -2.6340    1.6026 O   0  0  0  0  0  0  0  0  0  0  0  0
   -1.4866   -0.9220    0.2366 N   0  0  0  0  0  0  0  0  0  0  0  0
   -2.2166   -0.4790   -0.2994 H   0  0  0  0  0  0  0  0  0  0  0  0
   -0.1956   -0.2250    0.2596 C   0  0  1  0  0  0  0  0  0  0  0  0
    0.5755   -0.9013   -0.1105 H   0  0  0  0  0  0  0  0  0  0  0  0
   -0.2553    0.9811   -0.6992 C   0  0  0  0  0  0  0  0  0  0  0  0
    0.5118    0.8421   -1.4626 H   0  0  0  0  0  0  0  0  0  0  0  0
   -1.2296    1.0034   -1.1896 H   0  0  0  0  0  0  0  0  0  0  0  0
   -0.0104    2.3300   -0.0020 C   0  0  0  0  0  0  0  0  0  0  0  0
    1.0578    2.4389    0.2002 H   0  0  0  0  0  0  0  0  0  0  0  0
   -0.3070    3.1289   -0.6868 H   0  0  0  0  0  0  0  0  0  0  0  0
   -0.7800    2.4831    1.3183 C   0  0  0  0  0  0  0  0  0  0  0  0
   -1.6082    1.5978    1.6293 O   0  5  0  0  0  0  0  0  0  0  0  0
   -0.5046    3.4850    2.0152 O   0  0  0  0  0  0  0  0  0  0  0  0
    0.1881    0.1678    1.7015 C   0  0  0  0  0  0  0  0  0  0  0  0
    1.3379    0.0002    2.1133 O   0  0  0  0  0  0  0  0  0  0  0  0
   -0.7666    0.7145    2.4656 N   0  0  0  0  0  0  0  0  0  0  0  0
   -1.6971    0.7705    2.0790 H   0  0  0  0  0  0  0  0  0  0  0  0
   -0.5716    1.1232    3.8542 C   0  0  0  0  0  0  0  0  0  0  0  0
    0.3083    1.7643    3.9293 H   0  0  0  0  0  0  0  0  0  0  0  0
   -1.4485    1.6640    4.2131 H   0  0  0  0  0  0  0  0  0  0  0  0
   -0.4137    0.2381    4.4736 H   0  0  0  0  0  0  0  0  0  0  0  0
  5  6  2  0  0  0  0
  5  7  1  0  0  0  0
  2  3  1  0  0  0  0
  2  4  1  0  0  0  0
  2  5  1  0  0  0  0
  1  2  1  0  0  0  0
 20 21  2  0  0  0  0
 20 22  1  0  0  0  0
 17 18  1  0  0  0  0
 17 19  2  0  0  0  0
 14 15  1  0  0  0  0
 14 16  1  0  0  0  0
 14 17  1  0  0  0  0
 11 12  1  0  0  0  0
 11 13  1  0  0  0  0
 11 14  1  0  0  0  0
  9 10  1  0  0  0  0
  9 11  1  0  0  0  0
  9 20  1  0  0  0  0
  7  8  1  0  0  0  0
  7  9  1  0  0  0  0
 24 25  1  0  0  0  0
 24 26  1  0  0  0  0
 24 27  1  0  0  0  0
 22 23  1  0  0  0  0
 22 24  1  0  0  0  0
M  CHG  1  18  -1
M  END
$$$$
default_name
  -OEChem-02102213163D

 27 26  0     1  0  0  0  0  0999 V2000
   -3.2406   -3.5400    1.2326 H   0  0  0  0  0  0  0  0  0  0  0  0
   -3.1436   -2.6190    0.6606 C   0  0  0  0  0  0  0  0  0  0  0  0
   -3.8786   -1.8920    0.9996 H   0  0  0  0  0  0  0  0  0  0  0  0
   -3.2846   -2.8280   -0.3984 H   0  0  0  0  0  0  0  0  0  0  0  0
   -1.7586   -2.0580    0.8686 C   0  0  0  0  0  0  0  0  0  0  0  0
   -0.9666   -2.6340    1.6026 O   0  0  0  0  0  0  0  0  0  0  0  0
   -1.4866   -0.9220    0.2366 N   0  0  0  0  0  0  0  0  0  0  0  0
   -2.2166   -0.4790   -0.2994 H   0  0  0  0  0  0  0  0  0  0  0  0
   -0.1956   -0.2250    0.2596 C   0  0  1  0  0  0  0  0  0  0  0  0
    0.5755   -0.9013   -0.1105 H   0  0  0  0  0  0  0  0  0  0  0  0
   -0.2553    0.9811   -0.6992 C   0  0  0  0  0  0  0  0  0  0  0  0
    0.5118    0.8421   -1.4626 H   0  0  0  0  0  0  0  0  0  0  0  0
   -1.2296    1.0034   -1.1896 H   0  0  0  0  0  0  0  0  0  0  0  0
   -0.0104    2.3300   -0.0020 C   0  0  0  0  0  0  0  0  0  0  0  0
    1.0565    2.5629   -0.0392 H   0  0  0  0  0  0  0  0  0  0  0  0
   -0.5442    3.1054   -0.5580 H   0  0  0  0  0  0  0  0  0  0  0  0
   -0.4687    2.3515    1.4637 C   0  0  0  0  0  0  0  0  0  0  0  0
   -1.0984    1.3634    1.9038 O   0  5  0  0  0  0  0  0  0  0  0  0
   -0.1553    3.3598    2.1348 O   0  0  0  0  0  0  0  0  0  0  0  0
    0.1881    0.1678    1.7015 C   0  0  0  0  0  0  0  0  0  0  0  0
    1.3379    0.0002    2.1133 O   0  0  0  0  0  0  0  0  0  0  0  0
   -0.7666    0.7145    2.4656 N   0  0  0  0  0  0  0  0  0  0  0  0
   -1.6971    0.7705    2.0790 H   0  0  0  0  0  0  0  0  0  0  0  0
   -0.5716    1.1232    3.8542 C   0  0  0  0  0  0  0  0  0  0  0  0
    0.3083    1.7643    3.9293 H   0  0  0  0  0  0  0  0  0  0  0  0
   -1.4485    1.6640    4.2131 H   0  0  0  0  0  0  0  0  0  0  0  0
   -0.4137    0.2381    4.4736 H   0  0  0  0  0  0  0  0  0  0  0  0
  5  6  2  0  0  0  0
  5  7  1  0  0  0  0
  2  3  1  0  0  0  0
  2  4  1  0  0  0  0
  2  5  1  0  0  0  0
  1  2  1  0  0  0  0
 20 21  2  0  0  0  0
 20 22  1  0  0  0  0
 17 18  1  0  0  0  0
 17 19  2  0  0  0  0
 14 15  1  0  0  0  0
 14 16  1  0  0  0  0
 14 17  1  0  0  0  0
 11 12  1  0  0  0  0
 11 13  1  0  0  0  0
 11 14  1  0  0  0  0
  9 10  1  0  0  0  0
  9 11  1  0  0  0  0
  9 20  1  0  0  0  0
  7  8  1  0  0  0  0
  7  9  1  0  0  0  0
 24 25  1  0  0  0  0
 24 26  1  0  0  0  0
 24 27  1  0  0  0  0
 22 23  1  0  0  0  0
 22 24  1  0  0  0  0
M  CHG  1  18  -1
M  END
$$$$
default_name
  -OEChem-02102213163D

 27 26  0     1  0  0  0  0  0999 V2000
   -3.2406   -3.5400    1.2326 H   0  0  0  0  0  0  0  0  0  0  0  0
   -3.1436   -2.6190    0.6606 C   0  0  0  0  0  0  0  0  0  0  0  0
   -3.8786   -1.8920    0.9996 H   0  0  0  0  0  0  0  0  0  0  0  0
   -3.2846   -2.8280   -0.3984 H   0  0  0  0  0  0  0  0  0  0  0  0
   -1.7586   -2.0580    0.8686 C   0  0  0  0  0  0  0  0  0  0  0  0
   -0.9666   -2.6340    1.6026 O   0  0  0  0  0  0  0  0  0  0  0  0
   -1.4866   -0.9220    0.2366 N   0  0  0  0  0  0  0  0  0  0  0  0
   -2.2166   -0.4790   -0.2994 H   0  0  0  0  0  0  0  0  0  0  0  0
   -0.1956   -0.2250    0.2596 C   0  0  1  0  0  0  0  0  0  0  0  0
    0.5755   -0.9013   -0.1105 H   0  0  0  0  0  0  0  0  0  0  0  0
   -0.2553    0.9811   -0.6992 C   0  0  0  0  0  0  0  0  0  0  0  0
    0.5118    0.8421   -1.4626 H   0  0  0  0  0  0  0  0  0  0  0  0
   -1.2296    1.0034   -1.1896 H   0  0  0  0  0  0  0  0  0  0  0  0
   -0.0104    2.3300   -0.0020 C   0  0  0  0  0  0  0  0  0  0  0  0
    0.9863    2.6923   -0.2650 H   0  0  0  0  0  0  0  0  0  0  0  0
   -0.7413    3.0495   -0.3806 H   0  0  0  0  0  0  0  0  0  0  0  0
   -0.1196    2.2548    1.5281 C   0  0  0  0  0  0  0  0  0  0  0  0
   -0.5162    1.1855    2.0435 O   0  5  0  0  0  0  0  0  0  0  0  0
    0.2239    3.2749    2.1658 O   0  0  0  0  0  0  0  0  0  0  0  0
    0.1881    0.1678    1.7015 C   0  0  0  0  0  0  0  0  0  0  0  0
    1.3379    0.0002    2.1133 O   0  0  0  0  0  0  0  0  0  0  0  0
   -0.7666    0.7145    2.4656 N   0  0  0  0  0  0  0  0  0  0  0  0
   -1.6971    0.7705    2.0790 H   0  0  0  0  0  0  0  0  0  0  0  0
   -0.5716    1.1232    3.8542 C   0  0  0  0  0  0  0  0  0  0  0  0
    0.3083    1.7643    3.9293 H   0  0  0  0  0  0  0  0  0  0  0  0
   -1.4485    1.6640    4.2131 H   0  0  0  0  0  0  0  0  0  0  0  0
   -0.4137    0.2381    4.4736 H   0  0  0  0  0  0  0  0  0  0  0  0
  5  6  2  0  0  0  0
  5  7  1  0  0  0  0
  2  3  1  0  0  0  0
  2  4  1  0  0  0  0
  2  5  1  0  0  0  0
  1  2  1  0  0  0  0
 20 21  2  0  0  0  0
 20 22  1  0  0  0  0
 17 18  1  0  0  0  0
 17 19  2  0  0  0  0
 14 15  1  0  0  0  0
 14 16  1  0  0  0  0
 14 17  1  0  0  0  0
 11 12  1  0  0  0  0
 11 13  1  0  0  0  0
 11 14  1  0  0  0  0
  9 10  1  0  0  0  0
  9 11  1  0  0  0  0
  9 20  1  0  0  0  0
  7  8  1  0  0  0  0
  7  9  1  0  0  0  0
 24 25  1  0  0  0  0
 24 26  1  0  0  0  0
 24 27  1  0  0  0  0
 22 23  1  0  0  0  0
 22 24  1  0  0  0  0
M  CHG  1  18  -1
M  END
$$$$
default_name
  -OEChem-02102213163D

 27 26  0     1  0  0  0  0  0999 V2000
   -3.2406   -3.5400    1.2326 H   0  0  0  0  0  0  0  0  0  0  0  0
   -3.1436   -2.6190    0.6606 C   0  0  0  0  0  0  0  0  0  0  0  0
   -3.8786   -1.8920    0.9996 H   0  0  0  0  0  0  0  0  0  0  0  0
   -3.2846   -2.8280   -0.3984 H   0  0  0  0  0  0  0  0  0  0  0  0
   -1.7586   -2.0580    0.8686 C   0  0  0  0  0  0  0  0  0  0  0  0
   -0.9666   -2.6340    1.6026 O   0  0  0  0  0  0  0  0  0  0  0  0
   -1.4866   -0.9220    0.2366 N   0  0  0  0  0  0  0  0  0  0  0  0
   -2.2166   -0.4790   -0.2994 H   0  0  0  0  0  0  0  0  0  0  0  0
   -0.1956   -0.2250    0.2596 C   0  0  1  0  0  0  0  0  0  0  0  0
    0.5755   -0.9013   -0.1105 H   0  0  0  0  0  0  0  0  0  0  0  0
   -0.2553    0.9811   -0.6992 C   0  0  0  0  0  0  0  0  0  0  0  0
    0.5118    0.8421   -1.4626 H   0  0  0  0  0  0  0  0  0  0  0  0
   -1.2296    1.0034   -1.1896 H   0  0  0  0  0  0  0  0  0  0  0  0
   -0.0104    2.3300   -0.0020 C   0  0  0  0  0  0  0  0  0  0  0  0
    0.8521    2.8184   -0.4618 H   0  0  0  0  0  0  0  0  0  0  0  0
   -0.8849    2.9651   -0.1668 H   0  0  0  0  0  0  0  0  0  0  0  0
    0.2436    2.1998    1.5071 C   0  0  0  0  0  0  0  0  0  0  0  0
    0.0988    1.0761    2.0390 O   0  5  0  0  0  0  0  0  0  0  0  0
    0.6072    3.2361    2.1063 O   0  0  0  0  0  0  0  0  0  0  0  0
    0.1881    0.1678    1.7015 C   0  0  0  0  0  0  0  0  0  0  0  0
    1.3379    0.0002    2.1133 O   0  0  0  0  0  0  0  0  0  0  0  0
   -0.7666    0.7145    2.4656 N   0  0  0  0  0  0  0  0  0  0  0  0
   -1.6971    0.7705    2.0790 H   0  0  0  0  0  0  0  0  0  0  0  0
   -0.5716    1.1232    3.8542 C   0  0  0  0  0  0  0  0  0  0  0  0
    0.3083    1.7643    3.9293 H   0  0  0  0  0  0  0  0  0  0  0  0
   -1.4485    1.6640    4.2131 H   0  0  0  0  0  0  0  0  0  0  0  0
   -0.4137    0.2381    4.4736 H   0  0  0  0  0  0  0  0  0  0  0  0
  5  6  2  0  0  0  0
  5  7  1  0  0  0  0
  2  3  1  0  0  0  0
  2  4  1  0  0  0  0
  2  5  1  0  0  0  0
  1  2  1  0  0  0  0
 20 21  2  0  0  0  0
 20 22  1  0  0  0  0
 17 18  1  0  0  0  0
 17 19  2  0  0  0  0
 14 15  1  0  0  0  0
 14 16  1  0  0  0  0
 14 17  1  0  0  0  0
 11 12  1  0  0  0  0
 11 13  1  0  0  0  0
 11 14  1  0  0  0  0
  9 10  1  0  0  0  0
  9 11  1  0  0  0  0
  9 20  1  0  0  0  0
  7  8  1  0  0  0  0
  7  9  1  0  0  0  0
 24 25  1  0  0  0  0
 24 26  1  0  0  0  0
 24 27  1  0  0  0  0
 22 23  1  0  0  0  0
 22 24  1  0  0  0  0
M  CHG  1  18  -1
M  END
$$$$
default_name
  -OEChem-02102213163D

 27 26  0     1  0  0  0  0  0999 V2000
   -3.2406   -3.5400    1.2326 H   0  0  0  0  0  0  0  0  0  0  0  0
   -3.1436   -2.6190    0.6606 C   0  0  0  0  0  0  0  0  0  0  0  0
   -3.8786   -1.8920    0.9996 H   0  0  0  0  0  0  0  0  0  0  0  0
   -3.2846   -2.8280   -0.3984 H   0  0  0  0  0  0  0  0  0  0  0  0
   -1.7586   -2.0580    0.8686 C   0  0  0  0  0  0  0  0  0  0  0  0
   -0.9666   -2.6340    1.6026 O   0  0  0  0  0  0  0  0  0  0  0  0
   -1.4866   -0.9220    0.2366 N   0  0  0  0  0  0  0  0  0  0  0  0
   -2.2166   -0.4790   -0.2994 H   0  0  0  0  0  0  0  0  0  0  0  0
   -0.1956   -0.2250    0.2596 C   0  0  1  0  0  0  0  0  0  0  0  0
    0.5755   -0.9013   -0.1105 H   0  0  0  0  0  0  0  0  0  0  0  0
   -0.2553    0.9811   -0.6992 C   0  0  0  0  0  0  0  0  0  0  0  0
    0.5118    0.8421   -1.4626 H   0  0  0  0  0  0  0  0  0  0  0  0
   -1.2296    1.0034   -1.1896 H   0  0  0  0  0  0  0  0  0  0  0  0
   -0.0104    2.3300   -0.0020 C   0  0  0  0  0  0  0  0  0  0  0  0
    0.6630    2.9326   -0.6163 H   0  0  0  0  0  0  0  0  0  0  0  0
   -0.9651    2.8579    0.0687 H   0  0  0  0  0  0  0  0  0  0  0  0
    0.5961    2.1900    1.4020 C   0  0  0  0  0  0  0  0  0  0  0  0
    0.7046    1.0429    1.8906 O   0  5  0  0  0  0  0  0  0  0  0  0
    0.9684    3.2461    1.9601 O   0  0  0  0  0  0  0  0  0  0  0  0
    0.1881    0.1678    1.7015 C   0  0  0  0  0  0  0  0  0  0  0  0
    1.3379    0.0002    2.1133 O   0  0  0  0  0  0  0  0  0  0  0  0
   -0.7666    0.7145    2.4656 N   0  0  0  0  0  0  0  0  0  0  0  0
   -1.6971    0.7705    2.0790 H   0  0  0  0  0  0  0  0  0  0  0  0
   -0.5716    1.1232    3.8542 C   0  0  0  0  0  0  0  0  0  0  0  0
    0.3083    1.7643    3.9293 H   0  0  0  0  0  0  0  0  0  0  0  0
   -1.4485    1.6640    4.2131 H   0  0  0  0  0  0  0  0  0  0  0  0
   -0.4137    0.2381    4.4736 H   0  0  0  0  0  0  0  0  0  0  0  0
  5  6  2  0  0  0  0
  5  7  1  0  0  0  0
  2  3  1  0  0  0  0
  2  4  1  0  0  0  0
  2  5  1  0  0  0  0
  1  2  1  0  0  0  0
 20 21  2  0  0  0  0
 20 22  1  0  0  0  0
 17 18  1  0  0  0  0
 17 19  2  0  0  0  0
 14 15  1  0  0  0  0
 14 16  1  0  0  0  0
 14 17  1  0  0  0  0
 11 12  1  0  0  0  0
 11 13  1  0  0  0  0
 11 14  1  0  0  0  0
  9 10  1  0  0  0  0
  9 11  1  0  0  0  0
  9 20  1  0  0  0  0
  7  8  1  0  0  0  0
  7  9  1  0  0  0  0
 24 25  1  0  0  0  0
 24 26  1  0  0  0  0
 24 27  1  0  0  0  0
 22 23  1  0  0  0  0
 22 24  1  0  0  0  0
M  CHG  1  18  -1
M  END
$$$$
default_name
  -OEChem-02102213163D

 27 26  0     1  0  0  0  0  0999 V2000
   -3.2406   -3.5400    1.2326 H   0  0  0  0  0  0  0  0  0  0  0  0
   -3.1436   -2.6190    0.6606 C   0  0  0  0  0  0  0  0  0  0  0  0
   -3.8786   -1.8920    0.9996 H   0  0  0  0  0  0  0  0  0  0  0  0
   -3.2846   -2.8280   -0.3984 H   0  0  0  0  0  0  0  0  0  0  0  0
   -1.7586   -2.0580    0.8686 C   0  0  0  0  0  0  0  0  0  0  0  0
   -0.9666   -2.6340    1.6026 O   0  0  0  0  0  0  0  0  0  0  0  0
   -1.4866   -0.9220    0.2366 N   0  0  0  0  0  0  0  0  0  0  0  0
   -2.2166   -0.4790   -0.2994 H   0  0  0  0  0  0  0  0  0  0  0  0
   -0.1956   -0.2250    0.2596 C   0  0  1  0  0  0  0  0  0  0  0  0
    0.5755   -0.9013   -0.1105 H   0  0  0  0  0  0  0  0  0  0  0  0
   -0.2553    0.9811   -0.6992 C   0  0  0  0  0  0  0  0  0  0  0  0
    0.5118    0.8421   -1.4626 H   0  0  0  0  0  0  0  0  0  0  0  0
   -1.2296    1.0034   -1.1896 H   0  0  0  0  0  0  0  0  0  0  0  0
   -0.0104    2.3300   -0.0020 C   0  0  0  0  0  0  0  0  0  0  0  0
    0.4318    3.0271   -0.7179 H   0  0  0  0  0  0  0  0  0  0  0  0
   -0.9766    2.7352    0.3101 H   0  0  0  0  0  0  0  0  0  0  0  0
    0.9139    2.2264    1.2202 C   0  0  0  0  0  0  0  0  0  0  0  0
    1.2600    1.0879    1.6083 O   0  5  0  0  0  0  0  0  0  0  0  0
    1.2831    3.3041    1.7374 O   0  0  0  0  0  0  0  0  0  0  0  0
    0.1881    0.1678    1.7015 C   0  0  0  0  0  0  0  0  0  0  0  0
    1.3379    0.0002    2.1133 O   0  0  0  0  0  0  0  0  0  0  0  0
   -0.7666    0.7145    2.4656 N   0  0  0  0  0  0  0  0  0  0  0  0
   -1.6971    0.7705    2.0790 H   0  0  0  0  0  0  0  0  0  0  0  0
   -0.5716    1.1232    3.8542 C   0  0  0  0  0  0  0  0  0  0  0  0
    0.3083    1.7643    3.9293 H   0  0  0  0  0  0  0  0  0  0  0  0
   -1.4485    1.6640    4.2131 H   0  0  0  0  0  0  0  0  0  0  0  0
   -0.4137    0.2381    4.4736 H   0  0  0  0  0  0  0  0  0  0  0  0
  5  6  2  0  0  0  0
  5  7  1  0  0  0  0
  2  3  1  0  0  0  0
  2  4  1  0  0  0  0
  2  5  1  0  0  0  0
  1  2  1  0  0  0  0
 20 21  2  0  0  0  0
 20 22  1  0  0  0  0
 17 18  1  0  0  0  0
 17 19  2  0  0  0  0
 14 15  1  0  0  0  0
 14 16  1  0  0  0  0
 14 17  1  0  0  0  0
 11 12  1  0  0  0  0
 11 13  1  0  0  0  0
 11 14  1  0  0  0  0
  9 10  1  0  0  0  0
  9 11  1  0  0  0  0
  9 20  1  0  0  0  0
  7  8  1  0  0  0  0
  7  9  1  0  0  0  0
 24 25  1  0  0  0  0
 24 26  1  0  0  0  0
 24 27  1  0  0  0  0
 22 23  1  0  0  0  0
 22 24  1  0  0  0  0
M  CHG  1  18  -1
M  END
$$$$
default_name
  -OEChem-02102213163D

 27 26  0     1  0  0  0  0  0999 V2000
   -3.2406   -3.5400    1.2326 H   0  0  0  0  0  0  0  0  0  0  0  0
   -3.1436   -2.6190    0.6606 C   0  0  0  0  0  0  0  0  0  0  0  0
   -3.8786   -1.8920    0.9996 H   0  0  0  0  0  0  0  0  0  0  0  0
   -3.2846   -2.8280   -0.3984 H   0  0  0  0  0  0  0  0  0  0  0  0
   -1.7586   -2.0580    0.8686 C   0  0  0  0  0  0  0  0  0  0  0  0
   -0.9666   -2.6340    1.6026 O   0  0  0  0  0  0  0  0  0  0  0  0
   -1.4866   -0.9220    0.2366 N   0  0  0  0  0  0  0  0  0  0  0  0
   -2.2166   -0.4790   -0.2994 H   0  0  0  0  0  0  0  0  0  0  0  0
   -0.1956   -0.2250    0.2596 C   0  0  1  0  0  0  0  0  0  0  0  0
    0.5755   -0.9013   -0.1105 H   0  0  0  0  0  0  0  0  0  0  0  0
   -0.2553    0.9811   -0.6992 C   0  0  0  0  0  0  0  0  0  0  0  0
    0.5118    0.8421   -1.4626 H   0  0  0  0  0  0  0  0  0  0  0  0
   -1.2296    1.0034   -1.1896 H   0  0  0  0  0  0  0  0  0  0  0  0
   -0.0104    2.3300   -0.0020 C   0  0  0  0  0  0  0  0  0  0  0  0
    0.1744    3.0954   -0.7596 H   0  0  0  0  0  0  0  0  0  0  0  0
   -0.9185    2.6055    0.5408 H   0  0  0  0  0  0  0  0  0  0  0  0
    1.1753    2.3062    0.9739 C   0  0  0  0  0  0  0  0  0  0  0  0
    1.7272    1.2082    1.2115 O   0  5  0  0  0  0  0  0  0  0  0  0
    1.5296    3.4062    1.4532 O   0  0  0  0  0  0  0  0  0  0  0  0
    0.1881    0.1678    1.7015 C   0  0  0  0  0  0  0  0  0  0  0  0
    1.3379    0.0002    2.1133 O   0  0  0  0  0  0  0  0  0  0  0  0
   -0.7666    0.7145    2.4656 N   0  0  0  0  0  0  0  0  0  0  0  0
   -1.6971    0.7705    2.0790 H   0  0  0  0  0  0  0  0  0  0  0  0
   -0.5716    1.1232    3.8542 C   0  0  0  0  0  0  0  0  0  0  0  0
    0.3083    1.7643    3.9293 H   0  0  0  0  0  0  0  0  0  0  0  0
   -1.4485    1.6640    4.2131 H   0  0  0  0  0  0  0  0  0  0  0  0
   -0.4137    0.2381    4.4736 H   0  0  0  0  0  0  0  0  0  0  0  0
  5  6  2  0  0  0  0
  5  7  1  0  0  0  0
  2  3  1  0  0  0  0
  2  4  1  0  0  0  0
  2  5  1  0  0  0  0
  1  2  1  0  0  0  0
 20 21  2  0  0  0  0
 20 22  1  0  0  0  0
 17 18  1  0  0  0  0
 17 19  2  0  0  0  0
 14 15  1  0  0  0  0
 14 16  1  0  0  0  0
 14 17  1  0  0  0  0
 11 12  1  0  0  0  0
 11 13  1  0  0  0  0
 11 14  1  0  0  0  0
  9 10  1  0  0  0  0
  9 11  1  0  0  0  0
  9 20  1  0  0  0  0
  7  8  1  0  0  0  0
  7  9  1  0  0  0  0
 24 25  1  0  0  0  0
 24 26  1  0  0  0  0
 24 27  1  0  0  0  0
 22 23  1  0  0  0  0
 22 24  1  0  0  0  0
M  CHG  1  18  -1
M  END
$$$$
default_name
  -OEChem-02102213163D

 27 26  0     1  0  0  0  0  0999 V2000
   -3.2406   -3.5400    1.2326 H   0  0  0  0  0  0  0  0  0  0  0  0
   -3.1436   -2.6190    0.6606 C   0  0  0  0  0  0  0  0  0  0  0  0
   -3.8786   -1.8920    0.9996 H   0  0  0  0  0  0  0  0  0  0  0  0
   -3.2846   -2.8280   -0.3984 H   0  0  0  0  0  0  0  0  0  0  0  0
   -1.7586   -2.0580    0.8686 C   0  0  0  0  0  0  0  0  0  0  0  0
   -0.9666   -2.6340    1.6026 O   0  0  0  0  0  0  0  0  0  0  0  0
   -1.4866   -0.9220    0.2366 N   0  0  0  0  0  0  0  0  0  0  0  0
   -2.2166   -0.4790   -0.2994 H   0  0  0  0  0  0  0  0  0  0  0  0
   -0.1956   -0.2250    0.2596 C   0  0  1  0  0  0  0  0  0  0  0  0
    0.5755   -0.9013   -0.1105 H   0  0  0  0  0  0  0  0  0  0  0  0
   -0.2553    0.9811   -0.6992 C   0  0  0  0  0  0  0  0  0  0  0  0
    0.5118    0.8421   -1.4626 H   0  0  0  0  0  0  0  0  0  0  0  0
   -1.2296    1.0034   -1.1896 H   0  0  0  0  0  0  0  0  0  0  0  0
   -0.0104    2.3300   -0.0020 C   0  0  0  0  0  0  0  0  0  0  0  0
   -0.0917    3.1329   -0.7387 H   0  0  0  0  0  0  0  0  0  0  0  0
   -0.7948    2.4774    0.7450 H   0  0  0  0  0  0  0  0  0  0  0  0
    1.3625    2.4241    0.6799 C   0  0  0  0  0  0  0  0  0  0  0  0
    2.0742    1.3956    0.7270 O   0  5  0  0  0  0  0  0  0  0  0  0
    1.6912    3.5455    1.1269 O   0  0  0  0  0  0  0  0  0  0  0  0
    0.1881    0.1678    1.7015 C   0  0  0  0  0  0  0  0  0  0  0  0
    1.3379    0.0002    2.1133 O   0  0  0  0  0  0  0  0  0  0  0  0
   -0.7666    0.7145    2.4656 N   0  0  0  0  0  0  0  0  0  0  0  0
   -1.6971    0.7705    2.0790 H   0  0  0  0  0  0  0  0  0  0  0  0
   -0.5716    1.1232    3.8542 C   0  0  0  0  0  0  0  0  0  0  0  0
    0.3083    1.7643    3.9293 H   0  0  0  0  0  0  0  0  0  0  0  0
   -1.4485    1.6640    4.2131 H   0  0  0  0  0  0  0  0  0  0  0  0
   -0.4137    0.2381    4.4736 H   0  0  0  0  0  0  0  0  0  0  0  0
  5  6  2  0  0  0  0
  5  7  1  0  0  0  0
  2  3  1  0  0  0  0
  2  4  1  0  0  0  0
  2  5  1  0  0  0  0
  1  2  1  0  0  0  0
 20 21  2  0  0  0  0
 20 22  1  0  0  0  0
 17 18  1  0  0  0  0
 17 19  2  0  0  0  0
 14 15  1  0  0  0  0
 14 16  1  0  0  0  0
 14 17  1  0  0  0  0
 11 12  1  0  0  0  0
 11 13  1  0  0  0  0
 11 14  1  0  0  0  0
  9 10  1  0  0  0  0
  9 11  1  0  0  0  0
  9 20  1  0  0  0  0
  7  8  1  0  0  0  0
  7  9  1  0  0  0  0
 24 25  1  0  0  0  0
 24 26  1  0  0  0  0
 24 27  1  0  0  0  0
 22 23  1  0  0  0  0
 22 24  1  0  0  0  0
M  CHG  1  18  -1
M  END
$$$$
default_name
  -OEChem-02102213163D

 27 26  0     1  0  0  0  0  0999 V2000
   -3.2406   -3.5400    1.2326 H   0  0  0  0  0  0  0  0  0  0  0  0
   -3.1436   -2.6190    0.6606 C   0  0  0  0  0  0  0  0  0  0  0  0
   -3.8786   -1.8920    0.9996 H   0  0  0  0  0  0  0  0  0  0  0  0
   -3.2846   -2.8280   -0.3984 H   0  0  0  0  0  0  0  0  0  0  0  0
   -1.7586   -2.0580    0.8686 C   0  0  0  0  0  0  0  0  0  0  0  0
   -0.9666   -2.6340    1.6026 O   0  0  0  0  0  0  0  0  0  0  0  0
   -1.4866   -0.9220    0.2366 N   0  0  0  0  0  0  0  0  0  0  0  0
   -2.2166   -0.4790   -0.2994 H   0  0  0  0  0  0  0  0  0  0  0  0
   -0.1956   -0.2250    0.2596 C   0  0  1  0  0  0  0  0  0  0  0  0
    0.5755   -0.9013   -0.1105 H   0  0  0  0  0  0  0  0  0  0  0  0
   -0.2553    0.9811   -0.6992 C   0  0  0  0  0  0  0  0  0  0  0  0
    0.5118    0.8421   -1.4626 H   0  0  0  0  0  0  0  0  0  0  0  0
   -1.2296    1.0034   -1.1896 H   0  0  0  0  0  0  0  0  0  0  0  0
   -0.0104    2.3300   -0.0020 C   0  0  0  0  0  0  0  0  0  0  0  0
   -0.3484    3.1370   -0.6566 H   0  0  0  0  0  0  0  0  0  0  0  0
   -0.6139    2.3598    0.9090 H   0  0  0  0  0  0  0  0  0  0  0  0
    1.4628    2.5721    0.3583 C   0  0  0  0  0  0  0  0  0  0  0  0
    2.2774    1.6372    0.1881 O   0  5  0  0  0  0  0  0  0  0  0  0
    1.7569    3.7124    0.7808 O   0  0  0  0  0  0  0  0  0  0  0  0
    0.1881    0.1678    1.7015 C   0  0  0  0  0  0  0  0  0  0  0  0
    1.3379    0.0002    2.1133 O   0  0  0  0  0  0  0  0  0  0  0  0
   -0.7666    0.7145    2.4656 N   0  0  0  0  0  0  0  0  0  0  0  0
   -1.6971    0.7705    2.0790 H   0  0  0  0  0  0  0  0  0  0  0  0
   -0.5716    1.1232    3.8542 C   0  0  0  0  0  0  0  0  0  0  0  0
    0.3083    1.7643    3.9293 H   0  0  0  0  0  0  0  0  0  0  0  0
   -1.4485    1.6640    4.2131 H   0  0  0  0  0  0  0  0  0  0  0  0
   -0.4137    0.2381    4.4736 H   0  0  0  0  0  0  0  0  0  0  0  0
  5  6  2  0  0  0  0
  5  7  1  0  0  0  0
  2  3  1  0  0  0  0
  2  4  1  0  0  0  0
  2  5  1  0  0  0  0
  1  2  1  0  0  0  0
 20 21  2  0  0  0  0
 20 22  1  0  0  0  0
 17 18  1  0  0  0  0
 17 19  2  0  0  0  0
 14 15  1  0  0  0  0
 14 16  1  0  0  0  0
 14 17  1  0  0  0  0
 11 12  1  0  0  0  0
 11 13  1  0  0  0  0
 11 14  1  0  0  0  0
  9 10  1  0  0  0  0
  9 11  1  0  0  0  0
  9 20  1  0  0  0  0
  7  8  1  0  0  0  0
  7  9  1  0  0  0  0
 24 25  1  0  0  0  0
 24 26  1  0  0  0  0
 24 27  1  0  0  0  0
 22 23  1  0  0  0  0
 22 24  1  0  0  0  0
M  CHG  1  18  -1
M  END
$$$$
default_name
  -OEChem-02102213163D

 27 26  0     1  0  0  0  0  0999 V2000
   -3.2406   -3.5400    1.2326 H   0  0  0  0  0  0  0  0  0  0  0  0
   -3.1436   -2.6190    0.6606 C   0  0  0  0  0  0  0  0  0  0  0  0
   -3.8786   -1.8920    0.9996 H   0  0  0  0  0  0  0  0  0  0  0  0
   -3.2846   -2.8280   -0.3984 H   0  0  0  0  0  0  0  0  0  0  0  0
   -1.7586   -2.0580    0.8686 C   0  0  0  0  0  0  0  0  0  0  0  0
   -0.9666   -2.6340    1.6026 O   0  0  0  0  0  0  0  0  0  0  0  0
   -1.4866   -0.9220    0.2366 N   0  0  0  0  0  0  0  0  0  0  0  0
   -2.2166   -0.4790   -0.2994 H   0  0  0  0  0  0  0  0  0  0  0  0
   -0.1956   -0.2250    0.2596 C   0  0  1  0  0  0  0  0  0  0  0  0
    0.5755   -0.9013   -0.1105 H   0  0  0  0  0  0  0  0  0  0  0  0
   -0.2553    0.9811   -0.6992 C   0  0  0  0  0  0  0  0  0  0  0  0
    0.5118    0.8421   -1.4626 H   0  0  0  0  0  0  0  0  0  0  0  0
   -1.2296    1.0034   -1.1896 H   0  0  0  0  0  0  0  0  0  0  0  0
   -0.0104    2.3300   -0.0020 C   0  0  0  0  0  0  0  0  0  0  0  0
   -0.5782    3.1075   -0.5188 H   0  0  0  0  0  0  0  0  0  0  0  0
   -0.3882    2.2607    1.0215 H   0  0  0  0  0  0  0  0  0  0  0  0
    1.4693    2.7401    0.0310 C   0  0  0  0  0  0  0  0  0  0  0  0
    2.3230    1.9167   -0.3687 O   0  5  0  0  0  0  0  0  0  0  0  0
    1.7223    3.8956    0.4385 O   0  0  0  0  0  0  0  0  0  0  0  0
    0.1881    0.1678    1.7015 C   0  0  0  0  0  0  0  0  0  0  0  0
    1.3379    0.0002    2.1133 O   0  0  0  0  0  0  0  0  0  0  0  0
   -0.7666    0.7145    2.4656 N   0  0  0  0  0  0  0  0  0  0  0  0
   -1.6971    0.7705    2.0790 H   0  0  0  0  0  0  0  0  0  0  0  0
   -0.5716    1.1232    3.8542 C   0  0  0  0  0  0  0  0  0  0  0  0
    0.3083    1.7643    3.9293 H   0  0  0  0  0  0  0  0  0  0  0  0
   -1.4485    1.6640    4.2131 H   0  0  0  0  0  0  0  0  0  0  0  0
   -0.4137    0.2381    4.4736 H   0  0  0  0  0  0  0  0  0  0  0  0
  5  6  2  0  0  0  0
  5  7  1  0  0  0  0
  2  3  1  0  0  0  0
  2  4  1  0  0  0  0
  2  5  1  0  0  0  0
  1  2  1  0  0  0  0
 20 21  2  0  0  0  0
 20 22  1  0  0  0  0
 17 18  1  0  0  0  0
 17 19  2  0  0  0  0
 14 15  1  0  0  0  0
 14 16  1  0  0  0  0
 14 17  1  0  0  0  0
 11 12  1  0  0  0  0
 11 13  1  0  0  0  0
 11 14  1  0  0  0  0
  9 10  1  0  0  0  0
  9 11  1  0  0  0  0
  9 20  1  0  0  0  0
  7  8  1  0  0  0  0
  7  9  1  0  0  0  0
 24 25  1  0  0  0  0
 24 26  1  0  0  0  0
 24 27  1  0  0  0  0
 22 23  1  0  0  0  0
 22 24  1  0  0  0  0
M  CHG  1  18  -1
M  END
$$$$
default_name
  -OEChem-02102213163D

 27 26  0     1  0  0  0  0  0999 V2000
   -3.2406   -3.5400    1.2326 H   0  0  0  0  0  0  0  0  0  0  0  0
   -3.1436   -2.6190    0.6606 C   0  0  0  0  0  0  0  0  0  0  0  0
   -3.8786   -1.8920    0.9996 H   0  0  0  0  0  0  0  0  0  0  0  0
   -3.2846   -2.8280   -0.3984 H   0  0  0  0  0  0  0  0  0  0  0  0
   -1.7586   -2.0580    0.8686 C   0  0  0  0  0  0  0  0  0  0  0  0
   -0.9666   -2.6340    1.6026 O   0  0  0  0  0  0  0  0  0  0  0  0
   -1.4866   -0.9220    0.2366 N   0  0  0  0  0  0  0  0  0  0  0  0
   -2.2166   -0.4790   -0.2994 H   0  0  0  0  0  0  0  0  0  0  0  0
   -0.1956   -0.2250    0.2596 C   0  0  1  0  0  0  0  0  0  0  0  0
    0.5755   -0.9013   -0.1105 H   0  0  0  0  0  0  0  0  0  0  0  0
   -0.2553    0.9811   -0.6992 C   0  0  0  0  0  0  0  0  0  0  0  0
    0.5118    0.8421   -1.4626 H   0  0  0  0  0  0  0  0  0  0  0  0
   -1.2296    1.0034   -1.1896 H   0  0  0  0  0  0  0  0  0  0  0  0
   -0.0104    2.3300   -0.0020 C   0  0  0  0  0  0  0  0  0  0  0  0
   -0.7654    3.0464   -0.3347 H   0  0  0  0  0  0  0  0  0  0  0  0
   -0.1330    2.1868    1.0748 H   0  0  0  0  0  0  0  0  0  0  0  0
    1.3816    2.9166   -0.2797 C   0  0  0  0  0  0  0  0  0  0  0  0
    2.2079    2.2150   -0.9053 O   0  5  0  0  0  0  0  0  0  0  0  0
    1.5896    4.0826    0.1233 O   0  0  0  0  0  0  0  0  0  0  0  0
    0.1881    0.1678    1.7015 C   0  0  0  0  0  0  0  0  0  0  0  0
    1.3379    0.0002    2.1133 O   0  0  0  0  0  0  0  0  0  0  0  0
   -0.7666    0.7145    2.4656 N   0  0  0  0  0  0  0  0  0  0  0  0
   -1.6971    0.7705    2.0790 H   0  0  0  0  0  0  0  0  0  0  0  0
   -0.5716    1.1232    3.8542 C   0  0  0  0  0  0  0  0  0  0  0  0
    0.3083    1.7643    3.9293 H   0  0  0  0  0  0  0  0  0  0  0  0
   -1.4485    1.6640    4.2131 H   0  0  0  0  0  0  0  0  0  0  0  0
   -0.4137    0.2381    4.4736 H   0  0  0  0  0  0  0  0  0  0  0  0
  5  6  2  0  0  0  0
  5  7  1  0  0  0  0
  2  3  1  0  0  0  0
  2  4  1  0  0  0  0
  2  5  1  0  0  0  0
  1  2  1  0  0  0  0
 20 21  2  0  0  0  0
 20 22  1  0  0  0  0
 17 18  1  0  0  0  0
 17 19  2  0  0  0  0
 14 15  1  0  0  0  0
 14 16  1  0  0  0  0
 14 17  1  0  0  0  0
 11 12  1  0  0  0  0
 11 13  1  0  0  0  0
 11 14  1  0  0  0  0
  9 10  1  0  0  0  0
  9 11  1  0  0  0  0
  9 20  1  0  0  0  0
  7  8  1  0  0  0  0
  7  9  1  0  0  0  0
 24 25  1  0  0  0  0
 24 26  1  0  0  0  0
 24 27  1  0  0  0  0
 22 23  1  0  0  0  0
 22 24  1  0  0  0  0
M  CHG  1  18  -1
M  END
$$$$
default_name
  -OEChem-02102213163D

 27 26  0     1  0  0  0  0  0999 V2000
   -3.2406   -3.5400    1.2326 H   0  0  0  0  0  0  0  0  0  0  0  0
   -3.1436   -2.6190    0.6606 C   0  0  0  0  0  0  0  0  0  0  0  0
   -3.8786   -1.8920    0.9996 H   0  0  0  0  0  0  0  0  0  0  0  0
   -3.2846   -2.8280   -0.3984 H   0  0  0  0  0  0  0  0  0  0  0  0
   -1.7586   -2.0580    0.8686 C   0  0  0  0  0  0  0  0  0  0  0  0
   -0.9666   -2.6340    1.6026 O   0  0  0  0  0  0  0  0  0  0  0  0
   -1.4866   -0.9220    0.2366 N   0  0  0  0  0  0  0  0  0  0  0  0
   -2.2166   -0.4790   -0.2994 H   0  0  0  0  0  0  0  0  0  0  0  0
   -0.1956   -0.2250    0.2596 C   0  0  1  0  0  0  0  0  0  0  0  0
    0.5755   -0.9013   -0.1105 H   0  0  0  0  0  0  0  0  0  0  0  0
   -0.2553    0.9811   -0.6992 C   0  0  0  0  0  0  0  0  0  0  0  0
    0.5118    0.8421   -1.4626 H   0  0  0  0  0  0  0  0  0  0  0  0
   -1.2296    1.0034   -1.1896 H   0  0  0  0  0  0  0  0  0  0  0  0
   -0.0104    2.3300   -0.0020 C   0  0  0  0  0  0  0  0  0  0  0  0
   -0.8973    2.9578   -0.1170 H   0  0  0  0  0  0  0  0  0  0  0  0
    0.1343    2.1432    1.0653 H   0  0  0  0  0  0  0  0  0  0  0  0
    1.2056    3.0896   -0.5526 C   0  0  0  0  0  0  0  0  0  0  0  0
    1.9399    2.5117   -1.3853 O   0  5  0  0  0  0  0  0  0  0  0  0
    1.3679    4.2607   -0.1434 O   0  0  0  0  0  0  0  0  0  0  0  0
    0.1881    0.1678    1.7015 C   0  0  0  0  0  0  0  0  0  0  0  0
    1.3379    0.0002    2.1133 O   0  0  0  0  0  0  0  0  0  0  0  0
   -0.7666    0.7145    2.4656 N   0  0  0  0  0  0  0  0  0  0  0  0
   -1.6971    0.7705    2.0790 H   0  0  0  0  0  0  0  0  0  0  0  0
   -0.5716    1.1232    3.8542 C   0  0  0  0  0  0  0  0  0  0  0  0
    0.3083    1.7643    3.9293 H   0  0  0  0  0  0  0  0  0  0  0  0
   -1.4485    1.6640    4.2131 H   0  0  0  0  0  0  0  0  0  0  0  0
   -0.4137    0.2381    4.4736 H   0  0  0  0  0  0  0  0  0  0  0  0
  5  6  2  0  0  0  0
  5  7  1  0  0  0  0
  2  3  1  0  0  0  0
  2  4  1  0  0  0  0
  2  5  1  0  0  0  0
  1  2  1  0  0  0  0
 20 21  2  0  0  0  0
 20 22  1  0  0  0  0
 17 18  1  0  0  0  0
 17 19  2  0  0  0  0
 14 15  1  0  0  0  0
 14 16  1  0  0  0  0
 14 17  1  0  0  0  0
 11 12  1  0  0  0  0
 11 13  1  0  0  0  0
 11 14  1  0  0  0  0
  9 10  1  0  0  0  0
  9 11  1  0  0  0  0
  9 20  1  0  0  0  0
  7  8  1  0  0  0  0
  7  9  1  0  0  0  0
 24 25  1  0  0  0  0
 24 26  1  0  0  0  0
 24 27  1  0  0  0  0
 22 23  1  0  0  0  0
 22 24  1  0  0  0  0
M  CHG  1  18  -1
M  END
$$$$
default_name
  -OEChem-02102213163D

 27 26  0     1  0  0  0  0  0999 V2000
   -3.2406   -3.5400    1.2326 H   0  0  0  0  0  0  0  0  0  0  0  0
   -3.1436   -2.6190    0.6606 C   0  0  0  0  0  0  0  0  0  0  0  0
   -3.8786   -1.8920    0.9996 H   0  0  0  0  0  0  0  0  0  0  0  0
   -3.2846   -2.8280   -0.3984 H   0  0  0  0  0  0  0  0  0  0  0  0
   -1.7586   -2.0580    0.8686 C   0  0  0  0  0  0  0  0  0  0  0  0
   -0.9666   -2.6340    1.6026 O   0  0  0  0  0  0  0  0  0  0  0  0
   -1.4866   -0.9220    0.2366 N   0  0  0  0  0  0  0  0  0  0  0  0
   -2.2166   -0.4790   -0.2994 H   0  0  0  0  0  0  0  0  0  0  0  0
   -0.1956   -0.2250    0.2596 C   0  0  1  0  0  0  0  0  0  0  0  0
    0.5755   -0.9013   -0.1105 H   0  0  0  0  0  0  0  0  0  0  0  0
   -0.2553    0.9811   -0.6992 C   0  0  0  0  0  0  0  0  0  0  0  0
    0.5118    0.8421   -1.4626 H   0  0  0  0  0  0  0  0  0  0  0  0
   -1.2296    1.0034   -1.1896 H   0  0  0  0  0  0  0  0  0  0  0  0
   -0.0104    2.3300   -0.0020 C   0  0  0  0  0  0  0  0  0  0  0  0
   -0.9649    2.8478    0.1196 H   0  0  0  0  0  0  0  0  0  0  0  0
    0.3954    2.1328    0.9937 H   0  0  0  0  0  0  0  0  0  0  0  0
    0.9534    3.2473   -0.7692 C   0  0  0  0  0  0  0  0  0  0  0  0
    1.5373    2.7866   -1.7758 O   0  5  0  0  0  0  0  0  0  0  0  0
    1.0724    4.4177   -0.3434 O   0  0  0  0  0  0  0  0  0  0  0  0
    0.1881    0.1678    1.7015 C   0  0  0  0  0  0  0  0  0  0  0  0
    1.3379    0.0002    2.1133 O   0  0  0  0  0  0  0  0  0  0  0  0
   -0.7666    0.7145    2.4656 N   0  0  0  0  0  0  0  0  0  0  0  0
   -1.6971    0.7705    2.0790 H   0  0  0  0  0  0  0  0  0  0  0  0
   -0.5716    1.1232    3.8542 C   0  0  0  0  0  0  0  0  0  0  0  0
    0.3083    1.7643    3.9293 H   0  0  0  0  0  0  0  0  0  0  0  0
   -1.4485    1.6640    4.2131 H   0  0  0  0  0  0  0  0  0  0  0  0
   -0.4137    0.2381    4.4736 H   0  0  0  0  0  0  0  0  0  0  0  0
  5  6  2  0  0  0  0
  5  7  1  0  0  0  0
  2  3  1  0  0  0  0
  2  4  1  0  0  0  0
  2  5  1  0  0  0  0
  1  2  1  0  0  0  0
 20 21  2  0  0  0  0
 20 22  1  0  0  0  0
 17 18  1  0  0  0  0
 17 19  2  0  0  0  0
 14 15  1  0  0  0  0
 14 16  1  0  0  0  0
 14 17  1  0  0  0  0
 11 12  1  0  0  0  0
 11 13  1  0  0  0  0
 11 14  1  0  0  0  0
  9 10  1  0  0  0  0
  9 11  1  0  0  0  0
  9 20  1  0  0  0  0
  7  8  1  0  0  0  0
  7  9  1  0  0  0  0
 24 25  1  0  0  0  0
 24 26  1  0  0  0  0
 24 27  1  0  0  0  0
 22 23  1  0  0  0  0
 22 24  1  0  0  0  0
M  CHG  1  18  -1
M  END
$$$$
default_name
  -OEChem-02102213163D

 27 26  0     1  0  0  0  0  0999 V2000
   -3.2406   -3.5400    1.2326 H   0  0  0  0  0  0  0  0  0  0  0  0
   -3.1436   -2.6190    0.6606 C   0  0  0  0  0  0  0  0  0  0  0  0
   -3.8786   -1.8920    0.9996 H   0  0  0  0  0  0  0  0  0  0  0  0
   -3.2846   -2.8280   -0.3984 H   0  0  0  0  0  0  0  0  0  0  0  0
   -1.7586   -2.0580    0.8686 C   0  0  0  0  0  0  0  0  0  0  0  0
   -0.9666   -2.6340    1.6026 O   0  0  0  0  0  0  0  0  0  0  0  0
   -1.4866   -0.9220    0.2366 N   0  0  0  0  0  0  0  0  0  0  0  0
   -2.2166   -0.4790   -0.2994 H   0  0  0  0  0  0  0  0  0  0  0  0
   -0.1956   -0.2250    0.2596 C   0  0  1  0  0  0  0  0  0  0  0  0
    0.5755   -0.9013   -0.1105 H   0  0  0  0  0  0  0  0  0  0  0  0
   -0.2553    0.9811   -0.6992 C   0  0  0  0  0  0  0  0  0  0  0  0
    0.5118    0.8421   -1.4626 H   0  0  0  0  0  0  0  0  0  0  0  0
   -1.2296    1.0034   -1.1896 H   0  0  0  0  0  0  0  0  0  0  0  0
   -0.0104    2.3300   -0.0020 C   0  0  0  0  0  0  0  0  0  0  0  0
   -0.9636    2.7238    0.3590 H   0  0  0  0  0  0  0  0  0  0  0  0
    0.6326    2.1564    0.8649 H   0  0  0  0  0  0  0  0  0  0  0  0
    0.6422    3.3790   -0.9146 C   0  0  0  0  0  0  0  0  0  0  0  0
    1.0275    3.0210   -2.0503 O   0  5  0  0  0  0  0  0  0  0  0  0
    0.7231    4.5429   -0.4629 O   0  0  0  0  0  0  0  0  0  0  0  0
    0.1881    0.1678    1.7015 C   0  0  0  0  0  0  0  0  0  0  0  0
    1.3379    0.0002    2.1133 O   0  0  0  0  0  0  0  0  0  0  0  0
   -0.7666    0.7145    2.4656 N   0  0  0  0  0  0  0  0  0  0  0  0
   -1.6971    0.7705    2.0790 H   0  0  0  0  0  0  0  0  0  0  0  0
   -0.5716    1.1232    3.8542 C   0  0  0  0  0  0  0  0  0  0  0  0
    0.3083    1.7643    3.9293 H   0  0  0  0  0  0  0  0  0  0  0  0
   -1.4485    1.6640    4.2131 H   0  0  0  0  0  0  0  0  0  0  0  0
   -0.4137    0.2381    4.4736 H   0  0  0  0  0  0  0  0  0  0  0  0
  5  6  2  0  0  0  0
  5  7  1  0  0  0  0
  2  3  1  0  0  0  0
  2  4  1  0  0  0  0
  2  5  1  0  0  0  0
  1  2  1  0  0  0  0
 20 21  2  0  0  0  0
 20 22  1  0  0  0  0
 17 18  1  0  0  0  0
 17 19  2  0  0  0  0
 14 15  1  0  0  0  0
 14 16  1  0  0  0  0
 14 17  1  0  0  0  0
 11 12  1  0  0  0  0
 11 13  1  0  0  0  0
 11 14  1  0  0  0  0
  9 10  1  0  0  0  0
  9 11  1  0  0  0  0
  9 20  1  0  0  0  0
  7  8  1  0  0  0  0
  7  9  1  0  0  0  0
 24 25  1  0  0  0  0
 24 26  1  0  0  0  0
 24 27  1  0  0  0  0
 22 23  1  0  0  0  0
 22 24  1  0  0  0  0
M  CHG  1  18  -1
M  END
$$$$
default_name
  -OEChem-02102213163D

 27 26  0     1  0  0  0  0  0999 V2000
   -3.2406   -3.5400    1.2326 H   0  0  0  0  0  0  0  0  0  0  0  0
   -3.1436   -2.6190    0.6606 C   0  0  0  0  0  0  0  0  0  0  0  0
   -3.8786   -1.8920    0.9996 H   0  0  0  0  0  0  0  0  0  0  0  0
   -3.2846   -2.8280   -0.3984 H   0  0  0  0  0  0  0  0  0  0  0  0
   -1.7586   -2.0580    0.8686 C   0  0  0  0  0  0  0  0  0  0  0  0
   -0.9666   -2.6340    1.6026 O   0  0  0  0  0  0  0  0  0  0  0  0
   -1.4866   -0.9220    0.2366 N   0  0  0  0  0  0  0  0  0  0  0  0
   -2.2166   -0.4790   -0.2994 H   0  0  0  0  0  0  0  0  0  0  0  0
   -0.1956   -0.2250    0.2596 C   0  0  1  0  0  0  0  0  0  0  0  0
    0.5755   -0.9013   -0.1105 H   0  0  0  0  0  0  0  0  0  0  0  0
   -0.2553    0.9811   -0.6992 C   0  0  0  0  0  0  0  0  0  0  0  0
    0.5118    0.8421   -1.4626 H   0  0  0  0  0  0  0  0  0  0  0  0
   -1.2296    1.0034   -1.1896 H   0  0  0  0  0  0  0  0  0  0  0  0
   -0.0104    2.3300   -0.0020 C   0  0  0  0  0  0  0  0  0  0  0  0
   -0.8934    2.5944    0.5848 H   0  0  0  0  0  0  0  0  0  0  0  0
    0.8297    2.2122    0.6875 H   0  0  0  0  0  0  0  0  0  0  0  0
    0.2930    3.4756   -0.9790 C   0  0  0  0  0  0  0  0  0  0  0  0
    0.4453    3.1989   -2.1901 O   0  5  0  0  0  0  0  0  0  0  0  0
    0.3439    4.6278   -0.4940 O   0  0  0  0  0  0  0  0  0  0  0  0
    0.1881    0.1678    1.7015 C   0  0  0  0  0  0  0  0  0  0  0  0
    1.3379    0.0002    2.1133 O   0  0  0  0  0  0  0  0  0  0  0  0
   -0.7666    0.7145    2.4656 N   0  0  0  0  0  0  0  0  0  0  0  0
   -1.6971    0.7705    2.0790 H   0  0  0  0  0  0  0  0  0  0  0  0
   -0.5716    1.1232    3.8542 C   0  0  0  0  0  0  0  0  0  0  0  0
    0.3083    1.7643    3.9293 H   0  0  0  0  0  0  0  0  0  0  0  0
   -1.4485    1.6640    4.2131 H   0  0  0  0  0  0  0  0  0  0  0  0
   -0.4137    0.2381    4.4736 H   0  0  0  0  0  0  0  0  0  0  0  0
  5  6  2  0  0  0  0
  5  7  1  0  0  0  0
  2  3  1  0  0  0  0
  2  4  1  0  0  0  0
  2  5  1  0  0  0  0
  1  2  1  0  0  0  0
 20 21  2  0  0  0  0
 20 22  1  0  0  0  0
 17 18  1  0  0  0  0
 17 19  2  0  0  0  0
 14 15  1  0  0  0  0
 14 16  1  0  0  0  0
 14 17  1  0  0  0  0
 11 12  1  0  0  0  0
 11 13  1  0  0  0  0
 11 14  1  0  0  0  0
  9 10  1  0  0  0  0
  9 11  1  0  0  0  0
  9 20  1  0  0  0  0
  7  8  1  0  0  0  0
  7  9  1  0  0  0  0
 24 25  1  0  0  0  0
 24 26  1  0  0  0  0
 24 27  1  0  0  0  0
 22 23  1  0  0  0  0
 22 24  1  0  0  0  0
M  CHG  1  18  -1
M  END
$$$$
default_name
  -OEChem-02102213163D

 27 26  0     1  0  0  0  0  0999 V2000
   -3.2406   -3.5400    1.2326 H   0  0  0  0  0  0  0  0  0  0  0  0
   -3.1436   -2.6190    0.6606 C   0  0  0  0  0  0  0  0  0  0  0  0
   -3.8786   -1.8920    0.9996 H   0  0  0  0  0  0  0  0  0  0  0  0
   -3.2846   -2.8280   -0.3984 H   0  0  0  0  0  0  0  0  0  0  0  0
   -1.7586   -2.0580    0.8686 C   0  0  0  0  0  0  0  0  0  0  0  0
   -0.9666   -2.6340    1.6026 O   0  0  0  0  0  0  0  0  0  0  0  0
   -1.4866   -0.9220    0.2366 N   0  0  0  0  0  0  0  0  0  0  0  0
   -2.2166   -0.4790   -0.2994 H   0  0  0  0  0  0  0  0  0  0  0  0
   -0.1956   -0.2250    0.2596 C   0  0  1  0  0  0  0  0  0  0  0  0
    0.5755   -0.9013   -0.1105 H   0  0  0  0  0  0  0  0  0  0  0  0
   -0.2553    0.9811   -0.6992 C   0  0  0  0  0  0  0  0  0  0  0  0
    0.3082    0.7247   -1.5976 H   0  0  0  0  0  0  0  0  0  0  0  0
   -1.2926    1.1641   -0.9835 H   0  0  0  0  0  0  0  0  0  0  0  0
    0.3386    2.2680   -0.1019 C   0  0  0  0  0  0  0  0  0  0  0  0
   -0.2032    2.5205    0.8127 H   0  0  0  0  0  0  0  0  0  0  0  0
    1.3802    2.0726    0.1665 H   0  0  0  0  0  0  0  0  0  0  0  0
    0.2786    3.4687   -1.0577 C   0  0  0  0  0  0  0  0  0  0  0  0
   -0.1027    3.2733   -2.2337 O   0  5  0  0  0  0  0  0  0  0  0  0
    0.5964    4.5812   -0.5816 O   0  0  0  0  0  0  0  0  0  0  0  0
    0.1881    0.1678    1.7015 C   0  0  0  0  0  0  0  0  0  0  0  0
    1.3379    0.0002    2.1133 O   0  0  0  0  0  0  0  0  0  0  0  0
   -0.7666    0.7145    2.4656 N   0  0  0  0  0  0  0  0  0  0  0  0
   -1.6971    0.7705    2.0790 H   0  0  0  0  0  0  0  0  0  0  0  0
   -0.5716    1.1232    3.8542 C   0  0  0  0  0  0  0  0  0  0  0  0
    0.3083    1.7643    3.9293 H   0  0  0  0  0  0  0  0  0  0  0  0
   -1.4485    1.6640    4.2131 H   0  0  0  0  0  0  0  0  0  0  0  0
   -0.4137    0.2381    4.4736 H   0  0  0  0  0  0  0  0  0  0  0  0
  5  6  2  0  0  0  0
  5  7  1  0  0  0  0
  2  3  1  0  0  0  0
  2  4  1  0  0  0  0
  2  5  1  0  0  0  0
  1  2  1  0  0  0  0
 20 21  2  0  0  0  0
 20 22  1  0  0  0  0
 17 18  1  0  0  0  0
 17 19  2  0  0  0  0
 14 15  1  0  0  0  0
 14 16  1  0  0  0  0
 14 17  1  0  0  0  0
 11 12  1  0  0  0  0
 11 13  1  0  0  0  0
 11 14  1  0  0  0  0
  9 10  1  0  0  0  0
  9 11  1  0  0  0  0
  9 20  1  0  0  0  0
  7  8  1  0  0  0  0
  7  9  1  0  0  0  0
 24 25  1  0  0  0  0
 24 26  1  0  0  0  0
 24 27  1  0  0  0  0
 22 23  1  0  0  0  0
 22 24  1  0  0  0  0
M  CHG  1  18  -1
M  END
$$$$
default_name
  -OEChem-02102213163D

 27 26  0     1  0  0  0  0  0999 V2000
   -3.2406   -3.5400    1.2326 H   0  0  0  0  0  0  0  0  0  0  0  0
   -3.1436   -2.6190    0.6606 C   0  0  0  0  0  0  0  0  0  0  0  0
   -3.8786   -1.8920    0.9996 H   0  0  0  0  0  0  0  0  0  0  0  0
   -3.2846   -2.8280   -0.3984 H   0  0  0  0  0  0  0  0  0  0  0  0
   -1.7586   -2.0580    0.8686 C   0  0  0  0  0  0  0  0  0  0  0  0
   -0.9666   -2.6340    1.6026 O   0  0  0  0  0  0  0  0  0  0  0  0
   -1.4866   -0.9220    0.2366 N   0  0  0  0  0  0  0  0  0  0  0  0
   -2.2166   -0.4790   -0.2994 H   0  0  0  0  0  0  0  0  0  0  0  0
   -0.1956   -0.2250    0.2596 C   0  0  1  0  0  0  0  0  0  0  0  0
    0.5755   -0.9013   -0.1105 H   0  0  0  0  0  0  0  0  0  0  0  0
   -0.2553    0.9811   -0.6992 C   0  0  0  0  0  0  0  0  0  0  0  0
    0.3082    0.7247   -1.5976 H   0  0  0  0  0  0  0  0  0  0  0  0
   -1.2926    1.1641   -0.9835 H   0  0  0  0  0  0  0  0  0  0  0  0
    0.3386    2.2680   -0.1019 C   0  0  0  0  0  0  0  0  0  0  0  0
   -0.0074    2.3762    0.9289 H   0  0  0  0  0  0  0  0  0  0  0  0
    1.4270    2.1669   -0.0832 H   0  0  0  0  0  0  0  0  0  0  0  0
   -0.0390    3.5347   -0.8840 C   0  0  0  0  0  0  0  0  0  0  0  0
   -0.6524    3.4033   -1.9671 O   0  5  0  0  0  0  0  0  0  0  0  0
    0.2756    4.6289   -0.3654 O   0  0  0  0  0  0  0  0  0  0  0  0
    0.1881    0.1678    1.7015 C   0  0  0  0  0  0  0  0  0  0  0  0
    1.3379    0.0002    2.1133 O   0  0  0  0  0  0  0  0  0  0  0  0
   -0.7666    0.7145    2.4656 N   0  0  0  0  0  0  0  0  0  0  0  0
   -1.6971    0.7705    2.0790 H   0  0  0  0  0  0  0  0  0  0  0  0
   -0.5716    1.1232    3.8542 C   0  0  0  0  0  0  0  0  0  0  0  0
    0.3083    1.7643    3.9293 H   0  0  0  0  0  0  0  0  0  0  0  0
   -1.4485    1.6640    4.2131 H   0  0  0  0  0  0  0  0  0  0  0  0
   -0.4137    0.2381    4.4736 H   0  0  0  0  0  0  0  0  0  0  0  0
  5  6  2  0  0  0  0
  5  7  1  0  0  0  0
  2  3  1  0  0  0  0
  2  4  1  0  0  0  0
  2  5  1  0  0  0  0
  1  2  1  0  0  0  0
 20 21  2  0  0  0  0
 20 22  1  0  0  0  0
 17 18  1  0  0  0  0
 17 19  2  0  0  0  0
 14 15  1  0  0  0  0
 14 16  1  0  0  0  0
 14 17  1  0  0  0  0
 11 12  1  0  0  0  0
 11 13  1  0  0  0  0
 11 14  1  0  0  0  0
  9 10  1  0  0  0  0
  9 11  1  0  0  0  0
  9 20  1  0  0  0  0
  7  8  1  0  0  0  0
  7  9  1  0  0  0  0
 24 25  1  0  0  0  0
 24 26  1  0  0  0  0
 24 27  1  0  0  0  0
 22 23  1  0  0  0  0
 22 24  1  0  0  0  0
M  CHG  1  18  -1
M  END
$$$$
default_name
  -OEChem-02102213163D

 27 26  0     1  0  0  0  0  0999 V2000
   -3.2406   -3.5400    1.2326 H   0  0  0  0  0  0  0  0  0  0  0  0
   -3.1436   -2.6190    0.6606 C   0  0  0  0  0  0  0  0  0  0  0  0
   -3.8786   -1.8920    0.9996 H   0  0  0  0  0  0  0  0  0  0  0  0
   -3.2846   -2.8280   -0.3984 H   0  0  0  0  0  0  0  0  0  0  0  0
   -1.7586   -2.0580    0.8686 C   0  0  0  0  0  0  0  0  0  0  0  0
   -0.9666   -2.6340    1.6026 O   0  0  0  0  0  0  0  0  0  0  0  0
   -1.4866   -0.9220    0.2366 N   0  0  0  0  0  0  0  0  0  0  0  0
   -2.2166   -0.4790   -0.2994 H   0  0  0  0  0  0  0  0  0  0  0  0
   -0.1956   -0.2250    0.2596 C   0  0  1  0  0  0  0  0  0  0  0  0
    0.5755   -0.9013   -0.1105 H   0  0  0  0  0  0  0  0  0  0  0  0
   -0.2553    0.9811   -0.6992 C   0  0  0  0  0  0  0  0  0  0  0  0
    0.3082    0.7247   -1.5976 H   0  0  0  0  0  0  0  0  0  0  0  0
   -1.2926    1.1641   -0.9835 H   0  0  0  0  0  0  0  0  0  0  0  0
    0.3386    2.2680   -0.1019 C   0  0  0  0  0  0  0  0  0  0  0  0
    0.2214    2.2449    0.9843 H   0  0  0  0  0  0  0  0  0  0  0  0
    1.4086    2.2877   -0.3251 H   0  0  0  0  0  0  0  0  0  0  0  0
   -0.3148    3.5491   -0.6409 C   0  0  0  0  0  0  0  0  0  0  0  0
   -1.1387    3.4470   -1.5775 O   0  5  0  0  0  0  0  0  0  0  0  0
    0.0077    4.6211   -0.0823 O   0  0  0  0  0  0  0  0  0  0  0  0
    0.1881    0.1678    1.7015 C   0  0  0  0  0  0  0  0  0  0  0  0
    1.3379    0.0002    2.1133 O   0  0  0  0  0  0  0  0  0  0  0  0
   -0.7666    0.7145    2.4656 N   0  0  0  0  0  0  0  0  0  0  0  0
   -1.6971    0.7705    2.0790 H   0  0  0  0  0  0  0  0  0  0  0  0
   -0.5716    1.1232    3.8542 C   0  0  0  0  0  0  0  0  0  0  0  0
    0.3083    1.7643    3.9293 H   0  0  0  0  0  0  0  0  0  0  0  0
   -1.4485    1.6640    4.2131 H   0  0  0  0  0  0  0  0  0  0  0  0
   -0.4137    0.2381    4.4736 H   0  0  0  0  0  0  0  0  0  0  0  0
  5  6  2  0  0  0  0
  5  7  1  0  0  0  0
  2  3  1  0  0  0  0
  2  4  1  0  0  0  0
  2  5  1  0  0  0  0
  1  2  1  0  0  0  0
 20 21  2  0  0  0  0
 20 22  1  0  0  0  0
 17 18  1  0  0  0  0
 17 19  2  0  0  0  0
 14 15  1  0  0  0  0
 14 16  1  0  0  0  0
 14 17  1  0  0  0  0
 11 12  1  0  0  0  0
 11 13  1  0  0  0  0
 11 14  1  0  0  0  0
  9 10  1  0  0  0  0
  9 11  1  0  0  0  0
  9 20  1  0  0  0  0
  7  8  1  0  0  0  0
  7  9  1  0  0  0  0
 24 25  1  0  0  0  0
 24 26  1  0  0  0  0
 24 27  1  0  0  0  0
 22 23  1  0  0  0  0
 22 24  1  0  0  0  0
M  CHG  1  18  -1
M  END
$$$$
default_name
  -OEChem-02102213163D

 27 26  0     1  0  0  0  0  0999 V2000
   -3.2406   -3.5400    1.2326 H   0  0  0  0  0  0  0  0  0  0  0  0
   -3.1436   -2.6190    0.6606 C   0  0  0  0  0  0  0  0  0  0  0  0
   -3.8786   -1.8920    0.9996 H   0  0  0  0  0  0  0  0  0  0  0  0
   -3.2846   -2.8280   -0.3984 H   0  0  0  0  0  0  0  0  0  0  0  0
   -1.7586   -2.0580    0.8686 C   0  0  0  0  0  0  0  0  0  0  0  0
   -0.9666   -2.6340    1.6026 O   0  0  0  0  0  0  0  0  0  0  0  0
   -1.4866   -0.9220    0.2366 N   0  0  0  0  0  0  0  0  0  0  0  0
   -2.2166   -0.4790   -0.2994 H   0  0  0  0  0  0  0  0  0  0  0  0
   -0.1956   -0.2250    0.2596 C   0  0  1  0  0  0  0  0  0  0  0  0
    0.5755   -0.9013   -0.1105 H   0  0  0  0  0  0  0  0  0  0  0  0
   -0.2553    0.9811   -0.6992 C   0  0  0  0  0  0  0  0  0  0  0  0
    0.3082    0.7247   -1.5976 H   0  0  0  0  0  0  0  0  0  0  0  0
   -1.2926    1.1641   -0.9835 H   0  0  0  0  0  0  0  0  0  0  0  0
    0.3386    2.2680   -0.1019 C   0  0  0  0  0  0  0  0  0  0  0  0
    0.4676    2.1356    0.9751 H   0  0  0  0  0  0  0  0  0  0  0  0
    1.3264    2.4266   -0.5427 H   0  0  0  0  0  0  0  0  0  0  0  0
   -0.5300    3.5111   -0.3449 C   0  0  0  0  0  0  0  0  0  0  0  0
   -1.5285    3.4013   -1.0915 O   0  5  0  0  0  0  0  0  0  0  0  0
   -0.1890    4.5584    0.2484 O   0  0  0  0  0  0  0  0  0  0  0  0
    0.1881    0.1678    1.7015 C   0  0  0  0  0  0  0  0  0  0  0  0
    1.3379    0.0002    2.1133 O   0  0  0  0  0  0  0  0  0  0  0  0
   -0.7666    0.7145    2.4656 N   0  0  0  0  0  0  0  0  0  0  0  0
   -1.6971    0.7705    2.0790 H   0  0  0  0  0  0  0  0  0  0  0  0
   -0.5716    1.1232    3.8542 C   0  0  0  0  0  0  0  0  0  0  0  0
    0.3083    1.7643    3.9293 H   0  0  0  0  0  0  0  0  0  0  0  0
   -1.4485    1.6640    4.2131 H   0  0  0  0  0  0  0  0  0  0  0  0
   -0.4137    0.2381    4.4736 H   0  0  0  0  0  0  0  0  0  0  0  0
  5  6  2  0  0  0  0
  5  7  1  0  0  0  0
  2  3  1  0  0  0  0
  2  4  1  0  0  0  0
  2  5  1  0  0  0  0
  1  2  1  0  0  0  0
 20 21  2  0  0  0  0
 20 22  1  0  0  0  0
 17 18  1  0  0  0  0
 17 19  2  0  0  0  0
 14 15  1  0  0  0  0
 14 16  1  0  0  0  0
 14 17  1  0  0  0  0
 11 12  1  0  0  0  0
 11 13  1  0  0  0  0
 11 14  1  0  0  0  0
  9 10  1  0  0  0  0
  9 11  1  0  0  0  0
  9 20  1  0  0  0  0
  7  8  1  0  0  0  0
  7  9  1  0  0  0  0
 24 25  1  0  0  0  0
 24 26  1  0  0  0  0
 24 27  1  0  0  0  0
 22 23  1  0  0  0  0
 22 24  1  0  0  0  0
M  CHG  1  18  -1
M  END
$$$$
default_name
  -OEChem-02102213163D

 27 26  0     1  0  0  0  0  0999 V2000
   -3.2406   -3.5400    1.2326 H   0  0  0  0  0  0  0  0  0  0  0  0
   -3.1436   -2.6190    0.6606 C   0  0  0  0  0  0  0  0  0  0  0  0
   -3.8786   -1.8920    0.9996 H   0  0  0  0  0  0  0  0  0  0  0  0
   -3.2846   -2.8280   -0.3984 H   0  0  0  0  0  0  0  0  0  0  0  0
   -1.7586   -2.0580    0.8686 C   0  0  0  0  0  0  0  0  0  0  0  0
   -0.9666   -2.6340    1.6026 O   0  0  0  0  0  0  0  0  0  0  0  0
   -1.4866   -0.9220    0.2366 N   0  0  0  0  0  0  0  0  0  0  0  0
   -2.2166   -0.4790   -0.2994 H   0  0  0  0  0  0  0  0  0  0  0  0
   -0.1956   -0.2250    0.2596 C   0  0  1  0  0  0  0  0  0  0  0  0
    0.5755   -0.9013   -0.1105 H   0  0  0  0  0  0  0  0  0  0  0  0
   -0.2553    0.9811   -0.6992 C   0  0  0  0  0  0  0  0  0  0  0  0
    0.3082    0.7247   -1.5976 H   0  0  0  0  0  0  0  0  0  0  0  0
   -1.2926    1.1641   -0.9835 H   0  0  0  0  0  0  0  0  0  0  0  0
    0.3386    2.2680   -0.1019 C   0  0  0  0  0  0  0  0  0  0  0  0
    0.7145    2.0556    0.9019 H   0  0  0  0  0  0  0  0  0  0  0  0
    1.1858    2.5743   -0.7211 H   0  0  0  0  0  0  0  0  0  0  0  0
   -0.6700    3.4231   -0.0162 C   0  0  0  0  0  0  0  0  0  0  0  0
   -1.7952    3.2694   -0.5423 O   0  5  0  0  0  0  0  0  0  0  0  0
   -0.3011    4.4451    0.6041 O   0  0  0  0  0  0  0  0  0  0  0  0
    0.1881    0.1678    1.7015 C   0  0  0  0  0  0  0  0  0  0  0  0
    1.3379    0.0002    2.1133 O   0  0  0  0  0  0  0  0  0  0  0  0
   -0.7666    0.7145    2.4656 N   0  0  0  0  0  0  0  0  0  0  0  0
   -1.6971    0.7705    2.0790 H   0  0  0  0  0  0  0  0  0  0  0  0
   -0.5716    1.1232    3.8542 C   0  0  0  0  0  0  0  0  0  0  0  0
    0.3083    1.7643    3.9293 H   0  0  0  0  0  0  0  0  0  0  0  0
   -1.4485    1.6640    4.2131 H   0  0  0  0  0  0  0  0  0  0  0  0
   -0.4137    0.2381    4.4736 H   0  0  0  0  0  0  0  0  0  0  0  0
  5  6  2  0  0  0  0
  5  7  1  0  0  0  0
  2  3  1  0  0  0  0
  2  4  1  0  0  0  0
  2  5  1  0  0  0  0
  1  2  1  0  0  0  0
 20 21  2  0  0  0  0
 20 22  1  0  0  0  0
 17 18  1  0  0  0  0
 17 19  2  0  0  0  0
 14 15  1  0  0  0  0
 14 16  1  0  0  0  0
 14 17  1  0  0  0  0
 11 12  1  0  0  0  0
 11 13  1  0  0  0  0
 11 14  1  0  0  0  0
  9 10  1  0  0  0  0
  9 11  1  0  0  0  0
  9 20  1  0  0  0  0
  7  8  1  0  0  0  0
  7  9  1  0  0  0  0
 24 25  1  0  0  0  0
 24 26  1  0  0  0  0
 24 27  1  0  0  0  0
 22 23  1  0  0  0  0
 22 24  1  0  0  0  0
M  CHG  1  18  -1
M  END
$$$$
default_name
  -OEChem-02102213163D

 27 26  0     1  0  0  0  0  0999 V2000
   -3.2406   -3.5400    1.2326 H   0  0  0  0  0  0  0  0  0  0  0  0
   -3.1436   -2.6190    0.6606 C   0  0  0  0  0  0  0  0  0  0  0  0
   -3.8786   -1.8920    0.9996 H   0  0  0  0  0  0  0  0  0  0  0  0
   -3.2846   -2.8280   -0.3984 H   0  0  0  0  0  0  0  0  0  0  0  0
   -1.7586   -2.0580    0.8686 C   0  0  0  0  0  0  0  0  0  0  0  0
   -0.9666   -2.6340    1.6026 O   0  0  0  0  0  0  0  0  0  0  0  0
   -1.4866   -0.9220    0.2366 N   0  0  0  0  0  0  0  0  0  0  0  0
   -2.2166   -0.4790   -0.2994 H   0  0  0  0  0  0  0  0  0  0  0  0
   -0.1956   -0.2250    0.2596 C   0  0  1  0  0  0  0  0  0  0  0  0
    0.5755   -0.9013   -0.1105 H   0  0  0  0  0  0  0  0  0  0  0  0
   -0.2553    0.9811   -0.6992 C   0  0  0  0  0  0  0  0  0  0  0  0
    0.3082    0.7247   -1.5976 H   0  0  0  0  0  0  0  0  0  0  0  0
   -1.2926    1.1641   -0.9835 H   0  0  0  0  0  0  0  0  0  0  0  0
    0.3386    2.2680   -0.1019 C   0  0  0  0  0  0  0  0  0  0  0  0
    0.9451    2.0104    0.7698 H   0  0  0  0  0  0  0  0  0  0  0  0
    0.9966    2.7207   -0.8483 H   0  0  0  0  0  0  0  0  0  0  0  0
   -0.7251    3.2912    0.3228 C   0  0  0  0  0  0  0  0  0  0  0  0
   -1.9206    3.0604    0.0328 O   0  5  0  0  0  0  0  0  0  0  0  0
   -0.3209    4.2887    0.9607 O   0  0  0  0  0  0  0  0  0  0  0  0
    0.1881    0.1678    1.7015 C   0  0  0  0  0  0  0  0  0  0  0  0
    1.3379    0.0002    2.1133 O   0  0  0  0  0  0  0  0  0  0  0  0
   -0.7666    0.7145    2.4656 N   0  0  0  0  0  0  0  0  0  0  0  0
   -1.6971    0.7705    2.0790 H   0  0  0  0  0  0  0  0  0  0  0  0
   -0.5716    1.1232    3.8542 C   0  0  0  0  0  0  0  0  0  0  0  0
    0.3083    1.7643    3.9293 H   0  0  0  0  0  0  0  0  0  0  0  0
   -1.4485    1.6640    4.2131 H   0  0  0  0  0  0  0  0  0  0  0  0
   -0.4137    0.2381    4.4736 H   0  0  0  0  0  0  0  0  0  0  0  0
  5  6  2  0  0  0  0
  5  7  1  0  0  0  0
  2  3  1  0  0  0  0
  2  4  1  0  0  0  0
  2  5  1  0  0  0  0
  1  2  1  0  0  0  0
 20 21  2  0  0  0  0
 20 22  1  0  0  0  0
 17 18  1  0  0  0  0
 17 19  2  0  0  0  0
 14 15  1  0  0  0  0
 14 16  1  0  0  0  0
 14 17  1  0  0  0  0
 11 12  1  0  0  0  0
 11 13  1  0  0  0  0
 11 14  1  0  0  0  0
  9 10  1  0  0  0  0
  9 11  1  0  0  0  0
  9 20  1  0  0  0  0
  7  8  1  0  0  0  0
  7  9  1  0  0  0  0
 24 25  1  0  0  0  0
 24 26  1  0  0  0  0
 24 27  1  0  0  0  0
 22 23  1  0  0  0  0
 22 24  1  0  0  0  0
M  CHG  1  18  -1
M  END
$$$$
default_name
  -OEChem-02102213163D

 27 26  0     1  0  0  0  0  0999 V2000
   -3.2406   -3.5400    1.2326 H   0  0  0  0  0  0  0  0  0  0  0  0
   -3.1436   -2.6190    0.6606 C   0  0  0  0  0  0  0  0  0  0  0  0
   -3.8786   -1.8920    0.9996 H   0  0  0  0  0  0  0  0  0  0  0  0
   -3.2846   -2.8280   -0.3984 H   0  0  0  0  0  0  0  0  0  0  0  0
   -1.7586   -2.0580    0.8686 C   0  0  0  0  0  0  0  0  0  0  0  0
   -0.9666   -2.6340    1.6026 O   0  0  0  0  0  0  0  0  0  0  0  0
   -1.4866   -0.9220    0.2366 N   0  0  0  0  0  0  0  0  0  0  0  0
   -2.2166   -0.4790   -0.2994 H   0  0  0  0  0  0  0  0  0  0  0  0
   -0.1956   -0.2250    0.2596 C   0  0  1  0  0  0  0  0  0  0  0  0
    0.5755   -0.9013   -0.1105 H   0  0  0  0  0  0  0  0  0  0  0  0
   -0.2553    0.9811   -0.6992 C   0  0  0  0  0  0  0  0  0  0  0  0
    0.3082    0.7247   -1.5976 H   0  0  0  0  0  0  0  0  0  0  0  0
   -1.2926    1.1641   -0.9835 H   0  0  0  0  0  0  0  0  0  0  0  0
    0.3386    2.2680   -0.1019 C   0  0  0  0  0  0  0  0  0  0  0  0
    1.1437    2.0032    0.5878 H   0  0  0  0  0  0  0  0  0  0  0  0
    0.7715    2.8558   -0.9156 H   0  0  0  0  0  0  0  0  0  0  0  0
   -0.6917    3.1243    0.6491 C   0  0  0  0  0  0  0  0  0  0  0  0
   -1.8962    2.7883    0.5946 O   0  5  0  0  0  0  0  0  0  0  0  0
   -0.2472    4.1001    1.2937 O   0  0  0  0  0  0  0  0  0  0  0  0
    0.1881    0.1678    1.7015 C   0  0  0  0  0  0  0  0  0  0  0  0
    1.3379    0.0002    2.1133 O   0  0  0  0  0  0  0  0  0  0  0  0
   -0.7666    0.7145    2.4656 N   0  0  0  0  0  0  0  0  0  0  0  0
   -1.6971    0.7705    2.0790 H   0  0  0  0  0  0  0  0  0  0  0  0
   -0.5716    1.1232    3.8542 C   0  0  0  0  0  0  0  0  0  0  0  0
    0.3083    1.7643    3.9293 H   0  0  0  0  0  0  0  0  0  0  0  0
   -1.4485    1.6640    4.2131 H   0  0  0  0  0  0  0  0  0  0  0  0
   -0.4137    0.2381    4.4736 H   0  0  0  0  0  0  0  0  0  0  0  0
  5  6  2  0  0  0  0
  5  7  1  0  0  0  0
  2  3  1  0  0  0  0
  2  4  1  0  0  0  0
  2  5  1  0  0  0  0
  1  2  1  0  0  0  0
 20 21  2  0  0  0  0
 20 22  1  0  0  0  0
 17 18  1  0  0  0  0
 17 19  2  0  0  0  0
 14 15  1  0  0  0  0
 14 16  1  0  0  0  0
 14 17  1  0  0  0  0
 11 12  1  0  0  0  0
 11 13  1  0  0  0  0
 11 14  1  0  0  0  0
  9 10  1  0  0  0  0
  9 11  1  0  0  0  0
  9 20  1  0  0  0  0
  7  8  1  0  0  0  0
  7  9  1  0  0  0  0
 24 25  1  0  0  0  0
 24 26  1  0  0  0  0
 24 27  1  0  0  0  0
 22 23  1  0  0  0  0
 22 24  1  0  0  0  0
M  CHG  1  18  -1
M  END
$$$$
default_name
  -OEChem-02102213163D

 27 26  0     1  0  0  0  0  0999 V2000
   -3.2406   -3.5400    1.2326 H   0  0  0  0  0  0  0  0  0  0  0  0
   -3.1436   -2.6190    0.6606 C   0  0  0  0  0  0  0  0  0  0  0  0
   -3.8786   -1.8920    0.9996 H   0  0  0  0  0  0  0  0  0  0  0  0
   -3.2846   -2.8280   -0.3984 H   0  0  0  0  0  0  0  0  0  0  0  0
   -1.7586   -2.0580    0.8686 C   0  0  0  0  0  0  0  0  0  0  0  0
   -0.9666   -2.6340    1.6026 O   0  0  0  0  0  0  0  0  0  0  0  0
   -1.4866   -0.9220    0.2366 N   0  0  0  0  0  0  0  0  0  0  0  0
   -2.2166   -0.4790   -0.2994 H   0  0  0  0  0  0  0  0  0  0  0  0
   -0.1956   -0.2250    0.2596 C   0  0  1  0  0  0  0  0  0  0  0  0
    0.5755   -0.9013   -0.1105 H   0  0  0  0  0  0  0  0  0  0  0  0
   -0.2553    0.9811   -0.6992 C   0  0  0  0  0  0  0  0  0  0  0  0
    0.3082    0.7247   -1.5976 H   0  0  0  0  0  0  0  0  0  0  0  0
   -1.2926    1.1641   -0.9835 H   0  0  0  0  0  0  0  0  0  0  0  0
    0.3386    2.2680   -0.1019 C   0  0  0  0  0  0  0  0  0  0  0  0
    1.2970    2.0344    0.3682 H   0  0  0  0  0  0  0  0  0  0  0  0
    0.5260    2.9704   -0.9183 H   0  0  0  0  0  0  0  0  0  0  0  0
   -0.5721    2.9339    0.9403 C   0  0  0  0  0  0  0  0  0  0  0  0
   -1.7236    2.4719    1.1047 O   0  5  0  0  0  0  0  0  0  0  0  0
   -0.0848    3.8920    1.5806 O   0  0  0  0  0  0  0  0  0  0  0  0
    0.1881    0.1678    1.7015 C   0  0  0  0  0  0  0  0  0  0  0  0
    1.3379    0.0002    2.1133 O   0  0  0  0  0  0  0  0  0  0  0  0
   -0.7666    0.7145    2.4656 N   0  0  0  0  0  0  0  0  0  0  0  0
   -1.6971    0.7705    2.0790 H   0  0  0  0  0  0  0  0  0  0  0  0
   -0.5716    1.1232    3.8542 C   0  0  0  0  0  0  0  0  0  0  0  0
    0.3083    1.7643    3.9293 H   0  0  0  0  0  0  0  0  0  0  0  0
   -1.4485    1.6640    4.2131 H   0  0  0  0  0  0  0  0  0  0  0  0
   -0.4137    0.2381    4.4736 H   0  0  0  0  0  0  0  0  0  0  0  0
  5  6  2  0  0  0  0
  5  7  1  0  0  0  0
  2  3  1  0  0  0  0
  2  4  1  0  0  0  0
  2  5  1  0  0  0  0
  1  2  1  0  0  0  0
 20 21  2  0  0  0  0
 20 22  1  0  0  0  0
 17 18  1  0  0  0  0
 17 19  2  0  0  0  0
 14 15  1  0  0  0  0
 14 16  1  0  0  0  0
 14 17  1  0  0  0  0
 11 12  1  0  0  0  0
 11 13  1  0  0  0  0
 11 14  1  0  0  0  0
  9 10  1  0  0  0  0
  9 11  1  0  0  0  0
  9 20  1  0  0  0  0
  7  8  1  0  0  0  0
  7  9  1  0  0  0  0
 24 25  1  0  0  0  0
 24 26  1  0  0  0  0
 24 27  1  0  0  0  0
 22 23  1  0  0  0  0
 22 24  1  0  0  0  0
M  CHG  1  18  -1
M  END
$$$$
default_name
  -OEChem-02102213163D

 27 26  0     1  0  0  0  0  0999 V2000
   -3.2406   -3.5400    1.2326 H   0  0  0  0  0  0  0  0  0  0  0  0
   -3.1436   -2.6190    0.6606 C   0  0  0  0  0  0  0  0  0  0  0  0
   -3.8786   -1.8920    0.9996 H   0  0  0  0  0  0  0  0  0  0  0  0
   -3.2846   -2.8280   -0.3984 H   0  0  0  0  0  0  0  0  0  0  0  0
   -1.7586   -2.0580    0.8686 C   0  0  0  0  0  0  0  0  0  0  0  0
   -0.9666   -2.6340    1.6026 O   0  0  0  0  0  0  0  0  0  0  0  0
   -1.4866   -0.9220    0.2366 N   0  0  0  0  0  0  0  0  0  0  0  0
   -2.2166   -0.4790   -0.2994 H   0  0  0  0  0  0  0  0  0  0  0  0
   -0.1956   -0.2250    0.2596 C   0  0  1  0  0  0  0  0  0  0  0  0
    0.5755   -0.9013   -0.1105 H   0  0  0  0  0  0  0  0  0  0  0  0
   -0.2553    0.9811   -0.6992 C   0  0  0  0  0  0  0  0  0  0  0  0
    0.3082    0.7247   -1.5976 H   0  0  0  0  0  0  0  0  0  0  0  0
   -1.2926    1.1641   -0.9835 H   0  0  0  0  0  0  0  0  0  0  0  0
    0.3386    2.2680   -0.1019 C   0  0  0  0  0  0  0  0  0  0  0  0
    1.3943    2.1019    0.1261 H   0  0  0  0  0  0  0  0  0  0  0  0
    0.2767    3.0567   -0.8563 H   0  0  0  0  0  0  0  0  0  0  0  0
   -0.3743    2.7329    1.1766 C   0  0  0  0  0  0  0  0  0  0  0  0
   -1.4146    2.1326    1.5285 O   0  5  0  0  0  0  0  0  0  0  0  0
    0.1550    3.6786    1.8018 O   0  0  0  0  0  0  0  0  0  0  0  0
    0.1881    0.1678    1.7015 C   0  0  0  0  0  0  0  0  0  0  0  0
    1.3379    0.0002    2.1133 O   0  0  0  0  0  0  0  0  0  0  0  0
   -0.7666    0.7145    2.4656 N   0  0  0  0  0  0  0  0  0  0  0  0
   -1.6971    0.7705    2.0790 H   0  0  0  0  0  0  0  0  0  0  0  0
   -0.5716    1.1232    3.8542 C   0  0  0  0  0  0  0  0  0  0  0  0
    0.3083    1.7643    3.9293 H   0  0  0  0  0  0  0  0  0  0  0  0
   -1.4485    1.6640    4.2131 H   0  0  0  0  0  0  0  0  0  0  0  0
   -0.4137    0.2381    4.4736 H   0  0  0  0  0  0  0  0  0  0  0  0
  5  6  2  0  0  0  0
  5  7  1  0  0  0  0
  2  3  1  0  0  0  0
  2  4  1  0  0  0  0
  2  5  1  0  0  0  0
  1  2  1  0  0  0  0
 20 21  2  0  0  0  0
 20 22  1  0  0  0  0
 17 18  1  0  0  0  0
 17 19  2  0  0  0  0
 14 15  1  0  0  0  0
 14 16  1  0  0  0  0
 14 17  1  0  0  0  0
 11 12  1  0  0  0  0
 11 13  1  0  0  0  0
 11 14  1  0  0  0  0
  9 10  1  0  0  0  0
  9 11  1  0  0  0  0
  9 20  1  0  0  0  0
  7  8  1  0  0  0  0
  7  9  1  0  0  0  0
 24 25  1  0  0  0  0
 24 26  1  0  0  0  0
 24 27  1  0  0  0  0
 22 23  1  0  0  0  0
 22 24  1  0  0  0  0
M  CHG  1  18  -1
M  END
$$$$
default_name
  -OEChem-02102213163D

 27 26  0     1  0  0  0  0  0999 V2000
   -3.2406   -3.5400    1.2326 H   0  0  0  0  0  0  0  0  0  0  0  0
   -3.1436   -2.6190    0.6606 C   0  0  0  0  0  0  0  0  0  0  0  0
   -3.8786   -1.8920    0.9996 H   0  0  0  0  0  0  0  0  0  0  0  0
   -3.2846   -2.8280   -0.3984 H   0  0  0  0  0  0  0  0  0  0  0  0
   -1.7586   -2.0580    0.8686 C   0  0  0  0  0  0  0  0  0  0  0  0
   -0.9666   -2.6340    1.6026 O   0  0  0  0  0  0  0  0  0  0  0  0
   -1.4866   -0.9220    0.2366 N   0  0  0  0  0  0  0  0  0  0  0  0
   -2.2166   -0.4790   -0.2994 H   0  0  0  0  0  0  0  0  0  0  0  0
   -0.1956   -0.2250    0.2596 C   0  0  1  0  0  0  0  0  0  0  0  0
    0.5755   -0.9013   -0.1105 H   0  0  0  0  0  0  0  0  0  0  0  0
   -0.2553    0.9811   -0.6992 C   0  0  0  0  0  0  0  0  0  0  0  0
    0.3082    0.7247   -1.5976 H   0  0  0  0  0  0  0  0  0  0  0  0
   -1.2926    1.1641   -0.9835 H   0  0  0  0  0  0  0  0  0  0  0  0
    0.3386    2.2680   -0.1019 C   0  0  0  0  0  0  0  0  0  0  0  0
    1.4291    2.2011   -0.1222 H   0  0  0  0  0  0  0  0  0  0  0  0
    0.0407    3.1088   -0.7338 H   0  0  0  0  0  0  0  0  0  0  0  0
   -0.1118    2.5351    1.3420 C   0  0  0  0  0  0  0  0  0  0  0  0
   -0.9903    1.7935    1.8370 O   0  5  0  0  0  0  0  0  0  0  0  0
    0.4561    3.4745    1.9421 O   0  0  0  0  0  0  0  0  0  0  0  0
    0.1881    0.1678    1.7015 C   0  0  0  0  0  0  0  0  0  0  0  0
    1.3379    0.0002    2.1133 O   0  0  0  0  0  0  0  0  0  0  0  0
   -0.7666    0.7145    2.4656 N   0  0  0  0  0  0  0  0  0  0  0  0
   -1.6971    0.7705    2.0790 H   0  0  0  0  0  0  0  0  0  0  0  0
   -0.5716    1.1232    3.8542 C   0  0  0  0  0  0  0  0  0  0  0  0
    0.3083    1.7643    3.9293 H   0  0  0  0  0  0  0  0  0  0  0  0
   -1.4485    1.6640    4.2131 H   0  0  0  0  0  0  0  0  0  0  0  0
   -0.4137    0.2381    4.4736 H   0  0  0  0  0  0  0  0  0  0  0  0
  5  6  2  0  0  0  0
  5  7  1  0  0  0  0
  2  3  1  0  0  0  0
  2  4  1  0  0  0  0
  2  5  1  0  0  0  0
  1  2  1  0  0  0  0
 20 21  2  0  0  0  0
 20 22  1  0  0  0  0
 17 18  1  0  0  0  0
 17 19  2  0  0  0  0
 14 15  1  0  0  0  0
 14 16  1  0  0  0  0
 14 17  1  0  0  0  0
 11 12  1  0  0  0  0
 11 13  1  0  0  0  0
 11 14  1  0  0  0  0
  9 10  1  0  0  0  0
  9 11  1  0  0  0  0
  9 20  1  0  0  0  0
  7  8  1  0  0  0  0
  7  9  1  0  0  0  0
 24 25  1  0  0  0  0
 24 26  1  0  0  0  0
 24 27  1  0  0  0  0
 22 23  1  0  0  0  0
 22 24  1  0  0  0  0
M  CHG  1  18  -1
M  END
$$$$
default_name
  -OEChem-02102213163D

 27 26  0     1  0  0  0  0  0999 V2000
   -3.2406   -3.5400    1.2326 H   0  0  0  0  0  0  0  0  0  0  0  0
   -3.1436   -2.6190    0.6606 C   0  0  0  0  0  0  0  0  0  0  0  0
   -3.8786   -1.8920    0.9996 H   0  0  0  0  0  0  0  0  0  0  0  0
   -3.2846   -2.8280   -0.3984 H   0  0  0  0  0  0  0  0  0  0  0  0
   -1.7586   -2.0580    0.8686 C   0  0  0  0  0  0  0  0  0  0  0  0
   -0.9666   -2.6340    1.6026 O   0  0  0  0  0  0  0  0  0  0  0  0
   -1.4866   -0.9220    0.2366 N   0  0  0  0  0  0  0  0  0  0  0  0
   -2.2166   -0.4790   -0.2994 H   0  0  0  0  0  0  0  0  0  0  0  0
   -0.1956   -0.2250    0.2596 C   0  0  1  0  0  0  0  0  0  0  0  0
    0.5755   -0.9013   -0.1105 H   0  0  0  0  0  0  0  0  0  0  0  0
   -0.2553    0.9811   -0.6992 C   0  0  0  0  0  0  0  0  0  0  0  0
    0.3082    0.7247   -1.5976 H   0  0  0  0  0  0  0  0  0  0  0  0
   -1.2926    1.1641   -0.9835 H   0  0  0  0  0  0  0  0  0  0  0  0
    0.3386    2.2680   -0.1019 C   0  0  0  0  0  0  0  0  0  0  0  0
    1.3989    2.3252   -0.3596 H   0  0  0  0  0  0  0  0  0  0  0  0
   -0.1660    3.1231   -0.5592 H   0  0  0  0  0  0  0  0  0  0  0  0
    0.1974    2.3538    1.4251 C   0  0  0  0  0  0  0  0  0  0  0  0
   -0.4795    1.4779    2.0092 O   0  5  0  0  0  0  0  0  0  0  0  0
    0.7977    3.2936    1.9921 O   0  0  0  0  0  0  0  0  0  0  0  0
    0.1881    0.1678    1.7015 C   0  0  0  0  0  0  0  0  0  0  0  0
    1.3379    0.0002    2.1133 O   0  0  0  0  0  0  0  0  0  0  0  0
   -0.7666    0.7145    2.4656 N   0  0  0  0  0  0  0  0  0  0  0  0
   -1.6971    0.7705    2.0790 H   0  0  0  0  0  0  0  0  0  0  0  0
   -0.5716    1.1232    3.8542 C   0  0  0  0  0  0  0  0  0  0  0  0
    0.3083    1.7643    3.9293 H   0  0  0  0  0  0  0  0  0  0  0  0
   -1.4485    1.6640    4.2131 H   0  0  0  0  0  0  0  0  0  0  0  0
   -0.4137    0.2381    4.4736 H   0  0  0  0  0  0  0  0  0  0  0  0
  5  6  2  0  0  0  0
  5  7  1  0  0  0  0
  2  3  1  0  0  0  0
  2  4  1  0  0  0  0
  2  5  1  0  0  0  0
  1  2  1  0  0  0  0
 20 21  2  0  0  0  0
 20 22  1  0  0  0  0
 17 18  1  0  0  0  0
 17 19  2  0  0  0  0
 14 15  1  0  0  0  0
 14 16  1  0  0  0  0
 14 17  1  0  0  0  0
 11 12  1  0  0  0  0
 11 13  1  0  0  0  0
 11 14  1  0  0  0  0
  9 10  1  0  0  0  0
  9 11  1  0  0  0  0
  9 20  1  0  0  0  0
  7  8  1  0  0  0  0
  7  9  1  0  0  0  0
 24 25  1  0  0  0  0
 24 26  1  0  0  0  0
 24 27  1  0  0  0  0
 22 23  1  0  0  0  0
 22 24  1  0  0  0  0
M  CHG  1  18  -1
M  END
$$$$
default_name
  -OEChem-02102213163D

 27 26  0     1  0  0  0  0  0999 V2000
   -3.2406   -3.5400    1.2326 H   0  0  0  0  0  0  0  0  0  0  0  0
   -3.1436   -2.6190    0.6606 C   0  0  0  0  0  0  0  0  0  0  0  0
   -3.8786   -1.8920    0.9996 H   0  0  0  0  0  0  0  0  0  0  0  0
   -3.2846   -2.8280   -0.3984 H   0  0  0  0  0  0  0  0  0  0  0  0
   -1.7586   -2.0580    0.8686 C   0  0  0  0  0  0  0  0  0  0  0  0
   -0.9666   -2.6340    1.6026 O   0  0  0  0  0  0  0  0  0  0  0  0
   -1.4866   -0.9220    0.2366 N   0  0  0  0  0  0  0  0  0  0  0  0
   -2.2166   -0.4790   -0.2994 H   0  0  0  0  0  0  0  0  0  0  0  0
   -0.1956   -0.2250    0.2596 C   0  0  1  0  0  0  0  0  0  0  0  0
    0.5755   -0.9013   -0.1105 H   0  0  0  0  0  0  0  0  0  0  0  0
   -0.2553    0.9811   -0.6992 C   0  0  0  0  0  0  0  0  0  0  0  0
    0.3082    0.7247   -1.5976 H   0  0  0  0  0  0  0  0  0  0  0  0
   -1.2926    1.1641   -0.9835 H   0  0  0  0  0  0  0  0  0  0  0  0
    0.3386    2.2680   -0.1019 C   0  0  0  0  0  0  0  0  0  0  0  0
    1.3059    2.4658   -0.5699 H   0  0  0  0  0  0  0  0  0  0  0  0
   -0.3293    3.0987   -0.3443 H   0  0  0  0  0  0  0  0  0  0  0  0
    0.5322    2.2014    1.4203 C   0  0  0  0  0  0  0  0  0  0  0  0
    0.0829    1.2071    2.0334 O   0  5  0  0  0  0  0  0  0  0  0  0
    1.1568    3.1482    1.9483 O   0  0  0  0  0  0  0  0  0  0  0  0
    0.1881    0.1678    1.7015 C   0  0  0  0  0  0  0  0  0  0  0  0
    1.3379    0.0002    2.1133 O   0  0  0  0  0  0  0  0  0  0  0  0
   -0.7666    0.7145    2.4656 N   0  0  0  0  0  0  0  0  0  0  0  0
   -1.6971    0.7705    2.0790 H   0  0  0  0  0  0  0  0  0  0  0  0
   -0.5716    1.1232    3.8542 C   0  0  0  0  0  0  0  0  0  0  0  0
    0.3083    1.7643    3.9293 H   0  0  0  0  0  0  0  0  0  0  0  0
   -1.4485    1.6640    4.2131 H   0  0  0  0  0  0  0  0  0  0  0  0
   -0.4137    0.2381    4.4736 H   0  0  0  0  0  0  0  0  0  0  0  0
  5  6  2  0  0  0  0
  5  7  1  0  0  0  0
  2  3  1  0  0  0  0
  2  4  1  0  0  0  0
  2  5  1  0  0  0  0
  1  2  1  0  0  0  0
 20 21  2  0  0  0  0
 20 22  1  0  0  0  0
 17 18  1  0  0  0  0
 17 19  2  0  0  0  0
 14 15  1  0  0  0  0
 14 16  1  0  0  0  0
 14 17  1  0  0  0  0
 11 12  1  0  0  0  0
 11 13  1  0  0  0  0
 11 14  1  0  0  0  0
  9 10  1  0  0  0  0
  9 11  1  0  0  0  0
  9 20  1  0  0  0  0
  7  8  1  0  0  0  0
  7  9  1  0  0  0  0
 24 25  1  0  0  0  0
 24 26  1  0  0  0  0
 24 27  1  0  0  0  0
 22 23  1  0  0  0  0
 22 24  1  0  0  0  0
M  CHG  1  18  -1
M  END
$$$$
default_name
  -OEChem-02102213163D

 27 26  0     1  0  0  0  0  0999 V2000
   -3.2406   -3.5400    1.2326 H   0  0  0  0  0  0  0  0  0  0  0  0
   -3.1436   -2.6190    0.6606 C   0  0  0  0  0  0  0  0  0  0  0  0
   -3.8786   -1.8920    0.9996 H   0  0  0  0  0  0  0  0  0  0  0  0
   -3.2846   -2.8280   -0.3984 H   0  0  0  0  0  0  0  0  0  0  0  0
   -1.7586   -2.0580    0.8686 C   0  0  0  0  0  0  0  0  0  0  0  0
   -0.9666   -2.6340    1.6026 O   0  0  0  0  0  0  0  0  0  0  0  0
   -1.4866   -0.9220    0.2366 N   0  0  0  0  0  0  0  0  0  0  0  0
   -2.2166   -0.4790   -0.2994 H   0  0  0  0  0  0  0  0  0  0  0  0
   -0.1956   -0.2250    0.2596 C   0  0  1  0  0  0  0  0  0  0  0  0
    0.5755   -0.9013   -0.1105 H   0  0  0  0  0  0  0  0  0  0  0  0
   -0.2553    0.9811   -0.6992 C   0  0  0  0  0  0  0  0  0  0  0  0
    0.3082    0.7247   -1.5976 H   0  0  0  0  0  0  0  0  0  0  0  0
   -1.2926    1.1641   -0.9835 H   0  0  0  0  0  0  0  0  0  0  0  0
    0.3386    2.2680   -0.1019 C   0  0  0  0  0  0  0  0  0  0  0  0
    1.1564    2.6132   -0.7390 H   0  0  0  0  0  0  0  0  0  0  0  0
   -0.4380    3.0373   -0.1038 H   0  0  0  0  0  0  0  0  0  0  0  0
    0.8700    2.0884    1.3279 C   0  0  0  0  0  0  0  0  0  0  0  0
    0.6586    0.9996    1.9079 O   0  5  0  0  0  0  0  0  0  0  0  0
    1.5087    3.0483    1.8137 O   0  0  0  0  0  0  0  0  0  0  0  0
    0.1881    0.1678    1.7015 C   0  0  0  0  0  0  0  0  0  0  0  0
    1.3379    0.0002    2.1133 O   0  0  0  0  0  0  0  0  0  0  0  0
   -0.7666    0.7145    2.4656 N   0  0  0  0  0  0  0  0  0  0  0  0
   -1.6971    0.7705    2.0790 H   0  0  0  0  0  0  0  0  0  0  0  0
   -0.5716    1.1232    3.8542 C   0  0  0  0  0  0  0  0  0  0  0  0
    0.3083    1.7643    3.9293 H   0  0  0  0  0  0  0  0  0  0  0  0
   -1.4485    1.6640    4.2131 H   0  0  0  0  0  0  0  0  0  0  0  0
   -0.4137    0.2381    4.4736 H   0  0  0  0  0  0  0  0  0  0  0  0
  5  6  2  0  0  0  0
  5  7  1  0  0  0  0
  2  3  1  0  0  0  0
  2  4  1  0  0  0  0
  2  5  1  0  0  0  0
  1  2  1  0  0  0  0
 20 21  2  0  0  0  0
 20 22  1  0  0  0  0
 17 18  1  0  0  0  0
 17 19  2  0  0  0  0
 14 15  1  0  0  0  0
 14 16  1  0  0  0  0
 14 17  1  0  0  0  0
 11 12  1  0  0  0  0
 11 13  1  0  0  0  0
 11 14  1  0  0  0  0
  9 10  1  0  0  0  0
  9 11  1  0  0  0  0
  9 20  1  0  0  0  0
  7  8  1  0  0  0  0
  7  9  1  0  0  0  0
 24 25  1  0  0  0  0
 24 26  1  0  0  0  0
 24 27  1  0  0  0  0
 22 23  1  0  0  0  0
 22 24  1  0  0  0  0
M  CHG  1  18  -1
M  END
$$$$
default_name
  -OEChem-02102213163D

 27 26  0     1  0  0  0  0  0999 V2000
   -3.2406   -3.5400    1.2326 H   0  0  0  0  0  0  0  0  0  0  0  0
   -3.1436   -2.6190    0.6606 C   0  0  0  0  0  0  0  0  0  0  0  0
   -3.8786   -1.8920    0.9996 H   0  0  0  0  0  0  0  0  0  0  0  0
   -3.2846   -2.8280   -0.3984 H   0  0  0  0  0  0  0  0  0  0  0  0
   -1.7586   -2.0580    0.8686 C   0  0  0  0  0  0  0  0  0  0  0  0
   -0.9666   -2.6340    1.6026 O   0  0  0  0  0  0  0  0  0  0  0  0
   -1.4866   -0.9220    0.2366 N   0  0  0  0  0  0  0  0  0  0  0  0
   -2.2166   -0.4790   -0.2994 H   0  0  0  0  0  0  0  0  0  0  0  0
   -0.1956   -0.2250    0.2596 C   0  0  1  0  0  0  0  0  0  0  0  0
    0.5755   -0.9013   -0.1105 H   0  0  0  0  0  0  0  0  0  0  0  0
   -0.2553    0.9811   -0.6992 C   0  0  0  0  0  0  0  0  0  0  0  0
    0.3082    0.7247   -1.5976 H   0  0  0  0  0  0  0  0  0  0  0  0
   -1.2926    1.1641   -0.9835 H   0  0  0  0  0  0  0  0  0  0  0  0
    0.3386    2.2680   -0.1019 C   0  0  0  0  0  0  0  0  0  0  0  0
    0.9606    2.7575   -0.8551 H   0  0  0  0  0  0  0  0  0  0  0  0
   -0.4848    2.9430    0.1459 H   0  0  0  0  0  0  0  0  0  0  0  0
    1.1876    2.0224    1.1543 C   0  0  0  0  0  0  0  0  0  0  0  0
    1.2083    0.8696    1.6413 O   0  5  0  0  0  0  0  0  0  0  0  0
    1.8295    3.0005    1.5975 O   0  0  0  0  0  0  0  0  0  0  0  0
    0.1881    0.1678    1.7015 C   0  0  0  0  0  0  0  0  0  0  0  0
    1.3379    0.0002    2.1133 O   0  0  0  0  0  0  0  0  0  0  0  0
   -0.7666    0.7145    2.4656 N   0  0  0  0  0  0  0  0  0  0  0  0
   -1.6971    0.7705    2.0790 H   0  0  0  0  0  0  0  0  0  0  0  0
   -0.5716    1.1232    3.8542 C   0  0  0  0  0  0  0  0  0  0  0  0
    0.3083    1.7643    3.9293 H   0  0  0  0  0  0  0  0  0  0  0  0
   -1.4485    1.6640    4.2131 H   0  0  0  0  0  0  0  0  0  0  0  0
   -0.4137    0.2381    4.4736 H   0  0  0  0  0  0  0  0  0  0  0  0
  5  6  2  0  0  0  0
  5  7  1  0  0  0  0
  2  3  1  0  0  0  0
  2  4  1  0  0  0  0
  2  5  1  0  0  0  0
  1  2  1  0  0  0  0
 20 21  2  0  0  0  0
 20 22  1  0  0  0  0
 17 18  1  0  0  0  0
 17 19  2  0  0  0  0
 14 15  1  0  0  0  0
 14 16  1  0  0  0  0
 14 17  1  0  0  0  0
 11 12  1  0  0  0  0
 11 13  1  0  0  0  0
 11 14  1  0  0  0  0
  9 10  1  0  0  0  0
  9 11  1  0  0  0  0
  9 20  1  0  0  0  0
  7  8  1  0  0  0  0
  7  9  1  0  0  0  0
 24 25  1  0  0  0  0
 24 26  1  0  0  0  0
 24 27  1  0  0  0  0
 22 23  1  0  0  0  0
 22 24  1  0  0  0  0
M  CHG  1  18  -1
M  END
$$$$
default_name
  -OEChem-02102213163D

 27 26  0     1  0  0  0  0  0999 V2000
   -3.2406   -3.5400    1.2326 H   0  0  0  0  0  0  0  0  0  0  0  0
   -3.1436   -2.6190    0.6606 C   0  0  0  0  0  0  0  0  0  0  0  0
   -3.8786   -1.8920    0.9996 H   0  0  0  0  0  0  0  0  0  0  0  0
   -3.2846   -2.8280   -0.3984 H   0  0  0  0  0  0  0  0  0  0  0  0
   -1.7586   -2.0580    0.8686 C   0  0  0  0  0  0  0  0  0  0  0  0
   -0.9666   -2.6340    1.6026 O   0  0  0  0  0  0  0  0  0  0  0  0
   -1.4866   -0.9220    0.2366 N   0  0  0  0  0  0  0  0  0  0  0  0
   -2.2166   -0.4790   -0.2994 H   0  0  0  0  0  0  0  0  0  0  0  0
   -0.1956   -0.2250    0.2596 C   0  0  1  0  0  0  0  0  0  0  0  0
    0.5755   -0.9013   -0.1105 H   0  0  0  0  0  0  0  0  0  0  0  0
   -0.2553    0.9811   -0.6992 C   0  0  0  0  0  0  0  0  0  0  0  0
    0.3082    0.7247   -1.5976 H   0  0  0  0  0  0  0  0  0  0  0  0
   -1.2926    1.1641   -0.9835 H   0  0  0  0  0  0  0  0  0  0  0  0
    0.3386    2.2680   -0.1019 C   0  0  0  0  0  0  0  0  0  0  0  0
    0.7318    2.8888   -0.9105 H   0  0  0  0  0  0  0  0  0  0  0  0
   -0.4664    2.8222    0.3878 H   0  0  0  0  0  0  0  0  0  0  0  0
    1.4634    2.0080    0.9112 C   0  0  0  0  0  0  0  0  0  0  0  0
    1.6946    0.8260    1.2517 O   0  5  0  0  0  0  0  0  0  0  0  0
    2.0974    3.0083    1.3145 O   0  0  0  0  0  0  0  0  0  0  0  0
    0.1881    0.1678    1.7015 C   0  0  0  0  0  0  0  0  0  0  0  0
    1.3379    0.0002    2.1133 O   0  0  0  0  0  0  0  0  0  0  0  0
   -0.7666    0.7145    2.4656 N   0  0  0  0  0  0  0  0  0  0  0  0
   -1.6971    0.7705    2.0790 H   0  0  0  0  0  0  0  0  0  0  0  0
   -0.5716    1.1232    3.8542 C   0  0  0  0  0  0  0  0  0  0  0  0
    0.3083    1.7643    3.9293 H   0  0  0  0  0  0  0  0  0  0  0  0
   -1.4485    1.6640    4.2131 H   0  0  0  0  0  0  0  0  0  0  0  0
   -0.4137    0.2381    4.4736 H   0  0  0  0  0  0  0  0  0  0  0  0
  5  6  2  0  0  0  0
  5  7  1  0  0  0  0
  2  3  1  0  0  0  0
  2  4  1  0  0  0  0
  2  5  1  0  0  0  0
  1  2  1  0  0  0  0
 20 21  2  0  0  0  0
 20 22  1  0  0  0  0
 17 18  1  0  0  0  0
 17 19  2  0  0  0  0
 14 15  1  0  0  0  0
 14 16  1  0  0  0  0
 14 17  1  0  0  0  0
 11 12  1  0  0  0  0
 11 13  1  0  0  0  0
 11 14  1  0  0  0  0
  9 10  1  0  0  0  0
  9 11  1  0  0  0  0
  9 20  1  0  0  0  0
  7  8  1  0  0  0  0
  7  9  1  0  0  0  0
 24 25  1  0  0  0  0
 24 26  1  0  0  0  0
 24 27  1  0  0  0  0
 22 23  1  0  0  0  0
 22 24  1  0  0  0  0
M  CHG  1  18  -1
M  END
$$$$
default_name
  -OEChem-02102213163D

 27 26  0     1  0  0  0  0  0999 V2000
   -3.2406   -3.5400    1.2326 H   0  0  0  0  0  0  0  0  0  0  0  0
   -3.1436   -2.6190    0.6606 C   0  0  0  0  0  0  0  0  0  0  0  0
   -3.8786   -1.8920    0.9996 H   0  0  0  0  0  0  0  0  0  0  0  0
   -3.2846   -2.8280   -0.3984 H   0  0  0  0  0  0  0  0  0  0  0  0
   -1.7586   -2.0580    0.8686 C   0  0  0  0  0  0  0  0  0  0  0  0
   -0.9666   -2.6340    1.6026 O   0  0  0  0  0  0  0  0  0  0  0  0
   -1.4866   -0.9220    0.2366 N   0  0  0  0  0  0  0  0  0  0  0  0
   -2.2166   -0.4790   -0.2994 H   0  0  0  0  0  0  0  0  0  0  0  0
   -0.1956   -0.2250    0.2596 C   0  0  1  0  0  0  0  0  0  0  0  0
    0.5755   -0.9013   -0.1105 H   0  0  0  0  0  0  0  0  0  0  0  0
   -0.2553    0.9811   -0.6992 C   0  0  0  0  0  0  0  0  0  0  0  0
    0.3082    0.7247   -1.5976 H   0  0  0  0  0  0  0  0  0  0  0  0
   -1.2926    1.1641   -0.9835 H   0  0  0  0  0  0  0  0  0  0  0  0
    0.3386    2.2680   -0.1019 C   0  0  0  0  0  0  0  0  0  0  0  0
    0.4856    2.9982   -0.9013 H   0  0  0  0  0  0  0  0  0  0  0  0
   -0.3842    2.6833    0.6054 H   0  0  0  0  0  0  0  0  0  0  0  0
    1.6786    2.0460    0.6152 C   0  0  0  0  0  0  0  0  0  0  0  0
    2.0844    0.8716    0.7658 O   0  5  0  0  0  0  0  0  0  0  0  0
    2.2941    3.0710    0.9838 O   0  0  0  0  0  0  0  0  0  0  0  0
    0.1881    0.1678    1.7015 C   0  0  0  0  0  0  0  0  0  0  0  0
    1.3379    0.0002    2.1133 O   0  0  0  0  0  0  0  0  0  0  0  0
   -0.7666    0.7145    2.4656 N   0  0  0  0  0  0  0  0  0  0  0  0
   -1.6971    0.7705    2.0790 H   0  0  0  0  0  0  0  0  0  0  0  0
   -0.5716    1.1232    3.8542 C   0  0  0  0  0  0  0  0  0  0  0  0
    0.3083    1.7643    3.9293 H   0  0  0  0  0  0  0  0  0  0  0  0
   -1.4485    1.6640    4.2131 H   0  0  0  0  0  0  0  0  0  0  0  0
   -0.4137    0.2381    4.4736 H   0  0  0  0  0  0  0  0  0  0  0  0
  5  6  2  0  0  0  0
  5  7  1  0  0  0  0
  2  3  1  0  0  0  0
  2  4  1  0  0  0  0
  2  5  1  0  0  0  0
  1  2  1  0  0  0  0
 20 21  2  0  0  0  0
 20 22  1  0  0  0  0
 17 18  1  0  0  0  0
 17 19  2  0  0  0  0
 14 15  1  0  0  0  0
 14 16  1  0  0  0  0
 14 17  1  0  0  0  0
 11 12  1  0  0  0  0
 11 13  1  0  0  0  0
 11 14  1  0  0  0  0
  9 10  1  0  0  0  0
  9 11  1  0  0  0  0
  9 20  1  0  0  0  0
  7  8  1  0  0  0  0
  7  9  1  0  0  0  0
 24 25  1  0  0  0  0
 24 26  1  0  0  0  0
 24 27  1  0  0  0  0
 22 23  1  0  0  0  0
 22 24  1  0  0  0  0
M  CHG  1  18  -1
M  END
$$$$
default_name
  -OEChem-02102213163D

 27 26  0     1  0  0  0  0  0999 V2000
   -3.2406   -3.5400    1.2326 H   0  0  0  0  0  0  0  0  0  0  0  0
   -3.1436   -2.6190    0.6606 C   0  0  0  0  0  0  0  0  0  0  0  0
   -3.8786   -1.8920    0.9996 H   0  0  0  0  0  0  0  0  0  0  0  0
   -3.2846   -2.8280   -0.3984 H   0  0  0  0  0  0  0  0  0  0  0  0
   -1.7586   -2.0580    0.8686 C   0  0  0  0  0  0  0  0  0  0  0  0
   -0.9666   -2.6340    1.6026 O   0  0  0  0  0  0  0  0  0  0  0  0
   -1.4866   -0.9220    0.2366 N   0  0  0  0  0  0  0  0  0  0  0  0
   -2.2166   -0.4790   -0.2994 H   0  0  0  0  0  0  0  0  0  0  0  0
   -0.1956   -0.2250    0.2596 C   0  0  1  0  0  0  0  0  0  0  0  0
    0.5755   -0.9013   -0.1105 H   0  0  0  0  0  0  0  0  0  0  0  0
   -0.2553    0.9811   -0.6992 C   0  0  0  0  0  0  0  0  0  0  0  0
    0.3082    0.7247   -1.5976 H   0  0  0  0  0  0  0  0  0  0  0  0
   -1.2926    1.1641   -0.9835 H   0  0  0  0  0  0  0  0  0  0  0  0
    0.3386    2.2680   -0.1019 C   0  0  0  0  0  0  0  0  0  0  0  0
    0.2388    3.0782   -0.8281 H   0  0  0  0  0  0  0  0  0  0  0  0
   -0.2436    2.5356    0.7838 H   0  0  0  0  0  0  0  0  0  0  0  0
    1.8186    2.1340    0.2865 C   0  0  0  0  0  0  0  0  0  0  0  0
    2.3511    1.0035    0.2165 O   0  5  0  0  0  0  0  0  0  0  0  0
    2.4062    3.1844    0.6281 O   0  0  0  0  0  0  0  0  0  0  0  0
    0.1881    0.1678    1.7015 C   0  0  0  0  0  0  0  0  0  0  0  0
    1.3379    0.0002    2.1133 O   0  0  0  0  0  0  0  0  0  0  0  0
   -0.7666    0.7145    2.4656 N   0  0  0  0  0  0  0  0  0  0  0  0
   -1.6971    0.7705    2.0790 H   0  0  0  0  0  0  0  0  0  0  0  0
   -0.5716    1.1232    3.8542 C   0  0  0  0  0  0  0  0  0  0  0  0
    0.3083    1.7643    3.9293 H   0  0  0  0  0  0  0  0  0  0  0  0
   -1.4485    1.6640    4.2131 H   0  0  0  0  0  0  0  0  0  0  0  0
   -0.4137    0.2381    4.4736 H   0  0  0  0  0  0  0  0  0  0  0  0
  5  6  2  0  0  0  0
  5  7  1  0  0  0  0
  2  3  1  0  0  0  0
  2  4  1  0  0  0  0
  2  5  1  0  0  0  0
  1  2  1  0  0  0  0
 20 21  2  0  0  0  0
 20 22  1  0  0  0  0
 17 18  1  0  0  0  0
 17 19  2  0  0  0  0
 14 15  1  0  0  0  0
 14 16  1  0  0  0  0
 14 17  1  0  0  0  0
 11 12  1  0  0  0  0
 11 13  1  0  0  0  0
 11 14  1  0  0  0  0
  9 10  1  0  0  0  0
  9 11  1  0  0  0  0
  9 20  1  0  0  0  0
  7  8  1  0  0  0  0
  7  9  1  0  0  0  0
 24 25  1  0  0  0  0
 24 26  1  0  0  0  0
 24 27  1  0  0  0  0
 22 23  1  0  0  0  0
 22 24  1  0  0  0  0
M  CHG  1  18  -1
M  END
$$$$
default_name
  -OEChem-02102213163D

 27 26  0     1  0  0  0  0  0999 V2000
   -3.2406   -3.5400    1.2326 H   0  0  0  0  0  0  0  0  0  0  0  0
   -3.1436   -2.6190    0.6606 C   0  0  0  0  0  0  0  0  0  0  0  0
   -3.8786   -1.8920    0.9996 H   0  0  0  0  0  0  0  0  0  0  0  0
   -3.2846   -2.8280   -0.3984 H   0  0  0  0  0  0  0  0  0  0  0  0
   -1.7586   -2.0580    0.8686 C   0  0  0  0  0  0  0  0  0  0  0  0
   -0.9666   -2.6340    1.6026 O   0  0  0  0  0  0  0  0  0  0  0  0
   -1.4866   -0.9220    0.2366 N   0  0  0  0  0  0  0  0  0  0  0  0
   -2.2166   -0.4790   -0.2994 H   0  0  0  0  0  0  0  0  0  0  0  0
   -0.1956   -0.2250    0.2596 C   0  0  1  0  0  0  0  0  0  0  0  0
    0.5755   -0.9013   -0.1105 H   0  0  0  0  0  0  0  0  0  0  0  0
   -0.2553    0.9811   -0.6992 C   0  0  0  0  0  0  0  0  0  0  0  0
    0.3082    0.7247   -1.5976 H   0  0  0  0  0  0  0  0  0  0  0  0
   -1.2926    1.1641   -0.9835 H   0  0  0  0  0  0  0  0  0  0  0  0
    0.3386    2.2680   -0.1019 C   0  0  0  0  0  0  0  0  0  0  0  0
    0.0082    3.1233   -0.6961 H   0  0  0  0  0  0  0  0  0  0  0  0
   -0.0544    2.3892    0.9110 H   0  0  0  0  0  0  0  0  0  0  0  0
    1.8737    2.2659   -0.0526 C   0  0  0  0  0  0  0  0  0  0  0  0
    2.4765    1.2126   -0.3586 O   0  5  0  0  0  0  0  0  0  0  0  0
    2.4260    3.3407    0.2715 O   0  0  0  0  0  0  0  0  0  0  0  0
    0.1881    0.1678    1.7015 C   0  0  0  0  0  0  0  0  0  0  0  0
    1.3379    0.0002    2.1133 O   0  0  0  0  0  0  0  0  0  0  0  0
   -0.7666    0.7145    2.4656 N   0  0  0  0  0  0  0  0  0  0  0  0
   -1.6971    0.7705    2.0790 H   0  0  0  0  0  0  0  0  0  0  0  0
   -0.5716    1.1232    3.8542 C   0  0  0  0  0  0  0  0  0  0  0  0
    0.3083    1.7643    3.9293 H   0  0  0  0  0  0  0  0  0  0  0  0
   -1.4485    1.6640    4.2131 H   0  0  0  0  0  0  0  0  0  0  0  0
   -0.4137    0.2381    4.4736 H   0  0  0  0  0  0  0  0  0  0  0  0
  5  6  2  0  0  0  0
  5  7  1  0  0  0  0
  2  3  1  0  0  0  0
  2  4  1  0  0  0  0
  2  5  1  0  0  0  0
  1  2  1  0  0  0  0
 20 21  2  0  0  0  0
 20 22  1  0  0  0  0
 17 18  1  0  0  0  0
 17 19  2  0  0  0  0
 14 15  1  0  0  0  0
 14 16  1  0  0  0  0
 14 17  1  0  0  0  0
 11 12  1  0  0  0  0
 11 13  1  0  0  0  0
 11 14  1  0  0  0  0
  9 10  1  0  0  0  0
  9 11  1  0  0  0  0
  9 20  1  0  0  0  0
  7  8  1  0  0  0  0
  7  9  1  0  0  0  0
 24 25  1  0  0  0  0
 24 26  1  0  0  0  0
 24 27  1  0  0  0  0
 22 23  1  0  0  0  0
 22 24  1  0  0  0  0
M  CHG  1  18  -1
M  END
$$$$
default_name
  -OEChem-02102213163D

 27 26  0     1  0  0  0  0  0999 V2000
   -3.2406   -3.5400    1.2326 H   0  0  0  0  0  0  0  0  0  0  0  0
   -3.1436   -2.6190    0.6606 C   0  0  0  0  0  0  0  0  0  0  0  0
   -3.8786   -1.8920    0.9996 H   0  0  0  0  0  0  0  0  0  0  0  0
   -3.2846   -2.8280   -0.3984 H   0  0  0  0  0  0  0  0  0  0  0  0
   -1.7586   -2.0580    0.8686 C   0  0  0  0  0  0  0  0  0  0  0  0
   -0.9666   -2.6340    1.6026 O   0  0  0  0  0  0  0  0  0  0  0  0
   -1.4866   -0.9220    0.2366 N   0  0  0  0  0  0  0  0  0  0  0  0
   -2.2166   -0.4790   -0.2994 H   0  0  0  0  0  0  0  0  0  0  0  0
   -0.1956   -0.2250    0.2596 C   0  0  1  0  0  0  0  0  0  0  0  0
    0.5755   -0.9013   -0.1105 H   0  0  0  0  0  0  0  0  0  0  0  0
   -0.2553    0.9811   -0.6992 C   0  0  0  0  0  0  0  0  0  0  0  0
    0.3082    0.7247   -1.5976 H   0  0  0  0  0  0  0  0  0  0  0  0
   -1.2926    1.1641   -0.9835 H   0  0  0  0  0  0  0  0  0  0  0  0
    0.3386    2.2680   -0.1019 C   0  0  0  0  0  0  0  0  0  0  0  0
   -0.1905    3.1305   -0.5140 H   0  0  0  0  0  0  0  0  0  0  0  0
    0.1707    2.2541    0.9783 H   0  0  0  0  0  0  0  0  0  0  0  0
    1.8403    2.4327   -0.3788 C   0  0  0  0  0  0  0  0  0  0  0  0
    2.4521    1.4846   -0.9204 O   0  5  0  0  0  0  0  0  0  0  0  0
    2.3523    3.5293   -0.0615 O   0  0  0  0  0  0  0  0  0  0  0  0
    0.1881    0.1678    1.7015 C   0  0  0  0  0  0  0  0  0  0  0  0
    1.3379    0.0002    2.1133 O   0  0  0  0  0  0  0  0  0  0  0  0
   -0.7666    0.7145    2.4656 N   0  0  0  0  0  0  0  0  0  0  0  0
   -1.6971    0.7705    2.0790 H   0  0  0  0  0  0  0  0  0  0  0  0
   -0.5716    1.1232    3.8542 C   0  0  0  0  0  0  0  0  0  0  0  0
    0.3083    1.7643    3.9293 H   0  0  0  0  0  0  0  0  0  0  0  0
   -1.4485    1.6640    4.2131 H   0  0  0  0  0  0  0  0  0  0  0  0
   -0.4137    0.2381    4.4736 H   0  0  0  0  0  0  0  0  0  0  0  0
  5  6  2  0  0  0  0
  5  7  1  0  0  0  0
  2  3  1  0  0  0  0
  2  4  1  0  0  0  0
  2  5  1  0  0  0  0
  1  2  1  0  0  0  0
 20 21  2  0  0  0  0
 20 22  1  0  0  0  0
 17 18  1  0  0  0  0
 17 19  2  0  0  0  0
 14 15  1  0  0  0  0
 14 16  1  0  0  0  0
 14 17  1  0  0  0  0
 11 12  1  0  0  0  0
 11 13  1  0  0  0  0
 11 14  1  0  0  0  0
  9 10  1  0  0  0  0
  9 11  1  0  0  0  0
  9 20  1  0  0  0  0
  7  8  1  0  0  0  0
  7  9  1  0  0  0  0
 24 25  1  0  0  0  0
 24 26  1  0  0  0  0
 24 27  1  0  0  0  0
 22 23  1  0  0  0  0
 22 24  1  0  0  0  0
M  CHG  1  18  -1
M  END
$$$$
default_name
  -OEChem-02102213163D

 27 26  0     1  0  0  0  0  0999 V2000
   -3.2406   -3.5400    1.2326 H   0  0  0  0  0  0  0  0  0  0  0  0
   -3.1436   -2.6190    0.6606 C   0  0  0  0  0  0  0  0  0  0  0  0
   -3.8786   -1.8920    0.9996 H   0  0  0  0  0  0  0  0  0  0  0  0
   -3.2846   -2.8280   -0.3984 H   0  0  0  0  0  0  0  0  0  0  0  0
   -1.7586   -2.0580    0.8686 C   0  0  0  0  0  0  0  0  0  0  0  0
   -0.9666   -2.6340    1.6026 O   0  0  0  0  0  0  0  0  0  0  0  0
   -1.4866   -0.9220    0.2366 N   0  0  0  0  0  0  0  0  0  0  0  0
   -2.2166   -0.4790   -0.2994 H   0  0  0  0  0  0  0  0  0  0  0  0
   -0.1956   -0.2250    0.2596 C   0  0  1  0  0  0  0  0  0  0  0  0
    0.5755   -0.9013   -0.1105 H   0  0  0  0  0  0  0  0  0  0  0  0
   -0.2553    0.9811   -0.6992 C   0  0  0  0  0  0  0  0  0  0  0  0
    0.3082    0.7247   -1.5976 H   0  0  0  0  0  0  0  0  0  0  0  0
   -1.2926    1.1641   -0.9835 H   0  0  0  0  0  0  0  0  0  0  0  0
    0.3386    2.2680   -0.1019 C   0  0  0  0  0  0  0  0  0  0  0  0
   -0.3438    3.0993   -0.2944 H   0  0  0  0  0  0  0  0  0  0  0  0
    0.4162    2.1395    0.9810 H   0  0  0  0  0  0  0  0  0  0  0  0
    1.7207    2.6231   -0.6700 C   0  0  0  0  0  0  0  0  0  0  0  0
    2.2795    1.8010   -1.4305 O   0  5  0  0  0  0  0  0  0  0  0  0
    2.1899    3.7374   -0.3484 O   0  0  0  0  0  0  0  0  0  0  0  0
    0.1881    0.1678    1.7015 C   0  0  0  0  0  0  0  0  0  0  0  0
    1.3379    0.0002    2.1133 O   0  0  0  0  0  0  0  0  0  0  0  0
   -0.7666    0.7145    2.4656 N   0  0  0  0  0  0  0  0  0  0  0  0
   -1.6971    0.7705    2.0790 H   0  0  0  0  0  0  0  0  0  0  0  0
   -0.5716    1.1232    3.8542 C   0  0  0  0  0  0  0  0  0  0  0  0
    0.3083    1.7643    3.9293 H   0  0  0  0  0  0  0  0  0  0  0  0
   -1.4485    1.6640    4.2131 H   0  0  0  0  0  0  0  0  0  0  0  0
   -0.4137    0.2381    4.4736 H   0  0  0  0  0  0  0  0  0  0  0  0
  5  6  2  0  0  0  0
  5  7  1  0  0  0  0
  2  3  1  0  0  0  0
  2  4  1  0  0  0  0
  2  5  1  0  0  0  0
  1  2  1  0  0  0  0
 20 21  2  0  0  0  0
 20 22  1  0  0  0  0
 17 18  1  0  0  0  0
 17 19  2  0  0  0  0
 14 15  1  0  0  0  0
 14 16  1  0  0  0  0
 14 17  1  0  0  0  0
 11 12  1  0  0  0  0
 11 13  1  0  0  0  0
 11 14  1  0  0  0  0
  9 10  1  0  0  0  0
  9 11  1  0  0  0  0
  9 20  1  0  0  0  0
  7  8  1  0  0  0  0
  7  9  1  0  0  0  0
 24 25  1  0  0  0  0
 24 26  1  0  0  0  0
 24 27  1  0  0  0  0
 22 23  1  0  0  0  0
 22 24  1  0  0  0  0
M  CHG  1  18  -1
M  END
$$$$
default_name
  -OEChem-02102213163D

 27 26  0     1  0  0  0  0  0999 V2000
   -3.2406   -3.5400    1.2326 H   0  0  0  0  0  0  0  0  0  0  0  0
   -3.1436   -2.6190    0.6606 C   0  0  0  0  0  0  0  0  0  0  0  0
   -3.8786   -1.8920    0.9996 H   0  0  0  0  0  0  0  0  0  0  0  0
   -3.2846   -2.8280   -0.3984 H   0  0  0  0  0  0  0  0  0  0  0  0
   -1.7586   -2.0580    0.8686 C   0  0  0  0  0  0  0  0  0  0  0  0
   -0.9666   -2.6340    1.6026 O   0  0  0  0  0  0  0  0  0  0  0  0
   -1.4866   -0.9220    0.2366 N   0  0  0  0  0  0  0  0  0  0  0  0
   -2.2166   -0.4790   -0.2994 H   0  0  0  0  0  0  0  0  0  0  0  0
   -0.1956   -0.2250    0.2596 C   0  0  1  0  0  0  0  0  0  0  0  0
    0.5755   -0.9013   -0.1105 H   0  0  0  0  0  0  0  0  0  0  0  0
   -0.2553    0.9811   -0.6992 C   0  0  0  0  0  0  0  0  0  0  0  0
    0.3082    0.7247   -1.5976 H   0  0  0  0  0  0  0  0  0  0  0  0
   -1.2926    1.1641   -0.9835 H   0  0  0  0  0  0  0  0  0  0  0  0
    0.3386    2.2680   -0.1019 C   0  0  0  0  0  0  0  0  0  0  0  0
   -0.4411    3.0318   -0.0523 H   0  0  0  0  0  0  0  0  0  0  0  0
    0.6655    2.0532    0.9190 H   0  0  0  0  0  0  0  0  0  0  0  0
    1.5229    2.8241   -0.9063 C   0  0  0  0  0  0  0  0  0  0  0  0
    1.9705    2.1404   -1.8543 O   0  5  0  0  0  0  0  0  0  0  0  0
    1.9501    3.9508   -0.5696 O   0  0  0  0  0  0  0  0  0  0  0  0
    0.1881    0.1678    1.7015 C   0  0  0  0  0  0  0  0  0  0  0  0
    1.3379    0.0002    2.1133 O   0  0  0  0  0  0  0  0  0  0  0  0
   -0.7666    0.7145    2.4656 N   0  0  0  0  0  0  0  0  0  0  0  0
   -1.6971    0.7705    2.0790 H   0  0  0  0  0  0  0  0  0  0  0  0
   -0.5716    1.1232    3.8542 C   0  0  0  0  0  0  0  0  0  0  0  0
    0.3083    1.7643    3.9293 H   0  0  0  0  0  0  0  0  0  0  0  0
   -1.4485    1.6640    4.2131 H   0  0  0  0  0  0  0  0  0  0  0  0
   -0.4137    0.2381    4.4736 H   0  0  0  0  0  0  0  0  0  0  0  0
  5  6  2  0  0  0  0
  5  7  1  0  0  0  0
  2  3  1  0  0  0  0
  2  4  1  0  0  0  0
  2  5  1  0  0  0  0
  1  2  1  0  0  0  0
 20 21  2  0  0  0  0
 20 22  1  0  0  0  0
 17 18  1  0  0  0  0
 17 19  2  0  0  0  0
 14 15  1  0  0  0  0
 14 16  1  0  0  0  0
 14 17  1  0  0  0  0
 11 12  1  0  0  0  0
 11 13  1  0  0  0  0
 11 14  1  0  0  0  0
  9 10  1  0  0  0  0
  9 11  1  0  0  0  0
  9 20  1  0  0  0  0
  7  8  1  0  0  0  0
  7  9  1  0  0  0  0
 24 25  1  0  0  0  0
 24 26  1  0  0  0  0
 24 27  1  0  0  0  0
 22 23  1  0  0  0  0
 22 24  1  0  0  0  0
M  CHG  1  18  -1
M  END
$$$$
default_name
  -OEChem-02102213163D

 27 26  0     1  0  0  0  0  0999 V2000
   -3.2406   -3.5400    1.2326 H   0  0  0  0  0  0  0  0  0  0  0  0
   -3.1436   -2.6190    0.6606 C   0  0  0  0  0  0  0  0  0  0  0  0
   -3.8786   -1.8920    0.9996 H   0  0  0  0  0  0  0  0  0  0  0  0
   -3.2846   -2.8280   -0.3984 H   0  0  0  0  0  0  0  0  0  0  0  0
   -1.7586   -2.0580    0.8686 C   0  0  0  0  0  0  0  0  0  0  0  0
   -0.9666   -2.6340    1.6026 O   0  0  0  0  0  0  0  0  0  0  0  0
   -1.4866   -0.9220    0.2366 N   0  0  0  0  0  0  0  0  0  0  0  0
   -2.2166   -0.4790   -0.2994 H   0  0  0  0  0  0  0  0  0  0  0  0
   -0.1956   -0.2250    0.2596 C   0  0  1  0  0  0  0  0  0  0  0  0
    0.5755   -0.9013   -0.1105 H   0  0  0  0  0  0  0  0  0  0  0  0
   -0.2553    0.9811   -0.6992 C   0  0  0  0  0  0  0  0  0  0  0  0
    0.3082    0.7247   -1.5976 H   0  0  0  0  0  0  0  0  0  0  0  0
   -1.2926    1.1641   -0.9835 H   0  0  0  0  0  0  0  0  0  0  0  0
    0.3386    2.2680   -0.1019 C   0  0  0  0  0  0  0  0  0  0  0  0
   -0.4758    2.9327    0.1959 H   0  0  0  0  0  0  0  0  0  0  0  0
    0.9015    2.0011    0.7965 H   0  0  0  0  0  0  0  0  0  0  0  0
    1.2604    3.0220   -1.0717 C   0  0  0  0  0  0  0  0  0  0  0  0
    1.5461    2.4794   -2.1628 O   0  5  0  0  0  0  0  0  0  0  0  0
    1.6491    4.1549   -0.7099 O   0  0  0  0  0  0  0  0  0  0  0  0
    0.1881    0.1678    1.7015 C   0  0  0  0  0  0  0  0  0  0  0  0
    1.3379    0.0002    2.1133 O   0  0  0  0  0  0  0  0  0  0  0  0
   -0.7666    0.7145    2.4656 N   0  0  0  0  0  0  0  0  0  0  0  0
   -1.6971    0.7705    2.0790 H   0  0  0  0  0  0  0  0  0  0  0  0
   -0.5716    1.1232    3.8542 C   0  0  0  0  0  0  0  0  0  0  0  0
    0.3083    1.7643    3.9293 H   0  0  0  0  0  0  0  0  0  0  0  0
   -1.4485    1.6640    4.2131 H   0  0  0  0  0  0  0  0  0  0  0  0
   -0.4137    0.2381    4.4736 H   0  0  0  0  0  0  0  0  0  0  0  0
  5  6  2  0  0  0  0
  5  7  1  0  0  0  0
  2  3  1  0  0  0  0
  2  4  1  0  0  0  0
  2  5  1  0  0  0  0
  1  2  1  0  0  0  0
 20 21  2  0  0  0  0
 20 22  1  0  0  0  0
 17 18  1  0  0  0  0
 17 19  2  0  0  0  0
 14 15  1  0  0  0  0
 14 16  1  0  0  0  0
 14 17  1  0  0  0  0
 11 12  1  0  0  0  0
 11 13  1  0  0  0  0
 11 14  1  0  0  0  0
  9 10  1  0  0  0  0
  9 11  1  0  0  0  0
  9 20  1  0  0  0  0
  7  8  1  0  0  0  0
  7  9  1  0  0  0  0
 24 25  1  0  0  0  0
 24 26  1  0  0  0  0
 24 27  1  0  0  0  0
 22 23  1  0  0  0  0
 22 24  1  0  0  0  0
M  CHG  1  18  -1
M  END
$$$$
default_name
  -OEChem-02102213163D

 27 26  0     1  0  0  0  0  0999 V2000
   -3.2406   -3.5400    1.2326 H   0  0  0  0  0  0  0  0  0  0  0  0
   -3.1436   -2.6190    0.6606 C   0  0  0  0  0  0  0  0  0  0  0  0
   -3.8786   -1.8920    0.9996 H   0  0  0  0  0  0  0  0  0  0  0  0
   -3.2846   -2.8280   -0.3984 H   0  0  0  0  0  0  0  0  0  0  0  0
   -1.7586   -2.0580    0.8686 C   0  0  0  0  0  0  0  0  0  0  0  0
   -0.9666   -2.6340    1.6026 O   0  0  0  0  0  0  0  0  0  0  0  0
   -1.4866   -0.9220    0.2366 N   0  0  0  0  0  0  0  0  0  0  0  0
   -2.2166   -0.4790   -0.2994 H   0  0  0  0  0  0  0  0  0  0  0  0
   -0.1956   -0.2250    0.2596 C   0  0  1  0  0  0  0  0  0  0  0  0
    0.5755   -0.9013   -0.1105 H   0  0  0  0  0  0  0  0  0  0  0  0
   -0.2553    0.9811   -0.6992 C   0  0  0  0  0  0  0  0  0  0  0  0
    0.3082    0.7247   -1.5976 H   0  0  0  0  0  0  0  0  0  0  0  0
   -1.2926    1.1641   -0.9835 H   0  0  0  0  0  0  0  0  0  0  0  0
    0.3386    2.2680   -0.1019 C   0  0  0  0  0  0  0  0  0  0  0  0
   -0.4457    2.8086    0.4333 H   0  0  0  0  0  0  0  0  0  0  0  0
    1.1082    1.9868    0.6219 H   0  0  0  0  0  0  0  0  0  0  0  0
    0.9512    3.2033   -1.1548 C   0  0  0  0  0  0  0  0  0  0  0  0
    1.0354    2.7951   -2.3350 O   0  5  0  0  0  0  0  0  0  0  0  0
    1.3074    4.3358   -0.7599 O   0  0  0  0  0  0  0  0  0  0  0  0
    0.1881    0.1678    1.7015 C   0  0  0  0  0  0  0  0  0  0  0  0
    1.3379    0.0002    2.1133 O   0  0  0  0  0  0  0  0  0  0  0  0
   -0.7666    0.7145    2.4656 N   0  0  0  0  0  0  0  0  0  0  0  0
   -1.6971    0.7705    2.0790 H   0  0  0  0  0  0  0  0  0  0  0  0
   -0.5716    1.1232    3.8542 C   0  0  0  0  0  0  0  0  0  0  0  0
    0.3083    1.7643    3.9293 H   0  0  0  0  0  0  0  0  0  0  0  0
   -1.4485    1.6640    4.2131 H   0  0  0  0  0  0  0  0  0  0  0  0
   -0.4137    0.2381    4.4736 H   0  0  0  0  0  0  0  0  0  0  0  0
  5  6  2  0  0  0  0
  5  7  1  0  0  0  0
  2  3  1  0  0  0  0
  2  4  1  0  0  0  0
  2  5  1  0  0  0  0
  1  2  1  0  0  0  0
 20 21  2  0  0  0  0
 20 22  1  0  0  0  0
 17 18  1  0  0  0  0
 17 19  2  0  0  0  0
 14 15  1  0  0  0  0
 14 16  1  0  0  0  0
 14 17  1  0  0  0  0
 11 12  1  0  0  0  0
 11 13  1  0  0  0  0
 11 14  1  0  0  0  0
  9 10  1  0  0  0  0
  9 11  1  0  0  0  0
  9 20  1  0  0  0  0
  7  8  1  0  0  0  0
  7  9  1  0  0  0  0
 24 25  1  0  0  0  0
 24 26  1  0  0  0  0
 24 27  1  0  0  0  0
 22 23  1  0  0  0  0
 22 24  1  0  0  0  0
M  CHG  1  18  -1
M  END
$$$$
default_name
  -OEChem-02102213163D

 27 26  0     1  0  0  0  0  0999 V2000
   -3.2406   -3.5400    1.2326 H   0  0  0  0  0  0  0  0  0  0  0  0
   -3.1436   -2.6190    0.6606 C   0  0  0  0  0  0  0  0  0  0  0  0
   -3.8786   -1.8920    0.9996 H   0  0  0  0  0  0  0  0  0  0  0  0
   -3.2846   -2.8280   -0.3984 H   0  0  0  0  0  0  0  0  0  0  0  0
   -1.7586   -2.0580    0.8686 C   0  0  0  0  0  0  0  0  0  0  0  0
   -0.9666   -2.6340    1.6026 O   0  0  0  0  0  0  0  0  0  0  0  0
   -1.4866   -0.9220    0.2366 N   0  0  0  0  0  0  0  0  0  0  0  0
   -2.2166   -0.4790   -0.2994 H   0  0  0  0  0  0  0  0  0  0  0  0
   -0.1956   -0.2250    0.2596 C   0  0  1  0  0  0  0  0  0  0  0  0
    0.5755   -0.9013   -0.1105 H   0  0  0  0  0  0  0  0  0  0  0  0
   -0.2553    0.9811   -0.6992 C   0  0  0  0  0  0  0  0  0  0  0  0
    0.3082    0.7247   -1.5976 H   0  0  0  0  0  0  0  0  0  0  0  0
   -1.2926    1.1641   -0.9835 H   0  0  0  0  0  0  0  0  0  0  0  0
    0.3386    2.2680   -0.1019 C   0  0  0  0  0  0  0  0  0  0  0  0
   -0.3527    2.6680    0.6437 H   0  0  0  0  0  0  0  0  0  0  0  0
    1.2715    2.0112    0.4070 H   0  0  0  0  0  0  0  0  0  0  0  0
    0.6164    3.3557   -1.1500 C   0  0  0  0  0  0  0  0  0  0  0  0
    0.4730    3.0659   -2.3592 O   0  5  0  0  0  0  0  0  0  0  0  0
    0.9483    4.4812   -0.7161 O   0  0  0  0  0  0  0  0  0  0  0  0
    0.1881    0.1678    1.7015 C   0  0  0  0  0  0  0  0  0  0  0  0
    1.3379    0.0002    2.1133 O   0  0  0  0  0  0  0  0  0  0  0  0
   -0.7666    0.7145    2.4656 N   0  0  0  0  0  0  0  0  0  0  0  0
   -1.6971    0.7705    2.0790 H   0  0  0  0  0  0  0  0  0  0  0  0
   -0.5716    1.1232    3.8542 C   0  0  0  0  0  0  0  0  0  0  0  0
    0.3083    1.7643    3.9293 H   0  0  0  0  0  0  0  0  0  0  0  0
   -1.4485    1.6640    4.2131 H   0  0  0  0  0  0  0  0  0  0  0  0
   -0.4137    0.2381    4.4736 H   0  0  0  0  0  0  0  0  0  0  0  0
  5  6  2  0  0  0  0
  5  7  1  0  0  0  0
  2  3  1  0  0  0  0
  2  4  1  0  0  0  0
  2  5  1  0  0  0  0
  1  2  1  0  0  0  0
 20 21  2  0  0  0  0
 20 22  1  0  0  0  0
 17 18  1  0  0  0  0
 17 19  2  0  0  0  0
 14 15  1  0  0  0  0
 14 16  1  0  0  0  0
 14 17  1  0  0  0  0
 11 12  1  0  0  0  0
 11 13  1  0  0  0  0
 11 14  1  0  0  0  0
  9 10  1  0  0  0  0
  9 11  1  0  0  0  0
  9 20  1  0  0  0  0
  7  8  1  0  0  0  0
  7  9  1  0  0  0  0
 24 25  1  0  0  0  0
 24 26  1  0  0  0  0
 24 27  1  0  0  0  0
 22 23  1  0  0  0  0
 22 24  1  0  0  0  0
M  CHG  1  18  -1
M  END
$$$$
default_name
  -OEChem-02102213163D

 27 26  0     1  0  0  0  0  0999 V2000
   -3.2406   -3.5400    1.2326 H   0  0  0  0  0  0  0  0  0  0  0  0
   -3.1436   -2.6190    0.6606 C   0  0  0  0  0  0  0  0  0  0  0  0
   -3.8786   -1.8920    0.9996 H   0  0  0  0  0  0  0  0  0  0  0  0
   -3.2846   -2.8280   -0.3984 H   0  0  0  0  0  0  0  0  0  0  0  0
   -1.7586   -2.0580    0.8686 C   0  0  0  0  0  0  0  0  0  0  0  0
   -0.9666   -2.6340    1.6026 O   0  0  0  0  0  0  0  0  0  0  0  0
   -1.4866   -0.9220    0.2366 N   0  0  0  0  0  0  0  0  0  0  0  0
   -2.2166   -0.4790   -0.2994 H   0  0  0  0  0  0  0  0  0  0  0  0
   -0.1956   -0.2250    0.2596 C   0  0  1  0  0  0  0  0  0  0  0  0
    0.5755   -0.9013   -0.1105 H   0  0  0  0  0  0  0  0  0  0  0  0
   -0.2553    0.9811   -0.6992 C   0  0  0  0  0  0  0  0  0  0  0  0
    0.0654    0.6427   -1.6856 H   0  0  0  0  0  0  0  0  0  0  0  0
   -1.2858    1.3316   -0.7733 H   0  0  0  0  0  0  0  0  0  0  0  0
    0.6456    2.1508   -0.2683 C   0  0  0  0  0  0  0  0  0  0  0  0
    0.3485    2.4818    0.7297 H   0  0  0  0  0  0  0  0  0  0  0  0
    1.6751    1.7876   -0.2104 H   0  0  0  0  0  0  0  0  0  0  0  0
    0.5853    3.3517   -1.2240 C   0  0  0  0  0  0  0  0  0  0  0  0
   -0.0533    3.2283   -2.2934 O   0  5  0  0  0  0  0  0  0  0  0  0
    1.1670    4.3948   -0.8515 O   0  0  0  0  0  0  0  0  0  0  0  0
    0.1881    0.1678    1.7015 C   0  0  0  0  0  0  0  0  0  0  0  0
    1.3379    0.0002    2.1133 O   0  0  0  0  0  0  0  0  0  0  0  0
   -0.7666    0.7145    2.4656 N   0  0  0  0  0  0  0  0  0  0  0  0
   -1.6971    0.7705    2.0790 H   0  0  0  0  0  0  0  0  0  0  0  0
   -0.5716    1.1232    3.8542 C   0  0  0  0  0  0  0  0  0  0  0  0
    0.3083    1.7643    3.9293 H   0  0  0  0  0  0  0  0  0  0  0  0
   -1.4485    1.6640    4.2131 H   0  0  0  0  0  0  0  0  0  0  0  0
   -0.4137    0.2381    4.4736 H   0  0  0  0  0  0  0  0  0  0  0  0
  5  6  2  0  0  0  0
  5  7  1  0  0  0  0
  2  3  1  0  0  0  0
  2  4  1  0  0  0  0
  2  5  1  0  0  0  0
  1  2  1  0  0  0  0
 20 21  2  0  0  0  0
 20 22  1  0  0  0  0
 17 18  1  0  0  0  0
 17 19  2  0  0  0  0
 14 15  1  0  0  0  0
 14 16  1  0  0  0  0
 14 17  1  0  0  0  0
 11 12  1  0  0  0  0
 11 13  1  0  0  0  0
 11 14  1  0  0  0  0
  9 10  1  0  0  0  0
  9 11  1  0  0  0  0
  9 20  1  0  0  0  0
  7  8  1  0  0  0  0
  7  9  1  0  0  0  0
 24 25  1  0  0  0  0
 24 26  1  0  0  0  0
 24 27  1  0  0  0  0
 22 23  1  0  0  0  0
 22 24  1  0  0  0  0
M  CHG  1  18  -1
M  END
$$$$
default_name
  -OEChem-02102213163D

 27 26  0     1  0  0  0  0  0999 V2000
   -3.2406   -3.5400    1.2326 H   0  0  0  0  0  0  0  0  0  0  0  0
   -3.1436   -2.6190    0.6606 C   0  0  0  0  0  0  0  0  0  0  0  0
   -3.8786   -1.8920    0.9996 H   0  0  0  0  0  0  0  0  0  0  0  0
   -3.2846   -2.8280   -0.3984 H   0  0  0  0  0  0  0  0  0  0  0  0
   -1.7586   -2.0580    0.8686 C   0  0  0  0  0  0  0  0  0  0  0  0
   -0.9666   -2.6340    1.6026 O   0  0  0  0  0  0  0  0  0  0  0  0
   -1.4866   -0.9220    0.2366 N   0  0  0  0  0  0  0  0  0  0  0  0
   -2.2166   -0.4790   -0.2994 H   0  0  0  0  0  0  0  0  0  0  0  0
   -0.1956   -0.2250    0.2596 C   0  0  1  0  0  0  0  0  0  0  0  0
    0.5755   -0.9013   -0.1105 H   0  0  0  0  0  0  0  0  0  0  0  0
   -0.2553    0.9811   -0.6992 C   0  0  0  0  0  0  0  0  0  0  0  0
    0.0654    0.6427   -1.6856 H   0  0  0  0  0  0  0  0  0  0  0  0
   -1.2858    1.3316   -0.7733 H   0  0  0  0  0  0  0  0  0  0  0  0
    0.6456    2.1508   -0.2683 C   0  0  0  0  0  0  0  0  0  0  0  0
    0.5382    2.3070    0.8078 H   0  0  0  0  0  0  0  0  0  0  0  0
    1.6846    1.8747   -0.4668 H   0  0  0  0  0  0  0  0  0  0  0  0
    0.3244    3.4671   -0.9917 C   0  0  0  0  0  0  0  0  0  0  0  0
   -0.5093    3.4439   -1.9249 O   0  5  0  0  0  0  0  0  0  0  0  0
    0.9086    4.4925   -0.5764 O   0  0  0  0  0  0  0  0  0  0  0  0
    0.1881    0.1678    1.7015 C   0  0  0  0  0  0  0  0  0  0  0  0
    1.3379    0.0002    2.1133 O   0  0  0  0  0  0  0  0  0  0  0  0
   -0.7666    0.7145    2.4656 N   0  0  0  0  0  0  0  0  0  0  0  0
   -1.6971    0.7705    2.0790 H   0  0  0  0  0  0  0  0  0  0  0  0
   -0.5716    1.1232    3.8542 C   0  0  0  0  0  0  0  0  0  0  0  0
    0.3083    1.7643    3.9293 H   0  0  0  0  0  0  0  0  0  0  0  0
   -1.4485    1.6640    4.2131 H   0  0  0  0  0  0  0  0  0  0  0  0
   -0.4137    0.2381    4.4736 H   0  0  0  0  0  0  0  0  0  0  0  0
  5  6  2  0  0  0  0
  5  7  1  0  0  0  0
  2  3  1  0  0  0  0
  2  4  1  0  0  0  0
  2  5  1  0  0  0  0
  1  2  1  0  0  0  0
 20 21  2  0  0  0  0
 20 22  1  0  0  0  0
 17 18  1  0  0  0  0
 17 19  2  0  0  0  0
 14 15  1  0  0  0  0
 14 16  1  0  0  0  0
 14 17  1  0  0  0  0
 11 12  1  0  0  0  0
 11 13  1  0  0  0  0
 11 14  1  0  0  0  0
  9 10  1  0  0  0  0
  9 11  1  0  0  0  0
  9 20  1  0  0  0  0
  7  8  1  0  0  0  0
  7  9  1  0  0  0  0
 24 25  1  0  0  0  0
 24 26  1  0  0  0  0
 24 27  1  0  0  0  0
 22 23  1  0  0  0  0
 22 24  1  0  0  0  0
M  CHG  1  18  -1
M  END
$$$$
default_name
  -OEChem-02102213163D

 27 26  0     1  0  0  0  0  0999 V2000
   -3.2406   -3.5400    1.2326 H   0  0  0  0  0  0  0  0  0  0  0  0
   -3.1436   -2.6190    0.6606 C   0  0  0  0  0  0  0  0  0  0  0  0
   -3.8786   -1.8920    0.9996 H   0  0  0  0  0  0  0  0  0  0  0  0
   -3.2846   -2.8280   -0.3984 H   0  0  0  0  0  0  0  0  0  0  0  0
   -1.7586   -2.0580    0.8686 C   0  0  0  0  0  0  0  0  0  0  0  0
   -0.9666   -2.6340    1.6026 O   0  0  0  0  0  0  0  0  0  0  0  0
   -1.4866   -0.9220    0.2366 N   0  0  0  0  0  0  0  0  0  0  0  0
   -2.2166   -0.4790   -0.2994 H   0  0  0  0  0  0  0  0  0  0  0  0
   -0.1956   -0.2250    0.2596 C   0  0  1  0  0  0  0  0  0  0  0  0
    0.5755   -0.9013   -0.1105 H   0  0  0  0  0  0  0  0  0  0  0  0
   -0.2553    0.9811   -0.6992 C   0  0  0  0  0  0  0  0  0  0  0  0
    0.0654    0.6427   -1.6856 H   0  0  0  0  0  0  0  0  0  0  0  0
   -1.2858    1.3316   -0.7733 H   0  0  0  0  0  0  0  0  0  0  0  0
    0.6456    2.1508   -0.2683 C   0  0  0  0  0  0  0  0  0  0  0  0
    0.7495    2.1400    0.8193 H   0  0  0  0  0  0  0  0  0  0  0  0
    1.6370    1.9984   -0.7031 H   0  0  0  0  0  0  0  0  0  0  0  0
    0.1097    3.5244   -0.6984 C   0  0  0  0  0  0  0  0  0  0  0  0
   -0.8929    3.5632   -1.4466 O   0  5  0  0  0  0  0  0  0  0  0  0
    0.7062    4.5264   -0.2450 O   0  0  0  0  0  0  0  0  0  0  0  0
    0.1881    0.1678    1.7015 C   0  0  0  0  0  0  0  0  0  0  0  0
    1.3379    0.0002    2.1133 O   0  0  0  0  0  0  0  0  0  0  0  0
   -0.7666    0.7145    2.4656 N   0  0  0  0  0  0  0  0  0  0  0  0
   -1.6971    0.7705    2.0790 H   0  0  0  0  0  0  0  0  0  0  0  0
   -0.5716    1.1232    3.8542 C   0  0  0  0  0  0  0  0  0  0  0  0
    0.3083    1.7643    3.9293 H   0  0  0  0  0  0  0  0  0  0  0  0
   -1.4485    1.6640    4.2131 H   0  0  0  0  0  0  0  0  0  0  0  0
   -0.4137    0.2381    4.4736 H   0  0  0  0  0  0  0  0  0  0  0  0
  5  6  2  0  0  0  0
  5  7  1  0  0  0  0
  2  3  1  0  0  0  0
  2  4  1  0  0  0  0
  2  5  1  0  0  0  0
  1  2  1  0  0  0  0
 20 21  2  0  0  0  0
 20 22  1  0  0  0  0
 17 18  1  0  0  0  0
 17 19  2  0  0  0  0
 14 15  1  0  0  0  0
 14 16  1  0  0  0  0
 14 17  1  0  0  0  0
 11 12  1  0  0  0  0
 11 13  1  0  0  0  0
 11 14  1  0  0  0  0
  9 10  1  0  0  0  0
  9 11  1  0  0  0  0
  9 20  1  0  0  0  0
  7  8  1  0  0  0  0
  7  9  1  0  0  0  0
 24 25  1  0  0  0  0
 24 26  1  0  0  0  0
 24 27  1  0  0  0  0
 22 23  1  0  0  0  0
 22 24  1  0  0  0  0
M  CHG  1  18  -1
M  END
$$$$
default_name
  -OEChem-02102213163D

 27 26  0     1  0  0  0  0  0999 V2000
   -3.2406   -3.5400    1.2326 H   0  0  0  0  0  0  0  0  0  0  0  0
   -3.1436   -2.6190    0.6606 C   0  0  0  0  0  0  0  0  0  0  0  0
   -3.8786   -1.8920    0.9996 H   0  0  0  0  0  0  0  0  0  0  0  0
   -3.2846   -2.8280   -0.3984 H   0  0  0  0  0  0  0  0  0  0  0  0
   -1.7586   -2.0580    0.8686 C   0  0  0  0  0  0  0  0  0  0  0  0
   -0.9666   -2.6340    1.6026 O   0  0  0  0  0  0  0  0  0  0  0  0
   -1.4866   -0.9220    0.2366 N   0  0  0  0  0  0  0  0  0  0  0  0
   -2.2166   -0.4790   -0.2994 H   0  0  0  0  0  0  0  0  0  0  0  0
   -0.1956   -0.2250    0.2596 C   0  0  1  0  0  0  0  0  0  0  0  0
    0.5755   -0.9013   -0.1105 H   0  0  0  0  0  0  0  0  0  0  0  0
   -0.2553    0.9811   -0.6992 C   0  0  0  0  0  0  0  0  0  0  0  0
    0.0654    0.6427   -1.6856 H   0  0  0  0  0  0  0  0  0  0  0  0
   -1.2858    1.3316   -0.7733 H   0  0  0  0  0  0  0  0  0  0  0  0
    0.6456    2.1508   -0.2683 C   0  0  0  0  0  0  0  0  0  0  0  0
    0.9680    1.9922    0.7636 H   0  0  0  0  0  0  0  0  0  0  0  0
    1.5355    2.1503   -0.9033 H   0  0  0  0  0  0  0  0  0  0  0  0
   -0.0441    3.5198   -0.3642 C   0  0  0  0  0  0  0  0  0  0  0  0
   -1.1780    3.5781   -0.8910 O   0  5  0  0  0  0  0  0  0  0  0  0
    0.5733    4.4942    0.1201 O   0  0  0  0  0  0  0  0  0  0  0  0
    0.1881    0.1678    1.7015 C   0  0  0  0  0  0  0  0  0  0  0  0
    1.3379    0.0002    2.1133 O   0  0  0  0  0  0  0  0  0  0  0  0
   -0.7666    0.7145    2.4656 N   0  0  0  0  0  0  0  0  0  0  0  0
   -1.6971    0.7705    2.0790 H   0  0  0  0  0  0  0  0  0  0  0  0
   -0.5716    1.1232    3.8542 C   0  0  0  0  0  0  0  0  0  0  0  0
    0.3083    1.7643    3.9293 H   0  0  0  0  0  0  0  0  0  0  0  0
   -1.4485    1.6640    4.2131 H   0  0  0  0  0  0  0  0  0  0  0  0
   -0.4137    0.2381    4.4736 H   0  0  0  0  0  0  0  0  0  0  0  0
  5  6  2  0  0  0  0
  5  7  1  0  0  0  0
  2  3  1  0  0  0  0
  2  4  1  0  0  0  0
  2  5  1  0  0  0  0
  1  2  1  0  0  0  0
 20 21  2  0  0  0  0
 20 22  1  0  0  0  0
 17 18  1  0  0  0  0
 17 19  2  0  0  0  0
 14 15  1  0  0  0  0
 14 16  1  0  0  0  0
 14 17  1  0  0  0  0
 11 12  1  0  0  0  0
 11 13  1  0  0  0  0
 11 14  1  0  0  0  0
  9 10  1  0  0  0  0
  9 11  1  0  0  0  0
  9 20  1  0  0  0  0
  7  8  1  0  0  0  0
  7  9  1  0  0  0  0
 24 25  1  0  0  0  0
 24 26  1  0  0  0  0
 24 27  1  0  0  0  0
 22 23  1  0  0  0  0
 22 24  1  0  0  0  0
M  CHG  1  18  -1
M  END
$$$$
default_name
  -OEChem-02102213163D

 27 26  0     1  0  0  0  0  0999 V2000
   -3.2406   -3.5400    1.2326 H   0  0  0  0  0  0  0  0  0  0  0  0
   -3.1436   -2.6190    0.6606 C   0  0  0  0  0  0  0  0  0  0  0  0
   -3.8786   -1.8920    0.9996 H   0  0  0  0  0  0  0  0  0  0  0  0
   -3.2846   -2.8280   -0.3984 H   0  0  0  0  0  0  0  0  0  0  0  0
   -1.7586   -2.0580    0.8686 C   0  0  0  0  0  0  0  0  0  0  0  0
   -0.9666   -2.6340    1.6026 O   0  0  0  0  0  0  0  0  0  0  0  0
   -1.4866   -0.9220    0.2366 N   0  0  0  0  0  0  0  0  0  0  0  0
   -2.2166   -0.4790   -0.2994 H   0  0  0  0  0  0  0  0  0  0  0  0
   -0.1956   -0.2250    0.2596 C   0  0  1  0  0  0  0  0  0  0  0  0
    0.5755   -0.9013   -0.1105 H   0  0  0  0  0  0  0  0  0  0  0  0
   -0.2553    0.9811   -0.6992 C   0  0  0  0  0  0  0  0  0  0  0  0
    0.0654    0.6427   -1.6856 H   0  0  0  0  0  0  0  0  0  0  0  0
   -1.2858    1.3316   -0.7733 H   0  0  0  0  0  0  0  0  0  0  0  0
    0.6456    2.1508   -0.2683 C   0  0  0  0  0  0  0  0  0  0  0  0
    1.1787    1.8738    0.6443 H   0  0  0  0  0  0  0  0  0  0  0  0
    1.3871    2.3200   -1.0536 H   0  0  0  0  0  0  0  0  0  0  0  0
   -0.1266    3.4535   -0.0118 C   0  0  0  0  0  0  0  0  0  0  0  0
   -1.3450    3.4876   -0.2960 O   0  5  0  0  0  0  0  0  0  0  0  0
    0.5193    4.3981    0.4940 O   0  0  0  0  0  0  0  0  0  0  0  0
    0.1881    0.1678    1.7015 C   0  0  0  0  0  0  0  0  0  0  0  0
    1.3379    0.0002    2.1133 O   0  0  0  0  0  0  0  0  0  0  0  0
   -0.7666    0.7145    2.4656 N   0  0  0  0  0  0  0  0  0  0  0  0
   -1.6971    0.7705    2.0790 H   0  0  0  0  0  0  0  0  0  0  0  0
   -0.5716    1.1232    3.8542 C   0  0  0  0  0  0  0  0  0  0  0  0
    0.3083    1.7643    3.9293 H   0  0  0  0  0  0  0  0  0  0  0  0
   -1.4485    1.6640    4.2131 H   0  0  0  0  0  0  0  0  0  0  0  0
   -0.4137    0.2381    4.4736 H   0  0  0  0  0  0  0  0  0  0  0  0
  5  6  2  0  0  0  0
  5  7  1  0  0  0  0
  2  3  1  0  0  0  0
  2  4  1  0  0  0  0
  2  5  1  0  0  0  0
  1  2  1  0  0  0  0
 20 21  2  0  0  0  0
 20 22  1  0  0  0  0
 17 18  1  0  0  0  0
 17 19  2  0  0  0  0
 14 15  1  0  0  0  0
 14 16  1  0  0  0  0
 14 17  1  0  0  0  0
 11 12  1  0  0  0  0
 11 13  1  0  0  0  0
 11 14  1  0  0  0  0
  9 10  1  0  0  0  0
  9 11  1  0  0  0  0
  9 20  1  0  0  0  0
  7  8  1  0  0  0  0
  7  9  1  0  0  0  0
 24 25  1  0  0  0  0
 24 26  1  0  0  0  0
 24 27  1  0  0  0  0
 22 23  1  0  0  0  0
 22 24  1  0  0  0  0
M  CHG  1  18  -1
M  END
$$$$
default_name
  -OEChem-02102213163D

 27 26  0     1  0  0  0  0  0999 V2000
   -3.2406   -3.5400    1.2326 H   0  0  0  0  0  0  0  0  0  0  0  0
   -3.1436   -2.6190    0.6606 C   0  0  0  0  0  0  0  0  0  0  0  0
   -3.8786   -1.8920    0.9996 H   0  0  0  0  0  0  0  0  0  0  0  0
   -3.2846   -2.8280   -0.3984 H   0  0  0  0  0  0  0  0  0  0  0  0
   -1.7586   -2.0580    0.8686 C   0  0  0  0  0  0  0  0  0  0  0  0
   -0.9666   -2.6340    1.6026 O   0  0  0  0  0  0  0  0  0  0  0  0
   -1.4866   -0.9220    0.2366 N   0  0  0  0  0  0  0  0  0  0  0  0
   -2.2166   -0.4790   -0.2994 H   0  0  0  0  0  0  0  0  0  0  0  0
   -0.1956   -0.2250    0.2596 C   0  0  1  0  0  0  0  0  0  0  0  0
    0.5755   -0.9013   -0.1105 H   0  0  0  0  0  0  0  0  0  0  0  0
   -0.2553    0.9811   -0.6992 C   0  0  0  0  0  0  0  0  0  0  0  0
    0.0654    0.6427   -1.6856 H   0  0  0  0  0  0  0  0  0  0  0  0
   -1.2858    1.3316   -0.7733 H   0  0  0  0  0  0  0  0  0  0  0  0
    0.6456    2.1508   -0.2683 C   0  0  0  0  0  0  0  0  0  0  0  0
    1.3674    1.7928    0.4697 H   0  0  0  0  0  0  0  0  0  0  0  0
    1.2018    2.4959   -1.1439 H   0  0  0  0  0  0  0  0  0  0  0  0
   -0.1320    3.3300    0.3347 C   0  0  0  0  0  0  0  0  0  0  0  0
   -1.3827    3.2978    0.2980 O   0  5  0  0  0  0  0  0  0  0  0  0
    0.5476    4.2447    0.8512 O   0  0  0  0  0  0  0  0  0  0  0  0
    0.1881    0.1678    1.7015 C   0  0  0  0  0  0  0  0  0  0  0  0
    1.3379    0.0002    2.1133 O   0  0  0  0  0  0  0  0  0  0  0  0
   -0.7666    0.7145    2.4656 N   0  0  0  0  0  0  0  0  0  0  0  0
   -1.6971    0.7705    2.0790 H   0  0  0  0  0  0  0  0  0  0  0  0
   -0.5716    1.1232    3.8542 C   0  0  0  0  0  0  0  0  0  0  0  0
    0.3083    1.7643    3.9293 H   0  0  0  0  0  0  0  0  0  0  0  0
   -1.4485    1.6640    4.2131 H   0  0  0  0  0  0  0  0  0  0  0  0
   -0.4137    0.2381    4.4736 H   0  0  0  0  0  0  0  0  0  0  0  0
  5  6  2  0  0  0  0
  5  7  1  0  0  0  0
  2  3  1  0  0  0  0
  2  4  1  0  0  0  0
  2  5  1  0  0  0  0
  1  2  1  0  0  0  0
 20 21  2  0  0  0  0
 20 22  1  0  0  0  0
 17 18  1  0  0  0  0
 17 19  2  0  0  0  0
 14 15  1  0  0  0  0
 14 16  1  0  0  0  0
 14 17  1  0  0  0  0
 11 12  1  0  0  0  0
 11 13  1  0  0  0  0
 11 14  1  0  0  0  0
  9 10  1  0  0  0  0
  9 11  1  0  0  0  0
  9 20  1  0  0  0  0
  7  8  1  0  0  0  0
  7  9  1  0  0  0  0
 24 25  1  0  0  0  0
 24 26  1  0  0  0  0
 24 27  1  0  0  0  0
 22 23  1  0  0  0  0
 22 24  1  0  0  0  0
M  CHG  1  18  -1
M  END
$$$$
default_name
  -OEChem-02102213163D

 27 26  0     1  0  0  0  0  0999 V2000
   -3.2406   -3.5400    1.2326 H   0  0  0  0  0  0  0  0  0  0  0  0
   -3.1436   -2.6190    0.6606 C   0  0  0  0  0  0  0  0  0  0  0  0
   -3.8786   -1.8920    0.9996 H   0  0  0  0  0  0  0  0  0  0  0  0
   -3.2846   -2.8280   -0.3984 H   0  0  0  0  0  0  0  0  0  0  0  0
   -1.7586   -2.0580    0.8686 C   0  0  0  0  0  0  0  0  0  0  0  0
   -0.9666   -2.6340    1.6026 O   0  0  0  0  0  0  0  0  0  0  0  0
   -1.4866   -0.9220    0.2366 N   0  0  0  0  0  0  0  0  0  0  0  0
   -2.2166   -0.4790   -0.2994 H   0  0  0  0  0  0  0  0  0  0  0  0
   -0.1956   -0.2250    0.2596 C   0  0  1  0  0  0  0  0  0  0  0  0
    0.5755   -0.9013   -0.1105 H   0  0  0  0  0  0  0  0  0  0  0  0
   -0.2553    0.9811   -0.6992 C   0  0  0  0  0  0  0  0  0  0  0  0
    0.0654    0.6427   -1.6856 H   0  0  0  0  0  0  0  0  0  0  0  0
   -1.2858    1.3316   -0.7733 H   0  0  0  0  0  0  0  0  0  0  0  0
    0.6456    2.1508   -0.2683 C   0  0  0  0  0  0  0  0  0  0  0  0
    1.5212    1.7547    0.2516 H   0  0  0  0  0  0  0  0  0  0  0  0
    0.9924    2.6661   -1.1680 H   0  0  0  0  0  0  0  0  0  0  0  0
   -0.0601    3.1579    0.6519 C   0  0  0  0  0  0  0  0  0  0  0  0
   -1.2884    3.0217    0.8503 O   0  5  0  0  0  0  0  0  0  0  0  0
    0.6564    4.0445    1.1675 O   0  0  0  0  0  0  0  0  0  0  0  0
    0.1881    0.1678    1.7015 C   0  0  0  0  0  0  0  0  0  0  0  0
    1.3379    0.0002    2.1133 O   0  0  0  0  0  0  0  0  0  0  0  0
   -0.7666    0.7145    2.4656 N   0  0  0  0  0  0  0  0  0  0  0  0
   -1.6971    0.7705    2.0790 H   0  0  0  0  0  0  0  0  0  0  0  0
   -0.5716    1.1232    3.8542 C   0  0  0  0  0  0  0  0  0  0  0  0
    0.3083    1.7643    3.9293 H   0  0  0  0  0  0  0  0  0  0  0  0
   -1.4485    1.6640    4.2131 H   0  0  0  0  0  0  0  0  0  0  0  0
   -0.4137    0.2381    4.4736 H   0  0  0  0  0  0  0  0  0  0  0  0
  5  6  2  0  0  0  0
  5  7  1  0  0  0  0
  2  3  1  0  0  0  0
  2  4  1  0  0  0  0
  2  5  1  0  0  0  0
  1  2  1  0  0  0  0
 20 21  2  0  0  0  0
 20 22  1  0  0  0  0
 17 18  1  0  0  0  0
 17 19  2  0  0  0  0
 14 15  1  0  0  0  0
 14 16  1  0  0  0  0
 14 17  1  0  0  0  0
 11 12  1  0  0  0  0
 11 13  1  0  0  0  0
 11 14  1  0  0  0  0
  9 10  1  0  0  0  0
  9 11  1  0  0  0  0
  9 20  1  0  0  0  0
  7  8  1  0  0  0  0
  7  9  1  0  0  0  0
 24 25  1  0  0  0  0
 24 26  1  0  0  0  0
 24 27  1  0  0  0  0
 22 23  1  0  0  0  0
 22 24  1  0  0  0  0
M  CHG  1  18  -1
M  END
$$$$
default_name
  -OEChem-02102213163D

 27 26  0     1  0  0  0  0  0999 V2000
   -3.2406   -3.5400    1.2326 H   0  0  0  0  0  0  0  0  0  0  0  0
   -3.1436   -2.6190    0.6606 C   0  0  0  0  0  0  0  0  0  0  0  0
   -3.8786   -1.8920    0.9996 H   0  0  0  0  0  0  0  0  0  0  0  0
   -3.2846   -2.8280   -0.3984 H   0  0  0  0  0  0  0  0  0  0  0  0
   -1.7586   -2.0580    0.8686 C   0  0  0  0  0  0  0  0  0  0  0  0
   -0.9666   -2.6340    1.6026 O   0  0  0  0  0  0  0  0  0  0  0  0
   -1.4866   -0.9220    0.2366 N   0  0  0  0  0  0  0  0  0  0  0  0
   -2.2166   -0.4790   -0.2994 H   0  0  0  0  0  0  0  0  0  0  0  0
   -0.1956   -0.2250    0.2596 C   0  0  1  0  0  0  0  0  0  0  0  0
    0.5755   -0.9013   -0.1105 H   0  0  0  0  0  0  0  0  0  0  0  0
   -0.2553    0.9811   -0.6992 C   0  0  0  0  0  0  0  0  0  0  0  0
    0.0654    0.6427   -1.6856 H   0  0  0  0  0  0  0  0  0  0  0  0
   -1.2858    1.3316   -0.7733 H   0  0  0  0  0  0  0  0  0  0  0  0
    0.6456    2.1508   -0.2683 C   0  0  0  0  0  0  0  0  0  0  0  0
    1.6296    1.7621    0.0049 H   0  0  0  0  0  0  0  0  0  0  0  0
    0.7729    2.8190   -1.1242 H   0  0  0  0  0  0  0  0  0  0  0  0
    0.0842    2.9487    0.9179 C   0  0  0  0  0  0  0  0  0  0  0  0
   -1.0686    2.6782    1.3234 O   0  5  0  0  0  0  0  0  0  0  0  0
    0.8382    3.8109    1.4212 O   0  0  0  0  0  0  0  0  0  0  0  0
    0.1881    0.1678    1.7015 C   0  0  0  0  0  0  0  0  0  0  0  0
    1.3379    0.0002    2.1133 O   0  0  0  0  0  0  0  0  0  0  0  0
   -0.7666    0.7145    2.4656 N   0  0  0  0  0  0  0  0  0  0  0  0
   -1.6971    0.7705    2.0790 H   0  0  0  0  0  0  0  0  0  0  0  0
   -0.5716    1.1232    3.8542 C   0  0  0  0  0  0  0  0  0  0  0  0
    0.3083    1.7643    3.9293 H   0  0  0  0  0  0  0  0  0  0  0  0
   -1.4485    1.6640    4.2131 H   0  0  0  0  0  0  0  0  0  0  0  0
   -0.4137    0.2381    4.4736 H   0  0  0  0  0  0  0  0  0  0  0  0
  5  6  2  0  0  0  0
  5  7  1  0  0  0  0
  2  3  1  0  0  0  0
  2  4  1  0  0  0  0
  2  5  1  0  0  0  0
  1  2  1  0  0  0  0
 20 21  2  0  0  0  0
 20 22  1  0  0  0  0
 17 18  1  0  0  0  0
 17 19  2  0  0  0  0
 14 15  1  0  0  0  0
 14 16  1  0  0  0  0
 14 17  1  0  0  0  0
 11 12  1  0  0  0  0
 11 13  1  0  0  0  0
 11 14  1  0  0  0  0
  9 10  1  0  0  0  0
  9 11  1  0  0  0  0
  9 20  1  0  0  0  0
  7  8  1  0  0  0  0
  7  9  1  0  0  0  0
 24 25  1  0  0  0  0
 24 26  1  0  0  0  0
 24 27  1  0  0  0  0
 22 23  1  0  0  0  0
 22 24  1  0  0  0  0
M  CHG  1  18  -1
M  END
$$$$
default_name
  -OEChem-02102213163D

 27 26  0     1  0  0  0  0  0999 V2000
   -3.2406   -3.5400    1.2326 H   0  0  0  0  0  0  0  0  0  0  0  0
   -3.1436   -2.6190    0.6606 C   0  0  0  0  0  0  0  0  0  0  0  0
   -3.8786   -1.8920    0.9996 H   0  0  0  0  0  0  0  0  0  0  0  0
   -3.2846   -2.8280   -0.3984 H   0  0  0  0  0  0  0  0  0  0  0  0
   -1.7586   -2.0580    0.8686 C   0  0  0  0  0  0  0  0  0  0  0  0
   -0.9666   -2.6340    1.6026 O   0  0  0  0  0  0  0  0  0  0  0  0
   -1.4866   -0.9220    0.2366 N   0  0  0  0  0  0  0  0  0  0  0  0
   -2.2166   -0.4790   -0.2994 H   0  0  0  0  0  0  0  0  0  0  0  0
   -0.1956   -0.2250    0.2596 C   0  0  1  0  0  0  0  0  0  0  0  0
    0.5755   -0.9013   -0.1105 H   0  0  0  0  0  0  0  0  0  0  0  0
   -0.2553    0.9811   -0.6992 C   0  0  0  0  0  0  0  0  0  0  0  0
    0.0654    0.6427   -1.6856 H   0  0  0  0  0  0  0  0  0  0  0  0
   -1.2858    1.3316   -0.7733 H   0  0  0  0  0  0  0  0  0  0  0  0
    0.6456    2.1508   -0.2683 C   0  0  0  0  0  0  0  0  0  0  0  0
    1.6851    1.8145   -0.2536 H   0  0  0  0  0  0  0  0  0  0  0  0
    0.5585    2.9441   -1.0155 H   0  0  0  0  0  0  0  0  0  0  0  0
    0.2912    2.7168    1.1148 C   0  0  0  0  0  0  0  0  0  0  0  0
   -0.7382    2.2905    1.6851 O   0  5  0  0  0  0  0  0  0  0  0  0
    1.0808    3.5601    1.5950 O   0  0  0  0  0  0  0  0  0  0  0  0
    0.1881    0.1678    1.7015 C   0  0  0  0  0  0  0  0  0  0  0  0
    1.3379    0.0002    2.1133 O   0  0  0  0  0  0  0  0  0  0  0  0
   -0.7666    0.7145    2.4656 N   0  0  0  0  0  0  0  0  0  0  0  0
   -1.6971    0.7705    2.0790 H   0  0  0  0  0  0  0  0  0  0  0  0
   -0.5716    1.1232    3.8542 C   0  0  0  0  0  0  0  0  0  0  0  0
    0.3083    1.7643    3.9293 H   0  0  0  0  0  0  0  0  0  0  0  0
   -1.4485    1.6640    4.2131 H   0  0  0  0  0  0  0  0  0  0  0  0
   -0.4137    0.2381    4.4736 H   0  0  0  0  0  0  0  0  0  0  0  0
  5  6  2  0  0  0  0
  5  7  1  0  0  0  0
  2  3  1  0  0  0  0
  2  4  1  0  0  0  0
  2  5  1  0  0  0  0
  1  2  1  0  0  0  0
 20 21  2  0  0  0  0
 20 22  1  0  0  0  0
 17 18  1  0  0  0  0
 17 19  2  0  0  0  0
 14 15  1  0  0  0  0
 14 16  1  0  0  0  0
 14 17  1  0  0  0  0
 11 12  1  0  0  0  0
 11 13  1  0  0  0  0
 11 14  1  0  0  0  0
  9 10  1  0  0  0  0
  9 11  1  0  0  0  0
  9 20  1  0  0  0  0
  7  8  1  0  0  0  0
  7  9  1  0  0  0  0
 24 25  1  0  0  0  0
 24 26  1  0  0  0  0
 24 27  1  0  0  0  0
 22 23  1  0  0  0  0
 22 24  1  0  0  0  0
M  CHG  1  18  -1
M  END
$$$$
default_name
  -OEChem-02102213163D

 27 26  0     1  0  0  0  0  0999 V2000
   -3.2406   -3.5400    1.2326 H   0  0  0  0  0  0  0  0  0  0  0  0
   -3.1436   -2.6190    0.6606 C   0  0  0  0  0  0  0  0  0  0  0  0
   -3.8786   -1.8920    0.9996 H   0  0  0  0  0  0  0  0  0  0  0  0
   -3.2846   -2.8280   -0.3984 H   0  0  0  0  0  0  0  0  0  0  0  0
   -1.7586   -2.0580    0.8686 C   0  0  0  0  0  0  0  0  0  0  0  0
   -0.9666   -2.6340    1.6026 O   0  0  0  0  0  0  0  0  0  0  0  0
   -1.4866   -0.9220    0.2366 N   0  0  0  0  0  0  0  0  0  0  0  0
   -2.2166   -0.4790   -0.2994 H   0  0  0  0  0  0  0  0  0  0  0  0
   -0.1956   -0.2250    0.2596 C   0  0  1  0  0  0  0  0  0  0  0  0
    0.5755   -0.9013   -0.1105 H   0  0  0  0  0  0  0  0  0  0  0  0
   -0.2553    0.9811   -0.6992 C   0  0  0  0  0  0  0  0  0  0  0  0
    0.0654    0.6427   -1.6856 H   0  0  0  0  0  0  0  0  0  0  0  0
   -1.2858    1.3316   -0.7733 H   0  0  0  0  0  0  0  0  0  0  0  0
    0.6456    2.1508   -0.2683 C   0  0  0  0  0  0  0  0  0  0  0  0
    1.6841    1.9084   -0.5063 H   0  0  0  0  0  0  0  0  0  0  0  0
    0.3638    3.0329   -0.8494 H   0  0  0  0  0  0  0  0  0  0  0  0
    0.5467    2.4779    1.2290 C   0  0  0  0  0  0  0  0  0  0  0  0
   -0.3198    1.8852    1.9106 O   0  5  0  0  0  0  0  0  0  0  0  0
    1.3674    3.3090    1.6771 O   0  0  0  0  0  0  0  0  0  0  0  0
    0.1881    0.1678    1.7015 C   0  0  0  0  0  0  0  0  0  0  0  0
    1.3379    0.0002    2.1133 O   0  0  0  0  0  0  0  0  0  0  0  0
   -0.7666    0.7145    2.4656 N   0  0  0  0  0  0  0  0  0  0  0  0
   -1.6971    0.7705    2.0790 H   0  0  0  0  0  0  0  0  0  0  0  0
   -0.5716    1.1232    3.8542 C   0  0  0  0  0  0  0  0  0  0  0  0
    0.3083    1.7643    3.9293 H   0  0  0  0  0  0  0  0  0  0  0  0
   -1.4485    1.6640    4.2131 H   0  0  0  0  0  0  0  0  0  0  0  0
   -0.4137    0.2381    4.4736 H   0  0  0  0  0  0  0  0  0  0  0  0
  5  6  2  0  0  0  0
  5  7  1  0  0  0  0
  2  3  1  0  0  0  0
  2  4  1  0  0  0  0
  2  5  1  0  0  0  0
  1  2  1  0  0  0  0
 20 21  2  0  0  0  0
 20 22  1  0  0  0  0
 17 18  1  0  0  0  0
 17 19  2  0  0  0  0
 14 15  1  0  0  0  0
 14 16  1  0  0  0  0
 14 17  1  0  0  0  0
 11 12  1  0  0  0  0
 11 13  1  0  0  0  0
 11 14  1  0  0  0  0
  9 10  1  0  0  0  0
  9 11  1  0  0  0  0
  9 20  1  0  0  0  0
  7  8  1  0  0  0  0
  7  9  1  0  0  0  0
 24 25  1  0  0  0  0
 24 26  1  0  0  0  0
 24 27  1  0  0  0  0
 22 23  1  0  0  0  0
 22 24  1  0  0  0  0
M  CHG  1  18  -1
M  END
$$$$
default_name
  -OEChem-02102213163D

 27 26  0     1  0  0  0  0  0999 V2000
   -3.2406   -3.5400    1.2326 H   0  0  0  0  0  0  0  0  0  0  0  0
   -3.1436   -2.6190    0.6606 C   0  0  0  0  0  0  0  0  0  0  0  0
   -3.8786   -1.8920    0.9996 H   0  0  0  0  0  0  0  0  0  0  0  0
   -3.2846   -2.8280   -0.3984 H   0  0  0  0  0  0  0  0  0  0  0  0
   -1.7586   -2.0580    0.8686 C   0  0  0  0  0  0  0  0  0  0  0  0
   -0.9666   -2.6340    1.6026 O   0  0  0  0  0  0  0  0  0  0  0  0
   -1.4866   -0.9220    0.2366 N   0  0  0  0  0  0  0  0  0  0  0  0
   -2.2166   -0.4790   -0.2994 H   0  0  0  0  0  0  0  0  0  0  0  0
   -0.1956   -0.2250    0.2596 C   0  0  1  0  0  0  0  0  0  0  0  0
    0.5755   -0.9013   -0.1105 H   0  0  0  0  0  0  0  0  0  0  0  0
   -0.2553    0.9811   -0.6992 C   0  0  0  0  0  0  0  0  0  0  0  0
    0.0654    0.6427   -1.6856 H   0  0  0  0  0  0  0  0  0  0  0  0
   -1.2858    1.3316   -0.7733 H   0  0  0  0  0  0  0  0  0  0  0  0
    0.6456    2.1508   -0.2683 C   0  0  0  0  0  0  0  0  0  0  0  0
    1.6266    2.0373   -0.7360 H   0  0  0  0  0  0  0  0  0  0  0  0
    0.2019    3.0794   -0.6371 H   0  0  0  0  0  0  0  0  0  0  0  0
    0.8332    2.2484    1.2529 C   0  0  0  0  0  0  0  0  0  0  0  0
    0.1581    1.4899    1.9846 O   0  5  0  0  0  0  0  0  0  0  0  0
    1.6787    3.0749    1.6620 O   0  0  0  0  0  0  0  0  0  0  0  0
    0.1881    0.1678    1.7015 C   0  0  0  0  0  0  0  0  0  0  0  0
    1.3379    0.0002    2.1133 O   0  0  0  0  0  0  0  0  0  0  0  0
   -0.7666    0.7145    2.4656 N   0  0  0  0  0  0  0  0  0  0  0  0
   -1.6971    0.7705    2.0790 H   0  0  0  0  0  0  0  0  0  0  0  0
   -0.5716    1.1232    3.8542 C   0  0  0  0  0  0  0  0  0  0  0  0
    0.3083    1.7643    3.9293 H   0  0  0  0  0  0  0  0  0  0  0  0
   -1.4485    1.6640    4.2131 H   0  0  0  0  0  0  0  0  0  0  0  0
   -0.4137    0.2381    4.4736 H   0  0  0  0  0  0  0  0  0  0  0  0
  5  6  2  0  0  0  0
  5  7  1  0  0  0  0
  2  3  1  0  0  0  0
  2  4  1  0  0  0  0
  2  5  1  0  0  0  0
  1  2  1  0  0  0  0
 20 21  2  0  0  0  0
 20 22  1  0  0  0  0
 17 18  1  0  0  0  0
 17 19  2  0  0  0  0
 14 15  1  0  0  0  0
 14 16  1  0  0  0  0
 14 17  1  0  0  0  0
 11 12  1  0  0  0  0
 11 13  1  0  0  0  0
 11 14  1  0  0  0  0
  9 10  1  0  0  0  0
  9 11  1  0  0  0  0
  9 20  1  0  0  0  0
  7  8  1  0  0  0  0
  7  9  1  0  0  0  0
 24 25  1  0  0  0  0
 24 26  1  0  0  0  0
 24 27  1  0  0  0  0
 22 23  1  0  0  0  0
 22 24  1  0  0  0  0
M  CHG  1  18  -1
M  END
$$$$
default_name
  -OEChem-02102213163D

 27 26  0     1  0  0  0  0  0999 V2000
   -3.2406   -3.5400    1.2326 H   0  0  0  0  0  0  0  0  0  0  0  0
   -3.1436   -2.6190    0.6606 C   0  0  0  0  0  0  0  0  0  0  0  0
   -3.8786   -1.8920    0.9996 H   0  0  0  0  0  0  0  0  0  0  0  0
   -3.2846   -2.8280   -0.3984 H   0  0  0  0  0  0  0  0  0  0  0  0
   -1.7586   -2.0580    0.8686 C   0  0  0  0  0  0  0  0  0  0  0  0
   -0.9666   -2.6340    1.6026 O   0  0  0  0  0  0  0  0  0  0  0  0
   -1.4866   -0.9220    0.2366 N   0  0  0  0  0  0  0  0  0  0  0  0
   -2.2166   -0.4790   -0.2994 H   0  0  0  0  0  0  0  0  0  0  0  0
   -0.1956   -0.2250    0.2596 C   0  0  1  0  0  0  0  0  0  0  0  0
    0.5755   -0.9013   -0.1105 H   0  0  0  0  0  0  0  0  0  0  0  0
   -0.2553    0.9811   -0.6992 C   0  0  0  0  0  0  0  0  0  0  0  0
    0.0654    0.6427   -1.6856 H   0  0  0  0  0  0  0  0  0  0  0  0
   -1.2858    1.3316   -0.7733 H   0  0  0  0  0  0  0  0  0  0  0  0
    0.6456    2.1508   -0.2683 C   0  0  0  0  0  0  0  0  0  0  0  0
    1.5165    2.1924   -0.9269 H   0  0  0  0  0  0  0  0  0  0  0  0
    0.0840    3.0804   -0.3931 H   0  0  0  0  0  0  0  0  0  0  0  0
    1.1314    2.0438    1.1848 C   0  0  0  0  0  0  0  0  0  0  0  0
    0.6630    1.1314    1.9021 O   0  5  0  0  0  0  0  0  0  0  0  0
    1.9934    2.8735    1.5506 O   0  0  0  0  0  0  0  0  0  0  0  0
    0.1881    0.1678    1.7015 C   0  0  0  0  0  0  0  0  0  0  0  0
    1.3379    0.0002    2.1133 O   0  0  0  0  0  0  0  0  0  0  0  0
   -0.7666    0.7145    2.4656 N   0  0  0  0  0  0  0  0  0  0  0  0
   -1.6971    0.7705    2.0790 H   0  0  0  0  0  0  0  0  0  0  0  0
   -0.5716    1.1232    3.8542 C   0  0  0  0  0  0  0  0  0  0  0  0
    0.3083    1.7643    3.9293 H   0  0  0  0  0  0  0  0  0  0  0  0
   -1.4485    1.6640    4.2131 H   0  0  0  0  0  0  0  0  0  0  0  0
   -0.4137    0.2381    4.4736 H   0  0  0  0  0  0  0  0  0  0  0  0
  5  6  2  0  0  0  0
  5  7  1  0  0  0  0
  2  3  1  0  0  0  0
  2  4  1  0  0  0  0
  2  5  1  0  0  0  0
  1  2  1  0  0  0  0
 20 21  2  0  0  0  0
 20 22  1  0  0  0  0
 17 18  1  0  0  0  0
 17 19  2  0  0  0  0
 14 15  1  0  0  0  0
 14 16  1  0  0  0  0
 14 17  1  0  0  0  0
 11 12  1  0  0  0  0
 11 13  1  0  0  0  0
 11 14  1  0  0  0  0
  9 10  1  0  0  0  0
  9 11  1  0  0  0  0
  9 20  1  0  0  0  0
  7  8  1  0  0  0  0
  7  9  1  0  0  0  0
 24 25  1  0  0  0  0
 24 26  1  0  0  0  0
 24 27  1  0  0  0  0
 22 23  1  0  0  0  0
 22 24  1  0  0  0  0
M  CHG  1  18  -1
M  END
$$$$
default_name
  -OEChem-02102213163D

 27 26  0     1  0  0  0  0  0999 V2000
   -3.2406   -3.5400    1.2326 H   0  0  0  0  0  0  0  0  0  0  0  0
   -3.1436   -2.6190    0.6606 C   0  0  0  0  0  0  0  0  0  0  0  0
   -3.8786   -1.8920    0.9996 H   0  0  0  0  0  0  0  0  0  0  0  0
   -3.2846   -2.8280   -0.3984 H   0  0  0  0  0  0  0  0  0  0  0  0
   -1.7586   -2.0580    0.8686 C   0  0  0  0  0  0  0  0  0  0  0  0
   -0.9666   -2.6340    1.6026 O   0  0  0  0  0  0  0  0  0  0  0  0
   -1.4866   -0.9220    0.2366 N   0  0  0  0  0  0  0  0  0  0  0  0
   -2.2166   -0.4790   -0.2994 H   0  0  0  0  0  0  0  0  0  0  0  0
   -0.1956   -0.2250    0.2596 C   0  0  1  0  0  0  0  0  0  0  0  0
    0.5755   -0.9013   -0.1105 H   0  0  0  0  0  0  0  0  0  0  0  0
   -0.2553    0.9811   -0.6992 C   0  0  0  0  0  0  0  0  0  0  0  0
    0.0654    0.6427   -1.6856 H   0  0  0  0  0  0  0  0  0  0  0  0
   -1.2858    1.3316   -0.7733 H   0  0  0  0  0  0  0  0  0  0  0  0
    0.6456    2.1508   -0.2683 C   0  0  0  0  0  0  0  0  0  0  0  0
    1.3613    2.3632   -1.0662 H   0  0  0  0  0  0  0  0  0  0  0  0
    0.0180    3.0358   -0.1341 H   0  0  0  0  0  0  0  0  0  0  0  0
    1.4208    1.8782    1.0292 C   0  0  0  0  0  0  0  0  0  0  0  0
    1.1604    0.8343    1.6686 O   0  5  0  0  0  0  0  0  0  0  0  0
    2.2900    2.7188    1.3506 O   0  0  0  0  0  0  0  0  0  0  0  0
    0.1881    0.1678    1.7015 C   0  0  0  0  0  0  0  0  0  0  0  0
    1.3379    0.0002    2.1133 O   0  0  0  0  0  0  0  0  0  0  0  0
   -0.7666    0.7145    2.4656 N   0  0  0  0  0  0  0  0  0  0  0  0
   -1.6971    0.7705    2.0790 H   0  0  0  0  0  0  0  0  0  0  0  0
   -0.5716    1.1232    3.8542 C   0  0  0  0  0  0  0  0  0  0  0  0
    0.3083    1.7643    3.9293 H   0  0  0  0  0  0  0  0  0  0  0  0
   -1.4485    1.6640    4.2131 H   0  0  0  0  0  0  0  0  0  0  0  0
   -0.4137    0.2381    4.4736 H   0  0  0  0  0  0  0  0  0  0  0  0
  5  6  2  0  0  0  0
  5  7  1  0  0  0  0
  2  3  1  0  0  0  0
  2  4  1  0  0  0  0
  2  5  1  0  0  0  0
  1  2  1  0  0  0  0
 20 21  2  0  0  0  0
 20 22  1  0  0  0  0
 17 18  1  0  0  0  0
 17 19  2  0  0  0  0
 14 15  1  0  0  0  0
 14 16  1  0  0  0  0
 14 17  1  0  0  0  0
 11 12  1  0  0  0  0
 11 13  1  0  0  0  0
 11 14  1  0  0  0  0
  9 10  1  0  0  0  0
  9 11  1  0  0  0  0
  9 20  1  0  0  0  0
  7  8  1  0  0  0  0
  7  9  1  0  0  0  0
 24 25  1  0  0  0  0
 24 26  1  0  0  0  0
 24 27  1  0  0  0  0
 22 23  1  0  0  0  0
 22 24  1  0  0  0  0
M  CHG  1  18  -1
M  END
$$$$
default_name
  -OEChem-02102213163D

 27 26  0     1  0  0  0  0  0999 V2000
   -3.2406   -3.5400    1.2326 H   0  0  0  0  0  0  0  0  0  0  0  0
   -3.1436   -2.6190    0.6606 C   0  0  0  0  0  0  0  0  0  0  0  0
   -3.8786   -1.8920    0.9996 H   0  0  0  0  0  0  0  0  0  0  0  0
   -3.2846   -2.8280   -0.3984 H   0  0  0  0  0  0  0  0  0  0  0  0
   -1.7586   -2.0580    0.8686 C   0  0  0  0  0  0  0  0  0  0  0  0
   -0.9666   -2.6340    1.6026 O   0  0  0  0  0  0  0  0  0  0  0  0
   -1.4866   -0.9220    0.2366 N   0  0  0  0  0  0  0  0  0  0  0  0
   -2.2166   -0.4790   -0.2994 H   0  0  0  0  0  0  0  0  0  0  0  0
   -0.1956   -0.2250    0.2596 C   0  0  1  0  0  0  0  0  0  0  0  0
    0.5755   -0.9013   -0.1105 H   0  0  0  0  0  0  0  0  0  0  0  0
   -0.2553    0.9811   -0.6992 C   0  0  0  0  0  0  0  0  0  0  0  0
    0.0654    0.6427   -1.6856 H   0  0  0  0  0  0  0  0  0  0  0  0
   -1.2858    1.3316   -0.7733 H   0  0  0  0  0  0  0  0  0  0  0  0
    0.6456    2.1508   -0.2683 C   0  0  0  0  0  0  0  0  0  0  0  0
    1.1716    2.5381   -1.1443 H   0  0  0  0  0  0  0  0  0  0  0  0
    0.0085    2.9487    0.1223 H   0  0  0  0  0  0  0  0  0  0  0  0
    1.6818    1.7628    0.7969 C   0  0  0  0  0  0  0  0  0  0  0  0
    1.6164    0.6187    1.3002 O   0  5  0  0  0  0  0  0  0  0  0  0
    2.5484    2.6211    1.0755 O   0  0  0  0  0  0  0  0  0  0  0  0
    0.1881    0.1678    1.7015 C   0  0  0  0  0  0  0  0  0  0  0  0
    1.3379    0.0002    2.1133 O   0  0  0  0  0  0  0  0  0  0  0  0
   -0.7666    0.7145    2.4656 N   0  0  0  0  0  0  0  0  0  0  0  0
   -1.6971    0.7705    2.0790 H   0  0  0  0  0  0  0  0  0  0  0  0
   -0.5716    1.1232    3.8542 C   0  0  0  0  0  0  0  0  0  0  0  0
    0.3083    1.7643    3.9293 H   0  0  0  0  0  0  0  0  0  0  0  0
   -1.4485    1.6640    4.2131 H   0  0  0  0  0  0  0  0  0  0  0  0
   -0.4137    0.2381    4.4736 H   0  0  0  0  0  0  0  0  0  0  0  0
  5  6  2  0  0  0  0
  5  7  1  0  0  0  0
  2  3  1  0  0  0  0
  2  4  1  0  0  0  0
  2  5  1  0  0  0  0
  1  2  1  0  0  0  0
 20 21  2  0  0  0  0
 20 22  1  0  0  0  0
 17 18  1  0  0  0  0
 17 19  2  0  0  0  0
 14 15  1  0  0  0  0
 14 16  1  0  0  0  0
 14 17  1  0  0  0  0
 11 12  1  0  0  0  0
 11 13  1  0  0  0  0
 11 14  1  0  0  0  0
  9 10  1  0  0  0  0
  9 11  1  0  0  0  0
  9 20  1  0  0  0  0
  7  8  1  0  0  0  0
  7  9  1  0  0  0  0
 24 25  1  0  0  0  0
 24 26  1  0  0  0  0
 24 27  1  0  0  0  0
 22 23  1  0  0  0  0
 22 24  1  0  0  0  0
M  CHG  1  18  -1
M  END
$$$$
default_name
  -OEChem-02102213163D

 27 26  0     1  0  0  0  0  0999 V2000
   -3.2406   -3.5400    1.2326 H   0  0  0  0  0  0  0  0  0  0  0  0
   -3.1436   -2.6190    0.6606 C   0  0  0  0  0  0  0  0  0  0  0  0
   -3.8786   -1.8920    0.9996 H   0  0  0  0  0  0  0  0  0  0  0  0
   -3.2846   -2.8280   -0.3984 H   0  0  0  0  0  0  0  0  0  0  0  0
   -1.7586   -2.0580    0.8686 C   0  0  0  0  0  0  0  0  0  0  0  0
   -0.9666   -2.6340    1.6026 O   0  0  0  0  0  0  0  0  0  0  0  0
   -1.4866   -0.9220    0.2366 N   0  0  0  0  0  0  0  0  0  0  0  0
   -2.2166   -0.4790   -0.2994 H   0  0  0  0  0  0  0  0  0  0  0  0
   -0.1956   -0.2250    0.2596 C   0  0  1  0  0  0  0  0  0  0  0  0
    0.5755   -0.9013   -0.1105 H   0  0  0  0  0  0  0  0  0  0  0  0
   -0.2553    0.9811   -0.6992 C   0  0  0  0  0  0  0  0  0  0  0  0
    0.0654    0.6427   -1.6856 H   0  0  0  0  0  0  0  0  0  0  0  0
   -1.2858    1.3316   -0.7733 H   0  0  0  0  0  0  0  0  0  0  0  0
    0.6456    2.1508   -0.2683 C   0  0  0  0  0  0  0  0  0  0  0  0
    0.9603    2.7051   -1.1558 H   0  0  0  0  0  0  0  0  0  0  0  0
    0.0561    2.8250    0.3586 H   0  0  0  0  0  0  0  0  0  0  0  0
    1.8964    1.7055    0.5037 C   0  0  0  0  0  0  0  0  0  0  0  0
    2.0000    0.4994    0.8219 O   0  5  0  0  0  0  0  0  0  0  0  0
    2.7508    2.5872    0.7441 O   0  0  0  0  0  0  0  0  0  0  0  0
    0.1881    0.1678    1.7015 C   0  0  0  0  0  0  0  0  0  0  0  0
    1.3379    0.0002    2.1133 O   0  0  0  0  0  0  0  0  0  0  0  0
   -0.7666    0.7145    2.4656 N   0  0  0  0  0  0  0  0  0  0  0  0
   -1.6971    0.7705    2.0790 H   0  0  0  0  0  0  0  0  0  0  0  0
   -0.5716    1.1232    3.8542 C   0  0  0  0  0  0  0  0  0  0  0  0
    0.3083    1.7643    3.9293 H   0  0  0  0  0  0  0  0  0  0  0  0
   -1.4485    1.6640    4.2131 H   0  0  0  0  0  0  0  0  0  0  0  0
   -0.4137    0.2381    4.4736 H   0  0  0  0  0  0  0  0  0  0  0  0
  5  6  2  0  0  0  0
  5  7  1  0  0  0  0
  2  3  1  0  0  0  0
  2  4  1  0  0  0  0
  2  5  1  0  0  0  0
  1  2  1  0  0  0  0
 20 21  2  0  0  0  0
 20 22  1  0  0  0  0
 17 18  1  0  0  0  0
 17 19  2  0  0  0  0
 14 15  1  0  0  0  0
 14 16  1  0  0  0  0
 14 17  1  0  0  0  0
 11 12  1  0  0  0  0
 11 13  1  0  0  0  0
 11 14  1  0  0  0  0
  9 10  1  0  0  0  0
  9 11  1  0  0  0  0
  9 20  1  0  0  0  0
  7  8  1  0  0  0  0
  7  9  1  0  0  0  0
 24 25  1  0  0  0  0
 24 26  1  0  0  0  0
 24 27  1  0  0  0  0
 22 23  1  0  0  0  0
 22 24  1  0  0  0  0
M  CHG  1  18  -1
M  END
$$$$
default_name
  -OEChem-02102213163D

 27 26  0     1  0  0  0  0  0999 V2000
   -3.2406   -3.5400    1.2326 H   0  0  0  0  0  0  0  0  0  0  0  0
   -3.1436   -2.6190    0.6606 C   0  0  0  0  0  0  0  0  0  0  0  0
   -3.8786   -1.8920    0.9996 H   0  0  0  0  0  0  0  0  0  0  0  0
   -3.2846   -2.8280   -0.3984 H   0  0  0  0  0  0  0  0  0  0  0  0
   -1.7586   -2.0580    0.8686 C   0  0  0  0  0  0  0  0  0  0  0  0
   -0.9666   -2.6340    1.6026 O   0  0  0  0  0  0  0  0  0  0  0  0
   -1.4866   -0.9220    0.2366 N   0  0  0  0  0  0  0  0  0  0  0  0
   -2.2166   -0.4790   -0.2994 H   0  0  0  0  0  0  0  0  0  0  0  0
   -0.1956   -0.2250    0.2596 C   0  0  1  0  0  0  0  0  0  0  0  0
    0.5755   -0.9013   -0.1105 H   0  0  0  0  0  0  0  0  0  0  0  0
   -0.2553    0.9811   -0.6992 C   0  0  0  0  0  0  0  0  0  0  0  0
    0.0654    0.6427   -1.6856 H   0  0  0  0  0  0  0  0  0  0  0  0
   -1.2858    1.3316   -0.7733 H   0  0  0  0  0  0  0  0  0  0  0  0
    0.6456    2.1508   -0.2683 C   0  0  0  0  0  0  0  0  0  0  0  0
    0.7418    2.8529   -1.1001 H   0  0  0  0  0  0  0  0  0  0  0  0
    0.1576    2.6731    0.5588 H   0  0  0  0  0  0  0  0  0  0  0  0
    2.0503    1.7101    0.1694 C   0  0  0  0  0  0  0  0  0  0  0  0
    2.2851    0.4845    0.2663 O   0  5  0  0  0  0  0  0  0  0  0  0
    2.8837    2.6194    0.3790 O   0  0  0  0  0  0  0  0  0  0  0  0
    0.1881    0.1678    1.7015 C   0  0  0  0  0  0  0  0  0  0  0  0
    1.3379    0.0002    2.1133 O   0  0  0  0  0  0  0  0  0  0  0  0
   -0.7666    0.7145    2.4656 N   0  0  0  0  0  0  0  0  0  0  0  0
   -1.6971    0.7705    2.0790 H   0  0  0  0  0  0  0  0  0  0  0  0
   -0.5716    1.1232    3.8542 C   0  0  0  0  0  0  0  0  0  0  0  0
    0.3083    1.7643    3.9293 H   0  0  0  0  0  0  0  0  0  0  0  0
   -1.4485    1.6640    4.2131 H   0  0  0  0  0  0  0  0  0  0  0  0
   -0.4137    0.2381    4.4736 H   0  0  0  0  0  0  0  0  0  0  0  0
  5  6  2  0  0  0  0
  5  7  1  0  0  0  0
  2  3  1  0  0  0  0
  2  4  1  0  0  0  0
  2  5  1  0  0  0  0
  1  2  1  0  0  0  0
 20 21  2  0  0  0  0
 20 22  1  0  0  0  0
 17 18  1  0  0  0  0
 17 19  2  0  0  0  0
 14 15  1  0  0  0  0
 14 16  1  0  0  0  0
 14 17  1  0  0  0  0
 11 12  1  0  0  0  0
 11 13  1  0  0  0  0
 11 14  1  0  0  0  0
  9 10  1  0  0  0  0
  9 11  1  0  0  0  0
  9 20  1  0  0  0  0
  7  8  1  0  0  0  0
  7  9  1  0  0  0  0
 24 25  1  0  0  0  0
 24 26  1  0  0  0  0
 24 27  1  0  0  0  0
 22 23  1  0  0  0  0
 22 24  1  0  0  0  0
M  CHG  1  18  -1
M  END
$$$$
default_name
  -OEChem-02102213163D

 27 26  0     1  0  0  0  0  0999 V2000
   -3.2406   -3.5400    1.2326 H   0  0  0  0  0  0  0  0  0  0  0  0
   -3.1436   -2.6190    0.6606 C   0  0  0  0  0  0  0  0  0  0  0  0
   -3.8786   -1.8920    0.9996 H   0  0  0  0  0  0  0  0  0  0  0  0
   -3.2846   -2.8280   -0.3984 H   0  0  0  0  0  0  0  0  0  0  0  0
   -1.7586   -2.0580    0.8686 C   0  0  0  0  0  0  0  0  0  0  0  0
   -0.9666   -2.6340    1.6026 O   0  0  0  0  0  0  0  0  0  0  0  0
   -1.4866   -0.9220    0.2366 N   0  0  0  0  0  0  0  0  0  0  0  0
   -2.2166   -0.4790   -0.2994 H   0  0  0  0  0  0  0  0  0  0  0  0
   -0.1956   -0.2250    0.2596 C   0  0  1  0  0  0  0  0  0  0  0  0
    0.5755   -0.9013   -0.1105 H   0  0  0  0  0  0  0  0  0  0  0  0
   -0.2553    0.9811   -0.6992 C   0  0  0  0  0  0  0  0  0  0  0  0
    0.0654    0.6427   -1.6856 H   0  0  0  0  0  0  0  0  0  0  0  0
   -1.2858    1.3316   -0.7733 H   0  0  0  0  0  0  0  0  0  0  0  0
    0.6456    2.1508   -0.2683 C   0  0  0  0  0  0  0  0  0  0  0  0
    0.5311    2.9713   -0.9808 H   0  0  0  0  0  0  0  0  0  0  0  0
    0.3060    2.5034    0.7091 H   0  0  0  0  0  0  0  0  0  0  0  0
    2.1327    1.7764   -0.1830 C   0  0  0  0  0  0  0  0  0  0  0  0
    2.4521    0.5751   -0.3288 O   0  5  0  0  0  0  0  0  0  0  0  0
    2.9377    2.7155    0.0051 O   0  0  0  0  0  0  0  0  0  0  0  0
    0.1881    0.1678    1.7015 C   0  0  0  0  0  0  0  0  0  0  0  0
    1.3379    0.0002    2.1133 O   0  0  0  0  0  0  0  0  0  0  0  0
   -0.7666    0.7145    2.4656 N   0  0  0  0  0  0  0  0  0  0  0  0
   -1.6971    0.7705    2.0790 H   0  0  0  0  0  0  0  0  0  0  0  0
   -0.5716    1.1232    3.8542 C   0  0  0  0  0  0  0  0  0  0  0  0
    0.3083    1.7643    3.9293 H   0  0  0  0  0  0  0  0  0  0  0  0
   -1.4485    1.6640    4.2131 H   0  0  0  0  0  0  0  0  0  0  0  0
   -0.4137    0.2381    4.4736 H   0  0  0  0  0  0  0  0  0  0  0  0
  5  6  2  0  0  0  0
  5  7  1  0  0  0  0
  2  3  1  0  0  0  0
  2  4  1  0  0  0  0
  2  5  1  0  0  0  0
  1  2  1  0  0  0  0
 20 21  2  0  0  0  0
 20 22  1  0  0  0  0
 17 18  1  0  0  0  0
 17 19  2  0  0  0  0
 14 15  1  0  0  0  0
 14 16  1  0  0  0  0
 14 17  1  0  0  0  0
 11 12  1  0  0  0  0
 11 13  1  0  0  0  0
 11 14  1  0  0  0  0
  9 10  1  0  0  0  0
  9 11  1  0  0  0  0
  9 20  1  0  0  0  0
  7  8  1  0  0  0  0
  7  9  1  0  0  0  0
 24 25  1  0  0  0  0
 24 26  1  0  0  0  0
 24 27  1  0  0  0  0
 22 23  1  0  0  0  0
 22 24  1  0  0  0  0
M  CHG  1  18  -1
M  END
$$$$
default_name
  -OEChem-02102213163D

 27 26  0     1  0  0  0  0  0999 V2000
   -3.2406   -3.5400    1.2326 H   0  0  0  0  0  0  0  0  0  0  0  0
   -3.1436   -2.6190    0.6606 C   0  0  0  0  0  0  0  0  0  0  0  0
   -3.8786   -1.8920    0.9996 H   0  0  0  0  0  0  0  0  0  0  0  0
   -3.2846   -2.8280   -0.3984 H   0  0  0  0  0  0  0  0  0  0  0  0
   -1.7586   -2.0580    0.8686 C   0  0  0  0  0  0  0  0  0  0  0  0
   -0.9666   -2.6340    1.6026 O   0  0  0  0  0  0  0  0  0  0  0  0
   -1.4866   -0.9220    0.2366 N   0  0  0  0  0  0  0  0  0  0  0  0
   -2.2166   -0.4790   -0.2994 H   0  0  0  0  0  0  0  0  0  0  0  0
   -0.1956   -0.2250    0.2596 C   0  0  1  0  0  0  0  0  0  0  0  0
    0.5755   -0.9013   -0.1105 H   0  0  0  0  0  0  0  0  0  0  0  0
   -0.2553    0.9811   -0.6992 C   0  0  0  0  0  0  0  0  0  0  0  0
    0.0654    0.6427   -1.6856 H   0  0  0  0  0  0  0  0  0  0  0  0
   -1.2858    1.3316   -0.7733 H   0  0  0  0  0  0  0  0  0  0  0  0
    0.6456    2.1508   -0.2683 C   0  0  0  0  0  0  0  0  0  0  0  0
    0.3424    3.0523   -0.8062 H   0  0  0  0  0  0  0  0  0  0  0  0
    0.4912    2.3275    0.7994 H   0  0  0  0  0  0  0  0  0  0  0  0
    2.1382    1.8998   -0.5295 C   0  0  0  0  0  0  0  0  0  0  0  0
    2.4898    0.7648   -0.9227 O   0  5  0  0  0  0  0  0  0  0  0  0
    2.9094    2.8689   -0.3522 O   0  0  0  0  0  0  0  0  0  0  0  0
    0.1881    0.1678    1.7015 C   0  0  0  0  0  0  0  0  0  0  0  0
    1.3379    0.0002    2.1133 O   0  0  0  0  0  0  0  0  0  0  0  0
   -0.7666    0.7145    2.4656 N   0  0  0  0  0  0  0  0  0  0  0  0
   -1.6971    0.7705    2.0790 H   0  0  0  0  0  0  0  0  0  0  0  0
   -0.5716    1.1232    3.8542 C   0  0  0  0  0  0  0  0  0  0  0  0
    0.3083    1.7643    3.9293 H   0  0  0  0  0  0  0  0  0  0  0  0
   -1.4485    1.6640    4.2131 H   0  0  0  0  0  0  0  0  0  0  0  0
   -0.4137    0.2381    4.4736 H   0  0  0  0  0  0  0  0  0  0  0  0
  5  6  2  0  0  0  0
  5  7  1  0  0  0  0
  2  3  1  0  0  0  0
  2  4  1  0  0  0  0
  2  5  1  0  0  0  0
  1  2  1  0  0  0  0
 20 21  2  0  0  0  0
 20 22  1  0  0  0  0
 17 18  1  0  0  0  0
 17 19  2  0  0  0  0
 14 15  1  0  0  0  0
 14 16  1  0  0  0  0
 14 17  1  0  0  0  0
 11 12  1  0  0  0  0
 11 13  1  0  0  0  0
 11 14  1  0  0  0  0
  9 10  1  0  0  0  0
  9 11  1  0  0  0  0
  9 20  1  0  0  0  0
  7  8  1  0  0  0  0
  7  9  1  0  0  0  0
 24 25  1  0  0  0  0
 24 26  1  0  0  0  0
 24 27  1  0  0  0  0
 22 23  1  0  0  0  0
 22 24  1  0  0  0  0
M  CHG  1  18  -1
M  END
$$$$
default_name
  -OEChem-02102213163D

 27 26  0     1  0  0  0  0  0999 V2000
   -3.2406   -3.5400    1.2326 H   0  0  0  0  0  0  0  0  0  0  0  0
   -3.1436   -2.6190    0.6606 C   0  0  0  0  0  0  0  0  0  0  0  0
   -3.8786   -1.8920    0.9996 H   0  0  0  0  0  0  0  0  0  0  0  0
   -3.2846   -2.8280   -0.3984 H   0  0  0  0  0  0  0  0  0  0  0  0
   -1.7586   -2.0580    0.8686 C   0  0  0  0  0  0  0  0  0  0  0  0
   -0.9666   -2.6340    1.6026 O   0  0  0  0  0  0  0  0  0  0  0  0
   -1.4866   -0.9220    0.2366 N   0  0  0  0  0  0  0  0  0  0  0  0
   -2.2166   -0.4790   -0.2994 H   0  0  0  0  0  0  0  0  0  0  0  0
   -0.1956   -0.2250    0.2596 C   0  0  1  0  0  0  0  0  0  0  0  0
    0.5755   -0.9013   -0.1105 H   0  0  0  0  0  0  0  0  0  0  0  0
   -0.2553    0.9811   -0.6992 C   0  0  0  0  0  0  0  0  0  0  0  0
    0.0654    0.6427   -1.6856 H   0  0  0  0  0  0  0  0  0  0  0  0
   -1.2858    1.3316   -0.7733 H   0  0  0  0  0  0  0  0  0  0  0  0
    0.6456    2.1508   -0.2683 C   0  0  0  0  0  0  0  0  0  0  0  0
    0.1886    3.0904   -0.5881 H   0  0  0  0  0  0  0  0  0  0  0  0
    0.7007    2.1573    0.8235 H   0  0  0  0  0  0  0  0  0  0  0  0
    2.0663    2.0720   -0.8466 C   0  0  0  0  0  0  0  0  0  0  0  0
    2.3955    1.0409   -1.4750 O   0  5  0  0  0  0  0  0  0  0  0  0
    2.8006    3.0691   -0.6684 O   0  0  0  0  0  0  0  0  0  0  0  0
    0.1881    0.1678    1.7015 C   0  0  0  0  0  0  0  0  0  0  0  0
    1.3379    0.0002    2.1133 O   0  0  0  0  0  0  0  0  0  0  0  0
   -0.7666    0.7145    2.4656 N   0  0  0  0  0  0  0  0  0  0  0  0
   -1.6971    0.7705    2.0790 H   0  0  0  0  0  0  0  0  0  0  0  0
   -0.5716    1.1232    3.8542 C   0  0  0  0  0  0  0  0  0  0  0  0
    0.3083    1.7643    3.9293 H   0  0  0  0  0  0  0  0  0  0  0  0
   -1.4485    1.6640    4.2131 H   0  0  0  0  0  0  0  0  0  0  0  0
   -0.4137    0.2381    4.4736 H   0  0  0  0  0  0  0  0  0  0  0  0
  5  6  2  0  0  0  0
  5  7  1  0  0  0  0
  2  3  1  0  0  0  0
  2  4  1  0  0  0  0
  2  5  1  0  0  0  0
  1  2  1  0  0  0  0
 20 21  2  0  0  0  0
 20 22  1  0  0  0  0
 17 18  1  0  0  0  0
 17 19  2  0  0  0  0
 14 15  1  0  0  0  0
 14 16  1  0  0  0  0
 14 17  1  0  0  0  0
 11 12  1  0  0  0  0
 11 13  1  0  0  0  0
 11 14  1  0  0  0  0
  9 10  1  0  0  0  0
  9 11  1  0  0  0  0
  9 20  1  0  0  0  0
  7  8  1  0  0  0  0
  7  9  1  0  0  0  0
 24 25  1  0  0  0  0
 24 26  1  0  0  0  0
 24 27  1  0  0  0  0
 22 23  1  0  0  0  0
 22 24  1  0  0  0  0
M  CHG  1  18  -1
M  END
$$$$
default_name
  -OEChem-02102213163D

 27 26  0     1  0  0  0  0  0999 V2000
   -3.2406   -3.5400    1.2326 H   0  0  0  0  0  0  0  0  0  0  0  0
   -3.1436   -2.6190    0.6606 C   0  0  0  0  0  0  0  0  0  0  0  0
   -3.8786   -1.8920    0.9996 H   0  0  0  0  0  0  0  0  0  0  0  0
   -3.2846   -2.8280   -0.3984 H   0  0  0  0  0  0  0  0  0  0  0  0
   -1.7586   -2.0580    0.8686 C   0  0  0  0  0  0  0  0  0  0  0  0
   -0.9666   -2.6340    1.6026 O   0  0  0  0  0  0  0  0  0  0  0  0
   -1.4866   -0.9220    0.2366 N   0  0  0  0  0  0  0  0  0  0  0  0
   -2.2166   -0.4790   -0.2994 H   0  0  0  0  0  0  0  0  0  0  0  0
   -0.1956   -0.2250    0.2596 C   0  0  1  0  0  0  0  0  0  0  0  0
    0.5755   -0.9013   -0.1105 H   0  0  0  0  0  0  0  0  0  0  0  0
   -0.2553    0.9811   -0.6992 C   0  0  0  0  0  0  0  0  0  0  0  0
    0.0654    0.6427   -1.6856 H   0  0  0  0  0  0  0  0  0  0  0  0
   -1.2858    1.3316   -0.7733 H   0  0  0  0  0  0  0  0  0  0  0  0
    0.6456    2.1508   -0.2683 C   0  0  0  0  0  0  0  0  0  0  0  0
    0.0802    3.0830   -0.3414 H   0  0  0  0  0  0  0  0  0  0  0  0
    0.9201    2.0044    0.7797 H   0  0  0  0  0  0  0  0  0  0  0  0
    1.9219    2.2812   -1.1127 C   0  0  0  0  0  0  0  0  0  0  0  0
    2.1757    1.3844   -1.9481 O   0  5  0  0  0  0  0  0  0  0  0  0
    2.6188    3.3027   -0.9221 O   0  0  0  0  0  0  0  0  0  0  0  0
    0.1881    0.1678    1.7015 C   0  0  0  0  0  0  0  0  0  0  0  0
    1.3379    0.0002    2.1133 O   0  0  0  0  0  0  0  0  0  0  0  0
   -0.7666    0.7145    2.4656 N   0  0  0  0  0  0  0  0  0  0  0  0
   -1.6971    0.7705    2.0790 H   0  0  0  0  0  0  0  0  0  0  0  0
   -0.5716    1.1232    3.8542 C   0  0  0  0  0  0  0  0  0  0  0  0
    0.3083    1.7643    3.9293 H   0  0  0  0  0  0  0  0  0  0  0  0
   -1.4485    1.6640    4.2131 H   0  0  0  0  0  0  0  0  0  0  0  0
   -0.4137    0.2381    4.4736 H   0  0  0  0  0  0  0  0  0  0  0  0
  5  6  2  0  0  0  0
  5  7  1  0  0  0  0
  2  3  1  0  0  0  0
  2  4  1  0  0  0  0
  2  5  1  0  0  0  0
  1  2  1  0  0  0  0
 20 21  2  0  0  0  0
 20 22  1  0  0  0  0
 17 18  1  0  0  0  0
 17 19  2  0  0  0  0
 14 15  1  0  0  0  0
 14 16  1  0  0  0  0
 14 17  1  0  0  0  0
 11 12  1  0  0  0  0
 11 13  1  0  0  0  0
 11 14  1  0  0  0  0
  9 10  1  0  0  0  0
  9 11  1  0  0  0  0
  9 20  1  0  0  0  0
  7  8  1  0  0  0  0
  7  9  1  0  0  0  0
 24 25  1  0  0  0  0
 24 26  1  0  0  0  0
 24 27  1  0  0  0  0
 22 23  1  0  0  0  0
 22 24  1  0  0  0  0
M  CHG  1  18  -1
M  END
$$$$
default_name
  -OEChem-02102213163D

 27 26  0     1  0  0  0  0  0999 V2000
   -3.2406   -3.5400    1.2326 H   0  0  0  0  0  0  0  0  0  0  0  0
   -3.1436   -2.6190    0.6606 C   0  0  0  0  0  0  0  0  0  0  0  0
   -3.8786   -1.8920    0.9996 H   0  0  0  0  0  0  0  0  0  0  0  0
   -3.2846   -2.8280   -0.3984 H   0  0  0  0  0  0  0  0  0  0  0  0
   -1.7586   -2.0580    0.8686 C   0  0  0  0  0  0  0  0  0  0  0  0
   -0.9666   -2.6340    1.6026 O   0  0  0  0  0  0  0  0  0  0  0  0
   -1.4866   -0.9220    0.2366 N   0  0  0  0  0  0  0  0  0  0  0  0
   -2.2166   -0.4790   -0.2994 H   0  0  0  0  0  0  0  0  0  0  0  0
   -0.1956   -0.2250    0.2596 C   0  0  1  0  0  0  0  0  0  0  0  0
    0.5755   -0.9013   -0.1105 H   0  0  0  0  0  0  0  0  0  0  0  0
   -0.2553    0.9811   -0.6992 C   0  0  0  0  0  0  0  0  0  0  0  0
    0.0654    0.6427   -1.6856 H   0  0  0  0  0  0  0  0  0  0  0  0
   -1.2858    1.3316   -0.7733 H   0  0  0  0  0  0  0  0  0  0  0  0
    0.6456    2.1508   -0.2683 C   0  0  0  0  0  0  0  0  0  0  0  0
    0.0246    3.0306   -0.0829 H   0  0  0  0  0  0  0  0  0  0  0  0
    1.1345    1.8793    0.6710 H   0  0  0  0  0  0  0  0  0  0  0  0
    1.7150    2.5131   -1.3096 C   0  0  0  0  0  0  0  0  0  0  0  0
    1.8453    1.7721   -2.3098 O   0  5  0  0  0  0  0  0  0  0  0  0
    2.3762    3.5535   -1.0960 O   0  0  0  0  0  0  0  0  0  0  0  0
    0.1881    0.1678    1.7015 C   0  0  0  0  0  0  0  0  0  0  0  0
    1.3379    0.0002    2.1133 O   0  0  0  0  0  0  0  0  0  0  0  0
   -0.7666    0.7145    2.4656 N   0  0  0  0  0  0  0  0  0  0  0  0
   -1.6971    0.7705    2.0790 H   0  0  0  0  0  0  0  0  0  0  0  0
   -0.5716    1.1232    3.8542 C   0  0  0  0  0  0  0  0  0  0  0  0
    0.3083    1.7643    3.9293 H   0  0  0  0  0  0  0  0  0  0  0  0
   -1.4485    1.6640    4.2131 H   0  0  0  0  0  0  0  0  0  0  0  0
   -0.4137    0.2381    4.4736 H   0  0  0  0  0  0  0  0  0  0  0  0
  5  6  2  0  0  0  0
  5  7  1  0  0  0  0
  2  3  1  0  0  0  0
  2  4  1  0  0  0  0
  2  5  1  0  0  0  0
  1  2  1  0  0  0  0
 20 21  2  0  0  0  0
 20 22  1  0  0  0  0
 17 18  1  0  0  0  0
 17 19  2  0  0  0  0
 14 15  1  0  0  0  0
 14 16  1  0  0  0  0
 14 17  1  0  0  0  0
 11 12  1  0  0  0  0
 11 13  1  0  0  0  0
 11 14  1  0  0  0  0
  9 10  1  0  0  0  0
  9 11  1  0  0  0  0
  9 20  1  0  0  0  0
  7  8  1  0  0  0  0
  7  9  1  0  0  0  0
 24 25  1  0  0  0  0
 24 26  1  0  0  0  0
 24 27  1  0  0  0  0
 22 23  1  0  0  0  0
 22 24  1  0  0  0  0
M  CHG  1  18  -1
M  END
$$$$
default_name
  -OEChem-02102213163D

 27 26  0     1  0  0  0  0  0999 V2000
   -3.2406   -3.5400    1.2326 H   0  0  0  0  0  0  0  0  0  0  0  0
   -3.1436   -2.6190    0.6606 C   0  0  0  0  0  0  0  0  0  0  0  0
   -3.8786   -1.8920    0.9996 H   0  0  0  0  0  0  0  0  0  0  0  0
   -3.2846   -2.8280   -0.3984 H   0  0  0  0  0  0  0  0  0  0  0  0
   -1.7586   -2.0580    0.8686 C   0  0  0  0  0  0  0  0  0  0  0  0
   -0.9666   -2.6340    1.6026 O   0  0  0  0  0  0  0  0  0  0  0  0
   -1.4866   -0.9220    0.2366 N   0  0  0  0  0  0  0  0  0  0  0  0
   -2.2166   -0.4790   -0.2994 H   0  0  0  0  0  0  0  0  0  0  0  0
   -0.1956   -0.2250    0.2596 C   0  0  1  0  0  0  0  0  0  0  0  0
    0.5755   -0.9013   -0.1105 H   0  0  0  0  0  0  0  0  0  0  0  0
   -0.2553    0.9811   -0.6992 C   0  0  0  0  0  0  0  0  0  0  0  0
    0.0654    0.6427   -1.6856 H   0  0  0  0  0  0  0  0  0  0  0  0
   -1.2858    1.3316   -0.7733 H   0  0  0  0  0  0  0  0  0  0  0  0
    0.6456    2.1508   -0.2683 C   0  0  0  0  0  0  0  0  0  0  0  0
    0.0257    2.9367    0.1698 H   0  0  0  0  0  0  0  0  0  0  0  0
    1.3293    1.7905    0.5049 H   0  0  0  0  0  0  0  0  0  0  0  0
    1.4595    2.7520   -1.4238 C   0  0  0  0  0  0  0  0  0  0  0  0
    1.4269    2.1774   -2.5353 O   0  5  0  0  0  0  0  0  0  0  0  0
    2.0896    3.8045   -1.1781 O   0  0  0  0  0  0  0  0  0  0  0  0
    0.1881    0.1678    1.7015 C   0  0  0  0  0  0  0  0  0  0  0  0
    1.3379    0.0002    2.1133 O   0  0  0  0  0  0  0  0  0  0  0  0
   -0.7666    0.7145    2.4656 N   0  0  0  0  0  0  0  0  0  0  0  0
   -1.6971    0.7705    2.0790 H   0  0  0  0  0  0  0  0  0  0  0  0
   -0.5716    1.1232    3.8542 C   0  0  0  0  0  0  0  0  0  0  0  0
    0.3083    1.7643    3.9293 H   0  0  0  0  0  0  0  0  0  0  0  0
   -1.4485    1.6640    4.2131 H   0  0  0  0  0  0  0  0  0  0  0  0
   -0.4137    0.2381    4.4736 H   0  0  0  0  0  0  0  0  0  0  0  0
  5  6  2  0  0  0  0
  5  7  1  0  0  0  0
  2  3  1  0  0  0  0
  2  4  1  0  0  0  0
  2  5  1  0  0  0  0
  1  2  1  0  0  0  0
 20 21  2  0  0  0  0
 20 22  1  0  0  0  0
 17 18  1  0  0  0  0
 17 19  2  0  0  0  0
 14 15  1  0  0  0  0
 14 16  1  0  0  0  0
 14 17  1  0  0  0  0
 11 12  1  0  0  0  0
 11 13  1  0  0  0  0
 11 14  1  0  0  0  0
  9 10  1  0  0  0  0
  9 11  1  0  0  0  0
  9 20  1  0  0  0  0
  7  8  1  0  0  0  0
  7  9  1  0  0  0  0
 24 25  1  0  0  0  0
 24 26  1  0  0  0  0
 24 27  1  0  0  0  0
 22 23  1  0  0  0  0
 22 24  1  0  0  0  0
M  CHG  1  18  -1
M  END
$$$$
default_name
  -OEChem-02102213163D

 27 26  0     1  0  0  0  0  0999 V2000
   -3.2406   -3.5400    1.2326 H   0  0  0  0  0  0  0  0  0  0  0  0
   -3.1436   -2.6190    0.6606 C   0  0  0  0  0  0  0  0  0  0  0  0
   -3.8786   -1.8920    0.9996 H   0  0  0  0  0  0  0  0  0  0  0  0
   -3.2846   -2.8280   -0.3984 H   0  0  0  0  0  0  0  0  0  0  0  0
   -1.7586   -2.0580    0.8686 C   0  0  0  0  0  0  0  0  0  0  0  0
   -0.9666   -2.6340    1.6026 O   0  0  0  0  0  0  0  0  0  0  0  0
   -1.4866   -0.9220    0.2366 N   0  0  0  0  0  0  0  0  0  0  0  0
   -2.2166   -0.4790   -0.2994 H   0  0  0  0  0  0  0  0  0  0  0  0
   -0.1956   -0.2250    0.2596 C   0  0  1  0  0  0  0  0  0  0  0  0
    0.5755   -0.9013   -0.1105 H   0  0  0  0  0  0  0  0  0  0  0  0
   -0.2553    0.9811   -0.6992 C   0  0  0  0  0  0  0  0  0  0  0  0
    0.0654    0.6427   -1.6856 H   0  0  0  0  0  0  0  0  0  0  0  0
   -1.2858    1.3316   -0.7733 H   0  0  0  0  0  0  0  0  0  0  0  0
    0.6456    2.1508   -0.2683 C   0  0  0  0  0  0  0  0  0  0  0  0
    0.0832    2.8078    0.3995 H   0  0  0  0  0  0  0  0  0  0  0  0
    1.4912    1.7440    0.2926 H   0  0  0  0  0  0  0  0  0  0  0  0
    1.1729    2.9815   -1.4477 C   0  0  0  0  0  0  0  0  0  0  0  0
    0.9490    2.5728   -2.6093 O   0  5  0  0  0  0  0  0  0  0  0  0
    1.7783    4.0387   -1.1630 O   0  0  0  0  0  0  0  0  0  0  0  0
    0.1881    0.1678    1.7015 C   0  0  0  0  0  0  0  0  0  0  0  0
    1.3379    0.0002    2.1133 O   0  0  0  0  0  0  0  0  0  0  0  0
   -0.7666    0.7145    2.4656 N   0  0  0  0  0  0  0  0  0  0  0  0
   -1.6971    0.7705    2.0790 H   0  0  0  0  0  0  0  0  0  0  0  0
   -0.5716    1.1232    3.8542 C   0  0  0  0  0  0  0  0  0  0  0  0
    0.3083    1.7643    3.9293 H   0  0  0  0  0  0  0  0  0  0  0  0
   -1.4485    1.6640    4.2131 H   0  0  0  0  0  0  0  0  0  0  0  0
   -0.4137    0.2381    4.4736 H   0  0  0  0  0  0  0  0  0  0  0  0
  5  6  2  0  0  0  0
  5  7  1  0  0  0  0
  2  3  1  0  0  0  0
  2  4  1  0  0  0  0
  2  5  1  0  0  0  0
  1  2  1  0  0  0  0
 20 21  2  0  0  0  0
 20 22  1  0  0  0  0
 17 18  1  0  0  0  0
 17 19  2  0  0  0  0
 14 15  1  0  0  0  0
 14 16  1  0  0  0  0
 14 17  1  0  0  0  0
 11 12  1  0  0  0  0
 11 13  1  0  0  0  0
 11 14  1  0  0  0  0
  9 10  1  0  0  0  0
  9 11  1  0  0  0  0
  9 20  1  0  0  0  0
  7  8  1  0  0  0  0
  7  9  1  0  0  0  0
 24 25  1  0  0  0  0
 24 26  1  0  0  0  0
 24 27  1  0  0  0  0
 22 23  1  0  0  0  0
 22 24  1  0  0  0  0
M  CHG  1  18  -1
M  END
$$$$
default_name
  -OEChem-02102213163D

 27 26  0     1  0  0  0  0  0999 V2000
   -3.2406   -3.5400    1.2326 H   0  0  0  0  0  0  0  0  0  0  0  0
   -3.1436   -2.6190    0.6606 C   0  0  0  0  0  0  0  0  0  0  0  0
   -3.8786   -1.8920    0.9996 H   0  0  0  0  0  0  0  0  0  0  0  0
   -3.2846   -2.8280   -0.3984 H   0  0  0  0  0  0  0  0  0  0  0  0
   -1.7586   -2.0580    0.8686 C   0  0  0  0  0  0  0  0  0  0  0  0
   -0.9666   -2.6340    1.6026 O   0  0  0  0  0  0  0  0  0  0  0  0
   -1.4866   -0.9220    0.2366 N   0  0  0  0  0  0  0  0  0  0  0  0
   -2.2166   -0.4790   -0.2994 H   0  0  0  0  0  0  0  0  0  0  0  0
   -0.1956   -0.2250    0.2596 C   0  0  1  0  0  0  0  0  0  0  0  0
    0.5755   -0.9013   -0.1105 H   0  0  0  0  0  0  0  0  0  0  0  0
   -0.2553    0.9811   -0.6992 C   0  0  0  0  0  0  0  0  0  0  0  0
    0.0654    0.6427   -1.6856 H   0  0  0  0  0  0  0  0  0  0  0  0
   -1.2858    1.3316   -0.7733 H   0  0  0  0  0  0  0  0  0  0  0  0
    0.6456    2.1508   -0.2683 C   0  0  0  0  0  0  0  0  0  0  0  0
    0.1933    2.6527    0.5904 H   0  0  0  0  0  0  0  0  0  0  0  0
    1.6091    1.7430    0.0486 H   0  0  0  0  0  0  0  0  0  0  0  0
    0.8747    3.1860   -1.3795 C   0  0  0  0  0  0  0  0  0  0  0  0
    0.4441    2.9312   -2.5268 O   0  5  0  0  0  0  0  0  0  0  0  0
    1.4636    4.2401   -1.0516 O   0  0  0  0  0  0  0  0  0  0  0  0
    0.1881    0.1678    1.7015 C   0  0  0  0  0  0  0  0  0  0  0  0
    1.3379    0.0002    2.1133 O   0  0  0  0  0  0  0  0  0  0  0  0
   -0.7666    0.7145    2.4656 N   0  0  0  0  0  0  0  0  0  0  0  0
   -1.6971    0.7705    2.0790 H   0  0  0  0  0  0  0  0  0  0  0  0
   -0.5716    1.1232    3.8542 C   0  0  0  0  0  0  0  0  0  0  0  0
    0.3083    1.7643    3.9293 H   0  0  0  0  0  0  0  0  0  0  0  0
   -1.4485    1.6640    4.2131 H   0  0  0  0  0  0  0  0  0  0  0  0
   -0.4137    0.2381    4.4736 H   0  0  0  0  0  0  0  0  0  0  0  0
  5  6  2  0  0  0  0
  5  7  1  0  0  0  0
  2  3  1  0  0  0  0
  2  4  1  0  0  0  0
  2  5  1  0  0  0  0
  1  2  1  0  0  0  0
 20 21  2  0  0  0  0
 20 22  1  0  0  0  0
 17 18  1  0  0  0  0
 17 19  2  0  0  0  0
 14 15  1  0  0  0  0
 14 16  1  0  0  0  0
 14 17  1  0  0  0  0
 11 12  1  0  0  0  0
 11 13  1  0  0  0  0
 11 14  1  0  0  0  0
  9 10  1  0  0  0  0
  9 11  1  0  0  0  0
  9 20  1  0  0  0  0
  7  8  1  0  0  0  0
  7  9  1  0  0  0  0
 24 25  1  0  0  0  0
 24 26  1  0  0  0  0
 24 27  1  0  0  0  0
 22 23  1  0  0  0  0
 22 24  1  0  0  0  0
M  CHG  1  18  -1
M  END
$$$$
default_name
  -OEChem-02102213163D

 27 26  0     1  0  0  0  0  0999 V2000
   -3.2406   -3.5400    1.2326 H   0  0  0  0  0  0  0  0  0  0  0  0
   -3.1436   -2.6190    0.6606 C   0  0  0  0  0  0  0  0  0  0  0  0
   -3.8786   -1.8920    0.9996 H   0  0  0  0  0  0  0  0  0  0  0  0
   -3.2846   -2.8280   -0.3984 H   0  0  0  0  0  0  0  0  0  0  0  0
   -1.7586   -2.0580    0.8686 C   0  0  0  0  0  0  0  0  0  0  0  0
   -0.9666   -2.6340    1.6026 O   0  0  0  0  0  0  0  0  0  0  0  0
   -1.4866   -0.9220    0.2366 N   0  0  0  0  0  0  0  0  0  0  0  0
   -2.2166   -0.4790   -0.2994 H   0  0  0  0  0  0  0  0  0  0  0  0
   -0.1956   -0.2250    0.2596 C   0  0  1  0  0  0  0  0  0  0  0  0
    0.5755   -0.9013   -0.1105 H   0  0  0  0  0  0  0  0  0  0  0  0
   -0.2553    0.9811   -0.6992 C   0  0  0  0  0  0  0  0  0  0  0  0
   -0.2001    0.6016   -1.7207 H   0  0  0  0  0  0  0  0  0  0  0  0
   -1.2098    1.4943   -0.5732 H   0  0  0  0  0  0  0  0  0  0  0  0
    0.8896    1.9866   -0.4901 C   0  0  0  0  0  0  0  0  0  0  0  0
    0.8584    2.3549    0.5382 H   0  0  0  0  0  0  0  0  0  0  0  0
    1.8377    1.4611   -0.6313 H   0  0  0  0  0  0  0  0  0  0  0  0
    0.8291    3.1876   -1.4456 C   0  0  0  0  0  0  0  0  0  0  0  0
   -0.0249    3.1763   -2.3606 O   0  5  0  0  0  0  0  0  0  0  0  0
    1.6335    4.1203   -1.2259 O   0  0  0  0  0  0  0  0  0  0  0  0
    0.1881    0.1678    1.7015 C   0  0  0  0  0  0  0  0  0  0  0  0
    1.3379    0.0002    2.1133 O   0  0  0  0  0  0  0  0  0  0  0  0
   -0.7666    0.7145    2.4656 N   0  0  0  0  0  0  0  0  0  0  0  0
   -1.6971    0.7705    2.0790 H   0  0  0  0  0  0  0  0  0  0  0  0
   -0.5716    1.1232    3.8542 C   0  0  0  0  0  0  0  0  0  0  0  0
    0.3083    1.7643    3.9293 H   0  0  0  0  0  0  0  0  0  0  0  0
   -1.4485    1.6640    4.2131 H   0  0  0  0  0  0  0  0  0  0  0  0
   -0.4137    0.2381    4.4736 H   0  0  0  0  0  0  0  0  0  0  0  0
  5  6  2  0  0  0  0
  5  7  1  0  0  0  0
  2  3  1  0  0  0  0
  2  4  1  0  0  0  0
  2  5  1  0  0  0  0
  1  2  1  0  0  0  0
 20 21  2  0  0  0  0
 20 22  1  0  0  0  0
 17 18  1  0  0  0  0
 17 19  2  0  0  0  0
 14 15  1  0  0  0  0
 14 16  1  0  0  0  0
 14 17  1  0  0  0  0
 11 12  1  0  0  0  0
 11 13  1  0  0  0  0
 11 14  1  0  0  0  0
  9 10  1  0  0  0  0
  9 11  1  0  0  0  0
  9 20  1  0  0  0  0
  7  8  1  0  0  0  0
  7  9  1  0  0  0  0
 24 25  1  0  0  0  0
 24 26  1  0  0  0  0
 24 27  1  0  0  0  0
 22 23  1  0  0  0  0
 22 24  1  0  0  0  0
M  CHG  1  18  -1
M  END
$$$$
default_name
  -OEChem-02102213163D

 27 26  0     1  0  0  0  0  0999 V2000
   -3.2406   -3.5400    1.2326 H   0  0  0  0  0  0  0  0  0  0  0  0
   -3.1436   -2.6190    0.6606 C   0  0  0  0  0  0  0  0  0  0  0  0
   -3.8786   -1.8920    0.9996 H   0  0  0  0  0  0  0  0  0  0  0  0
   -3.2846   -2.8280   -0.3984 H   0  0  0  0  0  0  0  0  0  0  0  0
   -1.7586   -2.0580    0.8686 C   0  0  0  0  0  0  0  0  0  0  0  0
   -0.9666   -2.6340    1.6026 O   0  0  0  0  0  0  0  0  0  0  0  0
   -1.4866   -0.9220    0.2366 N   0  0  0  0  0  0  0  0  0  0  0  0
   -2.2166   -0.4790   -0.2994 H   0  0  0  0  0  0  0  0  0  0  0  0
   -0.1956   -0.2250    0.2596 C   0  0  1  0  0  0  0  0  0  0  0  0
    0.5755   -0.9013   -0.1105 H   0  0  0  0  0  0  0  0  0  0  0  0
   -0.2553    0.9811   -0.6992 C   0  0  0  0  0  0  0  0  0  0  0  0
   -0.2001    0.6016   -1.7207 H   0  0  0  0  0  0  0  0  0  0  0  0
   -1.2098    1.4943   -0.5732 H   0  0  0  0  0  0  0  0  0  0  0  0
    0.8896    1.9866   -0.4901 C   0  0  0  0  0  0  0  0  0  0  0  0
    1.0295    2.1511    0.5810 H   0  0  0  0  0  0  0  0  0  0  0  0
    1.8087    1.5472   -0.8866 H   0  0  0  0  0  0  0  0  0  0  0  0
    0.6427    3.3422   -1.1686 C   0  0  0  0  0  0  0  0  0  0  0  0
   -0.3560    3.4605   -1.9136 O   0  5  0  0  0  0  0  0  0  0  0  0
    1.4554    4.2567   -0.9071 O   0  0  0  0  0  0  0  0  0  0  0  0
    0.1881    0.1678    1.7015 C   0  0  0  0  0  0  0  0  0  0  0  0
    1.3379    0.0002    2.1133 O   0  0  0  0  0  0  0  0  0  0  0  0
   -0.7666    0.7145    2.4656 N   0  0  0  0  0  0  0  0  0  0  0  0
   -1.6971    0.7705    2.0790 H   0  0  0  0  0  0  0  0  0  0  0  0
   -0.5716    1.1232    3.8542 C   0  0  0  0  0  0  0  0  0  0  0  0
    0.3083    1.7643    3.9293 H   0  0  0  0  0  0  0  0  0  0  0  0
   -1.4485    1.6640    4.2131 H   0  0  0  0  0  0  0  0  0  0  0  0
   -0.4137    0.2381    4.4736 H   0  0  0  0  0  0  0  0  0  0  0  0
  5  6  2  0  0  0  0
  5  7  1  0  0  0  0
  2  3  1  0  0  0  0
  2  4  1  0  0  0  0
  2  5  1  0  0  0  0
  1  2  1  0  0  0  0
 20 21  2  0  0  0  0
 20 22  1  0  0  0  0
 17 18  1  0  0  0  0
 17 19  2  0  0  0  0
 14 15  1  0  0  0  0
 14 16  1  0  0  0  0
 14 17  1  0  0  0  0
 11 12  1  0  0  0  0
 11 13  1  0  0  0  0
 11 14  1  0  0  0  0
  9 10  1  0  0  0  0
  9 11  1  0  0  0  0
  9 20  1  0  0  0  0
  7  8  1  0  0  0  0
  7  9  1  0  0  0  0
 24 25  1  0  0  0  0
 24 26  1  0  0  0  0
 24 27  1  0  0  0  0
 22 23  1  0  0  0  0
 22 24  1  0  0  0  0
M  CHG  1  18  -1
M  END
$$$$
default_name
  -OEChem-02102213163D

 27 26  0     1  0  0  0  0  0999 V2000
   -3.2406   -3.5400    1.2326 H   0  0  0  0  0  0  0  0  0  0  0  0
   -3.1436   -2.6190    0.6606 C   0  0  0  0  0  0  0  0  0  0  0  0
   -3.8786   -1.8920    0.9996 H   0  0  0  0  0  0  0  0  0  0  0  0
   -3.2846   -2.8280   -0.3984 H   0  0  0  0  0  0  0  0  0  0  0  0
   -1.7586   -2.0580    0.8686 C   0  0  0  0  0  0  0  0  0  0  0  0
   -0.9666   -2.6340    1.6026 O   0  0  0  0  0  0  0  0  0  0  0  0
   -1.4866   -0.9220    0.2366 N   0  0  0  0  0  0  0  0  0  0  0  0
   -2.2166   -0.4790   -0.2994 H   0  0  0  0  0  0  0  0  0  0  0  0
   -0.1956   -0.2250    0.2596 C   0  0  1  0  0  0  0  0  0  0  0  0
    0.5755   -0.9013   -0.1105 H   0  0  0  0  0  0  0  0  0  0  0  0
   -0.2553    0.9811   -0.6992 C   0  0  0  0  0  0  0  0  0  0  0  0
   -0.2001    0.6016   -1.7207 H   0  0  0  0  0  0  0  0  0  0  0  0
   -1.2098    1.4943   -0.5732 H   0  0  0  0  0  0  0  0  0  0  0  0
    0.8896    1.9866   -0.4901 C   0  0  0  0  0  0  0  0  0  0  0  0
    1.2093    1.9520    0.5542 H   0  0  0  0  0  0  0  0  0  0  0  0
    1.7345    1.6785   -1.1117 H   0  0  0  0  0  0  0  0  0  0  0  0
    0.5041    3.4317   -0.8397 C   0  0  0  0  0  0  0  0  0  0  0  0
   -0.6103    3.6372   -1.3711 O   0  5  0  0  0  0  0  0  0  0  0  0
    1.3326    4.3208   -0.5427 O   0  0  0  0  0  0  0  0  0  0  0  0
    0.1881    0.1678    1.7015 C   0  0  0  0  0  0  0  0  0  0  0  0
    1.3379    0.0002    2.1133 O   0  0  0  0  0  0  0  0  0  0  0  0
   -0.7666    0.7145    2.4656 N   0  0  0  0  0  0  0  0  0  0  0  0
   -1.6971    0.7705    2.0790 H   0  0  0  0  0  0  0  0  0  0  0  0
   -0.5716    1.1232    3.8542 C   0  0  0  0  0  0  0  0  0  0  0  0
    0.3083    1.7643    3.9293 H   0  0  0  0  0  0  0  0  0  0  0  0
   -1.4485    1.6640    4.2131 H   0  0  0  0  0  0  0  0  0  0  0  0
   -0.4137    0.2381    4.4736 H   0  0  0  0  0  0  0  0  0  0  0  0
  5  6  2  0  0  0  0
  5  7  1  0  0  0  0
  2  3  1  0  0  0  0
  2  4  1  0  0  0  0
  2  5  1  0  0  0  0
  1  2  1  0  0  0  0
 20 21  2  0  0  0  0
 20 22  1  0  0  0  0
 17 18  1  0  0  0  0
 17 19  2  0  0  0  0
 14 15  1  0  0  0  0
 14 16  1  0  0  0  0
 14 17  1  0  0  0  0
 11 12  1  0  0  0  0
 11 13  1  0  0  0  0
 11 14  1  0  0  0  0
  9 10  1  0  0  0  0
  9 11  1  0  0  0  0
  9 20  1  0  0  0  0
  7  8  1  0  0  0  0
  7  9  1  0  0  0  0
 24 25  1  0  0  0  0
 24 26  1  0  0  0  0
 24 27  1  0  0  0  0
 22 23  1  0  0  0  0
 22 24  1  0  0  0  0
M  CHG  1  18  -1
M  END
$$$$
default_name
  -OEChem-02102213163D

 27 26  0     1  0  0  0  0  0999 V2000
   -3.2406   -3.5400    1.2326 H   0  0  0  0  0  0  0  0  0  0  0  0
   -3.1436   -2.6190    0.6606 C   0  0  0  0  0  0  0  0  0  0  0  0
   -3.8786   -1.8920    0.9996 H   0  0  0  0  0  0  0  0  0  0  0  0
   -3.2846   -2.8280   -0.3984 H   0  0  0  0  0  0  0  0  0  0  0  0
   -1.7586   -2.0580    0.8686 C   0  0  0  0  0  0  0  0  0  0  0  0
   -0.9666   -2.6340    1.6026 O   0  0  0  0  0  0  0  0  0  0  0  0
   -1.4866   -0.9220    0.2366 N   0  0  0  0  0  0  0  0  0  0  0  0
   -2.2166   -0.4790   -0.2994 H   0  0  0  0  0  0  0  0  0  0  0  0
   -0.1956   -0.2250    0.2596 C   0  0  1  0  0  0  0  0  0  0  0  0
    0.5755   -0.9013   -0.1105 H   0  0  0  0  0  0  0  0  0  0  0  0
   -0.2553    0.9811   -0.6992 C   0  0  0  0  0  0  0  0  0  0  0  0
   -0.2001    0.6016   -1.7207 H   0  0  0  0  0  0  0  0  0  0  0  0
   -1.2098    1.4943   -0.5732 H   0  0  0  0  0  0  0  0  0  0  0  0
    0.8896    1.9866   -0.4901 C   0  0  0  0  0  0  0  0  0  0  0  0
    1.3853    1.7712    0.4595 H   0  0  0  0  0  0  0  0  0  0  0  0
    1.6200    1.8461   -1.2912 H   0  0  0  0  0  0  0  0  0  0  0  0
    0.4227    3.4498   -0.4813 C   0  0  0  0  0  0  0  0  0  0  0  0
   -0.7703    3.6944   -0.7700 O   0  5  0  0  0  0  0  0  0  0  0  0
    1.2734    4.3082   -0.1576 O   0  0  0  0  0  0  0  0  0  0  0  0
    0.1881    0.1678    1.7015 C   0  0  0  0  0  0  0  0  0  0  0  0
    1.3379    0.0002    2.1133 O   0  0  0  0  0  0  0  0  0  0  0  0
   -0.7666    0.7145    2.4656 N   0  0  0  0  0  0  0  0  0  0  0  0
   -1.6971    0.7705    2.0790 H   0  0  0  0  0  0  0  0  0  0  0  0
   -0.5716    1.1232    3.8542 C   0  0  0  0  0  0  0  0  0  0  0  0
    0.3083    1.7643    3.9293 H   0  0  0  0  0  0  0  0  0  0  0  0
   -1.4485    1.6640    4.2131 H   0  0  0  0  0  0  0  0  0  0  0  0
   -0.4137    0.2381    4.4736 H   0  0  0  0  0  0  0  0  0  0  0  0
  5  6  2  0  0  0  0
  5  7  1  0  0  0  0
  2  3  1  0  0  0  0
  2  4  1  0  0  0  0
  2  5  1  0  0  0  0
  1  2  1  0  0  0  0
 20 21  2  0  0  0  0
 20 22  1  0  0  0  0
 17 18  1  0  0  0  0
 17 19  2  0  0  0  0
 14 15  1  0  0  0  0
 14 16  1  0  0  0  0
 14 17  1  0  0  0  0
 11 12  1  0  0  0  0
 11 13  1  0  0  0  0
 11 14  1  0  0  0  0
  9 10  1  0  0  0  0
  9 11  1  0  0  0  0
  9 20  1  0  0  0  0
  7  8  1  0  0  0  0
  7  9  1  0  0  0  0
 24 25  1  0  0  0  0
 24 26  1  0  0  0  0
 24 27  1  0  0  0  0
 22 23  1  0  0  0  0
 22 24  1  0  0  0  0
M  CHG  1  18  -1
M  END
$$$$
default_name
  -OEChem-02102213163D

 27 26  0     1  0  0  0  0  0999 V2000
   -3.2406   -3.5400    1.2326 H   0  0  0  0  0  0  0  0  0  0  0  0
   -3.1436   -2.6190    0.6606 C   0  0  0  0  0  0  0  0  0  0  0  0
   -3.8786   -1.8920    0.9996 H   0  0  0  0  0  0  0  0  0  0  0  0
   -3.2846   -2.8280   -0.3984 H   0  0  0  0  0  0  0  0  0  0  0  0
   -1.7586   -2.0580    0.8686 C   0  0  0  0  0  0  0  0  0  0  0  0
   -0.9666   -2.6340    1.6026 O   0  0  0  0  0  0  0  0  0  0  0  0
   -1.4866   -0.9220    0.2366 N   0  0  0  0  0  0  0  0  0  0  0  0
   -2.2166   -0.4790   -0.2994 H   0  0  0  0  0  0  0  0  0  0  0  0
   -0.1956   -0.2250    0.2596 C   0  0  1  0  0  0  0  0  0  0  0  0
    0.5755   -0.9013   -0.1105 H   0  0  0  0  0  0  0  0  0  0  0  0
   -0.2553    0.9811   -0.6992 C   0  0  0  0  0  0  0  0  0  0  0  0
   -0.2001    0.6016   -1.7207 H   0  0  0  0  0  0  0  0  0  0  0  0
   -1.2098    1.4943   -0.5732 H   0  0  0  0  0  0  0  0  0  0  0  0
    0.8896    1.9866   -0.4901 C   0  0  0  0  0  0  0  0  0  0  0  0
    1.5458    1.6210    0.3034 H   0  0  0  0  0  0  0  0  0  0  0  0
    1.4732    2.0386   -1.4130 H   0  0  0  0  0  0  0  0  0  0  0  0
    0.4041    3.3954   -0.1179 C   0  0  0  0  0  0  0  0  0  0  0  0
   -0.8252    3.6283   -0.1513 O   0  5  0  0  0  0  0  0  0  0  0  0
    1.2818    4.2197    0.2220 O   0  0  0  0  0  0  0  0  0  0  0  0
    0.1881    0.1678    1.7015 C   0  0  0  0  0  0  0  0  0  0  0  0
    1.3379    0.0002    2.1133 O   0  0  0  0  0  0  0  0  0  0  0  0
   -0.7666    0.7145    2.4656 N   0  0  0  0  0  0  0  0  0  0  0  0
   -1.6971    0.7705    2.0790 H   0  0  0  0  0  0  0  0  0  0  0  0
   -0.5716    1.1232    3.8542 C   0  0  0  0  0  0  0  0  0  0  0  0
    0.3083    1.7643    3.9293 H   0  0  0  0  0  0  0  0  0  0  0  0
   -1.4485    1.6640    4.2131 H   0  0  0  0  0  0  0  0  0  0  0  0
   -0.4137    0.2381    4.4736 H   0  0  0  0  0  0  0  0  0  0  0  0
  5  6  2  0  0  0  0
  5  7  1  0  0  0  0
  2  3  1  0  0  0  0
  2  4  1  0  0  0  0
  2  5  1  0  0  0  0
  1  2  1  0  0  0  0
 20 21  2  0  0  0  0
 20 22  1  0  0  0  0
 17 18  1  0  0  0  0
 17 19  2  0  0  0  0
 14 15  1  0  0  0  0
 14 16  1  0  0  0  0
 14 17  1  0  0  0  0
 11 12  1  0  0  0  0
 11 13  1  0  0  0  0
 11 14  1  0  0  0  0
  9 10  1  0  0  0  0
  9 11  1  0  0  0  0
  9 20  1  0  0  0  0
  7  8  1  0  0  0  0
  7  9  1  0  0  0  0
 24 25  1  0  0  0  0
 24 26  1  0  0  0  0
 24 27  1  0  0  0  0
 22 23  1  0  0  0  0
 22 24  1  0  0  0  0
M  CHG  1  18  -1
M  END
$$$$
default_name
  -OEChem-02102213163D

 27 26  0     1  0  0  0  0  0999 V2000
   -3.2406   -3.5400    1.2326 H   0  0  0  0  0  0  0  0  0  0  0  0
   -3.1436   -2.6190    0.6606 C   0  0  0  0  0  0  0  0  0  0  0  0
   -3.8786   -1.8920    0.9996 H   0  0  0  0  0  0  0  0  0  0  0  0
   -3.2846   -2.8280   -0.3984 H   0  0  0  0  0  0  0  0  0  0  0  0
   -1.7586   -2.0580    0.8686 C   0  0  0  0  0  0  0  0  0  0  0  0
   -0.9666   -2.6340    1.6026 O   0  0  0  0  0  0  0  0  0  0  0  0
   -1.4866   -0.9220    0.2366 N   0  0  0  0  0  0  0  0  0  0  0  0
   -2.2166   -0.4790   -0.2994 H   0  0  0  0  0  0  0  0  0  0  0  0
   -0.1956   -0.2250    0.2596 C   0  0  1  0  0  0  0  0  0  0  0  0
    0.5755   -0.9013   -0.1105 H   0  0  0  0  0  0  0  0  0  0  0  0
   -0.2553    0.9811   -0.6992 C   0  0  0  0  0  0  0  0  0  0  0  0
   -0.2001    0.6016   -1.7207 H   0  0  0  0  0  0  0  0  0  0  0  0
   -1.2098    1.4943   -0.5732 H   0  0  0  0  0  0  0  0  0  0  0  0
    0.8896    1.9866   -0.4901 C   0  0  0  0  0  0  0  0  0  0  0  0
    1.6796    1.5116    0.0965 H   0  0  0  0  0  0  0  0  0  0  0  0
    1.3041    2.2428   -1.4687 H   0  0  0  0  0  0  0  0  0  0  0  0
    0.4495    3.2722    0.2258 C   0  0  0  0  0  0  0  0  0  0  0  0
   -0.7712    3.4432    0.4428 O   0  5  0  0  0  0  0  0  0  0  0  0
    1.3573    4.0614    0.5701 O   0  0  0  0  0  0  0  0  0  0  0  0
    0.1881    0.1678    1.7015 C   0  0  0  0  0  0  0  0  0  0  0  0
    1.3379    0.0002    2.1133 O   0  0  0  0  0  0  0  0  0  0  0  0
   -0.7666    0.7145    2.4656 N   0  0  0  0  0  0  0  0  0  0  0  0
   -1.6971    0.7705    2.0790 H   0  0  0  0  0  0  0  0  0  0  0  0
   -0.5716    1.1232    3.8542 C   0  0  0  0  0  0  0  0  0  0  0  0
    0.3083    1.7643    3.9293 H   0  0  0  0  0  0  0  0  0  0  0  0
   -1.4485    1.6640    4.2131 H   0  0  0  0  0  0  0  0  0  0  0  0
   -0.4137    0.2381    4.4736 H   0  0  0  0  0  0  0  0  0  0  0  0
  5  6  2  0  0  0  0
  5  7  1  0  0  0  0
  2  3  1  0  0  0  0
  2  4  1  0  0  0  0
  2  5  1  0  0  0  0
  1  2  1  0  0  0  0
 20 21  2  0  0  0  0
 20 22  1  0  0  0  0
 17 18  1  0  0  0  0
 17 19  2  0  0  0  0
 14 15  1  0  0  0  0
 14 16  1  0  0  0  0
 14 17  1  0  0  0  0
 11 12  1  0  0  0  0
 11 13  1  0  0  0  0
 11 14  1  0  0  0  0
  9 10  1  0  0  0  0
  9 11  1  0  0  0  0
  9 20  1  0  0  0  0
  7  8  1  0  0  0  0
  7  9  1  0  0  0  0
 24 25  1  0  0  0  0
 24 26  1  0  0  0  0
 24 27  1  0  0  0  0
 22 23  1  0  0  0  0
 22 24  1  0  0  0  0
M  CHG  1  18  -1
M  END
$$$$
default_name
  -OEChem-02102213163D

 27 26  0     1  0  0  0  0  0999 V2000
   -3.2406   -3.5400    1.2326 H   0  0  0  0  0  0  0  0  0  0  0  0
   -3.1436   -2.6190    0.6606 C   0  0  0  0  0  0  0  0  0  0  0  0
   -3.8786   -1.8920    0.9996 H   0  0  0  0  0  0  0  0  0  0  0  0
   -3.2846   -2.8280   -0.3984 H   0  0  0  0  0  0  0  0  0  0  0  0
   -1.7586   -2.0580    0.8686 C   0  0  0  0  0  0  0  0  0  0  0  0
   -0.9666   -2.6340    1.6026 O   0  0  0  0  0  0  0  0  0  0  0  0
   -1.4866   -0.9220    0.2366 N   0  0  0  0  0  0  0  0  0  0  0  0
   -2.2166   -0.4790   -0.2994 H   0  0  0  0  0  0  0  0  0  0  0  0
   -0.1956   -0.2250    0.2596 C   0  0  1  0  0  0  0  0  0  0  0  0
    0.5755   -0.9013   -0.1105 H   0  0  0  0  0  0  0  0  0  0  0  0
   -0.2553    0.9811   -0.6992 C   0  0  0  0  0  0  0  0  0  0  0  0
   -0.2001    0.6016   -1.7207 H   0  0  0  0  0  0  0  0  0  0  0  0
   -1.2098    1.4943   -0.5732 H   0  0  0  0  0  0  0  0  0  0  0  0
    0.8896    1.9866   -0.4901 C   0  0  0  0  0  0  0  0  0  0  0  0
    1.7777    1.4505   -0.1470 H   0  0  0  0  0  0  0  0  0  0  0  0
    1.1240    2.4449   -1.4546 H   0  0  0  0  0  0  0  0  0  0  0  0
    0.5559    3.0886    0.5264 C   0  0  0  0  0  0  0  0  0  0  0  0
   -0.6120    3.1519    0.9720 O   0  5  0  0  0  0  0  0  0  0  0  0
    1.4946    3.8441    0.8631 O   0  0  0  0  0  0  0  0  0  0  0  0
    0.1881    0.1678    1.7015 C   0  0  0  0  0  0  0  0  0  0  0  0
    1.3379    0.0002    2.1133 O   0  0  0  0  0  0  0  0  0  0  0  0
   -0.7666    0.7145    2.4656 N   0  0  0  0  0  0  0  0  0  0  0  0
   -1.6971    0.7705    2.0790 H   0  0  0  0  0  0  0  0  0  0  0  0
   -0.5716    1.1232    3.8542 C   0  0  0  0  0  0  0  0  0  0  0  0
    0.3083    1.7643    3.9293 H   0  0  0  0  0  0  0  0  0  0  0  0
   -1.4485    1.6640    4.2131 H   0  0  0  0  0  0  0  0  0  0  0  0
   -0.4137    0.2381    4.4736 H   0  0  0  0  0  0  0  0  0  0  0  0
  5  6  2  0  0  0  0
  5  7  1  0  0  0  0
  2  3  1  0  0  0  0
  2  4  1  0  0  0  0
  2  5  1  0  0  0  0
  1  2  1  0  0  0  0
 20 21  2  0  0  0  0
 20 22  1  0  0  0  0
 17 18  1  0  0  0  0
 17 19  2  0  0  0  0
 14 15  1  0  0  0  0
 14 16  1  0  0  0  0
 14 17  1  0  0  0  0
 11 12  1  0  0  0  0
 11 13  1  0  0  0  0
 11 14  1  0  0  0  0
  9 10  1  0  0  0  0
  9 11  1  0  0  0  0
  9 20  1  0  0  0  0
  7  8  1  0  0  0  0
  7  9  1  0  0  0  0
 24 25  1  0  0  0  0
 24 26  1  0  0  0  0
 24 27  1  0  0  0  0
 22 23  1  0  0  0  0
 22 24  1  0  0  0  0
M  CHG  1  18  -1
M  END
$$$$
default_name
  -OEChem-02102213163D

 27 26  0     1  0  0  0  0  0999 V2000
   -3.2406   -3.5400    1.2326 H   0  0  0  0  0  0  0  0  0  0  0  0
   -3.1436   -2.6190    0.6606 C   0  0  0  0  0  0  0  0  0  0  0  0
   -3.8786   -1.8920    0.9996 H   0  0  0  0  0  0  0  0  0  0  0  0
   -3.2846   -2.8280   -0.3984 H   0  0  0  0  0  0  0  0  0  0  0  0
   -1.7586   -2.0580    0.8686 C   0  0  0  0  0  0  0  0  0  0  0  0
   -0.9666   -2.6340    1.6026 O   0  0  0  0  0  0  0  0  0  0  0  0
   -1.4866   -0.9220    0.2366 N   0  0  0  0  0  0  0  0  0  0  0  0
   -2.2166   -0.4790   -0.2994 H   0  0  0  0  0  0  0  0  0  0  0  0
   -0.1956   -0.2250    0.2596 C   0  0  1  0  0  0  0  0  0  0  0  0
    0.5755   -0.9013   -0.1105 H   0  0  0  0  0  0  0  0  0  0  0  0
   -0.2553    0.9811   -0.6992 C   0  0  0  0  0  0  0  0  0  0  0  0
   -0.2001    0.6016   -1.7207 H   0  0  0  0  0  0  0  0  0  0  0  0
   -1.2098    1.4943   -0.5732 H   0  0  0  0  0  0  0  0  0  0  0  0
    0.8896    1.9866   -0.4901 C   0  0  0  0  0  0  0  0  0  0  0  0
    1.8334    1.4419   -0.4106 H   0  0  0  0  0  0  0  0  0  0  0  0
    0.9454    2.6309   -1.3715 H   0  0  0  0  0  0  0  0  0  0  0  0
    0.7160    2.8571    0.7633 C   0  0  0  0  0  0  0  0  0  0  0  0
   -0.3584    2.7742    1.4000 O   0  5  0  0  0  0  0  0  0  0  0  0
    1.6845    3.5825    1.0811 O   0  0  0  0  0  0  0  0  0  0  0  0
    0.1881    0.1678    1.7015 C   0  0  0  0  0  0  0  0  0  0  0  0
    1.3379    0.0002    2.1133 O   0  0  0  0  0  0  0  0  0  0  0  0
   -0.7666    0.7145    2.4656 N   0  0  0  0  0  0  0  0  0  0  0  0
   -1.6971    0.7705    2.0790 H   0  0  0  0  0  0  0  0  0  0  0  0
   -0.5716    1.1232    3.8542 C   0  0  0  0  0  0  0  0  0  0  0  0
    0.3083    1.7643    3.9293 H   0  0  0  0  0  0  0  0  0  0  0  0
   -1.4485    1.6640    4.2131 H   0  0  0  0  0  0  0  0  0  0  0  0
   -0.4137    0.2381    4.4736 H   0  0  0  0  0  0  0  0  0  0  0  0
  5  6  2  0  0  0  0
  5  7  1  0  0  0  0
  2  3  1  0  0  0  0
  2  4  1  0  0  0  0
  2  5  1  0  0  0  0
  1  2  1  0  0  0  0
 20 21  2  0  0  0  0
 20 22  1  0  0  0  0
 17 18  1  0  0  0  0
 17 19  2  0  0  0  0
 14 15  1  0  0  0  0
 14 16  1  0  0  0  0
 14 17  1  0  0  0  0
 11 12  1  0  0  0  0
 11 13  1  0  0  0  0
 11 14  1  0  0  0  0
  9 10  1  0  0  0  0
  9 11  1  0  0  0  0
  9 20  1  0  0  0  0
  7  8  1  0  0  0  0
  7  9  1  0  0  0  0
 24 25  1  0  0  0  0
 24 26  1  0  0  0  0
 24 27  1  0  0  0  0
 22 23  1  0  0  0  0
 22 24  1  0  0  0  0
M  CHG  1  18  -1
M  END
$$$$
default_name
  -OEChem-02102213163D

 27 26  0     1  0  0  0  0  0999 V2000
   -3.2406   -3.5400    1.2326 H   0  0  0  0  0  0  0  0  0  0  0  0
   -3.1436   -2.6190    0.6606 C   0  0  0  0  0  0  0  0  0  0  0  0
   -3.8786   -1.8920    0.9996 H   0  0  0  0  0  0  0  0  0  0  0  0
   -3.2846   -2.8280   -0.3984 H   0  0  0  0  0  0  0  0  0  0  0  0
   -1.7586   -2.0580    0.8686 C   0  0  0  0  0  0  0  0  0  0  0  0
   -0.9666   -2.6340    1.6026 O   0  0  0  0  0  0  0  0  0  0  0  0
   -1.4866   -0.9220    0.2366 N   0  0  0  0  0  0  0  0  0  0  0  0
   -2.2166   -0.4790   -0.2994 H   0  0  0  0  0  0  0  0  0  0  0  0
   -0.1956   -0.2250    0.2596 C   0  0  1  0  0  0  0  0  0  0  0  0
    0.5755   -0.9013   -0.1105 H   0  0  0  0  0  0  0  0  0  0  0  0
   -0.2553    0.9811   -0.6992 C   0  0  0  0  0  0  0  0  0  0  0  0
   -0.2001    0.6016   -1.7207 H   0  0  0  0  0  0  0  0  0  0  0  0
   -1.2098    1.4943   -0.5732 H   0  0  0  0  0  0  0  0  0  0  0  0
    0.8896    1.9866   -0.4901 C   0  0  0  0  0  0  0  0  0  0  0  0
    1.8429    1.4863   -0.6763 H   0  0  0  0  0  0  0  0  0  0  0  0
    0.7804    2.7884   -1.2252 H   0  0  0  0  0  0  0  0  0  0  0  0
    0.9188    2.5934    0.9205 C   0  0  0  0  0  0  0  0  0  0  0  0
   -0.0277    2.3358    1.6978 O   0  5  0  0  0  0  0  0  0  0  0  0
    1.9140    3.2946    1.2090 O   0  0  0  0  0  0  0  0  0  0  0  0
    0.1881    0.1678    1.7015 C   0  0  0  0  0  0  0  0  0  0  0  0
    1.3379    0.0002    2.1133 O   0  0  0  0  0  0  0  0  0  0  0  0
   -0.7666    0.7145    2.4656 N   0  0  0  0  0  0  0  0  0  0  0  0
   -1.6971    0.7705    2.0790 H   0  0  0  0  0  0  0  0  0  0  0  0
   -0.5716    1.1232    3.8542 C   0  0  0  0  0  0  0  0  0  0  0  0
    0.3083    1.7643    3.9293 H   0  0  0  0  0  0  0  0  0  0  0  0
   -1.4485    1.6640    4.2131 H   0  0  0  0  0  0  0  0  0  0  0  0
   -0.4137    0.2381    4.4736 H   0  0  0  0  0  0  0  0  0  0  0  0
  5  6  2  0  0  0  0
  5  7  1  0  0  0  0
  2  3  1  0  0  0  0
  2  4  1  0  0  0  0
  2  5  1  0  0  0  0
  1  2  1  0  0  0  0
 20 21  2  0  0  0  0
 20 22  1  0  0  0  0
 17 18  1  0  0  0  0
 17 19  2  0  0  0  0
 14 15  1  0  0  0  0
 14 16  1  0  0  0  0
 14 17  1  0  0  0  0
 11 12  1  0  0  0  0
 11 13  1  0  0  0  0
 11 14  1  0  0  0  0
  9 10  1  0  0  0  0
  9 11  1  0  0  0  0
  9 20  1  0  0  0  0
  7  8  1  0  0  0  0
  7  9  1  0  0  0  0
 24 25  1  0  0  0  0
 24 26  1  0  0  0  0
 24 27  1  0  0  0  0
 22 23  1  0  0  0  0
 22 24  1  0  0  0  0
M  CHG  1  18  -1
M  END
$$$$
default_name
  -OEChem-02102213163D

 27 26  0     1  0  0  0  0  0999 V2000
   -3.2406   -3.5400    1.2326 H   0  0  0  0  0  0  0  0  0  0  0  0
   -3.1436   -2.6190    0.6606 C   0  0  0  0  0  0  0  0  0  0  0  0
   -3.8786   -1.8920    0.9996 H   0  0  0  0  0  0  0  0  0  0  0  0
   -3.2846   -2.8280   -0.3984 H   0  0  0  0  0  0  0  0  0  0  0  0
   -1.7586   -2.0580    0.8686 C   0  0  0  0  0  0  0  0  0  0  0  0
   -0.9666   -2.6340    1.6026 O   0  0  0  0  0  0  0  0  0  0  0  0
   -1.4866   -0.9220    0.2366 N   0  0  0  0  0  0  0  0  0  0  0  0
   -2.2166   -0.4790   -0.2994 H   0  0  0  0  0  0  0  0  0  0  0  0
   -0.1956   -0.2250    0.2596 C   0  0  1  0  0  0  0  0  0  0  0  0
    0.5755   -0.9013   -0.1105 H   0  0  0  0  0  0  0  0  0  0  0  0
   -0.2553    0.9811   -0.6992 C   0  0  0  0  0  0  0  0  0  0  0  0
   -0.2001    0.6016   -1.7207 H   0  0  0  0  0  0  0  0  0  0  0  0
   -1.2098    1.4943   -0.5732 H   0  0  0  0  0  0  0  0  0  0  0  0
    0.8896    1.9866   -0.4901 C   0  0  0  0  0  0  0  0  0  0  0  0
    1.8056    1.5807   -0.9261 H   0  0  0  0  0  0  0  0  0  0  0  0
    0.6403    2.9065   -1.0256 H   0  0  0  0  0  0  0  0  0  0  0  0
    1.1507    2.3156    0.9872 C   0  0  0  0  0  0  0  0  0  0  0  0
    0.3574    1.8666    1.8450 O   0  5  0  0  0  0  0  0  0  0  0  0
    2.1675    2.9999    1.2384 O   0  0  0  0  0  0  0  0  0  0  0  0
    0.1881    0.1678    1.7015 C   0  0  0  0  0  0  0  0  0  0  0  0
    1.3379    0.0002    2.1133 O   0  0  0  0  0  0  0  0  0  0  0  0
   -0.7666    0.7145    2.4656 N   0  0  0  0  0  0  0  0  0  0  0  0
   -1.6971    0.7705    2.0790 H   0  0  0  0  0  0  0  0  0  0  0  0
   -0.5716    1.1232    3.8542 C   0  0  0  0  0  0  0  0  0  0  0  0
    0.3083    1.7643    3.9293 H   0  0  0  0  0  0  0  0  0  0  0  0
   -1.4485    1.6640    4.2131 H   0  0  0  0  0  0  0  0  0  0  0  0
   -0.4137    0.2381    4.4736 H   0  0  0  0  0  0  0  0  0  0  0  0
  5  6  2  0  0  0  0
  5  7  1  0  0  0  0
  2  3  1  0  0  0  0
  2  4  1  0  0  0  0
  2  5  1  0  0  0  0
  1  2  1  0  0  0  0
 20 21  2  0  0  0  0
 20 22  1  0  0  0  0
 17 18  1  0  0  0  0
 17 19  2  0  0  0  0
 14 15  1  0  0  0  0
 14 16  1  0  0  0  0
 14 17  1  0  0  0  0
 11 12  1  0  0  0  0
 11 13  1  0  0  0  0
 11 14  1  0  0  0  0
  9 10  1  0  0  0  0
  9 11  1  0  0  0  0
  9 20  1  0  0  0  0
  7  8  1  0  0  0  0
  7  9  1  0  0  0  0
 24 25  1  0  0  0  0
 24 26  1  0  0  0  0
 24 27  1  0  0  0  0
 22 23  1  0  0  0  0
 22 24  1  0  0  0  0
M  CHG  1  18  -1
M  END
$$$$
default_name
  -OEChem-02102213163D

 27 26  0     1  0  0  0  0  0999 V2000
   -3.2406   -3.5400    1.2326 H   0  0  0  0  0  0  0  0  0  0  0  0
   -3.1436   -2.6190    0.6606 C   0  0  0  0  0  0  0  0  0  0  0  0
   -3.8786   -1.8920    0.9996 H   0  0  0  0  0  0  0  0  0  0  0  0
   -3.2846   -2.8280   -0.3984 H   0  0  0  0  0  0  0  0  0  0  0  0
   -1.7586   -2.0580    0.8686 C   0  0  0  0  0  0  0  0  0  0  0  0
   -0.9666   -2.6340    1.6026 O   0  0  0  0  0  0  0  0  0  0  0  0
   -1.4866   -0.9220    0.2366 N   0  0  0  0  0  0  0  0  0  0  0  0
   -2.2166   -0.4790   -0.2994 H   0  0  0  0  0  0  0  0  0  0  0  0
   -0.1956   -0.2250    0.2596 C   0  0  1  0  0  0  0  0  0  0  0  0
    0.5755   -0.9013   -0.1105 H   0  0  0  0  0  0  0  0  0  0  0  0
   -0.2553    0.9811   -0.6992 C   0  0  0  0  0  0  0  0  0  0  0  0
   -0.2001    0.6016   -1.7207 H   0  0  0  0  0  0  0  0  0  0  0  0
   -1.2098    1.4943   -0.5732 H   0  0  0  0  0  0  0  0  0  0  0  0
    0.8896    1.9866   -0.4901 C   0  0  0  0  0  0  0  0  0  0  0  0
    1.7240    1.7187   -1.1427 H   0  0  0  0  0  0  0  0  0  0  0  0
    0.5345    2.9772   -0.7864 H   0  0  0  0  0  0  0  0  0  0  0  0
    1.3957    2.0425    0.9589 C   0  0  0  0  0  0  0  0  0  0  0  0
    0.7709    1.3986    1.8316 O   0  5  0  0  0  0  0  0  0  0  0  0
    2.4277    2.7185    1.1670 O   0  0  0  0  0  0  0  0  0  0  0  0
    0.1881    0.1678    1.7015 C   0  0  0  0  0  0  0  0  0  0  0  0
    1.3379    0.0002    2.1133 O   0  0  0  0  0  0  0  0  0  0  0  0
   -0.7666    0.7145    2.4656 N   0  0  0  0  0  0  0  0  0  0  0  0
   -1.6971    0.7705    2.0790 H   0  0  0  0  0  0  0  0  0  0  0  0
   -0.5716    1.1232    3.8542 C   0  0  0  0  0  0  0  0  0  0  0  0
    0.3083    1.7643    3.9293 H   0  0  0  0  0  0  0  0  0  0  0  0
   -1.4485    1.6640    4.2131 H   0  0  0  0  0  0  0  0  0  0  0  0
   -0.4137    0.2381    4.4736 H   0  0  0  0  0  0  0  0  0  0  0  0
  5  6  2  0  0  0  0
  5  7  1  0  0  0  0
  2  3  1  0  0  0  0
  2  4  1  0  0  0  0
  2  5  1  0  0  0  0
  1  2  1  0  0  0  0
 20 21  2  0  0  0  0
 20 22  1  0  0  0  0
 17 18  1  0  0  0  0
 17 19  2  0  0  0  0
 14 15  1  0  0  0  0
 14 16  1  0  0  0  0
 14 17  1  0  0  0  0
 11 12  1  0  0  0  0
 11 13  1  0  0  0  0
 11 14  1  0  0  0  0
  9 10  1  0  0  0  0
  9 11  1  0  0  0  0
  9 20  1  0  0  0  0
  7  8  1  0  0  0  0
  7  9  1  0  0  0  0
 24 25  1  0  0  0  0
 24 26  1  0  0  0  0
 24 27  1  0  0  0  0
 22 23  1  0  0  0  0
 22 24  1  0  0  0  0
M  CHG  1  18  -1
M  END
$$$$
default_name
  -OEChem-02102213163D

 27 26  0     1  0  0  0  0  0999 V2000
   -3.2406   -3.5400    1.2326 H   0  0  0  0  0  0  0  0  0  0  0  0
   -3.1436   -2.6190    0.6606 C   0  0  0  0  0  0  0  0  0  0  0  0
   -3.8786   -1.8920    0.9996 H   0  0  0  0  0  0  0  0  0  0  0  0
   -3.2846   -2.8280   -0.3984 H   0  0  0  0  0  0  0  0  0  0  0  0
   -1.7586   -2.0580    0.8686 C   0  0  0  0  0  0  0  0  0  0  0  0
   -0.9666   -2.6340    1.6026 O   0  0  0  0  0  0  0  0  0  0  0  0
   -1.4866   -0.9220    0.2366 N   0  0  0  0  0  0  0  0  0  0  0  0
   -2.2166   -0.4790   -0.2994 H   0  0  0  0  0  0  0  0  0  0  0  0
   -0.1956   -0.2250    0.2596 C   0  0  1  0  0  0  0  0  0  0  0  0
    0.5755   -0.9013   -0.1105 H   0  0  0  0  0  0  0  0  0  0  0  0
   -0.2553    0.9811   -0.6992 C   0  0  0  0  0  0  0  0  0  0  0  0
   -0.2001    0.6016   -1.7207 H   0  0  0  0  0  0  0  0  0  0  0  0
   -1.2098    1.4943   -0.5732 H   0  0  0  0  0  0  0  0  0  0  0  0
    0.8896    1.9866   -0.4901 C   0  0  0  0  0  0  0  0  0  0  0  0
    1.6036    1.8909   -1.3116 H   0  0  0  0  0  0  0  0  0  0  0  0
    0.4703    2.9957   -0.5238 H   0  0  0  0  0  0  0  0  0  0  0  0
    1.6371    1.7929    0.8375 C   0  0  0  0  0  0  0  0  0  0  0  0
    1.1845    0.9637    1.6586 O   0  5  0  0  0  0  0  0  0  0  0  0
    2.6768    2.4696    0.9998 O   0  0  0  0  0  0  0  0  0  0  0  0
    0.1881    0.1678    1.7015 C   0  0  0  0  0  0  0  0  0  0  0  0
    1.3379    0.0002    2.1133 O   0  0  0  0  0  0  0  0  0  0  0  0
   -0.7666    0.7145    2.4656 N   0  0  0  0  0  0  0  0  0  0  0  0
   -1.6971    0.7705    2.0790 H   0  0  0  0  0  0  0  0  0  0  0  0
   -0.5716    1.1232    3.8542 C   0  0  0  0  0  0  0  0  0  0  0  0
    0.3083    1.7643    3.9293 H   0  0  0  0  0  0  0  0  0  0  0  0
   -1.4485    1.6640    4.2131 H   0  0  0  0  0  0  0  0  0  0  0  0
   -0.4137    0.2381    4.4736 H   0  0  0  0  0  0  0  0  0  0  0  0
  5  6  2  0  0  0  0
  5  7  1  0  0  0  0
  2  3  1  0  0  0  0
  2  4  1  0  0  0  0
  2  5  1  0  0  0  0
  1  2  1  0  0  0  0
 20 21  2  0  0  0  0
 20 22  1  0  0  0  0
 17 18  1  0  0  0  0
 17 19  2  0  0  0  0
 14 15  1  0  0  0  0
 14 16  1  0  0  0  0
 14 17  1  0  0  0  0
 11 12  1  0  0  0  0
 11 13  1  0  0  0  0
 11 14  1  0  0  0  0
  9 10  1  0  0  0  0
  9 11  1  0  0  0  0
  9 20  1  0  0  0  0
  7  8  1  0  0  0  0
  7  9  1  0  0  0  0
 24 25  1  0  0  0  0
 24 26  1  0  0  0  0
 24 27  1  0  0  0  0
 22 23  1  0  0  0  0
 22 24  1  0  0  0  0
M  CHG  1  18  -1
M  END
$$$$
default_name
  -OEChem-02102213163D

 27 26  0     1  0  0  0  0  0999 V2000
   -3.2406   -3.5400    1.2326 H   0  0  0  0  0  0  0  0  0  0  0  0
   -3.1436   -2.6190    0.6606 C   0  0  0  0  0  0  0  0  0  0  0  0
   -3.8786   -1.8920    0.9996 H   0  0  0  0  0  0  0  0  0  0  0  0
   -3.2846   -2.8280   -0.3984 H   0  0  0  0  0  0  0  0  0  0  0  0
   -1.7586   -2.0580    0.8686 C   0  0  0  0  0  0  0  0  0  0  0  0
   -0.9666   -2.6340    1.6026 O   0  0  0  0  0  0  0  0  0  0  0  0
   -1.4866   -0.9220    0.2366 N   0  0  0  0  0  0  0  0  0  0  0  0
   -2.2166   -0.4790   -0.2994 H   0  0  0  0  0  0  0  0  0  0  0  0
   -0.1956   -0.2250    0.2596 C   0  0  1  0  0  0  0  0  0  0  0  0
    0.5755   -0.9013   -0.1105 H   0  0  0  0  0  0  0  0  0  0  0  0
   -0.2553    0.9811   -0.6992 C   0  0  0  0  0  0  0  0  0  0  0  0
   -0.2001    0.6016   -1.7207 H   0  0  0  0  0  0  0  0  0  0  0  0
   -1.2098    1.4943   -0.5732 H   0  0  0  0  0  0  0  0  0  0  0  0
    0.8896    1.9866   -0.4901 C   0  0  0  0  0  0  0  0  0  0  0  0
    1.4527    2.0855   -1.4213 H   0  0  0  0  0  0  0  0  0  0  0  0
    0.4521    2.9607   -0.2557 H   0  0  0  0  0  0  0  0  0  0  0  0
    1.8586    1.5836    0.6313 C   0  0  0  0  0  0  0  0  0  0  0  0
    1.5700    0.5914    1.3376 O   0  5  0  0  0  0  0  0  0  0  0  0
    2.8979    2.2701    0.7483 O   0  0  0  0  0  0  0  0  0  0  0  0
    0.1881    0.1678    1.7015 C   0  0  0  0  0  0  0  0  0  0  0  0
    1.3379    0.0002    2.1133 O   0  0  0  0  0  0  0  0  0  0  0  0
   -0.7666    0.7145    2.4656 N   0  0  0  0  0  0  0  0  0  0  0  0
   -1.6971    0.7705    2.0790 H   0  0  0  0  0  0  0  0  0  0  0  0
   -0.5716    1.1232    3.8542 C   0  0  0  0  0  0  0  0  0  0  0  0
    0.3083    1.7643    3.9293 H   0  0  0  0  0  0  0  0  0  0  0  0
   -1.4485    1.6640    4.2131 H   0  0  0  0  0  0  0  0  0  0  0  0
   -0.4137    0.2381    4.4736 H   0  0  0  0  0  0  0  0  0  0  0  0
  5  6  2  0  0  0  0
  5  7  1  0  0  0  0
  2  3  1  0  0  0  0
  2  4  1  0  0  0  0
  2  5  1  0  0  0  0
  1  2  1  0  0  0  0
 20 21  2  0  0  0  0
 20 22  1  0  0  0  0
 17 18  1  0  0  0  0
 17 19  2  0  0  0  0
 14 15  1  0  0  0  0
 14 16  1  0  0  0  0
 14 17  1  0  0  0  0
 11 12  1  0  0  0  0
 11 13  1  0  0  0  0
 11 14  1  0  0  0  0
  9 10  1  0  0  0  0
  9 11  1  0  0  0  0
  9 20  1  0  0  0  0
  7  8  1  0  0  0  0
  7  9  1  0  0  0  0
 24 25  1  0  0  0  0
 24 26  1  0  0  0  0
 24 27  1  0  0  0  0
 22 23  1  0  0  0  0
 22 24  1  0  0  0  0
M  CHG  1  18  -1
M  END
$$$$
default_name
  -OEChem-02102213163D

 27 26  0     1  0  0  0  0  0999 V2000
   -3.2406   -3.5400    1.2326 H   0  0  0  0  0  0  0  0  0  0  0  0
   -3.1436   -2.6190    0.6606 C   0  0  0  0  0  0  0  0  0  0  0  0
   -3.8786   -1.8920    0.9996 H   0  0  0  0  0  0  0  0  0  0  0  0
   -3.2846   -2.8280   -0.3984 H   0  0  0  0  0  0  0  0  0  0  0  0
   -1.7586   -2.0580    0.8686 C   0  0  0  0  0  0  0  0  0  0  0  0
   -0.9666   -2.6340    1.6026 O   0  0  0  0  0  0  0  0  0  0  0  0
   -1.4866   -0.9220    0.2366 N   0  0  0  0  0  0  0  0  0  0  0  0
   -2.2166   -0.4790   -0.2994 H   0  0  0  0  0  0  0  0  0  0  0  0
   -0.1956   -0.2250    0.2596 C   0  0  1  0  0  0  0  0  0  0  0  0
    0.5755   -0.9013   -0.1105 H   0  0  0  0  0  0  0  0  0  0  0  0
   -0.2553    0.9811   -0.6992 C   0  0  0  0  0  0  0  0  0  0  0  0
   -0.2001    0.6016   -1.7207 H   0  0  0  0  0  0  0  0  0  0  0  0
   -1.2098    1.4943   -0.5732 H   0  0  0  0  0  0  0  0  0  0  0  0
    0.8896    1.9866   -0.4901 C   0  0  0  0  0  0  0  0  0  0  0  0
    1.2815    2.2893   -1.4641 H   0  0  0  0  0  0  0  0  0  0  0  0
    0.4811    2.8746   -0.0004 H   0  0  0  0  0  0  0  0  0  0  0  0
    2.0450    1.4289    0.3543 C   0  0  0  0  0  0  0  0  0  0  0  0
    1.9012    0.3073    0.8907 O   0  5  0  0  0  0  0  0  0  0  0  0
    3.0759    2.1337    0.4294 O   0  0  0  0  0  0  0  0  0  0  0  0
    0.1881    0.1678    1.7015 C   0  0  0  0  0  0  0  0  0  0  0  0
    1.3379    0.0002    2.1133 O   0  0  0  0  0  0  0  0  0  0  0  0
   -0.7666    0.7145    2.4656 N   0  0  0  0  0  0  0  0  0  0  0  0
   -1.6971    0.7705    2.0790 H   0  0  0  0  0  0  0  0  0  0  0  0
   -0.5716    1.1232    3.8542 C   0  0  0  0  0  0  0  0  0  0  0  0
    0.3083    1.7643    3.9293 H   0  0  0  0  0  0  0  0  0  0  0  0
   -1.4485    1.6640    4.2131 H   0  0  0  0  0  0  0  0  0  0  0  0
   -0.4137    0.2381    4.4736 H   0  0  0  0  0  0  0  0  0  0  0  0
  5  6  2  0  0  0  0
  5  7  1  0  0  0  0
  2  3  1  0  0  0  0
  2  4  1  0  0  0  0
  2  5  1  0  0  0  0
  1  2  1  0  0  0  0
 20 21  2  0  0  0  0
 20 22  1  0  0  0  0
 17 18  1  0  0  0  0
 17 19  2  0  0  0  0
 14 15  1  0  0  0  0
 14 16  1  0  0  0  0
 14 17  1  0  0  0  0
 11 12  1  0  0  0  0
 11 13  1  0  0  0  0
 11 14  1  0  0  0  0
  9 10  1  0  0  0  0
  9 11  1  0  0  0  0
  9 20  1  0  0  0  0
  7  8  1  0  0  0  0
  7  9  1  0  0  0  0
 24 25  1  0  0  0  0
 24 26  1  0  0  0  0
 24 27  1  0  0  0  0
 22 23  1  0  0  0  0
 22 24  1  0  0  0  0
M  CHG  1  18  -1
M  END
$$$$
default_name
  -OEChem-02102213163D

 27 26  0     1  0  0  0  0  0999 V2000
   -3.2406   -3.5400    1.2326 H   0  0  0  0  0  0  0  0  0  0  0  0
   -3.1436   -2.6190    0.6606 C   0  0  0  0  0  0  0  0  0  0  0  0
   -3.8786   -1.8920    0.9996 H   0  0  0  0  0  0  0  0  0  0  0  0
   -3.2846   -2.8280   -0.3984 H   0  0  0  0  0  0  0  0  0  0  0  0
   -1.7586   -2.0580    0.8686 C   0  0  0  0  0  0  0  0  0  0  0  0
   -0.9666   -2.6340    1.6026 O   0  0  0  0  0  0  0  0  0  0  0  0
   -1.4866   -0.9220    0.2366 N   0  0  0  0  0  0  0  0  0  0  0  0
   -2.2166   -0.4790   -0.2994 H   0  0  0  0  0  0  0  0  0  0  0  0
   -0.1956   -0.2250    0.2596 C   0  0  1  0  0  0  0  0  0  0  0  0
    0.5755   -0.9013   -0.1105 H   0  0  0  0  0  0  0  0  0  0  0  0
   -0.2553    0.9811   -0.6992 C   0  0  0  0  0  0  0  0  0  0  0  0
   -0.2001    0.6016   -1.7207 H   0  0  0  0  0  0  0  0  0  0  0  0
   -1.2098    1.4943   -0.5732 H   0  0  0  0  0  0  0  0  0  0  0  0
    0.8896    1.9866   -0.4901 C   0  0  0  0  0  0  0  0  0  0  0  0
    1.1018    2.4884   -1.4373 H   0  0  0  0  0  0  0  0  0  0  0  0
    0.5553    2.7432    0.2247 H   0  0  0  0  0  0  0  0  0  0  0  0
    2.1836    1.3395    0.0254 C   0  0  0  0  0  0  0  0  0  0  0  0
    2.1555    0.1306    0.3482 O   0  5  0  0  0  0  0  0  0  0  0  0
    3.1988    2.0696    0.0650 O   0  0  0  0  0  0  0  0  0  0  0  0
    0.1881    0.1678    1.7015 C   0  0  0  0  0  0  0  0  0  0  0  0
    1.3379    0.0002    2.1133 O   0  0  0  0  0  0  0  0  0  0  0  0
   -0.7666    0.7145    2.4656 N   0  0  0  0  0  0  0  0  0  0  0  0
   -1.6971    0.7705    2.0790 H   0  0  0  0  0  0  0  0  0  0  0  0
   -0.5716    1.1232    3.8542 C   0  0  0  0  0  0  0  0  0  0  0  0
    0.3083    1.7643    3.9293 H   0  0  0  0  0  0  0  0  0  0  0  0
   -1.4485    1.6640    4.2131 H   0  0  0  0  0  0  0  0  0  0  0  0
   -0.4137    0.2381    4.4736 H   0  0  0  0  0  0  0  0  0  0  0  0
  5  6  2  0  0  0  0
  5  7  1  0  0  0  0
  2  3  1  0  0  0  0
  2  4  1  0  0  0  0
  2  5  1  0  0  0  0
  1  2  1  0  0  0  0
 20 21  2  0  0  0  0
 20 22  1  0  0  0  0
 17 18  1  0  0  0  0
 17 19  2  0  0  0  0
 14 15  1  0  0  0  0
 14 16  1  0  0  0  0
 14 17  1  0  0  0  0
 11 12  1  0  0  0  0
 11 13  1  0  0  0  0
 11 14  1  0  0  0  0
  9 10  1  0  0  0  0
  9 11  1  0  0  0  0
  9 20  1  0  0  0  0
  7  8  1  0  0  0  0
  7  9  1  0  0  0  0
 24 25  1  0  0  0  0
 24 26  1  0  0  0  0
 24 27  1  0  0  0  0
 22 23  1  0  0  0  0
 22 24  1  0  0  0  0
M  CHG  1  18  -1
M  END
$$$$
default_name
  -OEChem-02102213163D

 27 26  0     1  0  0  0  0  0999 V2000
   -3.2406   -3.5400    1.2326 H   0  0  0  0  0  0  0  0  0  0  0  0
   -3.1436   -2.6190    0.6606 C   0  0  0  0  0  0  0  0  0  0  0  0
   -3.8786   -1.8920    0.9996 H   0  0  0  0  0  0  0  0  0  0  0  0
   -3.2846   -2.8280   -0.3984 H   0  0  0  0  0  0  0  0  0  0  0  0
   -1.7586   -2.0580    0.8686 C   0  0  0  0  0  0  0  0  0  0  0  0
   -0.9666   -2.6340    1.6026 O   0  0  0  0  0  0  0  0  0  0  0  0
   -1.4866   -0.9220    0.2366 N   0  0  0  0  0  0  0  0  0  0  0  0
   -2.2166   -0.4790   -0.2994 H   0  0  0  0  0  0  0  0  0  0  0  0
   -0.1956   -0.2250    0.2596 C   0  0  1  0  0  0  0  0  0  0  0  0
    0.5755   -0.9013   -0.1105 H   0  0  0  0  0  0  0  0  0  0  0  0
   -0.2553    0.9811   -0.6992 C   0  0  0  0  0  0  0  0  0  0  0  0
   -0.2001    0.6016   -1.7207 H   0  0  0  0  0  0  0  0  0  0  0  0
   -1.2098    1.4943   -0.5732 H   0  0  0  0  0  0  0  0  0  0  0  0
    0.8896    1.9866   -0.4901 C   0  0  0  0  0  0  0  0  0  0  0  0
    0.9257    2.6692   -1.3426 H   0  0  0  0  0  0  0  0  0  0  0  0
    0.6698    2.5756    0.4043 H   0  0  0  0  0  0  0  0  0  0  0  0
    2.2649    1.3214   -0.3330 C   0  0  0  0  0  0  0  0  0  0  0  0
    2.3155    0.0733   -0.2529 O   0  5  0  0  0  0  0  0  0  0  0  0
    3.2580    2.0823   -0.3200 O   0  0  0  0  0  0  0  0  0  0  0  0
    0.1881    0.1678    1.7015 C   0  0  0  0  0  0  0  0  0  0  0  0
    1.3379    0.0002    2.1133 O   0  0  0  0  0  0  0  0  0  0  0  0
   -0.7666    0.7145    2.4656 N   0  0  0  0  0  0  0  0  0  0  0  0
   -1.6971    0.7705    2.0790 H   0  0  0  0  0  0  0  0  0  0  0  0
   -0.5716    1.1232    3.8542 C   0  0  0  0  0  0  0  0  0  0  0  0
    0.3083    1.7643    3.9293 H   0  0  0  0  0  0  0  0  0  0  0  0
   -1.4485    1.6640    4.2131 H   0  0  0  0  0  0  0  0  0  0  0  0
   -0.4137    0.2381    4.4736 H   0  0  0  0  0  0  0  0  0  0  0  0
  5  6  2  0  0  0  0
  5  7  1  0  0  0  0
  2  3  1  0  0  0  0
  2  4  1  0  0  0  0
  2  5  1  0  0  0  0
  1  2  1  0  0  0  0
 20 21  2  0  0  0  0
 20 22  1  0  0  0  0
 17 18  1  0  0  0  0
 17 19  2  0  0  0  0
 14 15  1  0  0  0  0
 14 16  1  0  0  0  0
 14 17  1  0  0  0  0
 11 12  1  0  0  0  0
 11 13  1  0  0  0  0
 11 14  1  0  0  0  0
  9 10  1  0  0  0  0
  9 11  1  0  0  0  0
  9 20  1  0  0  0  0
  7  8  1  0  0  0  0
  7  9  1  0  0  0  0
 24 25  1  0  0  0  0
 24 26  1  0  0  0  0
 24 27  1  0  0  0  0
 22 23  1  0  0  0  0
 22 24  1  0  0  0  0
M  CHG  1  18  -1
M  END
$$$$
default_name
  -OEChem-02102213163D

 27 26  0     1  0  0  0  0  0999 V2000
   -3.2406   -3.5400    1.2326 H   0  0  0  0  0  0  0  0  0  0  0  0
   -3.1436   -2.6190    0.6606 C   0  0  0  0  0  0  0  0  0  0  0  0
   -3.8786   -1.8920    0.9996 H   0  0  0  0  0  0  0  0  0  0  0  0
   -3.2846   -2.8280   -0.3984 H   0  0  0  0  0  0  0  0  0  0  0  0
   -1.7586   -2.0580    0.8686 C   0  0  0  0  0  0  0  0  0  0  0  0
   -0.9666   -2.6340    1.6026 O   0  0  0  0  0  0  0  0  0  0  0  0
   -1.4866   -0.9220    0.2366 N   0  0  0  0  0  0  0  0  0  0  0  0
   -2.2166   -0.4790   -0.2994 H   0  0  0  0  0  0  0  0  0  0  0  0
   -0.1956   -0.2250    0.2596 C   0  0  1  0  0  0  0  0  0  0  0  0
    0.5755   -0.9013   -0.1105 H   0  0  0  0  0  0  0  0  0  0  0  0
   -0.2553    0.9811   -0.6992 C   0  0  0  0  0  0  0  0  0  0  0  0
   -0.2001    0.6016   -1.7207 H   0  0  0  0  0  0  0  0  0  0  0  0
   -1.2098    1.4943   -0.5732 H   0  0  0  0  0  0  0  0  0  0  0  0
    0.8896    1.9866   -0.4901 C   0  0  0  0  0  0  0  0  0  0  0  0
    0.7653    2.8194   -1.1865 H   0  0  0  0  0  0  0  0  0  0  0  0
    0.8166    2.3832    0.5260 H   0  0  0  0  0  0  0  0  0  0  0  0
    2.2835    1.3757   -0.6964 C   0  0  0  0  0  0  0  0  0  0  0  0
    2.3704    0.1395   -0.8716 O   0  5  0  0  0  0  0  0  0  0  0  0
    3.2496    2.1708   -0.6996 O   0  0  0  0  0  0  0  0  0  0  0  0
    0.1881    0.1678    1.7015 C   0  0  0  0  0  0  0  0  0  0  0  0
    1.3379    0.0002    2.1133 O   0  0  0  0  0  0  0  0  0  0  0  0
   -0.7666    0.7145    2.4656 N   0  0  0  0  0  0  0  0  0  0  0  0
   -1.6971    0.7705    2.0790 H   0  0  0  0  0  0  0  0  0  0  0  0
   -0.5716    1.1232    3.8542 C   0  0  0  0  0  0  0  0  0  0  0  0
    0.3083    1.7643    3.9293 H   0  0  0  0  0  0  0  0  0  0  0  0
   -1.4485    1.6640    4.2131 H   0  0  0  0  0  0  0  0  0  0  0  0
   -0.4137    0.2381    4.4736 H   0  0  0  0  0  0  0  0  0  0  0  0
  5  6  2  0  0  0  0
  5  7  1  0  0  0  0
  2  3  1  0  0  0  0
  2  4  1  0  0  0  0
  2  5  1  0  0  0  0
  1  2  1  0  0  0  0
 20 21  2  0  0  0  0
 20 22  1  0  0  0  0
 17 18  1  0  0  0  0
 17 19  2  0  0  0  0
 14 15  1  0  0  0  0
 14 16  1  0  0  0  0
 14 17  1  0  0  0  0
 11 12  1  0  0  0  0
 11 13  1  0  0  0  0
 11 14  1  0  0  0  0
  9 10  1  0  0  0  0
  9 11  1  0  0  0  0
  9 20  1  0  0  0  0
  7  8  1  0  0  0  0
  7  9  1  0  0  0  0
 24 25  1  0  0  0  0
 24 26  1  0  0  0  0
 24 27  1  0  0  0  0
 22 23  1  0  0  0  0
 22 24  1  0  0  0  0
M  CHG  1  18  -1
M  END
$$$$
default_name
  -OEChem-02102213163D

 27 26  0     1  0  0  0  0  0999 V2000
   -3.2406   -3.5400    1.2326 H   0  0  0  0  0  0  0  0  0  0  0  0
   -3.1436   -2.6190    0.6606 C   0  0  0  0  0  0  0  0  0  0  0  0
   -3.8786   -1.8920    0.9996 H   0  0  0  0  0  0  0  0  0  0  0  0
   -3.2846   -2.8280   -0.3984 H   0  0  0  0  0  0  0  0  0  0  0  0
   -1.7586   -2.0580    0.8686 C   0  0  0  0  0  0  0  0  0  0  0  0
   -0.9666   -2.6340    1.6026 O   0  0  0  0  0  0  0  0  0  0  0  0
   -1.4866   -0.9220    0.2366 N   0  0  0  0  0  0  0  0  0  0  0  0
   -2.2166   -0.4790   -0.2994 H   0  0  0  0  0  0  0  0  0  0  0  0
   -0.1956   -0.2250    0.2596 C   0  0  1  0  0  0  0  0  0  0  0  0
    0.5755   -0.9013   -0.1105 H   0  0  0  0  0  0  0  0  0  0  0  0
   -0.2553    0.9811   -0.6992 C   0  0  0  0  0  0  0  0  0  0  0  0
   -0.2001    0.6016   -1.7207 H   0  0  0  0  0  0  0  0  0  0  0  0
   -1.2098    1.4943   -0.5732 H   0  0  0  0  0  0  0  0  0  0  0  0
    0.8896    1.9866   -0.4901 C   0  0  0  0  0  0  0  0  0  0  0  0
    0.6314    2.9288   -0.9796 H   0  0  0  0  0  0  0  0  0  0  0  0
    0.9857    2.1789    0.5818 H   0  0  0  0  0  0  0  0  0  0  0  0
    2.2381    1.4989   -1.0401 C   0  0  0  0  0  0  0  0  0  0  0  0
    2.3163    0.3245   -1.4658 O   0  5  0  0  0  0  0  0  0  0  0  0
    3.1741    2.3290   -1.0478 O   0  0  0  0  0  0  0  0  0  0  0  0
    0.1881    0.1678    1.7015 C   0  0  0  0  0  0  0  0  0  0  0  0
    1.3379    0.0002    2.1133 O   0  0  0  0  0  0  0  0  0  0  0  0
   -0.7666    0.7145    2.4656 N   0  0  0  0  0  0  0  0  0  0  0  0
   -1.6971    0.7705    2.0790 H   0  0  0  0  0  0  0  0  0  0  0  0
   -0.5716    1.1232    3.8542 C   0  0  0  0  0  0  0  0  0  0  0  0
    0.3083    1.7643    3.9293 H   0  0  0  0  0  0  0  0  0  0  0  0
   -1.4485    1.6640    4.2131 H   0  0  0  0  0  0  0  0  0  0  0  0
   -0.4137    0.2381    4.4736 H   0  0  0  0  0  0  0  0  0  0  0  0
  5  6  2  0  0  0  0
  5  7  1  0  0  0  0
  2  3  1  0  0  0  0
  2  4  1  0  0  0  0
  2  5  1  0  0  0  0
  1  2  1  0  0  0  0
 20 21  2  0  0  0  0
 20 22  1  0  0  0  0
 17 18  1  0  0  0  0
 17 19  2  0  0  0  0
 14 15  1  0  0  0  0
 14 16  1  0  0  0  0
 14 17  1  0  0  0  0
 11 12  1  0  0  0  0
 11 13  1  0  0  0  0
 11 14  1  0  0  0  0
  9 10  1  0  0  0  0
  9 11  1  0  0  0  0
  9 20  1  0  0  0  0
  7  8  1  0  0  0  0
  7  9  1  0  0  0  0
 24 25  1  0  0  0  0
 24 26  1  0  0  0  0
 24 27  1  0  0  0  0
 22 23  1  0  0  0  0
 22 24  1  0  0  0  0
M  CHG  1  18  -1
M  END
$$$$
default_name
  -OEChem-02102213163D

 27 26  0     1  0  0  0  0  0999 V2000
   -3.2406   -3.5400    1.2326 H   0  0  0  0  0  0  0  0  0  0  0  0
   -3.1436   -2.6190    0.6606 C   0  0  0  0  0  0  0  0  0  0  0  0
   -3.8786   -1.8920    0.9996 H   0  0  0  0  0  0  0  0  0  0  0  0
   -3.2846   -2.8280   -0.3984 H   0  0  0  0  0  0  0  0  0  0  0  0
   -1.7586   -2.0580    0.8686 C   0  0  0  0  0  0  0  0  0  0  0  0
   -0.9666   -2.6340    1.6026 O   0  0  0  0  0  0  0  0  0  0  0  0
   -1.4866   -0.9220    0.2366 N   0  0  0  0  0  0  0  0  0  0  0  0
   -2.2166   -0.4790   -0.2994 H   0  0  0  0  0  0  0  0  0  0  0  0
   -0.1956   -0.2250    0.2596 C   0  0  1  0  0  0  0  0  0  0  0  0
    0.5755   -0.9013   -0.1105 H   0  0  0  0  0  0  0  0  0  0  0  0
   -0.2553    0.9811   -0.6992 C   0  0  0  0  0  0  0  0  0  0  0  0
   -0.2001    0.6016   -1.7207 H   0  0  0  0  0  0  0  0  0  0  0  0
   -1.2098    1.4943   -0.5732 H   0  0  0  0  0  0  0  0  0  0  0  0
    0.8896    1.9866   -0.4901 C   0  0  0  0  0  0  0  0  0  0  0  0
    0.5333    2.9899   -0.7361 H   0  0  0  0  0  0  0  0  0  0  0  0
    1.1658    1.9769    0.5676 H   0  0  0  0  0  0  0  0  0  0  0  0
    2.1317    1.6825   -1.3407 C   0  0  0  0  0  0  0  0  0  0  0  0
    2.1571    0.6158   -1.9949 O   0  5  0  0  0  0  0  0  0  0  0  0
    3.0368    2.5464   -1.3408 O   0  0  0  0  0  0  0  0  0  0  0  0
    0.1881    0.1678    1.7015 C   0  0  0  0  0  0  0  0  0  0  0  0
    1.3379    0.0002    2.1133 O   0  0  0  0  0  0  0  0  0  0  0  0
   -0.7666    0.7145    2.4656 N   0  0  0  0  0  0  0  0  0  0  0  0
   -1.6971    0.7705    2.0790 H   0  0  0  0  0  0  0  0  0  0  0  0
   -0.5716    1.1232    3.8542 C   0  0  0  0  0  0  0  0  0  0  0  0
    0.3083    1.7643    3.9293 H   0  0  0  0  0  0  0  0  0  0  0  0
   -1.4485    1.6640    4.2131 H   0  0  0  0  0  0  0  0  0  0  0  0
   -0.4137    0.2381    4.4736 H   0  0  0  0  0  0  0  0  0  0  0  0
  5  6  2  0  0  0  0
  5  7  1  0  0  0  0
  2  3  1  0  0  0  0
  2  4  1  0  0  0  0
  2  5  1  0  0  0  0
  1  2  1  0  0  0  0
 20 21  2  0  0  0  0
 20 22  1  0  0  0  0
 17 18  1  0  0  0  0
 17 19  2  0  0  0  0
 14 15  1  0  0  0  0
 14 16  1  0  0  0  0
 14 17  1  0  0  0  0
 11 12  1  0  0  0  0
 11 13  1  0  0  0  0
 11 14  1  0  0  0  0
  9 10  1  0  0  0  0
  9 11  1  0  0  0  0
  9 20  1  0  0  0  0
  7  8  1  0  0  0  0
  7  9  1  0  0  0  0
 24 25  1  0  0  0  0
 24 26  1  0  0  0  0
 24 27  1  0  0  0  0
 22 23  1  0  0  0  0
 22 24  1  0  0  0  0
M  CHG  1  18  -1
M  END
$$$$
default_name
  -OEChem-02102213163D

 27 26  0     1  0  0  0  0  0999 V2000
   -3.2406   -3.5400    1.2326 H   0  0  0  0  0  0  0  0  0  0  0  0
   -3.1436   -2.6190    0.6606 C   0  0  0  0  0  0  0  0  0  0  0  0
   -3.8786   -1.8920    0.9996 H   0  0  0  0  0  0  0  0  0  0  0  0
   -3.2846   -2.8280   -0.3984 H   0  0  0  0  0  0  0  0  0  0  0  0
   -1.7586   -2.0580    0.8686 C   0  0  0  0  0  0  0  0  0  0  0  0
   -0.9666   -2.6340    1.6026 O   0  0  0  0  0  0  0  0  0  0  0  0
   -1.4866   -0.9220    0.2366 N   0  0  0  0  0  0  0  0  0  0  0  0
   -2.2166   -0.4790   -0.2994 H   0  0  0  0  0  0  0  0  0  0  0  0
   -0.1956   -0.2250    0.2596 C   0  0  1  0  0  0  0  0  0  0  0  0
    0.5755   -0.9013   -0.1105 H   0  0  0  0  0  0  0  0  0  0  0  0
   -0.2553    0.9811   -0.6992 C   0  0  0  0  0  0  0  0  0  0  0  0
   -0.2001    0.6016   -1.7207 H   0  0  0  0  0  0  0  0  0  0  0  0
   -1.2098    1.4943   -0.5732 H   0  0  0  0  0  0  0  0  0  0  0  0
    0.8896    1.9866   -0.4901 C   0  0  0  0  0  0  0  0  0  0  0  0
    0.4776    2.9985   -0.4725 H   0  0  0  0  0  0  0  0  0  0  0  0
    1.3444    1.7908    0.4845 H   0  0  0  0  0  0  0  0  0  0  0  0
    1.9717    1.9141   -1.5776 C   0  0  0  0  0  0  0  0  0  0  0  0
    1.9036    0.9936   -2.4229 O   0  5  0  0  0  0  0  0  0  0  0  0
    2.8469    2.8079   -1.5587 O   0  0  0  0  0  0  0  0  0  0  0  0
    0.1881    0.1678    1.7015 C   0  0  0  0  0  0  0  0  0  0  0  0
    1.3379    0.0002    2.1133 O   0  0  0  0  0  0  0  0  0  0  0  0
   -0.7666    0.7145    2.4656 N   0  0  0  0  0  0  0  0  0  0  0  0
   -1.6971    0.7705    2.0790 H   0  0  0  0  0  0  0  0  0  0  0  0
   -0.5716    1.1232    3.8542 C   0  0  0  0  0  0  0  0  0  0  0  0
    0.3083    1.7643    3.9293 H   0  0  0  0  0  0  0  0  0  0  0  0
   -1.4485    1.6640    4.2131 H   0  0  0  0  0  0  0  0  0  0  0  0
   -0.4137    0.2381    4.4736 H   0  0  0  0  0  0  0  0  0  0  0  0
  5  6  2  0  0  0  0
  5  7  1  0  0  0  0
  2  3  1  0  0  0  0
  2  4  1  0  0  0  0
  2  5  1  0  0  0  0
  1  2  1  0  0  0  0
 20 21  2  0  0  0  0
 20 22  1  0  0  0  0
 17 18  1  0  0  0  0
 17 19  2  0  0  0  0
 14 15  1  0  0  0  0
 14 16  1  0  0  0  0
 14 17  1  0  0  0  0
 11 12  1  0  0  0  0
 11 13  1  0  0  0  0
 11 14  1  0  0  0  0
  9 10  1  0  0  0  0
  9 11  1  0  0  0  0
  9 20  1  0  0  0  0
  7  8  1  0  0  0  0
  7  9  1  0  0  0  0
 24 25  1  0  0  0  0
 24 26  1  0  0  0  0
 24 27  1  0  0  0  0
 22 23  1  0  0  0  0
 22 24  1  0  0  0  0
M  CHG  1  18  -1
M  END
$$$$
default_name
  -OEChem-02102213163D

 27 26  0     1  0  0  0  0  0999 V2000
   -3.2406   -3.5400    1.2326 H   0  0  0  0  0  0  0  0  0  0  0  0
   -3.1436   -2.6190    0.6606 C   0  0  0  0  0  0  0  0  0  0  0  0
   -3.8786   -1.8920    0.9996 H   0  0  0  0  0  0  0  0  0  0  0  0
   -3.2846   -2.8280   -0.3984 H   0  0  0  0  0  0  0  0  0  0  0  0
   -1.7586   -2.0580    0.8686 C   0  0  0  0  0  0  0  0  0  0  0  0
   -0.9666   -2.6340    1.6026 O   0  0  0  0  0  0  0  0  0  0  0  0
   -1.4866   -0.9220    0.2366 N   0  0  0  0  0  0  0  0  0  0  0  0
   -2.2166   -0.4790   -0.2994 H   0  0  0  0  0  0  0  0  0  0  0  0
   -0.1956   -0.2250    0.2596 C   0  0  1  0  0  0  0  0  0  0  0  0
    0.5755   -0.9013   -0.1105 H   0  0  0  0  0  0  0  0  0  0  0  0
   -0.2553    0.9811   -0.6992 C   0  0  0  0  0  0  0  0  0  0  0  0
   -0.2001    0.6016   -1.7207 H   0  0  0  0  0  0  0  0  0  0  0  0
   -1.2098    1.4943   -0.5732 H   0  0  0  0  0  0  0  0  0  0  0  0
    0.8896    1.9866   -0.4901 C   0  0  0  0  0  0  0  0  0  0  0  0
    0.4681    2.9541   -0.2067 H   0  0  0  0  0  0  0  0  0  0  0  0
    1.5094    1.6334    0.3382 H   0  0  0  0  0  0  0  0  0  0  0  0
    1.7688    2.1777   -1.7348 C   0  0  0  0  0  0  0  0  0  0  0  0
    1.5729    1.4319   -2.7207 O   0  5  0  0  0  0  0  0  0  0  0  0
    2.6173    3.0958   -1.6867 O   0  0  0  0  0  0  0  0  0  0  0  0
    0.1881    0.1678    1.7015 C   0  0  0  0  0  0  0  0  0  0  0  0
    1.3379    0.0002    2.1133 O   0  0  0  0  0  0  0  0  0  0  0  0
   -0.7666    0.7145    2.4656 N   0  0  0  0  0  0  0  0  0  0  0  0
   -1.6971    0.7705    2.0790 H   0  0  0  0  0  0  0  0  0  0  0  0
   -0.5716    1.1232    3.8542 C   0  0  0  0  0  0  0  0  0  0  0  0
    0.3083    1.7643    3.9293 H   0  0  0  0  0  0  0  0  0  0  0  0
   -1.4485    1.6640    4.2131 H   0  0  0  0  0  0  0  0  0  0  0  0
   -0.4137    0.2381    4.4736 H   0  0  0  0  0  0  0  0  0  0  0  0
  5  6  2  0  0  0  0
  5  7  1  0  0  0  0
  2  3  1  0  0  0  0
  2  4  1  0  0  0  0
  2  5  1  0  0  0  0
  1  2  1  0  0  0  0
 20 21  2  0  0  0  0
 20 22  1  0  0  0  0
 17 18  1  0  0  0  0
 17 19  2  0  0  0  0
 14 15  1  0  0  0  0
 14 16  1  0  0  0  0
 14 17  1  0  0  0  0
 11 12  1  0  0  0  0
 11 13  1  0  0  0  0
 11 14  1  0  0  0  0
  9 10  1  0  0  0  0
  9 11  1  0  0  0  0
  9 20  1  0  0  0  0
  7  8  1  0  0  0  0
  7  9  1  0  0  0  0
 24 25  1  0  0  0  0
 24 26  1  0  0  0  0
 24 27  1  0  0  0  0
 22 23  1  0  0  0  0
 22 24  1  0  0  0  0
M  CHG  1  18  -1
M  END
$$$$
default_name
  -OEChem-02102213163D

 27 26  0     1  0  0  0  0  0999 V2000
   -3.2406   -3.5400    1.2326 H   0  0  0  0  0  0  0  0  0  0  0  0
   -3.1436   -2.6190    0.6606 C   0  0  0  0  0  0  0  0  0  0  0  0
   -3.8786   -1.8920    0.9996 H   0  0  0  0  0  0  0  0  0  0  0  0
   -3.2846   -2.8280   -0.3984 H   0  0  0  0  0  0  0  0  0  0  0  0
   -1.7586   -2.0580    0.8686 C   0  0  0  0  0  0  0  0  0  0  0  0
   -0.9666   -2.6340    1.6026 O   0  0  0  0  0  0  0  0  0  0  0  0
   -1.4866   -0.9220    0.2366 N   0  0  0  0  0  0  0  0  0  0  0  0
   -2.2166   -0.4790   -0.2994 H   0  0  0  0  0  0  0  0  0  0  0  0
   -0.1956   -0.2250    0.2596 C   0  0  1  0  0  0  0  0  0  0  0  0
    0.5755   -0.9013   -0.1105 H   0  0  0  0  0  0  0  0  0  0  0  0
   -0.2553    0.9811   -0.6992 C   0  0  0  0  0  0  0  0  0  0  0  0
   -0.2001    0.6016   -1.7207 H   0  0  0  0  0  0  0  0  0  0  0  0
   -1.2098    1.4943   -0.5732 H   0  0  0  0  0  0  0  0  0  0  0  0
    0.8896    1.9866   -0.4901 C   0  0  0  0  0  0  0  0  0  0  0  0
    0.5054    2.8597    0.0430 H   0  0  0  0  0  0  0  0  0  0  0  0
    1.6495    1.5152    0.1387 H   0  0  0  0  0  0  0  0  0  0  0  0
    1.5370    2.4556   -1.8016 C   0  0  0  0  0  0  0  0  0  0  0  0
    1.1877    1.9011   -2.8679 O   0  5  0  0  0  0  0  0  0  0  0  0
    2.3639    3.3906   -1.7160 O   0  0  0  0  0  0  0  0  0  0  0  0
    0.1881    0.1678    1.7015 C   0  0  0  0  0  0  0  0  0  0  0  0
    1.3379    0.0002    2.1133 O   0  0  0  0  0  0  0  0  0  0  0  0
   -0.7666    0.7145    2.4656 N   0  0  0  0  0  0  0  0  0  0  0  0
   -1.6971    0.7705    2.0790 H   0  0  0  0  0  0  0  0  0  0  0  0
   -0.5716    1.1232    3.8542 C   0  0  0  0  0  0  0  0  0  0  0  0
    0.3083    1.7643    3.9293 H   0  0  0  0  0  0  0  0  0  0  0  0
   -1.4485    1.6640    4.2131 H   0  0  0  0  0  0  0  0  0  0  0  0
   -0.4137    0.2381    4.4736 H   0  0  0  0  0  0  0  0  0  0  0  0
  5  6  2  0  0  0  0
  5  7  1  0  0  0  0
  2  3  1  0  0  0  0
  2  4  1  0  0  0  0
  2  5  1  0  0  0  0
  1  2  1  0  0  0  0
 20 21  2  0  0  0  0
 20 22  1  0  0  0  0
 17 18  1  0  0  0  0
 17 19  2  0  0  0  0
 14 15  1  0  0  0  0
 14 16  1  0  0  0  0
 14 17  1  0  0  0  0
 11 12  1  0  0  0  0
 11 13  1  0  0  0  0
 11 14  1  0  0  0  0
  9 10  1  0  0  0  0
  9 11  1  0  0  0  0
  9 20  1  0  0  0  0
  7  8  1  0  0  0  0
  7  9  1  0  0  0  0
 24 25  1  0  0  0  0
 24 26  1  0  0  0  0
 24 27  1  0  0  0  0
 22 23  1  0  0  0  0
 22 24  1  0  0  0  0
M  CHG  1  18  -1
M  END
$$$$
default_name
  -OEChem-02102213163D

 27 26  0     1  0  0  0  0  0999 V2000
   -3.2406   -3.5400    1.2326 H   0  0  0  0  0  0  0  0  0  0  0  0
   -3.1436   -2.6190    0.6606 C   0  0  0  0  0  0  0  0  0  0  0  0
   -3.8786   -1.8920    0.9996 H   0  0  0  0  0  0  0  0  0  0  0  0
   -3.2846   -2.8280   -0.3984 H   0  0  0  0  0  0  0  0  0  0  0  0
   -1.7586   -2.0580    0.8686 C   0  0  0  0  0  0  0  0  0  0  0  0
   -0.9666   -2.6340    1.6026 O   0  0  0  0  0  0  0  0  0  0  0  0
   -1.4866   -0.9220    0.2366 N   0  0  0  0  0  0  0  0  0  0  0  0
   -2.2166   -0.4790   -0.2994 H   0  0  0  0  0  0  0  0  0  0  0  0
   -0.1956   -0.2250    0.2596 C   0  0  1  0  0  0  0  0  0  0  0  0
    0.5755   -0.9013   -0.1105 H   0  0  0  0  0  0  0  0  0  0  0  0
   -0.2553    0.9811   -0.6992 C   0  0  0  0  0  0  0  0  0  0  0  0
   -0.2001    0.6016   -1.7207 H   0  0  0  0  0  0  0  0  0  0  0  0
   -1.2098    1.4943   -0.5732 H   0  0  0  0  0  0  0  0  0  0  0  0
    0.8896    1.9866   -0.4901 C   0  0  0  0  0  0  0  0  0  0  0  0
    0.5871    2.7217    0.2596 H   0  0  0  0  0  0  0  0  0  0  0  0
    1.7553    1.4445   -0.1006 H   0  0  0  0  0  0  0  0  0  0  0  0
    1.2920    2.7286   -1.7732 C   0  0  0  0  0  0  0  0  0  0  0  0
    0.7742    2.3692   -2.8545 O   0  5  0  0  0  0  0  0  0  0  0  0
    2.1037    3.6720   -1.6447 O   0  0  0  0  0  0  0  0  0  0  0  0
    0.1881    0.1678    1.7015 C   0  0  0  0  0  0  0  0  0  0  0  0
    1.3379    0.0002    2.1133 O   0  0  0  0  0  0  0  0  0  0  0  0
   -0.7666    0.7145    2.4656 N   0  0  0  0  0  0  0  0  0  0  0  0
   -1.6971    0.7705    2.0790 H   0  0  0  0  0  0  0  0  0  0  0  0
   -0.5716    1.1232    3.8542 C   0  0  0  0  0  0  0  0  0  0  0  0
    0.3083    1.7643    3.9293 H   0  0  0  0  0  0  0  0  0  0  0  0
   -1.4485    1.6640    4.2131 H   0  0  0  0  0  0  0  0  0  0  0  0
   -0.4137    0.2381    4.4736 H   0  0  0  0  0  0  0  0  0  0  0  0
  5  6  2  0  0  0  0
  5  7  1  0  0  0  0
  2  3  1  0  0  0  0
  2  4  1  0  0  0  0
  2  5  1  0  0  0  0
  1  2  1  0  0  0  0
 20 21  2  0  0  0  0
 20 22  1  0  0  0  0
 17 18  1  0  0  0  0
 17 19  2  0  0  0  0
 14 15  1  0  0  0  0
 14 16  1  0  0  0  0
 14 17  1  0  0  0  0
 11 12  1  0  0  0  0
 11 13  1  0  0  0  0
 11 14  1  0  0  0  0
  9 10  1  0  0  0  0
  9 11  1  0  0  0  0
  9 20  1  0  0  0  0
  7  8  1  0  0  0  0
  7  9  1  0  0  0  0
 24 25  1  0  0  0  0
 24 26  1  0  0  0  0
 24 27  1  0  0  0  0
 22 23  1  0  0  0  0
 22 24  1  0  0  0  0
M  CHG  1  18  -1
M  END
$$$$
default_name
  -OEChem-02102213163D

 27 26  0     1  0  0  0  0  0999 V2000
   -3.2406   -3.5400    1.2326 H   0  0  0  0  0  0  0  0  0  0  0  0
   -3.1436   -2.6190    0.6606 C   0  0  0  0  0  0  0  0  0  0  0  0
   -3.8786   -1.8920    0.9996 H   0  0  0  0  0  0  0  0  0  0  0  0
   -3.2846   -2.8280   -0.3984 H   0  0  0  0  0  0  0  0  0  0  0  0
   -1.7586   -2.0580    0.8686 C   0  0  0  0  0  0  0  0  0  0  0  0
   -0.9666   -2.6340    1.6026 O   0  0  0  0  0  0  0  0  0  0  0  0
   -1.4866   -0.9220    0.2366 N   0  0  0  0  0  0  0  0  0  0  0  0
   -2.2166   -0.4790   -0.2994 H   0  0  0  0  0  0  0  0  0  0  0  0
   -0.1956   -0.2250    0.2596 C   0  0  1  0  0  0  0  0  0  0  0  0
    0.5755   -0.9013   -0.1105 H   0  0  0  0  0  0  0  0  0  0  0  0
   -0.2553    0.9811   -0.6992 C   0  0  0  0  0  0  0  0  0  0  0  0
   -0.2001    0.6016   -1.7207 H   0  0  0  0  0  0  0  0  0  0  0  0
   -1.2098    1.4943   -0.5732 H   0  0  0  0  0  0  0  0  0  0  0  0
    0.8896    1.9866   -0.4901 C   0  0  0  0  0  0  0  0  0  0  0  0
    0.7074    2.5495    0.4286 H   0  0  0  0  0  0  0  0  0  0  0  0
    1.8195    1.4261   -0.3632 H   0  0  0  0  0  0  0  0  0  0  0  0
    1.0505    2.9783   -1.6518 C   0  0  0  0  0  0  0  0  0  0  0  0
    0.3607    2.8041   -2.6815 O   0  5  0  0  0  0  0  0  0  0  0  0
    1.8546    3.9209   -1.4775 O   0  0  0  0  0  0  0  0  0  0  0  0
    0.1881    0.1678    1.7015 C   0  0  0  0  0  0  0  0  0  0  0  0
    1.3379    0.0002    2.1133 O   0  0  0  0  0  0  0  0  0  0  0  0
   -0.7666    0.7145    2.4656 N   0  0  0  0  0  0  0  0  0  0  0  0
   -1.6971    0.7705    2.0790 H   0  0  0  0  0  0  0  0  0  0  0  0
   -0.5716    1.1232    3.8542 C   0  0  0  0  0  0  0  0  0  0  0  0
    0.3083    1.7643    3.9293 H   0  0  0  0  0  0  0  0  0  0  0  0
   -1.4485    1.6640    4.2131 H   0  0  0  0  0  0  0  0  0  0  0  0
   -0.4137    0.2381    4.4736 H   0  0  0  0  0  0  0  0  0  0  0  0
  5  6  2  0  0  0  0
  5  7  1  0  0  0  0
  2  3  1  0  0  0  0
  2  4  1  0  0  0  0
  2  5  1  0  0  0  0
  1  2  1  0  0  0  0
 20 21  2  0  0  0  0
 20 22  1  0  0  0  0
 17 18  1  0  0  0  0
 17 19  2  0  0  0  0
 14 15  1  0  0  0  0
 14 16  1  0  0  0  0
 14 17  1  0  0  0  0
 11 12  1  0  0  0  0
 11 13  1  0  0  0  0
 11 14  1  0  0  0  0
  9 10  1  0  0  0  0
  9 11  1  0  0  0  0
  9 20  1  0  0  0  0
  7  8  1  0  0  0  0
  7  9  1  0  0  0  0
 24 25  1  0  0  0  0
 24 26  1  0  0  0  0
 24 27  1  0  0  0  0
 22 23  1  0  0  0  0
 22 24  1  0  0  0  0
M  CHG  1  18  -1
M  END
$$$$
