@<TRIPOS>MOLECULE
default_name
   23    22     1     0     0
SMALL
No Charge or Current Charge


@<TRIPOS>ATOM
      1 H1          25.9620    25.1220    24.4220 H          1 ACE       0.112300
      2 CH3         25.9780    26.1680    24.1170 C.3        1 ACE      -0.366200
      3 H2          25.3940    26.7610    24.8180 H          1 ACE       0.112300
      4 H3          25.5670    26.2640    23.1150 H          1 ACE       0.112300
      5 C           27.4080    26.6560    24.1210 C.2        1 ACE       0.597200
      6 O           28.3160    25.8980    24.4320 O.2        1 ACE      -0.567900
      7 N           27.6060    27.9240    23.7670 N.am       2 SER      -0.415700
      8 H           26.8040    28.4980    23.5460 H          2 SER       0.271900
      9 CA          28.9050    28.6090    23.7920 C.3        2 SER      -0.024900
     10 HA          29.4400    28.3140    24.6950 H          2 SER       0.084300
     11 CB          29.7450    28.1800    22.5820 C.3        2 SER       0.211700
     12 HB2         29.8120    27.0910    22.5610 H          2 SER       0.035200
     13 HB3         29.2630    28.5210    21.6640 H          2 SER       0.035200
     14 OG          31.0530    28.7150    22.6600 O.3        2 SER      -0.654600
     15 HG          31.5940    28.2880    21.9870 H          2 SER       0.427500
     16 C           28.7110    30.1340    23.8300 C.2        2 SER       0.597300
     17 O           27.6060    30.6210    23.5880 O.2        2 SER      -0.567900
     18 N           29.7710    30.8870    24.1430 N.am       3 NME      -0.415700
     19 H           30.6560    30.4060    24.2340 H          3 NME       0.271900
     20 CH3         29.7550    32.3450    24.2440 C.3        3 NME      -0.149000
     21 HH31        28.8770    32.6670    24.8080 H          3 NME       0.097600
     22 HH32        30.6550    32.6970    24.7490 H          3 NME       0.097600
     23 HH33        29.7070    32.7810    23.2440 H          3 NME       0.097600
@<TRIPOS>BOND
     1     5     6 2   
     2     5     7 am  
     3     2     3 1   
     4     2     4 1   
     5     2     5 1   
     6     1     2 1   
     7    16    17 2   
     8    16    18 am  
     9    14    15 1   
    10    11    12 1   
    11    11    13 1   
    12    11    14 1   
    13     9    10 1   
    14     9    11 1   
    15     9    16 1   
    16     7     8 1   
    17     7     9 1   
    18    20    21 1   
    19    20    22 1   
    20    20    23 1   
    21    18    19 1   
    22    18    20 1   
@<TRIPOS>SUBSTRUCTURE
     1 ACE         1 TEMP              0 ****  ****    0 ROOT
