@<TRIPOS>MOLECULE
default_name
   26    25     1     0     0
SMALL
No Charge or Current Charge


@<TRIPOS>ATOM
      1 H1          25.7690    25.1000    24.2400 H          1 ACE       0.112300
      2 CH3         25.8640    26.1540    23.9860 C.3        1 ACE      -0.366200
      3 H2          25.2420    26.7540    24.6470 H          1 ACE       0.112300
      4 H3          25.5710    26.3180    22.9510 H          1 ACE       0.112300
      5 C           27.3060    26.5740    24.1590 C.2        1 ACE       0.597200
      6 O           28.1350    25.7460    24.5270 O.2        1 ACE      -0.567900
      7 N           27.5740    27.8510    23.8830 N.am       2 CLE      -0.567900
      8 H           26.8140    28.4590    23.6090 H          2 CLE      -0.567900
      9 CA          28.8530    28.5570    24.0260 C.3        2 CLE      -0.567900
     10 HA          29.3460    28.2280    24.9400 H          2 CLE      -0.567900
     11 CB          29.7400    28.2280    22.8010 C.3        2 CLE      -0.567900
     12 HB2         29.9110    27.1520    22.7740 H          2 CLE      -0.567900
     13 HB3         29.1860    28.5120    21.9060 H          2 CLE      -0.567900
     14 CG          31.0980    28.9500    22.7660 C.3        2 CLE      -0.567900
     15 HG          30.9510    30.0290    22.7480 H          2 CLE      -0.567900
     16 CD1         31.9820    28.5740    23.9550 C.3        2 CLE      -0.567900
     17 HD11        32.0840    27.4920    24.0200 H          2 CLE      -0.567900
     18 HD12        32.9600    29.0400    23.8510 H          2 CLE      -0.567900
     19 HD13        31.5200    28.9510    24.8680 H          2 CLE      -0.567900
     20 CD2         31.8360    28.5500    21.4870 C.3        2 CLE      -0.567900
     21 HD21        31.2330    28.8280    20.6230 H          2 CLE      -0.567900
     22 HD22        32.7870    29.0790    21.4360 H          2 CLE      -0.567900
     23 HD23        32.0110    27.4750    21.4790 H          2 CLE      -0.567900
     24 C           28.5870    30.0640    24.1930 C.2        2 CLE      -0.567900
     25 O           27.5870    30.5240    23.5950 O.co2      2 CLE      -0.567900
     26 OXT         29.3680    30.7030    24.9260 O.co2      2 CLE      -0.567900
@<TRIPOS>BOND
     1     5     6 2   
     2     5     7 am  
     3     2     3 1   
     4     2     4 1   
     5     2     5 1   
     6     1     2 1   
     7    24    25 1   
     8    24    26 1   
     9    20    21 1   
    10    20    22 1   
    11    20    23 1   
    12    16    17 1   
    13    16    18 1   
    14    16    19 1   
    15    14    15 1   
    16    14    16 1   
    17    14    20 1   
    18    11    12 1   
    19    11    13 1   
    20    11    14 1   
    21     9    10 1   
    22     9    11 1   
    23     9    24 1   
    24     7     8 1   
    25     7     9 1   
@<TRIPOS>SUBSTRUCTURE
     1 ACE         1 TEMP              0 ****  ****    0 ROOT
